MODEL 1
REMARK VINA RESULT:      -7.4      0.000      0.000
REMARK  2 active torsions:
REMARK  status: ('A' for Active; 'I' for Inactive)
REMARK    1  A    between atoms: C_3  and  C_7 
REMARK    2  A    between atoms: N_19  and  C_22 
ROOT
ATOM      1  C   LIG d   1       4.296  -1.139  -6.205  0.00  0.00    -0.007 C 
ATOM      2  C   LIG d   1       5.281  -0.461  -6.844  0.00  0.00     0.176 A 
ATOM      3  C   LIG d   1       5.580  -0.511  -8.284  0.00  0.00     0.232 A 
ATOM      4  O   LIG d   1       5.007  -1.157  -9.144  0.00  0.00    -0.283 OA
ATOM      5  C   LIG d   1       6.729   0.397  -8.454  0.00  0.00     0.068 A 
ATOM      6  C   LIG d   1       7.481   0.788  -9.562  0.00  0.00    -0.044 A 
ATOM      7  C   LIG d   1       8.515   1.666  -9.406  0.00  0.00    -0.019 A 
ATOM      8  C   LIG d   1       8.822   2.176  -8.145  0.00  0.00     0.131 A 
ATOM      9  C   LIG d   1       8.082   1.798  -7.038  0.00  0.00     0.054 A 
ATOM     10  C   LIG d   1       7.027   0.903  -7.180  0.00  0.00     0.148 A 
ATOM     11  O   LIG d   1       6.170   0.386  -6.271  0.00  0.00    -0.451 OA
ATOM     12  C   LIG d   1       8.402   2.344  -5.670  0.00  0.00     0.047 C 
ATOM     13  N   LIG d   1       9.756   2.915  -5.671  0.00  0.00    -0.293 NA
ATOM     14  C   LIG d   1       9.924   3.819  -6.822  0.00  0.00     0.157 C 
ATOM     15  O   LIG d   1       9.859   3.046  -8.022  0.00  0.00    -0.473 OA
ATOM     16  H   LIG d   1       3.588  -1.723  -6.774  0.00  0.00     0.066 H 
ATOM     17  H   LIG d   1       7.248   0.395 -10.541  0.00  0.00     0.063 H 
ATOM     18  H   LIG d   1       9.097   1.969 -10.264  0.00  0.00     0.065 H 
ATOM     19  H   LIG d   1       8.349   1.539  -4.936  0.00  0.00     0.052 H 
ATOM     20  H   LIG d   1       7.681   3.119  -5.411  0.00  0.00     0.052 H 
ATOM     21  H   LIG d   1       9.125   4.562  -6.822  0.00  0.00     0.091 H 
ATOM     22  H   LIG d   1      10.891   4.317  -6.758  0.00  0.00     0.091 H 
ENDROOT
BRANCH  13  23
ATOM     23  C   LIG d   1      10.022   3.580  -4.470  0.00  0.00     0.036 A 
ATOM     24  C   LIG d   1       9.583   4.884  -4.285  0.00  0.00     0.005 A 
ATOM     25  C   LIG d   1       9.847   5.543  -3.094  0.00  0.00     0.164 A 
ATOM     26  H   LIG d   1       9.036   5.385  -5.070  0.00  0.00     0.067 H 
ATOM     27  C   LIG d   1      10.549   4.894  -2.085  0.00  0.00     0.162 A 
ATOM     28  O   LIG d   1       9.416   6.823  -2.932  0.00  0.00    -0.485 OA
ATOM     29  C   LIG d   1      10.988   3.593  -2.274  0.00  0.00    -0.015 A 
ATOM     30  O   LIG d   1      10.810   5.522  -0.904  0.00  0.00    -0.485 OA
ATOM     31  C   LIG d   1      10.726   2.936  -3.461  0.00  0.00    -0.037 A 
ATOM     32  H   LIG d   1      11.535   3.090  -1.489  0.00  0.00     0.066 H 
ATOM     33  H   LIG d   1      11.068   1.922  -3.604  0.00  0.00     0.064 H 
ATOM     34  C   LIG d   1      10.687   6.949  -0.894  0.00  0.00     0.124 C 
ATOM     35  C   LIG d   1       9.372   7.321  -1.589  0.00  0.00     0.124 C 
ATOM     36  H   LIG d   1      11.526   7.395  -1.430  0.00  0.00     0.073 H 
ATOM     37  H   LIG d   1      10.675   7.309   0.134  0.00  0.00     0.073 H 
ATOM     38  H   LIG d   1       9.258   8.406  -1.604  0.00  0.00     0.073 H 
ATOM     39  H   LIG d   1       8.533   6.871  -1.058  0.00  0.00     0.073 H 
ENDBRANCH  13  23
BRANCH   1  40
ATOM     40  C   LIG d   1       4.191  -1.077  -4.740  0.00  0.00    -0.003 A 
ATOM     41  C   LIG d   1       3.384  -0.111  -4.122  0.00  0.00    -0.052 A 
ATOM     42  C   LIG d   1       3.317  -0.100  -2.741  0.00  0.00    -0.043 A 
ATOM     43  H   LIG d   1       2.825   0.603  -4.709  0.00  0.00     0.062 H 
ATOM     44  C   LIG d   1       4.051  -1.025  -2.019  0.00  0.00     0.028 A 
ATOM     45  H   LIG d   1       2.701   0.626  -2.230  0.00  0.00     0.063 H 
ATOM     46  N   LIG d   1       4.807  -1.921  -2.626  0.00  0.00    -0.263 NA
ATOM     47  H   LIG d   1       4.002  -1.015  -0.940  0.00  0.00     0.083 H 
ATOM     48  C   LIG d   1       4.902  -1.977  -3.937  0.00  0.00     0.035 A 
ATOM     49  H   LIG d   1       5.532  -2.723  -4.397  0.00  0.00     0.084 H 
ENDBRANCH   1  40
TORSDOF 2
ENDMDL
MODEL 2
REMARK VINA RESULT:      -7.3      2.518      2.990
REMARK  2 active torsions:
REMARK  status: ('A' for Active; 'I' for Inactive)
REMARK    1  A    between atoms: C_3  and  C_7 
REMARK    2  A    between atoms: N_19  and  C_22 
ROOT
ATOM      1  C   LIG d   1       5.850  -2.104  -4.716  0.00  0.00    -0.007 C 
ATOM      2  C   LIG d   1       7.130  -1.759  -5.004  0.00  0.00     0.176 A 
ATOM      3  C   LIG d   1       8.138  -2.615  -5.651  0.00  0.00     0.232 A 
ATOM      4  O   LIG d   1       8.006  -3.763  -6.036  0.00  0.00    -0.283 OA
ATOM      5  C   LIG d   1       9.343  -1.770  -5.728  0.00  0.00     0.068 A 
ATOM      6  C   LIG d   1      10.629  -1.985  -6.226  0.00  0.00    -0.044 A 
ATOM      7  C   LIG d   1      11.560  -0.988  -6.156  0.00  0.00    -0.019 A 
ATOM      8  C   LIG d   1      11.233   0.244  -5.589  0.00  0.00     0.131 A 
ATOM      9  C   LIG d   1       9.960   0.470  -5.093  0.00  0.00     0.054 A 
ATOM     10  C   LIG d   1       9.001  -0.536  -5.156  0.00  0.00     0.148 A 
ATOM     11  O   LIG d   1       7.713  -0.564  -4.747  0.00  0.00    -0.451 OA
ATOM     12  C   LIG d   1       9.593   1.797  -4.481  0.00  0.00     0.047 C 
ATOM     13  N   LIG d   1      10.816   2.539  -4.142  0.00  0.00    -0.293 NA
ATOM     14  C   LIG d   1      11.737   2.550  -5.292  0.00  0.00     0.157 C 
ATOM     15  O   LIG d   1      12.183   1.214  -5.531  0.00  0.00    -0.473 OA
ATOM     16  H   LIG d   1       5.463  -3.058  -5.042  0.00  0.00     0.066 H 
ATOM     17  H   LIG d   1      10.888  -2.936  -6.665  0.00  0.00     0.063 H 
ATOM     18  H   LIG d   1      12.555  -1.154  -6.542  0.00  0.00     0.065 H 
ATOM     19  H   LIG d   1       9.008   1.630  -3.577  0.00  0.00     0.052 H 
ATOM     20  H   LIG d   1       9.003   2.374  -5.194  0.00  0.00     0.052 H 
ATOM     21  H   LIG d   1      11.216   2.926  -6.174  0.00  0.00     0.091 H 
ATOM     22  H   LIG d   1      12.592   3.188  -5.069  0.00  0.00     0.091 H 
ENDROOT
BRANCH  13  23
ATOM     23  C   LIG d   1      10.514   3.841  -3.729  0.00  0.00     0.036 A 
ATOM     24  C   LIG d   1      10.642   4.193  -2.393  0.00  0.00     0.005 A 
ATOM     25  C   LIG d   1      10.342   5.483  -1.983  0.00  0.00     0.164 A 
ATOM     26  H   LIG d   1      10.974   3.461  -1.672  0.00  0.00     0.067 H 
ATOM     27  C   LIG d   1       9.916   6.424  -2.914  0.00  0.00     0.162 A 
ATOM     28  O   LIG d   1      10.465   5.811  -0.668  0.00  0.00    -0.485 OA
ATOM     29  C   LIG d   1       9.787   6.068  -4.248  0.00  0.00    -0.015 A 
ATOM     30  O   LIG d   1       9.625   7.699  -2.532  0.00  0.00    -0.485 OA
ATOM     31  C   LIG d   1      10.085   4.782  -4.656  0.00  0.00    -0.037 A 
ATOM     32  H   LIG d   1       9.455   6.799  -4.971  0.00  0.00     0.066 H 
ATOM     33  H   LIG d   1       9.985   4.509  -5.695  0.00  0.00     0.064 H 
ATOM     34  C   LIG d   1       9.401   7.916  -1.134  0.00  0.00     0.124 C 
ATOM     35  C   LIG d   1      10.516   7.207  -0.355  0.00  0.00     0.124 C 
ATOM     36  H   LIG d   1       8.433   7.505  -0.848  0.00  0.00     0.073 H 
ATOM     37  H   LIG d   1       9.424   8.985  -0.921  0.00  0.00     0.073 H 
ATOM     38  H   LIG d   1      10.363   7.349   0.715  0.00  0.00     0.073 H 
ATOM     39  H   LIG d   1      11.485   7.614  -0.645  0.00  0.00     0.073 H 
ENDBRANCH  13  23
BRANCH   1  40
ATOM     40  C   LIG d   1       4.992  -1.179  -3.962  0.00  0.00    -0.003 A 
ATOM     41  C   LIG d   1       4.937  -1.236  -2.562  0.00  0.00    -0.052 A 
ATOM     42  C   LIG d   1       4.117  -0.340  -1.902  0.00  0.00    -0.043 A 
ATOM     43  H   LIG d   1       5.523  -1.959  -2.013  0.00  0.00     0.062 H 
ATOM     44  C   LIG d   1       3.374   0.569  -2.637  0.00  0.00     0.028 A 
ATOM     45  H   LIG d   1       4.052  -0.351  -0.823  0.00  0.00     0.063 H 
ATOM     46  N   LIG d   1       3.441   0.598  -3.954  0.00  0.00    -0.263 NA
ATOM     47  H   LIG d   1       2.730   1.267  -2.122  0.00  0.00     0.083 H 
ATOM     48  C   LIG d   1       4.209  -0.230  -4.630  0.00  0.00     0.035 A 
ATOM     49  H   LIG d   1       4.236  -0.176  -5.709  0.00  0.00     0.084 H 
ENDBRANCH   1  40
TORSDOF 2
ENDMDL
MODEL 3
REMARK VINA RESULT:      -7.3      6.028     10.021
REMARK  2 active torsions:
REMARK  status: ('A' for Active; 'I' for Inactive)
REMARK    1  A    between atoms: C_3  and  C_7 
REMARK    2  A    between atoms: N_19  and  C_22 
ROOT
ATOM      1  C   LIG d   1       3.305   0.724  -5.949  0.00  0.00    -0.007 C 
ATOM      2  C   LIG d   1       3.148   0.112  -7.149  0.00  0.00     0.176 A 
ATOM      3  C   LIG d   1       2.775   0.763  -8.416  0.00  0.00     0.232 A 
ATOM      4  O   LIG d   1       2.547   1.944  -8.610  0.00  0.00    -0.283 OA
ATOM      5  C   LIG d   1       2.742  -0.336  -9.398  0.00  0.00     0.068 A 
ATOM      6  C   LIG d   1       2.460  -0.387 -10.764  0.00  0.00    -0.044 A 
ATOM      7  C   LIG d   1       2.509  -1.581 -11.424  0.00  0.00    -0.019 A 
ATOM      8  C   LIG d   1       2.840  -2.752 -10.740  0.00  0.00     0.131 A 
ATOM      9  C   LIG d   1       3.123  -2.713  -9.385  0.00  0.00     0.054 A 
ATOM     10  C   LIG d   1       3.076  -1.505  -8.699  0.00  0.00     0.148 A 
ATOM     11  O   LIG d   1       3.304  -1.209  -7.400  0.00  0.00    -0.451 OA
ATOM     12  C   LIG d   1       3.484  -3.970  -8.635  0.00  0.00     0.047 C 
ATOM     13  N   LIG d   1       3.078  -5.146  -9.418  0.00  0.00    -0.293 NA
ATOM     14  C   LIG d   1       3.556  -5.019 -10.806  0.00  0.00     0.157 C 
ATOM     15  O   LIG d   1       2.876  -3.925 -11.424  0.00  0.00    -0.473 OA
ATOM     16  H   LIG d   1       3.237   1.799  -5.880  0.00  0.00     0.066 H 
ATOM     17  H   LIG d   1       2.203   0.515 -11.298  0.00  0.00     0.063 H 
ATOM     18  H   LIG d   1       2.291  -1.621 -12.481  0.00  0.00     0.065 H 
ATOM     19  H   LIG d   1       2.970  -3.980  -7.674  0.00  0.00     0.052 H 
ATOM     20  H   LIG d   1       4.561  -3.997  -8.471  0.00  0.00     0.052 H 
ATOM     21  H   LIG d   1       4.630  -4.831 -10.807  0.00  0.00     0.091 H 
ATOM     22  H   LIG d   1       3.342  -5.939 -11.351  0.00  0.00     0.091 H 
ENDROOT
BRANCH  13  23
ATOM     23  C   LIG d   1       3.549  -6.325  -8.832  0.00  0.00     0.036 A 
ATOM     24  C   LIG d   1       4.129  -6.291  -7.571  0.00  0.00     0.005 A 
ATOM     25  C   LIG d   1       4.596  -7.460  -6.991  0.00  0.00     0.164 A 
ATOM     26  H   LIG d   1       4.217  -5.353  -7.044  0.00  0.00     0.067 H 
ATOM     27  C   LIG d   1       4.480  -8.667  -7.672  0.00  0.00     0.162 A 
ATOM     28  O   LIG d   1       5.169  -7.409  -5.758  0.00  0.00    -0.485 OA
ATOM     29  C   LIG d   1       3.901  -8.696  -8.932  0.00  0.00    -0.015 A 
ATOM     30  O   LIG d   1       4.925  -9.827  -7.114  0.00  0.00    -0.485 OA
ATOM     31  C   LIG d   1       3.436  -7.531  -9.511  0.00  0.00    -0.037 A 
ATOM     32  H   LIG d   1       3.812  -9.634  -9.462  0.00  0.00     0.066 H 
ATOM     33  H   LIG d   1       2.986  -7.558 -10.492  0.00  0.00     0.064 H 
ATOM     34  C   LIG d   1       5.838  -9.705  -6.018  0.00  0.00     0.124 C 
ATOM     35  C   LIG d   1       5.286  -8.649  -5.051  0.00  0.00     0.124 C 
ATOM     36  H   LIG d   1       6.815  -9.392  -6.386  0.00  0.00     0.073 H 
ATOM     37  H   LIG d   1       5.927 -10.662  -5.506  0.00  0.00     0.073 H 
ATOM     38  H   LIG d   1       5.969  -8.529  -4.209  0.00  0.00     0.073 H 
ATOM     39  H   LIG d   1       4.306  -8.958  -4.687  0.00  0.00     0.073 H 
ENDBRANCH  13  23
BRANCH   1  40
ATOM     40  C   LIG d   1       3.567  -0.077  -4.745  0.00  0.00    -0.003 A 
ATOM     41  C   LIG d   1       2.526  -0.407  -3.866  0.00  0.00    -0.052 A 
ATOM     42  C   LIG d   1       2.827  -1.167  -2.750  0.00  0.00    -0.043 A 
ATOM     43  H   LIG d   1       1.514  -0.080  -4.057  0.00  0.00     0.062 H 
ATOM     44  C   LIG d   1       4.135  -1.564  -2.533  0.00  0.00     0.028 A 
ATOM     45  H   LIG d   1       2.050  -1.444  -2.053  0.00  0.00     0.063 H 
ATOM     46  N   LIG d   1       5.097  -1.235  -3.374  0.00  0.00    -0.263 NA
ATOM     47  H   LIG d   1       4.372  -2.154  -1.660  0.00  0.00     0.083 H 
ATOM     48  C   LIG d   1       4.863  -0.518  -4.452  0.00  0.00     0.035 A 
ATOM     49  H   LIG d   1       5.677  -0.268  -5.116  0.00  0.00     0.084 H 
ENDBRANCH   1  40
TORSDOF 2
ENDMDL
MODEL 4
REMARK VINA RESULT:      -7.3      6.364     10.822
REMARK  2 active torsions:
REMARK  status: ('A' for Active; 'I' for Inactive)
REMARK    1  A    between atoms: C_3  and  C_7 
REMARK    2  A    between atoms: N_19  and  C_22 
ROOT
ATOM      1  C   LIG d   1       4.468  -1.779  -6.383  0.00  0.00    -0.007 C 
ATOM      2  C   LIG d   1       4.346  -2.987  -6.987  0.00  0.00     0.176 A 
ATOM      3  C   LIG d   1       3.986  -3.224  -8.395  0.00  0.00     0.232 A 
ATOM      4  O   LIG d   1       3.741  -2.395  -9.253  0.00  0.00    -0.283 OA
ATOM      5  C   LIG d   1       3.992  -4.692  -8.534  0.00  0.00     0.068 A 
ATOM      6  C   LIG d   1       3.738  -5.550  -9.604  0.00  0.00    -0.044 A 
ATOM      7  C   LIG d   1       3.822  -6.901  -9.426  0.00  0.00    -0.019 A 
ATOM      8  C   LIG d   1       4.160  -7.429  -8.179  0.00  0.00     0.131 A 
ATOM      9  C   LIG d   1       4.416  -6.587  -7.110  0.00  0.00     0.054 A 
ATOM     10  C   LIG d   1       4.334  -5.209  -7.275  0.00  0.00     0.148 A 
ATOM     11  O   LIG d   1       4.531  -4.195  -6.404  0.00  0.00    -0.451 OA
ATOM     12  C   LIG d   1       4.785  -7.144  -5.759  0.00  0.00     0.047 C 
ATOM     13  N   LIG d   1       4.416  -8.565  -5.694  0.00  0.00    -0.293 NA
ATOM     14  C   LIG d   1       4.918  -9.274  -6.883  0.00  0.00     0.157 C 
ATOM     15  O   LIG d   1       4.231  -8.778  -8.033  0.00  0.00    -0.473 OA
ATOM     16  H   LIG d   1       4.380  -0.874  -6.966  0.00  0.00     0.066 H 
ATOM     17  H   LIG d   1       3.476  -5.148 -10.571  0.00  0.00     0.063 H 
ATOM     18  H   LIG d   1       3.626  -7.566 -10.254  0.00  0.00     0.065 H 
ATOM     19  H   LIG d   1       4.252  -6.595  -4.982  0.00  0.00     0.052 H 
ATOM     20  H   LIG d   1       5.859  -7.040  -5.605  0.00  0.00     0.052 H 
ATOM     21  H   LIG d   1       5.989  -9.095  -6.990  0.00  0.00     0.091 H 
ATOM     22  H   LIG d   1       4.732 -10.343  -6.778  0.00  0.00     0.091 H 
ENDROOT
BRANCH  13  23
ATOM     23  C   LIG d   1       4.896  -9.155  -4.519  0.00  0.00     0.036 A 
ATOM     24  C   LIG d   1       6.232  -9.017  -4.169  0.00  0.00     0.005 A 
ATOM     25  C   LIG d   1       6.709  -9.602  -3.006  0.00  0.00     0.164 A 
ATOM     26  H   LIG d   1       6.901  -8.455  -4.804  0.00  0.00     0.067 H 
ATOM     27  C   LIG d   1       5.844 -10.324  -2.190  0.00  0.00     0.162 A 
ATOM     28  O   LIG d   1       8.022  -9.465  -2.680  0.00  0.00    -0.485 OA
ATOM     29  C   LIG d   1       4.511 -10.461  -2.544  0.00  0.00    -0.015 A 
ATOM     30  O   LIG d   1       6.292 -10.898  -1.038  0.00  0.00    -0.485 OA
ATOM     31  C   LIG d   1       4.036  -9.878  -3.704  0.00  0.00    -0.037 A 
ATOM     32  H   LIG d   1       3.840 -11.022  -1.910  0.00  0.00     0.066 H 
ATOM     33  H   LIG d   1       2.998  -9.987  -3.976  0.00  0.00     0.064 H 
ATOM     34  C   LIG d   1       7.709 -11.061  -0.909  0.00  0.00     0.124 C 
ATOM     35  C   LIG d   1       8.382  -9.746  -1.322  0.00  0.00     0.124 C 
ATOM     36  H   LIG d   1       8.047 -11.868  -1.559  0.00  0.00     0.073 H 
ATOM     37  H   LIG d   1       7.959 -11.293   0.126  0.00  0.00     0.073 H 
ATOM     38  H   LIG d   1       9.464  -9.846  -1.242  0.00  0.00     0.073 H 
ATOM     39  H   LIG d   1       8.039  -8.937  -0.677  0.00  0.00     0.073 H 
ENDBRANCH  13  23
BRANCH   1  40
ATOM     40  C   LIG d   1       4.721  -1.702  -4.938  0.00  0.00    -0.003 A 
ATOM     41  C   LIG d   1       3.656  -1.678  -4.027  0.00  0.00    -0.052 A 
ATOM     42  C   LIG d   1       3.950  -1.610  -2.677  0.00  0.00    -0.043 A 
ATOM     43  H   LIG d   1       2.632  -1.716  -4.369  0.00  0.00     0.062 H 
ATOM     44  C   LIG d   1       5.273  -1.557  -2.273  0.00  0.00     0.028 A 
ATOM     45  H   LIG d   1       3.155  -1.595  -1.945  0.00  0.00     0.063 H 
ATOM     46  N   LIG d   1       6.256  -1.576  -3.152  0.00  0.00    -0.263 NA
ATOM     47  H   LIG d   1       5.503  -1.500  -1.219  0.00  0.00     0.083 H 
ATOM     48  C   LIG d   1       6.031  -1.644  -4.447  0.00  0.00     0.035 A 
ATOM     49  H   LIG d   1       6.863  -1.656  -5.136  0.00  0.00     0.084 H 
ENDBRANCH   1  40
TORSDOF 2
ENDMDL
MODEL 5
REMARK VINA RESULT:      -7.2      3.518      8.533
REMARK  2 active torsions:
REMARK  status: ('A' for Active; 'I' for Inactive)
REMARK    1  A    between atoms: C_3  and  C_7 
REMARK    2  A    between atoms: N_19  and  C_22 
ROOT
ATOM      1  C   LIG d   1       6.750   0.252  -3.194  0.00  0.00    -0.007 C 
ATOM      2  C   LIG d   1       7.168   0.524  -4.455  0.00  0.00     0.176 A 
ATOM      3  C   LIG d   1       8.473   1.089  -4.837  0.00  0.00     0.232 A 
ATOM      4  O   LIG d   1       9.392   1.407  -4.104  0.00  0.00    -0.283 OA
ATOM      5  C   LIG d   1       8.417   1.184  -6.307  0.00  0.00     0.068 A 
ATOM      6  C   LIG d   1       9.322   1.632  -7.270  0.00  0.00    -0.044 A 
ATOM      7  C   LIG d   1       8.980   1.598  -8.591  0.00  0.00    -0.019 A 
ATOM      8  C   LIG d   1       7.731   1.119  -8.985  0.00  0.00     0.131 A 
ATOM      9  C   LIG d   1       6.824   0.670  -8.039  0.00  0.00     0.054 A 
ATOM     10  C   LIG d   1       7.157   0.698  -6.689  0.00  0.00     0.148 A 
ATOM     11  O   LIG d   1       6.460   0.326  -5.592  0.00  0.00    -0.451 OA
ATOM     12  C   LIG d   1       5.472   0.147  -8.451  0.00  0.00     0.047 C 
ATOM     13  N   LIG d   1       5.173   0.581  -9.823  0.00  0.00    -0.293 NA
ATOM     14  C   LIG d   1       6.314   0.290 -10.707  0.00  0.00     0.157 C 
ATOM     15  O   LIG d   1       7.419   1.103 -10.307  0.00  0.00    -0.473 OA
ATOM     16  H   LIG d   1       7.430   0.371  -2.364  0.00  0.00     0.066 H 
ATOM     17  H   LIG d   1      10.290   2.005  -6.971  0.00  0.00     0.063 H 
ATOM     18  H   LIG d   1       9.681   1.945  -9.337  0.00  0.00     0.065 H 
ATOM     19  H   LIG d   1       4.711   0.535  -7.774  0.00  0.00     0.052 H 
ATOM     20  H   LIG d   1       5.476  -0.942  -8.407  0.00  0.00     0.052 H 
ATOM     21  H   LIG d   1       6.584  -0.764 -10.620  0.00  0.00     0.091 H 
ATOM     22  H   LIG d   1       6.045   0.518 -11.738  0.00  0.00     0.091 H 
ENDROOT
BRANCH  13  23
ATOM     23  C   LIG d   1       4.004  -0.025 -10.297  0.00  0.00     0.036 A 
ATOM     24  C   LIG d   1       3.953  -0.516 -11.594  0.00  0.00     0.005 A 
ATOM     25  C   LIG d   1       2.795  -1.116 -12.064  0.00  0.00     0.164 A 
ATOM     26  H   LIG d   1       4.817  -0.429 -12.238  0.00  0.00     0.067 H 
ATOM     27  C   LIG d   1       1.687  -1.227 -11.233  0.00  0.00     0.162 A 
ATOM     28  O   LIG d   1       2.759  -1.585 -13.341  0.00  0.00    -0.485 OA
ATOM     29  C   LIG d   1       1.741  -0.734  -9.938  0.00  0.00    -0.015 A 
ATOM     30  O   LIG d   1       0.543  -1.822 -11.674  0.00  0.00    -0.485 OA
ATOM     31  C   LIG d   1       2.894  -0.136  -9.470  0.00  0.00    -0.037 A 
ATOM     32  H   LIG d   1       0.878  -0.820  -9.293  0.00  0.00     0.066 H 
ATOM     33  H   LIG d   1       2.933   0.247  -8.461  0.00  0.00     0.064 H 
ATOM     34  C   LIG d   1       0.397  -1.963 -13.092  0.00  0.00     0.124 C 
ATOM     35  C   LIG d   1       1.713  -2.512 -13.656  0.00  0.00     0.124 C 
ATOM     36  H   LIG d   1       0.181  -0.992 -13.538  0.00  0.00     0.073 H 
ATOM     37  H   LIG d   1      -0.415  -2.656 -13.310  0.00  0.00     0.073 H 
ATOM     38  H   LIG d   1       1.632  -2.620 -14.738  0.00  0.00     0.073 H 
ATOM     39  H   LIG d   1       1.933  -3.480 -13.206  0.00  0.00     0.073 H 
ENDBRANCH  13  23
BRANCH   1  40
ATOM     40  C   LIG d   1       5.373  -0.204  -2.959  0.00  0.00    -0.003 A 
ATOM     41  C   LIG d   1       5.102  -1.557  -2.708  0.00  0.00    -0.052 A 
ATOM     42  C   LIG d   1       3.790  -1.933  -2.488  0.00  0.00    -0.043 A 
ATOM     43  H   LIG d   1       5.898  -2.287  -2.683  0.00  0.00     0.062 H 
ATOM     44  C   LIG d   1       2.793  -0.973  -2.533  0.00  0.00     0.028 A 
ATOM     45  H   LIG d   1       3.543  -2.965  -2.287  0.00  0.00     0.063 H 
ATOM     46  N   LIG d   1       3.075   0.293  -2.776  0.00  0.00    -0.263 NA
ATOM     47  H   LIG d   1       1.767  -1.265  -2.365  0.00  0.00     0.083 H 
ATOM     48  C   LIG d   1       4.308   0.703  -2.987  0.00  0.00     0.035 A 
ATOM     49  H   LIG d   1       4.498   1.748  -3.184  0.00  0.00     0.084 H 
ENDBRANCH   1  40
TORSDOF 2
ENDMDL
MODEL 6
REMARK VINA RESULT:      -7.0      7.110     11.212
REMARK  2 active torsions:
REMARK  status: ('A' for Active; 'I' for Inactive)
REMARK    1  A    between atoms: C_3  and  C_7 
REMARK    2  A    between atoms: N_19  and  C_22 
ROOT
ATOM      1  C   LIG d   1      11.766   9.573   1.091  0.00  0.00    -0.007 C 
ATOM      2  C   LIG d   1      11.281  10.448   0.176  0.00  0.00     0.176 A 
ATOM      3  C   LIG d   1      10.955  11.864   0.413  0.00  0.00     0.232 A 
ATOM      4  O   LIG d   1      11.062  12.491   1.452  0.00  0.00    -0.283 OA
ATOM      5  C   LIG d   1      10.473  12.354  -0.891  0.00  0.00     0.068 A 
ATOM      6  C   LIG d   1      10.014  13.595  -1.334  0.00  0.00    -0.044 A 
ATOM      7  C   LIG d   1       9.623  13.750  -2.633  0.00  0.00    -0.019 A 
ATOM      8  C   LIG d   1       9.679  12.675  -3.520  0.00  0.00     0.131 A 
ATOM      9  C   LIG d   1      10.135  11.439  -3.093  0.00  0.00     0.054 A 
ATOM     10  C   LIG d   1      10.536  11.264  -1.773  0.00  0.00     0.148 A 
ATOM     11  O   LIG d   1      11.007  10.178  -1.122  0.00  0.00    -0.451 OA
ATOM     12  C   LIG d   1      10.203  10.270  -4.042  0.00  0.00     0.047 C 
ATOM     13  N   LIG d   1       9.371  10.543  -5.222  0.00  0.00    -0.293 NA
ATOM     14  C   LIG d   1       9.680  11.878  -5.762  0.00  0.00     0.157 C 
ATOM     15  O   LIG d   1       9.279  12.861  -4.806  0.00  0.00    -0.473 OA
ATOM     16  H   LIG d   1      12.028   9.918   2.081  0.00  0.00     0.066 H 
ATOM     17  H   LIG d   1       9.967  14.430  -0.652  0.00  0.00     0.063 H 
ATOM     18  H   LIG d   1       9.267  14.711  -2.976  0.00  0.00     0.065 H 
ATOM     19  H   LIG d   1       9.838   9.374  -3.541  0.00  0.00     0.052 H 
ATOM     20  H   LIG d   1      11.237  10.117  -4.353  0.00  0.00     0.052 H 
ATOM     21  H   LIG d   1      10.753  11.960  -5.943  0.00  0.00     0.091 H 
ATOM     22  H   LIG d   1       9.136  12.031  -6.694  0.00  0.00     0.091 H 
ENDROOT
BRANCH  13  23
ATOM     23  C   LIG d   1       9.545   9.556  -6.198  0.00  0.00     0.036 A 
ATOM     24  C   LIG d   1       9.903   9.912  -7.491  0.00  0.00     0.005 A 
ATOM     25  C   LIG d   1      10.074   8.934  -8.458  0.00  0.00     0.164 A 
ATOM     26  H   LIG d   1      10.048  10.952  -7.743  0.00  0.00     0.067 H 
ATOM     27  C   LIG d   1       9.889   7.595  -8.129  0.00  0.00     0.162 A 
ATOM     28  O   LIG d   1      10.418   9.299  -9.722  0.00  0.00    -0.485 OA
ATOM     29  C   LIG d   1       9.529   7.244  -6.837  0.00  0.00    -0.015 A 
ATOM     30  O   LIG d   1      10.062   6.619  -9.064  0.00  0.00    -0.485 OA
ATOM     31  C   LIG d   1       9.358   8.219  -5.873  0.00  0.00    -0.037 A 
ATOM     32  H   LIG d   1       9.384   6.204  -6.583  0.00  0.00     0.066 H 
ATOM     33  H   LIG d   1       9.078   7.941  -4.869  0.00  0.00     0.064 H 
ATOM     34  C   LIG d   1      10.051   7.032 -10.435  0.00  0.00     0.124 C 
ATOM     35  C   LIG d   1      10.946   8.271 -10.569  0.00  0.00     0.124 C 
ATOM     36  H   LIG d   1       9.033   7.278 -10.737  0.00  0.00     0.073 H 
ATOM     37  H   LIG d   1      10.437   6.229 -11.063  0.00  0.00     0.073 H 
ATOM     38  H   LIG d   1      10.947   8.612 -11.604  0.00  0.00     0.073 H 
ATOM     39  H   LIG d   1      11.962   8.027 -10.261  0.00  0.00     0.073 H 
ENDBRANCH  13  23
BRANCH   1  40
ATOM     40  C   LIG d   1      11.934   8.157   0.737  0.00  0.00    -0.003 A 
ATOM     41  C   LIG d   1      10.973   7.207   1.111  0.00  0.00    -0.052 A 
ATOM     42  C   LIG d   1      11.178   5.889   0.747  0.00  0.00    -0.043 A 
ATOM     43  H   LIG d   1      10.092   7.498   1.665  0.00  0.00     0.062 H 
ATOM     44  C   LIG d   1      12.320   5.549   0.042  0.00  0.00     0.028 A 
ATOM     45  H   LIG d   1      10.457   5.130   1.013  0.00  0.00     0.063 H 
ATOM     46  N   LIG d   1      13.212   6.463  -0.293  0.00  0.00    -0.263 NA
ATOM     47  H   LIG d   1      12.484   4.520  -0.239  0.00  0.00     0.083 H 
ATOM     48  C   LIG d   1      13.062   7.731   0.024  0.00  0.00     0.035 A 
ATOM     49  H   LIG d   1      13.815   8.449  -0.267  0.00  0.00     0.084 H 
ENDBRANCH   1  40
TORSDOF 2
ENDMDL
MODEL 7
REMARK VINA RESULT:      -6.9      3.843      7.034
REMARK  2 active torsions:
REMARK  status: ('A' for Active; 'I' for Inactive)
REMARK    1  A    between atoms: C_3  and  C_7 
REMARK    2  A    between atoms: N_19  and  C_22 
ROOT
ATOM      1  C   LIG d   1       9.776   6.373  -9.436  0.00  0.00    -0.007 C 
ATOM      2  C   LIG d   1       9.622   5.373  -8.533  0.00  0.00     0.176 A 
ATOM      3  C   LIG d   1       9.151   4.008  -8.818  0.00  0.00     0.232 A 
ATOM      4  O   LIG d   1       8.822   3.541  -9.894  0.00  0.00    -0.283 OA
ATOM      5  C   LIG d   1       9.168   3.332  -7.508  0.00  0.00     0.068 A 
ATOM      6  C   LIG d   1       8.839   2.040  -7.097  0.00  0.00    -0.044 A 
ATOM      7  C   LIG d   1       8.958   1.695  -5.781  0.00  0.00    -0.019 A 
ATOM      8  C   LIG d   1       9.406   2.628  -4.845  0.00  0.00     0.131 A 
ATOM      9  C   LIG d   1       9.737   3.912  -5.242  0.00  0.00     0.054 A 
ATOM     10  C   LIG d   1       9.621   4.279  -6.578  0.00  0.00     0.148 A 
ATOM     11  O   LIG d   1       9.874   5.450  -7.205  0.00  0.00    -0.451 OA
ATOM     12  C   LIG d   1      10.225   4.929  -4.241  0.00  0.00     0.047 C 
ATOM     13  N   LIG d   1       9.885   4.485  -2.882  0.00  0.00    -0.293 NA
ATOM     14  C   LIG d   1      10.298   3.085  -2.687  0.00  0.00     0.157 C 
ATOM     15  O   LIG d   1       9.510   2.255  -3.542  0.00  0.00    -0.473 OA
ATOM     16  H   LIG d   1       9.626   6.178 -10.488  0.00  0.00     0.066 H 
ATOM     17  H   LIG d   1       8.491   1.314  -7.816  0.00  0.00     0.063 H 
ATOM     18  H   LIG d   1       8.704   0.695  -5.462  0.00  0.00     0.065 H 
ATOM     19  H   LIG d   1       9.751   5.889  -4.439  0.00  0.00     0.052 H 
ATOM     20  H   LIG d   1      11.307   5.033  -4.329  0.00  0.00     0.052 H 
ATOM     21  H   LIG d   1      11.353   2.976  -2.941  0.00  0.00     0.091 H 
ATOM     22  H   LIG d   1      10.137   2.797  -1.648  0.00  0.00     0.091 H 
ENDROOT
BRANCH  13  23
ATOM     23  C   LIG d   1      10.470   5.318  -1.922  0.00  0.00     0.036 A 
ATOM     24  C   LIG d   1      10.103   6.655  -1.846  0.00  0.00     0.005 A 
ATOM     25  C   LIG d   1      10.683   7.480  -0.895  0.00  0.00     0.164 A 
ATOM     26  H   LIG d   1       9.367   7.052  -2.529  0.00  0.00     0.067 H 
ATOM     27  C   LIG d   1      11.631   6.966  -0.017  0.00  0.00     0.162 A 
ATOM     28  O   LIG d   1      10.319   8.790  -0.838  0.00  0.00    -0.485 OA
ATOM     29  C   LIG d   1      11.995   5.631  -0.097  0.00  0.00    -0.015 A 
ATOM     30  O   LIG d   1      12.205   7.760   0.930  0.00  0.00    -0.485 OA
ATOM     31  C   LIG d   1      11.418   4.808  -1.045  0.00  0.00    -0.037 A 
ATOM     32  H   LIG d   1      12.732   5.232   0.585  0.00  0.00     0.066 H 
ATOM     33  H   LIG d   1      11.704   3.769  -1.104  0.00  0.00     0.064 H 
ATOM     34  C   LIG d   1      12.096   9.174   0.736  0.00  0.00     0.124 C 
ATOM     35  C   LIG d   1      10.643   9.496   0.365  0.00  0.00     0.124 C 
ATOM     36  H   LIG d   1      12.760   9.487  -0.070  0.00  0.00     0.073 H 
ATOM     37  H   LIG d   1      12.366   9.693   1.656  0.00  0.00     0.073 H 
ATOM     38  H   LIG d   1      10.535  10.569   0.201  0.00  0.00     0.073 H 
ATOM     39  H   LIG d   1       9.978   9.178   1.168  0.00  0.00     0.073 H 
ENDBRANCH  13  23
BRANCH   1  40
ATOM     40  C   LIG d   1      10.147   7.721  -8.984  0.00  0.00    -0.003 A 
ATOM     41  C   LIG d   1      11.447   8.208  -9.181  0.00  0.00    -0.052 A 
ATOM     42  C   LIG d   1      11.742   9.486  -8.740  0.00  0.00    -0.043 A 
ATOM     43  H   LIG d   1      12.198   7.604  -9.668  0.00  0.00     0.062 H 
ATOM     44  C   LIG d   1      10.758  10.231  -8.114  0.00  0.00     0.028 A 
ATOM     45  H   LIG d   1      12.731   9.897  -8.879  0.00  0.00     0.063 H 
ATOM     46  N   LIG d   1       9.543   9.747  -7.937  0.00  0.00    -0.263 NA
ATOM     47  H   LIG d   1      10.988  11.228  -7.767  0.00  0.00     0.083 H 
ATOM     48  C   LIG d   1       9.210   8.540  -8.342  0.00  0.00     0.035 A 
ATOM     49  H   LIG d   1       8.205   8.178  -8.177  0.00  0.00     0.084 H 
ENDBRANCH   1  40
TORSDOF 2
ENDMDL
MODEL 8
REMARK VINA RESULT:      -6.9      5.157      9.953
REMARK  2 active torsions:
REMARK  status: ('A' for Active; 'I' for Inactive)
REMARK    1  A    between atoms: C_3  and  C_7 
REMARK    2  A    between atoms: N_19  and  C_22 
ROOT
ATOM      1  C   LIG d   1       9.818   9.568  -1.447  0.00  0.00    -0.007 C 
ATOM      2  C   LIG d   1       9.885   8.336  -2.012  0.00  0.00     0.176 A 
ATOM      3  C   LIG d   1       9.933   7.051  -1.295  0.00  0.00     0.232 A 
ATOM      4  O   LIG d   1       9.922   6.867  -0.091  0.00  0.00    -0.283 OA
ATOM      5  C   LIG d   1       9.998   6.037  -2.363  0.00  0.00     0.068 A 
ATOM      6  C   LIG d   1      10.064   4.643  -2.352  0.00  0.00    -0.044 A 
ATOM      7  C   LIG d   1      10.116   3.956  -3.531  0.00  0.00    -0.019 A 
ATOM      8  C   LIG d   1      10.105   4.640  -4.747  0.00  0.00     0.131 A 
ATOM      9  C   LIG d   1      10.038   6.023  -4.770  0.00  0.00     0.054 A 
ATOM     10  C   LIG d   1       9.985   6.737  -3.578  0.00  0.00     0.148 A 
ATOM     11  O   LIG d   1       9.919   8.066  -3.338  0.00  0.00    -0.451 OA
ATOM     12  C   LIG d   1      10.022   6.775  -6.077  0.00  0.00     0.047 C 
ATOM     13  N   LIG d   1      10.494   5.896  -7.157  0.00  0.00    -0.293 NA
ATOM     14  C   LIG d   1       9.787   4.604  -7.105  0.00  0.00     0.157 C 
ATOM     15  O   LIG d   1      10.162   3.929  -5.903  0.00  0.00    -0.473 OA
ATOM     16  H   LIG d   1       9.710   9.664  -0.377  0.00  0.00     0.066 H 
ATOM     17  H   LIG d   1      10.074   4.108  -1.414  0.00  0.00     0.063 H 
ATOM     18  H   LIG d   1      10.167   2.878  -3.523  0.00  0.00     0.065 H 
ATOM     19  H   LIG d   1      10.677   7.643  -6.005  0.00  0.00     0.052 H 
ATOM     20  H   LIG d   1       9.006   7.103  -6.294  0.00  0.00     0.052 H 
ATOM     21  H   LIG d   1       8.710   4.777  -7.107  0.00  0.00     0.091 H 
ATOM     22  H   LIG d   1      10.066   4.000  -7.967  0.00  0.00     0.091 H 
ENDROOT
BRANCH  13  23
ATOM     23  C   LIG d   1      10.332   6.505  -8.406  0.00  0.00     0.036 A 
ATOM     24  C   LIG d   1       9.855   5.769  -9.482  0.00  0.00     0.005 A 
ATOM     25  C   LIG d   1       9.697   6.372 -10.720  0.00  0.00     0.164 A 
ATOM     26  H   LIG d   1       9.609   4.725  -9.354  0.00  0.00     0.067 H 
ATOM     27  C   LIG d   1      10.013   7.716 -10.880  0.00  0.00     0.162 A 
ATOM     28  O   LIG d   1       9.235   5.635 -11.766  0.00  0.00    -0.485 OA
ATOM     29  C   LIG d   1      10.491   8.448  -9.804  0.00  0.00    -0.015 A 
ATOM     30  O   LIG d   1       9.855   8.329 -12.087  0.00  0.00    -0.485 OA
ATOM     31  C   LIG d   1      10.650   7.847  -8.570  0.00  0.00    -0.037 A 
ATOM     32  H   LIG d   1      10.737   9.492  -9.930  0.00  0.00     0.066 H 
ATOM     33  H   LIG d   1      11.022   8.420  -7.735  0.00  0.00     0.064 H 
ATOM     34  C   LIG d   1       9.735   7.475 -13.231  0.00  0.00     0.124 C 
ATOM     35  C   LIG d   1       8.735   6.362 -12.894  0.00  0.00     0.124 C 
ATOM     36  H   LIG d   1      10.705   7.040 -13.469  0.00  0.00     0.073 H 
ATOM     37  H   LIG d   1       9.372   8.051 -14.082  0.00  0.00     0.073 H 
ATOM     38  H   LIG d   1       8.632   5.690 -13.747  0.00  0.00     0.073 H 
ATOM     39  H   LIG d   1       7.766   6.797 -12.651  0.00  0.00     0.073 H 
ENDBRANCH  13  23
BRANCH   1  40
ATOM     40  C   LIG d   1       9.892  10.768  -2.292  0.00  0.00    -0.003 A 
ATOM     41  C   LIG d   1      11.130  11.351  -2.597  0.00  0.00    -0.052 A 
ATOM     42  C   LIG d   1      11.143  12.477  -3.400  0.00  0.00    -0.043 A 
ATOM     43  H   LIG d   1      12.050  10.930  -2.219  0.00  0.00     0.062 H 
ATOM     44  C   LIG d   1       9.945  12.995  -3.863  0.00  0.00     0.028 A 
ATOM     45  H   LIG d   1      12.078  12.951  -3.661  0.00  0.00     0.063 H 
ATOM     46  N   LIG d   1       8.793  12.429  -3.556  0.00  0.00    -0.263 NA
ATOM     47  H   LIG d   1       9.954  13.876  -4.487  0.00  0.00     0.083 H 
ATOM     48  C   LIG d   1       8.726  11.354  -2.800  0.00  0.00     0.035 A 
ATOM     49  H   LIG d   1       7.764  10.920  -2.569  0.00  0.00     0.084 H 
ENDBRANCH   1  40
TORSDOF 2
ENDMDL
MODEL 9
REMARK VINA RESULT:      -6.8      6.086      8.984
REMARK  2 active torsions:
REMARK  status: ('A' for Active; 'I' for Inactive)
REMARK    1  A    between atoms: C_3  and  C_7 
REMARK    2  A    between atoms: N_19  and  C_22 
ROOT
ATOM      1  C   LIG d   1       5.515 -10.652  -4.993  0.00  0.00    -0.007 C 
ATOM      2  C   LIG d   1       5.107  -9.715  -5.883  0.00  0.00     0.176 A 
ATOM      3  C   LIG d   1       4.538  -9.969  -7.217  0.00  0.00     0.232 A 
ATOM      4  O   LIG d   1       4.336 -11.046  -7.749  0.00  0.00    -0.283 OA
ATOM      5  C   LIG d   1       4.268  -8.627  -7.763  0.00  0.00     0.068 A 
ATOM      6  C   LIG d   1       3.735  -8.179  -8.973  0.00  0.00    -0.044 A 
ATOM      7  C   LIG d   1       3.602  -6.840  -9.202  0.00  0.00    -0.019 A 
ATOM      8  C   LIG d   1       3.996  -5.916  -8.234  0.00  0.00     0.131 A 
ATOM      9  C   LIG d   1       4.525  -6.349  -7.029  0.00  0.00     0.054 A 
ATOM     10  C   LIG d   1       4.668  -7.710  -6.781  0.00  0.00     0.148 A 
ATOM     11  O   LIG d   1       5.149  -8.373  -5.706  0.00  0.00    -0.451 OA
ATOM     12  C   LIG d   1       4.953  -5.361  -5.973  0.00  0.00     0.047 C 
ATOM     13  N   LIG d   1       5.107  -4.030  -6.577  0.00  0.00    -0.293 NA
ATOM     14  C   LIG d   1       3.918  -3.697  -7.380  0.00  0.00     0.157 C 
ATOM     15  O   LIG d   1       3.855  -4.590  -8.494  0.00  0.00    -0.473 OA
ATOM     16  H   LIG d   1       5.358 -11.700  -5.203  0.00  0.00     0.066 H 
ATOM     17  H   LIG d   1       3.428  -8.889  -9.726  0.00  0.00     0.063 H 
ATOM     18  H   LIG d   1       3.189  -6.493 -10.138  0.00  0.00     0.065 H 
ATOM     19  H   LIG d   1       5.903  -5.677  -5.545  0.00  0.00     0.052 H 
ATOM     20  H   LIG d   1       4.197  -5.320  -5.189  0.00  0.00     0.052 H 
ATOM     21  H   LIG d   1       3.021  -3.809  -6.769  0.00  0.00     0.091 H 
ATOM     22  H   LIG d   1       3.994  -2.670  -7.738  0.00  0.00     0.091 H 
ENDROOT
BRANCH  13  23
ATOM     23  C   LIG d   1       5.338  -3.059  -5.597  0.00  0.00     0.036 A 
ATOM     24  C   LIG d   1       4.477  -1.976  -5.475  0.00  0.00     0.005 A 
ATOM     25  C   LIG d   1       4.706  -1.013  -4.505  0.00  0.00     0.164 A 
ATOM     26  H   LIG d   1       3.629  -1.884  -6.138  0.00  0.00     0.067 H 
ATOM     27  C   LIG d   1       5.798  -1.135  -3.652  0.00  0.00     0.162 A 
ATOM     28  O   LIG d   1       3.858   0.046  -4.404  0.00  0.00    -0.485 OA
ATOM     29  C   LIG d   1       6.656  -2.217  -3.778  0.00  0.00    -0.015 A 
ATOM     30  O   LIG d   1       6.034  -0.204  -2.687  0.00  0.00    -0.485 OA
ATOM     31  C   LIG d   1       6.428  -3.176  -4.746  0.00  0.00    -0.037 A 
ATOM     32  H   LIG d   1       7.505  -2.311  -3.116  0.00  0.00     0.066 H 
ATOM     33  H   LIG d   1       7.098  -4.017  -4.840  0.00  0.00     0.064 H 
ATOM     34  C   LIG d   1       5.375   1.059  -2.835  0.00  0.00     0.124 C 
ATOM     35  C   LIG d   1       3.904   0.792  -3.182  0.00  0.00     0.124 C 
ATOM     36  H   LIG d   1       5.845   1.628  -3.638  0.00  0.00     0.073 H 
ATOM     37  H   LIG d   1       5.438   1.618  -1.902  0.00  0.00     0.073 H 
ATOM     38  H   LIG d   1       3.380   1.739  -3.310  0.00  0.00     0.073 H 
ATOM     39  H   LIG d   1       3.435   0.218  -2.383  0.00  0.00     0.073 H 
ENDBRANCH  13  23
BRANCH   1  40
ATOM     40  C   LIG d   1       6.171 -10.243  -3.742  0.00  0.00    -0.003 A 
ATOM     41  C   LIG d   1       7.401  -9.572  -3.768  0.00  0.00    -0.052 A 
ATOM     42  C   LIG d   1       7.972  -9.205  -2.563  0.00  0.00    -0.043 A 
ATOM     43  H   LIG d   1       7.890  -9.344  -4.704  0.00  0.00     0.062 H 
ATOM     44  C   LIG d   1       7.323  -9.519  -1.381  0.00  0.00     0.028 A 
ATOM     45  H   LIG d   1       8.918  -8.682  -2.543  0.00  0.00     0.063 H 
ATOM     46  N   LIG d   1       6.167 -10.156  -1.386  0.00  0.00    -0.263 NA
ATOM     47  H   LIG d   1       7.769  -9.236  -0.439  0.00  0.00     0.083 H 
ATOM     48  C   LIG d   1       5.580 -10.523  -2.504  0.00  0.00     0.035 A 
ATOM     49  H   LIG d   1       4.634 -11.044  -2.467  0.00  0.00     0.084 H 
ENDBRANCH   1  40
TORSDOF 2
ENDMDL
