MODEL 1
REMARK VINA RESULT:      -7.4      0.000      0.000
REMARK  5 active torsions:
REMARK  status: ('A' for Active; 'I' for Inactive)
REMARK    1  A    between atoms: C_1  and  O_2 
REMARK    2  A    between atoms: O_2  and  C_3 
REMARK    3  A    between atoms: C_6  and  N_9 
REMARK    4  A    between atoms: N_9  and  C_10 
REMARK    5  A    between atoms: C_12  and  C_20 
ROOT
ATOM      1  C   LIG d   1       4.455  -0.926  -5.828  0.00  0.00     0.221 A 
ATOM      2  C   LIG d   1       4.581  -2.256  -6.312  0.00  0.00     0.053 A 
ATOM      3  C   LIG d   1       4.634  -3.286  -5.430  0.00  0.00     0.142 A 
ATOM      4  O   LIG d   1       4.573  -3.102  -4.099  0.00  0.00    -0.454 OA
ATOM      5  C   LIG d   1       4.453  -1.877  -3.542  0.00  0.00     0.142 A 
ATOM      6  C   LIG d   1       4.395  -0.740  -4.361  0.00  0.00     0.088 A 
ATOM      7  C   LIG d   1       4.278   0.526  -3.797  0.00  0.00    -0.045 A 
ATOM      8  C   LIG d   1       4.225   0.657  -2.424  0.00  0.00    -0.061 A 
ATOM      9  C   LIG d   1       4.288  -0.465  -1.612  0.00  0.00    -0.058 A 
ATOM     10  C   LIG d   1       4.394  -1.726  -2.163  0.00  0.00    -0.018 A 
ATOM     11  H   LIG d   1       4.633  -2.446  -7.374  0.00  0.00     0.072 H 
ATOM     12  H   LIG d   1       4.228   1.400  -4.428  0.00  0.00     0.063 H 
ATOM     13  H   LIG d   1       4.133   1.637  -1.981  0.00  0.00     0.062 H 
ATOM     14  H   LIG d   1       4.246  -0.351  -0.540  0.00  0.00     0.062 H 
ATOM     15  H   LIG d   1       4.441  -2.594  -1.522  0.00  0.00     0.065 H 
ENDROOT
BRANCH   1  16
ATOM     16  N   LIG d   1       4.400   0.105  -6.655  0.00  0.00    -0.204 N 
ATOM     17  H   LIG d   1       4.737   0.971  -6.375  0.00  0.00     0.454 HD
BRANCH  16  18
ATOM     18  C   LIG d   1       3.870  -0.049  -7.904  0.00  0.00     0.207 A 
ATOM     19  C   LIG d   1       4.703  -0.024  -9.027  0.00  0.00     0.013 A 
ATOM     20  C   LIG d   1       4.163  -0.181 -10.286  0.00  0.00    -0.014 A 
ATOM     21  H   LIG d   1       5.768   0.117  -8.909  0.00  0.00     0.068 H 
ATOM     22  C   LIG d   1       2.795  -0.362 -10.440  0.00  0.00     0.120 A 
ATOM     23  H   LIG d   1       4.805  -0.162 -11.154  0.00  0.00     0.066 H 
ATOM     24  C   LIG d   1       1.964  -0.381  -9.328  0.00  0.00    -0.014 A 
ATOM     25  C   LIG d   1       2.494  -0.232  -8.064  0.00  0.00     0.013 A 
ATOM     26  H   LIG d   1       0.899  -0.519  -9.454  0.00  0.00     0.066 H 
ATOM     27  H   LIG d   1       1.846  -0.252  -7.200  0.00  0.00     0.068 H 
BRANCH  22  28
ATOM     28  O   LIG d   1       2.268  -0.516 -11.683  0.00  0.00    -0.495 OA
BRANCH  28  29
ATOM     29  C   LIG d   1       1.112  -1.348 -11.799  0.00  0.00     0.079 C 
ATOM     30  H   LIG d   1       1.346  -2.346 -11.429  0.00  0.00     0.066 H 
ATOM     31  H   LIG d   1       0.299  -0.925 -11.211  0.00  0.00     0.066 H 
ATOM     32  H   LIG d   1       0.811  -1.409 -12.845  0.00  0.00     0.066 H 
ENDBRANCH  28  29
ENDBRANCH  22  28
ENDBRANCH  16  18
ENDBRANCH   1  16
BRANCH   3  33
ATOM     33  C   LIG d   1       4.763  -4.659  -5.951  0.00  0.00     0.021 A 
ATOM     34  C   LIG d   1       3.911  -5.106  -6.966  0.00  0.00    -0.005 A 
ATOM     35  C   LIG d   1       4.038  -6.392  -7.455  0.00  0.00     0.167 A 
ATOM     36  H   LIG d   1       3.158  -4.445  -7.369  0.00  0.00     0.066 H 
ATOM     37  C   LIG d   1       5.009  -7.245  -6.929  0.00  0.00     0.166 A 
ATOM     38  O   LIG d   1       3.351  -7.060  -8.426  0.00  0.00    -0.453 OA
ATOM     39  C   LIG d   1       5.851  -6.802  -5.917  0.00  0.00    -0.015 A 
ATOM     40  O   LIG d   1       4.926  -8.446  -7.571  0.00  0.00    -0.453 OA
ATOM     41  C   LIG d   1       5.733  -5.519  -5.429  0.00  0.00    -0.047 A 
ATOM     42  H   LIG d   1       6.600  -7.466  -5.513  0.00  0.00     0.066 H 
ATOM     43  H   LIG d   1       6.390  -5.178  -4.642  0.00  0.00     0.063 H 
ATOM     44  C   LIG d   1       4.175  -8.190  -8.773  0.00  0.00     0.233 C 
ATOM     45  H   LIG d   1       3.557  -9.050  -9.028  0.00  0.00     0.117 H 
ATOM     46  H   LIG d   1       4.843  -7.937  -9.595  0.00  0.00     0.117 H 
ENDBRANCH   3  33
TORSDOF 5
ENDMDL
MODEL 2
REMARK VINA RESULT:      -7.2      1.635      5.858
REMARK  5 active torsions:
REMARK  status: ('A' for Active; 'I' for Inactive)
REMARK    1  A    between atoms: C_1  and  O_2 
REMARK    2  A    between atoms: O_2  and  C_3 
REMARK    3  A    between atoms: C_6  and  N_9 
REMARK    4  A    between atoms: N_9  and  C_10 
REMARK    5  A    between atoms: C_12  and  C_20 
ROOT
ATOM      1  C   LIG d   1       5.300  -1.638  -4.912  0.00  0.00     0.221 A 
ATOM      2  C   LIG d   1       4.815  -1.563  -6.246  0.00  0.00     0.053 A 
ATOM      3  C   LIG d   1       3.890  -0.625  -6.568  0.00  0.00     0.142 A 
ATOM      4  O   LIG d   1       3.404   0.251  -5.671  0.00  0.00    -0.454 OA
ATOM      5  C   LIG d   1       3.803   0.260  -4.380  0.00  0.00     0.142 A 
ATOM      6  C   LIG d   1       4.752  -0.671  -3.935  0.00  0.00     0.088 A 
ATOM      7  C   LIG d   1       5.164  -0.673  -2.607  0.00  0.00    -0.045 A 
ATOM      8  C   LIG d   1       4.629   0.245  -1.726  0.00  0.00    -0.061 A 
ATOM      9  C   LIG d   1       3.686   1.163  -2.162  0.00  0.00    -0.058 A 
ATOM     10  C   LIG d   1       3.279   1.180  -3.481  0.00  0.00    -0.018 A 
ATOM     11  H   LIG d   1       5.180  -2.248  -6.997  0.00  0.00     0.072 H 
ATOM     12  H   LIG d   1       5.898  -1.388  -2.266  0.00  0.00     0.063 H 
ATOM     13  H   LIG d   1       4.946   0.248  -0.694  0.00  0.00     0.062 H 
ATOM     14  H   LIG d   1       3.274   1.876  -1.465  0.00  0.00     0.062 H 
ATOM     15  H   LIG d   1       2.545   1.900  -3.810  0.00  0.00     0.065 H 
ENDROOT
BRANCH   1  16
ATOM     16  N   LIG d   1       6.202  -2.539  -4.557  0.00  0.00    -0.204 N 
ATOM     17  H   LIG d   1       6.962  -2.278  -4.014  0.00  0.00     0.454 HD
BRANCH  16  18
ATOM     18  C   LIG d   1       6.063  -3.837  -4.956  0.00  0.00     0.207 A 
ATOM     19  C   LIG d   1       7.189  -4.586  -5.313  0.00  0.00     0.013 A 
ATOM     20  C   LIG d   1       7.043  -5.897  -5.714  0.00  0.00    -0.014 A 
ATOM     21  H   LIG d   1       8.172  -4.138  -5.274  0.00  0.00     0.068 H 
ATOM     22  C   LIG d   1       5.782  -6.474  -5.765  0.00  0.00     0.120 A 
ATOM     23  H   LIG d   1       7.912  -6.476  -5.989  0.00  0.00     0.066 H 
ATOM     24  C   LIG d   1       4.660  -5.733  -5.416  0.00  0.00    -0.014 A 
ATOM     25  C   LIG d   1       4.795  -4.424  -5.008  0.00  0.00     0.013 A 
ATOM     26  H   LIG d   1       3.680  -6.186  -5.462  0.00  0.00     0.066 H 
ATOM     27  H   LIG d   1       3.922  -3.850  -4.734  0.00  0.00     0.068 H 
BRANCH  22  28
ATOM     28  O   LIG d   1       5.644  -7.767  -6.161  0.00  0.00    -0.495 OA
BRANCH  28  29
ATOM     29  C   LIG d   1       4.615  -8.048  -7.111  0.00  0.00     0.079 C 
ATOM     30  H   LIG d   1       4.384  -7.143  -7.675  0.00  0.00     0.066 H 
ATOM     31  H   LIG d   1       4.954  -8.825  -7.796  0.00  0.00     0.066 H 
ATOM     32  H   LIG d   1       3.721  -8.389  -6.589  0.00  0.00     0.066 H 
ENDBRANCH  28  29
ENDBRANCH  22  28
ENDBRANCH  16  18
ENDBRANCH   1  16
BRANCH   3  33
ATOM     33  C   LIG d   1       3.399  -0.562  -7.957  0.00  0.00     0.021 A 
ATOM     34  C   LIG d   1       3.173  -1.742  -8.674  0.00  0.00    -0.005 A 
ATOM     35  C   LIG d   1       2.709  -1.680  -9.974  0.00  0.00     0.167 A 
ATOM     36  H   LIG d   1       3.357  -2.700  -8.210  0.00  0.00     0.066 H 
ATOM     37  C   LIG d   1       2.477  -0.441 -10.572  0.00  0.00     0.166 A 
ATOM     38  O   LIG d   1       2.409  -2.661 -10.873  0.00  0.00    -0.453 OA
ATOM     39  C   LIG d   1       2.707   0.730  -9.862  0.00  0.00    -0.015 A 
ATOM     40  O   LIG d   1       2.032  -0.650 -11.845  0.00  0.00    -0.453 OA
ATOM     41  C   LIG d   1       3.164   0.674  -8.563  0.00  0.00    -0.047 A 
ATOM     42  H   LIG d   1       2.526   1.686 -10.330  0.00  0.00     0.066 H 
ATOM     43  H   LIG d   1       3.342   1.587  -8.014  0.00  0.00     0.063 H 
ATOM     44  C   LIG d   1       1.604  -2.024 -11.883  0.00  0.00     0.233 C 
ATOM     45  H   LIG d   1       1.802  -2.460 -12.862  0.00  0.00     0.117 H 
ATOM     46  H   LIG d   1       0.546  -2.102 -11.634  0.00  0.00     0.117 H 
ENDBRANCH   3  33
TORSDOF 5
ENDMDL
MODEL 3
REMARK VINA RESULT:      -7.2      2.780      6.322
REMARK  5 active torsions:
REMARK  status: ('A' for Active; 'I' for Inactive)
REMARK    1  A    between atoms: C_1  and  O_2 
REMARK    2  A    between atoms: O_2  and  C_3 
REMARK    3  A    between atoms: C_6  and  N_9 
REMARK    4  A    between atoms: N_9  and  C_10 
REMARK    5  A    between atoms: C_12  and  C_20 
ROOT
ATOM      1  C   LIG d   1       4.754  -2.005  -4.633  0.00  0.00     0.221 A 
ATOM      2  C   LIG d   1       4.375  -1.859  -5.994  0.00  0.00     0.053 A 
ATOM      3  C   LIG d   1       3.764  -0.717  -6.399  0.00  0.00     0.142 A 
ATOM      4  O   LIG d   1       3.498   0.298  -5.558  0.00  0.00    -0.454 OA
ATOM      5  C   LIG d   1       3.819   0.255  -4.246  0.00  0.00     0.142 A 
ATOM      6  C   LIG d   1       4.448  -0.882  -3.719  0.00  0.00     0.088 A 
ATOM      7  C   LIG d   1       4.778  -0.938  -2.369  0.00  0.00    -0.045 A 
ATOM      8  C   LIG d   1       4.476   0.130  -1.549  0.00  0.00    -0.061 A 
ATOM      9  C   LIG d   1       3.849   1.252  -2.067  0.00  0.00    -0.058 A 
ATOM     10  C   LIG d   1       3.528   1.322  -3.408  0.00  0.00    -0.018 A 
ATOM     11  H   LIG d   1       4.572  -2.651  -6.702  0.00  0.00     0.072 H 
ATOM     12  H   LIG d   1       5.267  -1.812  -1.964  0.00  0.00     0.063 H 
ATOM     13  H   LIG d   1       4.731   0.091  -0.500  0.00  0.00     0.062 H 
ATOM     14  H   LIG d   1       3.617   2.082  -1.417  0.00  0.00     0.062 H 
ATOM     15  H   LIG d   1       3.040   2.201  -3.801  0.00  0.00     0.065 H 
ENDROOT
BRANCH   1  16
ATOM     16  N   LIG d   1       5.351  -3.103  -4.198  0.00  0.00    -0.204 N 
ATOM     17  H   LIG d   1       4.877  -3.714  -3.613  0.00  0.00     0.454 HD
BRANCH  16  18
ATOM     18  C   LIG d   1       6.635  -3.377  -4.574  0.00  0.00     0.207 A 
ATOM     19  C   LIG d   1       6.913  -4.507  -5.349  0.00  0.00     0.013 A 
ATOM     20  C   LIG d   1       8.211  -4.779  -5.727  0.00  0.00    -0.014 A 
ATOM     21  H   LIG d   1       6.112  -5.167  -5.652  0.00  0.00     0.068 H 
ATOM     22  C   LIG d   1       9.241  -3.933  -5.338  0.00  0.00     0.120 A 
ATOM     23  H   LIG d   1       8.426  -5.651  -6.325  0.00  0.00     0.066 H 
ATOM     24  C   LIG d   1       8.970  -2.812  -4.564  0.00  0.00    -0.014 A 
ATOM     25  C   LIG d   1       7.676  -2.528  -4.186  0.00  0.00     0.013 A 
ATOM     26  H   LIG d   1       9.777  -2.160  -4.261  0.00  0.00     0.066 H 
ATOM     27  H   LIG d   1       7.467  -1.654  -3.588  0.00  0.00     0.068 H 
BRANCH  22  28
ATOM     28  O   LIG d   1      10.519  -4.206  -5.713  0.00  0.00    -0.495 OA
BRANCH  28  29
ATOM     29  C   LIG d   1      11.562  -3.592  -4.954  0.00  0.00     0.079 C 
ATOM     30  H   LIG d   1      11.304  -3.619  -3.895  0.00  0.00     0.066 H 
ATOM     31  H   LIG d   1      12.494  -4.133  -5.114  0.00  0.00     0.066 H 
ATOM     32  H   LIG d   1      11.684  -2.557  -5.273  0.00  0.00     0.066 H 
ENDBRANCH  28  29
ENDBRANCH  22  28
ENDBRANCH  16  18
ENDBRANCH   1  16
BRANCH   3  33
ATOM     33  C   LIG d   1       3.379  -0.583  -7.816  0.00  0.00     0.021 A 
ATOM     34  C   LIG d   1       3.290  -1.719  -8.627  0.00  0.00    -0.005 A 
ATOM     35  C   LIG d   1       2.924  -1.591  -9.954  0.00  0.00     0.167 A 
ATOM     36  H   LIG d   1       3.502  -2.695  -8.216  0.00  0.00     0.066 H 
ATOM     37  C   LIG d   1       2.655  -0.328 -10.483  0.00  0.00     0.166 A 
ATOM     38  O   LIG d   1       2.761  -2.520 -10.939  0.00  0.00    -0.453 OA
ATOM     39  C   LIG d   1       2.751   0.799  -9.679  0.00  0.00    -0.015 A 
ATOM     40  O   LIG d   1       2.326  -0.470 -11.800  0.00  0.00    -0.453 OA
ATOM     41  C   LIG d   1       3.109   0.677  -8.354  0.00  0.00    -0.047 A 
ATOM     42  H   LIG d   1       2.542   1.774 -10.093  0.00  0.00     0.066 H 
ATOM     43  H   LIG d   1       3.181   1.557  -7.731  0.00  0.00     0.063 H 
ATOM     44  C   LIG d   1       1.995  -1.862 -11.966  0.00  0.00     0.233 C 
ATOM     45  H   LIG d   1       2.298  -2.212 -12.953  0.00  0.00     0.117 H 
ATOM     46  H   LIG d   1       0.929  -2.024 -11.811  0.00  0.00     0.117 H 
ENDBRANCH   3  33
TORSDOF 5
ENDMDL
MODEL 4
REMARK VINA RESULT:      -7.1      5.814      9.556
REMARK  5 active torsions:
REMARK  status: ('A' for Active; 'I' for Inactive)
REMARK    1  A    between atoms: C_1  and  O_2 
REMARK    2  A    between atoms: O_2  and  C_3 
REMARK    3  A    between atoms: C_6  and  N_9 
REMARK    4  A    between atoms: N_9  and  C_10 
REMARK    5  A    between atoms: C_12  and  C_20 
ROOT
ATOM      1  C   LIG d   1       7.379  -0.883  -4.404  0.00  0.00     0.221 A 
ATOM      2  C   LIG d   1       8.183   0.245  -4.720  0.00  0.00     0.053 A 
ATOM      3  C   LIG d   1       7.880   1.453  -4.182  0.00  0.00     0.142 A 
ATOM      4  O   LIG d   1       6.839   1.634  -3.351  0.00  0.00    -0.454 OA
ATOM      5  C   LIG d   1       6.016   0.624  -2.990  0.00  0.00     0.142 A 
ATOM      6  C   LIG d   1       6.233  -0.666  -3.493  0.00  0.00     0.088 A 
ATOM      7  C   LIG d   1       5.389  -1.711  -3.133  0.00  0.00    -0.045 A 
ATOM      8  C   LIG d   1       4.331  -1.468  -2.280  0.00  0.00    -0.061 A 
ATOM      9  C   LIG d   1       4.111  -0.192  -1.786  0.00  0.00    -0.058 A 
ATOM     10  C   LIG d   1       4.950   0.849  -2.130  0.00  0.00    -0.018 A 
ATOM     11  H   LIG d   1       9.029   0.141  -5.384  0.00  0.00     0.072 H 
ATOM     12  H   LIG d   1       5.559  -2.706  -3.516  0.00  0.00     0.063 H 
ATOM     13  H   LIG d   1       3.673  -2.276  -1.996  0.00  0.00     0.062 H 
ATOM     14  H   LIG d   1       3.281  -0.013  -1.120  0.00  0.00     0.062 H 
ATOM     15  H   LIG d   1       4.771   1.840  -1.739  0.00  0.00     0.065 H 
ENDROOT
BRANCH   1  16
ATOM     16  N   LIG d   1       7.641  -2.078  -4.909  0.00  0.00    -0.204 N 
ATOM     17  H   LIG d   1       7.054  -2.461  -5.580  0.00  0.00     0.454 HD
BRANCH  16  18
ATOM     18  C   LIG d   1       8.737  -2.773  -4.485  0.00  0.00     0.207 A 
ATOM     19  C   LIG d   1       9.902  -2.785  -5.258  0.00  0.00     0.013 A 
ATOM     20  C   LIG d   1      11.006  -3.488  -4.826  0.00  0.00    -0.014 A 
ATOM     21  H   LIG d   1       9.937  -2.244  -6.193  0.00  0.00     0.068 H 
ATOM     22  C   LIG d   1      10.963  -4.184  -3.626  0.00  0.00     0.120 A 
ATOM     23  H   LIG d   1      11.906  -3.497  -5.422  0.00  0.00     0.066 H 
ATOM     24  C   LIG d   1       9.806  -4.180  -2.857  0.00  0.00    -0.014 A 
ATOM     25  C   LIG d   1       8.699  -3.475  -3.277  0.00  0.00     0.013 A 
ATOM     26  H   LIG d   1       9.777  -4.727  -1.925  0.00  0.00     0.066 H 
ATOM     27  H   LIG d   1       7.801  -3.470  -2.676  0.00  0.00     0.068 H 
BRANCH  22  28
ATOM     28  O   LIG d   1      12.055  -4.876  -3.204  0.00  0.00    -0.495 OA
BRANCH  28  29
ATOM     29  C   LIG d   1      11.942  -6.299  -3.157  0.00  0.00     0.079 C 
ATOM     30  H   LIG d   1      12.672  -6.743  -3.835  0.00  0.00     0.066 H 
ATOM     31  H   LIG d   1      12.133  -6.646  -2.142  0.00  0.00     0.066 H 
ATOM     32  H   LIG d   1      10.938  -6.595  -3.459  0.00  0.00     0.066 H 
ENDBRANCH  28  29
ENDBRANCH  22  28
ENDBRANCH  16  18
ENDBRANCH   1  16
BRANCH   3  33
ATOM     33  C   LIG d   1       8.727   2.612  -4.521  0.00  0.00     0.021 A 
ATOM     34  C   LIG d   1       9.261   3.410  -3.505  0.00  0.00    -0.005 A 
ATOM     35  C   LIG d   1      10.058   4.492  -3.826  0.00  0.00     0.167 A 
ATOM     36  H   LIG d   1       9.055   3.178  -2.470  0.00  0.00     0.066 H 
ATOM     37  C   LIG d   1      10.319   4.792  -5.163  0.00  0.00     0.166 A 
ATOM     38  O   LIG d   1      10.694   5.410  -3.041  0.00  0.00    -0.453 OA
ATOM     39  C   LIG d   1       9.783   4.003  -6.172  0.00  0.00    -0.015 A 
ATOM     40  O   LIG d   1      11.117   5.898  -5.213  0.00  0.00    -0.453 OA
ATOM     41  C   LIG d   1       8.993   2.919  -5.858  0.00  0.00    -0.047 A 
ATOM     42  H   LIG d   1       9.987   4.239  -7.206  0.00  0.00     0.066 H 
ATOM     43  H   LIG d   1       8.578   2.306  -6.645  0.00  0.00     0.063 H 
ATOM     44  C   LIG d   1      11.677   6.028  -3.893  0.00  0.00     0.233 C 
ATOM     45  H   LIG d   1      11.802   7.080  -3.632  0.00  0.00     0.117 H 
ATOM     46  H   LIG d   1      12.628   5.499  -3.826  0.00  0.00     0.117 H 
ENDBRANCH   3  33
TORSDOF 5
ENDMDL
MODEL 5
REMARK VINA RESULT:      -7.0      7.320     11.239
REMARK  5 active torsions:
REMARK  status: ('A' for Active; 'I' for Inactive)
REMARK    1  A    between atoms: C_1  and  O_2 
REMARK    2  A    between atoms: O_2  and  C_3 
REMARK    3  A    between atoms: C_6  and  N_9 
REMARK    4  A    between atoms: N_9  and  C_10 
REMARK    5  A    between atoms: C_12  and  C_20 
ROOT
ATOM      1  C   LIG d   1       9.329   1.982  -4.228  0.00  0.00     0.221 A 
ATOM      2  C   LIG d   1       9.312   3.198  -3.493  0.00  0.00     0.053 A 
ATOM      3  C   LIG d   1      10.453   3.642  -2.910  0.00  0.00     0.142 A 
ATOM      4  O   LIG d   1      11.617   2.975  -2.997  0.00  0.00    -0.454 OA
ATOM      5  C   LIG d   1      11.736   1.811  -3.673  0.00  0.00     0.142 A 
ATOM      6  C   LIG d   1      10.617   1.256  -4.310  0.00  0.00     0.088 A 
ATOM      7  C   LIG d   1      10.727   0.056  -5.004  0.00  0.00    -0.045 A 
ATOM      8  C   LIG d   1      11.946  -0.590  -5.057  0.00  0.00    -0.061 A 
ATOM      9  C   LIG d   1      13.052  -0.047  -4.424  0.00  0.00    -0.058 A 
ATOM     10  C   LIG d   1      12.954   1.150  -3.742  0.00  0.00    -0.018 A 
ATOM     11  H   LIG d   1       8.396   3.764  -3.399  0.00  0.00     0.072 H 
ATOM     12  H   LIG d   1       9.866  -0.368  -5.498  0.00  0.00     0.063 H 
ATOM     13  H   LIG d   1      12.037  -1.522  -5.595  0.00  0.00     0.062 H 
ATOM     14  H   LIG d   1      14.000  -0.560  -4.471  0.00  0.00     0.062 H 
ATOM     15  H   LIG d   1      13.823   1.565  -3.252  0.00  0.00     0.065 H 
ENDROOT
BRANCH   1  16
ATOM     16  N   LIG d   1       8.237   1.514  -4.812  0.00  0.00    -0.204 N 
ATOM     17  H   LIG d   1       8.108   1.631  -5.766  0.00  0.00     0.454 HD
BRANCH  16  18
ATOM     18  C   LIG d   1       7.291   0.867  -4.070  0.00  0.00     0.207 A 
ATOM     19  C   LIG d   1       7.279  -0.530  -4.012  0.00  0.00     0.013 A 
ATOM     20  C   LIG d   1       6.322  -1.179  -3.261  0.00  0.00    -0.014 A 
ATOM     21  H   LIG d   1       8.020  -1.101  -4.554  0.00  0.00     0.068 H 
ATOM     22  C   LIG d   1       5.370  -0.447  -2.563  0.00  0.00     0.120 A 
ATOM     23  H   LIG d   1       6.313  -2.257  -3.215  0.00  0.00     0.066 H 
ATOM     24  C   LIG d   1       5.375   0.940  -2.622  0.00  0.00    -0.014 A 
ATOM     25  C   LIG d   1       6.330   1.599  -3.365  0.00  0.00     0.013 A 
ATOM     26  H   LIG d   1       4.629   1.505  -2.080  0.00  0.00     0.066 H 
ATOM     27  H   LIG d   1       6.335   2.678  -3.406  0.00  0.00     0.068 H 
BRANCH  22  28
ATOM     28  O   LIG d   1       4.429  -1.092  -1.824  0.00  0.00    -0.495 OA
BRANCH  28  29
ATOM     29  C   LIG d   1       3.801  -2.227  -2.422  0.00  0.00     0.079 C 
ATOM     30  H   LIG d   1       3.644  -2.038  -3.484  0.00  0.00     0.066 H 
ATOM     31  H   LIG d   1       4.440  -3.101  -2.300  0.00  0.00     0.066 H 
ATOM     32  H   LIG d   1       2.842  -2.409  -1.938  0.00  0.00     0.066 H 
ENDBRANCH  28  29
ENDBRANCH  22  28
ENDBRANCH  16  18
ENDBRANCH   1  16
BRANCH   3  33
ATOM     33  C   LIG d   1      10.415   4.906  -2.151  0.00  0.00     0.021 A 
ATOM     34  C   LIG d   1      11.140   5.031  -0.962  0.00  0.00    -0.005 A 
ATOM     35  C   LIG d   1      11.105   6.219  -0.256  0.00  0.00     0.167 A 
ATOM     36  H   LIG d   1      11.728   4.202  -0.598  0.00  0.00     0.066 H 
ATOM     37  C   LIG d   1      10.340   7.286  -0.726  0.00  0.00     0.166 A 
ATOM     38  O   LIG d   1      11.712   6.596   0.906  0.00  0.00    -0.453 OA
ATOM     39  C   LIG d   1       9.616   7.159  -1.904  0.00  0.00    -0.015 A 
ATOM     40  O   LIG d   1      10.468   8.330   0.144  0.00  0.00    -0.453 OA
ATOM     41  C   LIG d   1       9.651   5.980  -2.616  0.00  0.00    -0.047 A 
ATOM     42  H   LIG d   1       9.025   7.988  -2.264  0.00  0.00     0.066 H 
ATOM     43  H   LIG d   1       9.087   5.884  -3.532  0.00  0.00     0.063 H 
ATOM     44  C   LIG d   1      11.639   8.034   0.929  0.00  0.00     0.233 C 
ATOM     45  H   LIG d   1      11.516   8.395   1.950  0.00  0.00     0.117 H 
ATOM     46  H   LIG d   1      12.527   8.469   0.471  0.00  0.00     0.117 H 
ENDBRANCH   3  33
TORSDOF 5
ENDMDL
MODEL 6
REMARK VINA RESULT:      -6.9      3.044      6.183
REMARK  5 active torsions:
REMARK  status: ('A' for Active; 'I' for Inactive)
REMARK    1  A    between atoms: C_1  and  O_2 
REMARK    2  A    between atoms: O_2  and  C_3 
REMARK    3  A    between atoms: C_6  and  N_9 
REMARK    4  A    between atoms: N_9  and  C_10 
REMARK    5  A    between atoms: C_12  and  C_20 
ROOT
ATOM      1  C   LIG d   1       6.201  -0.486  -5.211  0.00  0.00     0.221 A 
ATOM      2  C   LIG d   1       5.575  -0.952  -6.398  0.00  0.00     0.053 A 
ATOM      3  C   LIG d   1       4.224  -0.900  -6.505  0.00  0.00     0.142 A 
ATOM      4  O   LIG d   1       3.438  -0.420  -5.525  0.00  0.00    -0.454 OA
ATOM      5  C   LIG d   1       3.938   0.046  -4.359  0.00  0.00     0.142 A 
ATOM      6  C   LIG d   1       5.323   0.034  -4.139  0.00  0.00     0.088 A 
ATOM      7  C   LIG d   1       5.847   0.506  -2.941  0.00  0.00    -0.045 A 
ATOM      8  C   LIG d   1       4.995   0.983  -1.965  0.00  0.00    -0.061 A 
ATOM      9  C   LIG d   1       3.625   0.991  -2.179  0.00  0.00    -0.058 A 
ATOM     10  C   LIG d   1       3.096   0.534  -3.369  0.00  0.00    -0.018 A 
ATOM     11  H   LIG d   1       6.171  -1.345  -7.209  0.00  0.00     0.072 H 
ATOM     12  H   LIG d   1       6.914   0.501  -2.773  0.00  0.00     0.063 H 
ATOM     13  H   LIG d   1       5.397   1.352  -1.034  0.00  0.00     0.062 H 
ATOM     14  H   LIG d   1       2.967   1.365  -1.410  0.00  0.00     0.062 H 
ATOM     15  H   LIG d   1       2.028   0.545  -3.526  0.00  0.00     0.065 H 
ENDROOT
BRANCH   1  16
ATOM     16  N   LIG d   1       7.517  -0.520  -5.067  0.00  0.00    -0.204 N 
ATOM     17  H   LIG d   1       8.025   0.306  -5.052  0.00  0.00     0.454 HD
BRANCH  16  18
ATOM     18  C   LIG d   1       8.158  -1.718  -4.941  0.00  0.00     0.207 A 
ATOM     19  C   LIG d   1       7.805  -2.598  -3.913  0.00  0.00     0.013 A 
ATOM     20  C   LIG d   1       8.455  -3.808  -3.790  0.00  0.00    -0.014 A 
ATOM     21  H   LIG d   1       7.023  -2.331  -3.217  0.00  0.00     0.068 H 
ATOM     22  C   LIG d   1       9.460  -4.152  -4.683  0.00  0.00     0.120 A 
ATOM     23  H   LIG d   1       8.182  -4.488  -2.997  0.00  0.00     0.066 H 
ATOM     24  C   LIG d   1       9.819  -3.279  -5.702  0.00  0.00    -0.014 A 
ATOM     25  C   LIG d   1       9.171  -2.071  -5.838  0.00  0.00     0.013 A 
ATOM     26  H   LIG d   1      10.605  -3.551  -6.393  0.00  0.00     0.066 H 
ATOM     27  H   LIG d   1       9.448  -1.395  -6.634  0.00  0.00     0.068 H 
BRANCH  22  28
ATOM     28  O   LIG d   1      10.099  -5.346  -4.557  0.00  0.00    -0.495 OA
BRANCH  28  29
ATOM     29  C   LIG d   1       9.429  -6.364  -3.812  0.00  0.00     0.079 C 
ATOM     30  H   LIG d   1       8.365  -6.132  -3.754  0.00  0.00     0.066 H 
ATOM     31  H   LIG d   1       9.563  -7.325  -4.307  0.00  0.00     0.066 H 
ATOM     32  H   LIG d   1       9.845  -6.412  -2.806  0.00  0.00     0.066 H 
ENDBRANCH  28  29
ENDBRANCH  22  28
ENDBRANCH  16  18
ENDBRANCH   1  16
BRANCH   3  33
ATOM     33  C   LIG d   1       3.592  -1.388  -7.745  0.00  0.00     0.021 A 
ATOM     34  C   LIG d   1       2.622  -0.613  -8.389  0.00  0.00    -0.005 A 
ATOM     35  C   LIG d   1       2.036  -1.072  -9.553  0.00  0.00     0.167 A 
ATOM     36  H   LIG d   1       2.335   0.343  -7.978  0.00  0.00     0.066 H 
ATOM     37  C   LIG d   1       2.405  -2.310 -10.078  0.00  0.00     0.166 A 
ATOM     38  O   LIG d   1       1.087  -0.520 -10.363  0.00  0.00    -0.453 OA
ATOM     39  C   LIG d   1       3.364  -3.082  -9.435  0.00  0.00    -0.015 A 
ATOM     40  O   LIG d   1       1.685  -2.532 -11.216  0.00  0.00    -0.453 OA
ATOM     41  C   LIG d   1       3.957  -2.627  -8.277  0.00  0.00    -0.047 A 
ATOM     42  H   LIG d   1       3.647  -4.040  -9.845  0.00  0.00     0.066 H 
ATOM     43  H   LIG d   1       4.703  -3.230  -7.780  0.00  0.00     0.063 H 
ATOM     44  C   LIG d   1       1.175  -1.243 -11.606  0.00  0.00     0.233 C 
ATOM     45  H   LIG d   1       0.189  -1.344 -12.061  0.00  0.00     0.117 H 
ATOM     46  H   LIG d   1       1.865  -0.749 -12.289  0.00  0.00     0.117 H 
ENDBRANCH   3  33
TORSDOF 5
ENDMDL
MODEL 7
REMARK VINA RESULT:      -6.8      6.806     10.938
REMARK  5 active torsions:
REMARK  status: ('A' for Active; 'I' for Inactive)
REMARK    1  A    between atoms: C_1  and  O_2 
REMARK    2  A    between atoms: O_2  and  C_3 
REMARK    3  A    between atoms: C_6  and  N_9 
REMARK    4  A    between atoms: N_9  and  C_10 
REMARK    5  A    between atoms: C_12  and  C_20 
ROOT
ATOM      1  C   LIG d   1       9.003   1.856  -4.521  0.00  0.00     0.221 A 
ATOM      2  C   LIG d   1       9.332   2.819  -3.529  0.00  0.00     0.053 A 
ATOM      3  C   LIG d   1       9.667   4.079  -3.906  0.00  0.00     0.142 A 
ATOM      4  O   LIG d   1       9.703   4.463  -5.194  0.00  0.00    -0.454 OA
ATOM      5  C   LIG d   1       9.408   3.621  -6.209  0.00  0.00     0.142 A 
ATOM      6  C   LIG d   1       9.054   2.293  -5.935  0.00  0.00     0.088 A 
ATOM      7  C   LIG d   1       8.754   1.417  -6.973  0.00  0.00    -0.045 A 
ATOM      8  C   LIG d   1       8.812   1.863  -8.278  0.00  0.00    -0.061 A 
ATOM      9  C   LIG d   1       9.167   3.175  -8.552  0.00  0.00    -0.058 A 
ATOM     10  C   LIG d   1       9.456   4.054  -7.528  0.00  0.00    -0.018 A 
ATOM     11  H   LIG d   1       9.314   2.550  -2.483  0.00  0.00     0.072 H 
ATOM     12  H   LIG d   1       8.477   0.395  -6.760  0.00  0.00     0.063 H 
ATOM     13  H   LIG d   1       8.579   1.188  -9.087  0.00  0.00     0.062 H 
ATOM     14  H   LIG d   1       9.210   3.513  -9.576  0.00  0.00     0.062 H 
ATOM     15  H   LIG d   1       9.731   5.074  -7.753  0.00  0.00     0.065 H 
ENDROOT
BRANCH   1  16
ATOM     16  N   LIG d   1       8.672   0.617  -4.195  0.00  0.00    -0.204 N 
ATOM     17  H   LIG d   1       9.315  -0.101  -4.300  0.00  0.00     0.454 HD
BRANCH  16  18
ATOM     18  C   LIG d   1       7.424   0.349  -3.711  0.00  0.00     0.207 A 
ATOM     19  C   LIG d   1       7.006  -0.975  -3.544  0.00  0.00     0.013 A 
ATOM     20  C   LIG d   1       5.745  -1.240  -3.053  0.00  0.00    -0.014 A 
ATOM     21  H   LIG d   1       7.670  -1.789  -3.798  0.00  0.00     0.068 H 
ATOM     22  C   LIG d   1       4.891  -0.196  -2.727  0.00  0.00     0.120 A 
ATOM     23  H   LIG d   1       5.422  -2.262  -2.924  0.00  0.00     0.066 H 
ATOM     24  C   LIG d   1       5.299   1.120  -2.896  0.00  0.00    -0.014 A 
ATOM     25  C   LIG d   1       6.560   1.397  -3.379  0.00  0.00     0.013 A 
ATOM     26  H   LIG d   1       4.628   1.929  -2.644  0.00  0.00     0.066 H 
ATOM     27  H   LIG d   1       6.878   2.421  -3.507  0.00  0.00     0.068 H 
BRANCH  22  28
ATOM     28  O   LIG d   1       3.648  -0.463  -2.244  0.00  0.00    -0.495 OA
BRANCH  28  29
ATOM     29  C   LIG d   1       2.623  -0.728  -3.203  0.00  0.00     0.079 C 
ATOM     30  H   LIG d   1       2.781  -0.107  -4.084  0.00  0.00     0.066 H 
ATOM     31  H   LIG d   1       2.656  -1.779  -3.489  0.00  0.00     0.066 H 
ATOM     32  H   LIG d   1       1.650  -0.501  -2.767  0.00  0.00     0.066 H 
ENDBRANCH  28  29
ENDBRANCH  22  28
ENDBRANCH  16  18
ENDBRANCH   1  16
BRANCH   3  33
ATOM     33  C   LIG d   1      10.003   5.064  -2.862  0.00  0.00     0.021 A 
ATOM     34  C   LIG d   1       9.594   6.394  -2.997  0.00  0.00    -0.005 A 
ATOM     35  C   LIG d   1       9.907   7.314  -2.014  0.00  0.00     0.167 A 
ATOM     36  H   LIG d   1       9.031   6.701  -3.866  0.00  0.00     0.066 H 
ATOM     37  C   LIG d   1      10.640   6.916  -0.896  0.00  0.00     0.166 A 
ATOM     38  O   LIG d   1       9.630   8.645  -1.903  0.00  0.00    -0.453 OA
ATOM     39  C   LIG d   1      11.051   5.596  -0.765  0.00  0.00    -0.015 A 
ATOM     40  O   LIG d   1      10.820   8.000  -0.086  0.00  0.00    -0.453 OA
ATOM     41  C   LIG d   1      10.736   4.673  -1.739  0.00  0.00    -0.047 A 
ATOM     42  H   LIG d   1      11.618   5.293   0.102  0.00  0.00     0.066 H 
ATOM     43  H   LIG d   1      11.057   3.647  -1.634  0.00  0.00     0.063 H 
ATOM     44  C   LIG d   1       9.844   8.968  -0.515  0.00  0.00     0.233 C 
ATOM     45  H   LIG d   1      10.237   9.979  -0.413  0.00  0.00     0.117 H 
ATOM     46  H   LIG d   1       8.919   8.856   0.051  0.00  0.00     0.117 H 
ENDBRANCH   3  33
TORSDOF 5
ENDMDL
MODEL 8
REMARK VINA RESULT:      -6.8      4.661      8.353
REMARK  5 active torsions:
REMARK  status: ('A' for Active; 'I' for Inactive)
REMARK    1  A    between atoms: C_1  and  O_2 
REMARK    2  A    between atoms: O_2  and  C_3 
REMARK    3  A    between atoms: C_6  and  N_9 
REMARK    4  A    between atoms: N_9  and  C_10 
REMARK    5  A    between atoms: C_12  and  C_20 
ROOT
ATOM      1  C   LIG d   1       7.734  -5.082  -5.417  0.00  0.00     0.221 A 
ATOM      2  C   LIG d   1       6.734  -4.218  -4.894  0.00  0.00     0.053 A 
ATOM      3  C   LIG d   1       7.104  -3.118  -4.192  0.00  0.00     0.142 A 
ATOM      4  O   LIG d   1       8.391  -2.802  -3.965  0.00  0.00    -0.454 OA
ATOM      5  C   LIG d   1       9.413  -3.560  -4.421  0.00  0.00     0.142 A 
ATOM      6  C   LIG d   1       9.146  -4.725  -5.153  0.00  0.00     0.088 A 
ATOM      7  C   LIG d   1      10.190  -5.515  -5.622  0.00  0.00    -0.045 A 
ATOM      8  C   LIG d   1      11.494  -5.147  -5.356  0.00  0.00    -0.061 A 
ATOM      9  C   LIG d   1      11.760  -3.999  -4.626  0.00  0.00    -0.058 A 
ATOM     10  C   LIG d   1      10.730  -3.203  -4.167  0.00  0.00    -0.018 A 
ATOM     11  H   LIG d   1       5.689  -4.436  -5.054  0.00  0.00     0.072 H 
ATOM     12  H   LIG d   1       9.984  -6.409  -6.191  0.00  0.00     0.063 H 
ATOM     13  H   LIG d   1      12.309  -5.756  -5.718  0.00  0.00     0.062 H 
ATOM     14  H   LIG d   1      12.783  -3.721  -4.424  0.00  0.00     0.062 H 
ATOM     15  H   LIG d   1      10.949  -2.310  -3.600  0.00  0.00     0.065 H 
ENDROOT
BRANCH   1  16
ATOM     16  N   LIG d   1       7.415  -6.166  -6.106  0.00  0.00    -0.204 N 
ATOM     17  H   LIG d   1       7.618  -6.216  -7.053  0.00  0.00     0.454 HD
BRANCH  16  18
ATOM     18  C   LIG d   1       6.799  -7.214  -5.484  0.00  0.00     0.207 A 
ATOM     19  C   LIG d   1       7.518  -8.026  -4.601  0.00  0.00     0.013 A 
ATOM     20  C   LIG d   1       6.892  -9.083  -3.975  0.00  0.00    -0.014 A 
ATOM     21  H   LIG d   1       8.563  -7.826  -4.410  0.00  0.00     0.068 H 
ATOM     22  C   LIG d   1       5.550  -9.342  -4.220  0.00  0.00     0.120 A 
ATOM     23  H   LIG d   1       7.446  -9.710  -3.293  0.00  0.00     0.066 H 
ATOM     24  C   LIG d   1       4.834  -8.541  -5.100  0.00  0.00    -0.014 A 
ATOM     25  C   LIG d   1       5.448  -7.479  -5.727  0.00  0.00     0.013 A 
ATOM     26  H   LIG d   1       3.790  -8.750  -5.290  0.00  0.00     0.066 H 
ATOM     27  H   LIG d   1       4.888  -6.855  -6.407  0.00  0.00     0.068 H 
BRANCH  22  28
ATOM     28  O   LIG d   1       4.937 -10.385  -3.600  0.00  0.00    -0.495 OA
BRANCH  28  29
ATOM     29  C   LIG d   1       3.556 -10.224  -3.272  0.00  0.00     0.079 C 
ATOM     30  H   LIG d   1       3.155 -11.172  -2.913  0.00  0.00     0.066 H 
ATOM     31  H   LIG d   1       3.454  -9.469  -2.493  0.00  0.00     0.066 H 
ATOM     32  H   LIG d   1       3.007  -9.908  -4.159  0.00  0.00     0.066 H 
ENDBRANCH  28  29
ENDBRANCH  22  28
ENDBRANCH  16  18
ENDBRANCH   1  16
BRANCH   3  33
ATOM     33  C   LIG d   1       6.052  -2.233  -3.658  0.00  0.00     0.021 A 
ATOM     34  C   LIG d   1       6.370  -0.932  -3.254  0.00  0.00    -0.005 A 
ATOM     35  C   LIG d   1       5.381  -0.104  -2.758  0.00  0.00     0.167 A 
ATOM     36  H   LIG d   1       7.386  -0.574  -3.333  0.00  0.00     0.066 H 
ATOM     37  C   LIG d   1       4.070  -0.570  -2.652  0.00  0.00     0.166 A 
ATOM     38  O   LIG d   1       5.423   1.184  -2.309  0.00  0.00    -0.453 OA
ATOM     39  C   LIG d   1       3.757  -1.864  -3.047  0.00  0.00    -0.015 A 
ATOM     40  O   LIG d   1       3.295   0.426  -2.134  0.00  0.00    -0.453 OA
ATOM     41  C   LIG d   1       4.737  -2.692  -3.548  0.00  0.00    -0.047 A 
ATOM     42  H   LIG d   1       2.741  -2.221  -2.963  0.00  0.00     0.066 H 
ATOM     43  H   LIG d   1       4.490  -3.698  -3.855  0.00  0.00     0.063 H 
ATOM     44  C   LIG d   1       4.055   1.636  -2.310  0.00  0.00     0.233 C 
ATOM     45  H   LIG d   1       3.879   2.323  -1.481  0.00  0.00     0.117 H 
ATOM     46  H   LIG d   1       3.810   2.109  -3.260  0.00  0.00     0.117 H 
ENDBRANCH   3  33
TORSDOF 5
ENDMDL
MODEL 9
REMARK VINA RESULT:      -6.7      1.950      6.032
REMARK  5 active torsions:
REMARK  status: ('A' for Active; 'I' for Inactive)
REMARK    1  A    between atoms: C_1  and  O_2 
REMARK    2  A    between atoms: O_2  and  C_3 
REMARK    3  A    between atoms: C_6  and  N_9 
REMARK    4  A    between atoms: N_9  and  C_10 
REMARK    5  A    between atoms: C_12  and  C_20 
ROOT
ATOM      1  C   LIG d   1       4.138  -4.079  -7.679  0.00  0.00     0.221 A 
ATOM      2  C   LIG d   1       4.183  -3.092  -6.658  0.00  0.00     0.053 A 
ATOM      3  C   LIG d   1       4.434  -3.465  -5.378  0.00  0.00     0.142 A 
ATOM      4  O   LIG d   1       4.645  -4.745  -5.026  0.00  0.00    -0.454 OA
ATOM      5  C   LIG d   1       4.623  -5.756  -5.923  0.00  0.00     0.142 A 
ATOM      6  C   LIG d   1       4.367  -5.485  -7.274  0.00  0.00     0.088 A 
ATOM      7  C   LIG d   1       4.337  -6.518  -8.204  0.00  0.00    -0.045 A 
ATOM      8  C   LIG d   1       4.555  -7.816  -7.787  0.00  0.00    -0.061 A 
ATOM      9  C   LIG d   1       4.803  -8.087  -6.450  0.00  0.00    -0.058 A 
ATOM     10  C   LIG d   1       4.846  -7.066  -5.522  0.00  0.00    -0.018 A 
ATOM     11  H   LIG d   1       4.019  -2.052  -6.900  0.00  0.00     0.072 H 
ATOM     12  H   LIG d   1       4.144  -6.308  -9.246  0.00  0.00     0.063 H 
ATOM     13  H   LIG d   1       4.534  -8.622  -8.505  0.00  0.00     0.062 H 
ATOM     14  H   LIG d   1       4.972  -9.105  -6.135  0.00  0.00     0.062 H 
ATOM     15  H   LIG d   1       5.041  -7.288  -4.483  0.00  0.00     0.065 H 
ENDROOT
BRANCH   1  16
ATOM     16  N   LIG d   1       3.896  -3.757  -8.939  0.00  0.00    -0.204 N 
ATOM     17  H   LIG d   1       3.726  -4.451  -9.594  0.00  0.00     0.454 HD
BRANCH  16  18
ATOM     18  C   LIG d   1       3.886  -2.445  -9.318  0.00  0.00     0.207 A 
ATOM     19  C   LIG d   1       2.688  -1.723  -9.314  0.00  0.00     0.013 A 
ATOM     20  C   LIG d   1       2.682  -0.399  -9.697  0.00  0.00    -0.014 A 
ATOM     21  H   LIG d   1       1.768  -2.202  -9.011  0.00  0.00     0.068 H 
ATOM     22  C   LIG d   1       3.863   0.218 -10.087  0.00  0.00     0.120 A 
ATOM     23  H   LIG d   1       1.758   0.159  -9.694  0.00  0.00     0.066 H 
ATOM     24  C   LIG d   1       5.054  -0.496 -10.098  0.00  0.00    -0.014 A 
ATOM     25  C   LIG d   1       5.072  -1.818  -9.711  0.00  0.00     0.013 A 
ATOM     26  H   LIG d   1       5.970  -0.011 -10.406  0.00  0.00     0.066 H 
ATOM     27  H   LIG d   1       6.000  -2.371  -9.716  0.00  0.00     0.068 H 
BRANCH  22  28
ATOM     28  O   LIG d   1       3.852   1.525 -10.464  0.00  0.00    -0.495 OA
BRANCH  28  29
ATOM     29  C   LIG d   1       3.915   2.500  -9.422  0.00  0.00     0.079 C 
ATOM     30  H   LIG d   1       4.925   2.529  -9.012  0.00  0.00     0.066 H 
ATOM     31  H   LIG d   1       3.660   3.480  -9.826  0.00  0.00     0.066 H 
ATOM     32  H   LIG d   1       3.210   2.237  -8.634  0.00  0.00     0.066 H 
ENDBRANCH  28  29
ENDBRANCH  22  28
ENDBRANCH  16  18
ENDBRANCH   1  16
BRANCH   3  33
ATOM     33  C   LIG d   1       4.477  -2.425  -4.333  0.00  0.00     0.021 A 
ATOM     34  C   LIG d   1       4.841  -1.116  -4.663  0.00  0.00    -0.005 A 
ATOM     35  C   LIG d   1       4.876  -0.143  -3.682  0.00  0.00     0.167 A 
ATOM     36  H   LIG d   1       5.090  -0.865  -5.683  0.00  0.00     0.066 H 
ATOM     37  C   LIG d   1       4.558  -0.472  -2.364  0.00  0.00     0.166 A 
ATOM     38  O   LIG d   1       5.187   1.184  -3.738  0.00  0.00    -0.453 OA
ATOM     39  C   LIG d   1       4.203  -1.773  -2.036  0.00  0.00    -0.015 A 
ATOM     40  O   LIG d   1       4.672   0.651  -1.596  0.00  0.00    -0.453 OA
ATOM     41  C   LIG d   1       4.160  -2.746  -3.011  0.00  0.00    -0.047 A 
ATOM     42  H   LIG d   1       3.959  -2.023  -1.014  0.00  0.00     0.066 H 
ATOM     43  H   LIG d   1       3.883  -3.758  -2.753  0.00  0.00     0.063 H 
ATOM     44  C   LIG d   1       4.662   1.753  -2.523  0.00  0.00     0.233 C 
ATOM     45  H   LIG d   1       5.306   2.558  -2.168  0.00  0.00     0.117 H 
ATOM     46  H   LIG d   1       3.645   2.114  -2.678  0.00  0.00     0.117 H 
ENDBRANCH   3  33
TORSDOF 5
ENDMDL
MODEL 10
REMARK VINA RESULT:      -6.7      6.377      9.569
REMARK  5 active torsions:
REMARK  status: ('A' for Active; 'I' for Inactive)
REMARK    1  A    between atoms: C_1  and  O_2 
REMARK    2  A    between atoms: O_2  and  C_3 
REMARK    3  A    between atoms: C_6  and  N_9 
REMARK    4  A    between atoms: N_9  and  C_10 
REMARK    5  A    between atoms: C_12  and  C_20 
ROOT
ATOM      1  C   LIG d   1      10.105   3.239  -4.907  0.00  0.00     0.221 A 
ATOM      2  C   LIG d   1       9.272   2.277  -4.274  0.00  0.00     0.053 A 
ATOM      3  C   LIG d   1       8.334   1.623  -5.004  0.00  0.00     0.142 A 
ATOM      4  O   LIG d   1       8.154   1.846  -6.318  0.00  0.00    -0.454 OA
ATOM      5  C   LIG d   1       8.895   2.740  -7.008  0.00  0.00     0.142 A 
ATOM      6  C   LIG d   1       9.890   3.478  -6.352  0.00  0.00     0.088 A 
ATOM      7  C   LIG d   1      10.654   4.405  -7.052  0.00  0.00    -0.045 A 
ATOM      8  C   LIG d   1      10.423   4.599  -8.399  0.00  0.00    -0.061 A 
ATOM      9  C   LIG d   1       9.436   3.875  -9.049  0.00  0.00    -0.058 A 
ATOM     10  C   LIG d   1       8.680   2.945  -8.364  0.00  0.00    -0.018 A 
ATOM     11  H   LIG d   1       9.385   2.068  -3.221  0.00  0.00     0.072 H 
ATOM     12  H   LIG d   1      11.424   4.969  -6.547  0.00  0.00     0.063 H 
ATOM     13  H   LIG d   1      11.014   5.316  -8.948  0.00  0.00     0.062 H 
ATOM     14  H   LIG d   1       9.263   4.034 -10.103  0.00  0.00     0.062 H 
ATOM     15  H   LIG d   1       7.914   2.385  -8.881  0.00  0.00     0.065 H 
ENDROOT
BRANCH   1  16
ATOM     16  N   LIG d   1      11.031   3.899  -4.230  0.00  0.00    -0.204 N 
ATOM     17  H   LIG d   1      11.970   3.732  -4.403  0.00  0.00     0.454 HD
BRANCH  16  18
ATOM     18  C   LIG d   1      10.664   4.816  -3.288  0.00  0.00     0.207 A 
ATOM     19  C   LIG d   1       9.912   5.937  -3.655  0.00  0.00     0.013 A 
ATOM     20  C   LIG d   1       9.543   6.860  -2.700  0.00  0.00    -0.014 A 
ATOM     21  H   LIG d   1       9.620   6.079  -4.686  0.00  0.00     0.068 H 
ATOM     22  C   LIG d   1       9.918   6.679  -1.375  0.00  0.00     0.120 A 
ATOM     23  H   LIG d   1       8.962   7.725  -2.982  0.00  0.00     0.066 H 
ATOM     24  C   LIG d   1      10.669   5.571  -1.007  0.00  0.00    -0.014 A 
ATOM     25  C   LIG d   1      11.038   4.639  -1.952  0.00  0.00     0.013 A 
ATOM     26  H   LIG d   1      10.961   5.437   0.025  0.00  0.00     0.066 H 
ATOM     27  H   LIG d   1      11.619   3.776  -1.663  0.00  0.00     0.068 H 
BRANCH  22  28
ATOM     28  O   LIG d   1       9.552   7.592  -0.437  0.00  0.00    -0.495 OA
BRANCH  28  29
ATOM     29  C   LIG d   1       8.995   8.820  -0.910  0.00  0.00     0.079 C 
ATOM     30  H   LIG d   1       8.198   9.140  -0.238  0.00  0.00     0.066 H 
ATOM     31  H   LIG d   1       9.772   9.583  -0.941  0.00  0.00     0.066 H 
ATOM     32  H   LIG d   1       8.589   8.674  -1.911  0.00  0.00     0.066 H 
ENDBRANCH  28  29
ENDBRANCH  22  28
ENDBRANCH  16  18
ENDBRANCH   1  16
BRANCH   3  33
ATOM     33  C   LIG d   1       7.480   0.627  -4.330  0.00  0.00     0.021 A 
ATOM     34  C   LIG d   1       6.489   1.046  -3.437  0.00  0.00    -0.005 A 
ATOM     35  C   LIG d   1       5.687   0.110  -2.810  0.00  0.00     0.167 A 
ATOM     36  H   LIG d   1       6.347   2.098  -3.240  0.00  0.00     0.066 H 
ATOM     37  C   LIG d   1       5.876  -1.249  -3.063  0.00  0.00     0.166 A 
ATOM     38  O   LIG d   1       4.665   0.250  -1.917  0.00  0.00    -0.453 OA
ATOM     39  C   LIG d   1       6.864  -1.664  -3.945  0.00  0.00    -0.015 A 
ATOM     40  O   LIG d   1       4.972  -1.957  -2.325  0.00  0.00    -0.453 OA
ATOM     41  C   LIG d   1       7.662  -0.736  -4.577  0.00  0.00    -0.047 A 
ATOM     42  H   LIG d   1       7.006  -2.717  -4.137  0.00  0.00     0.066 H 
ATOM     43  H   LIG d   1       8.430  -1.062  -5.264  0.00  0.00     0.063 H 
ATOM     44  C   LIG d   1       3.962  -1.007  -1.937  0.00  0.00     0.233 C 
ATOM     45  H   LIG d   1       3.573  -1.244  -0.946  0.00  0.00     0.117 H 
ATOM     46  H   LIG d   1       3.157  -0.982  -2.671  0.00  0.00     0.117 H 
ENDBRANCH   3  33
TORSDOF 5
ENDMDL
