MODEL 1
REMARK VINA RESULT:      -6.7      0.000      0.000
REMARK  4 active torsions:
REMARK  status: ('A' for Active; 'I' for Inactive)
REMARK    1  A    between atoms: C_1  and  C_2 
REMARK    2  A    between atoms: C_17  and  C_25 
REMARK    3  A    between atoms: C_22  and  C_23 
REMARK    4  A    between atoms: C_22  and  O_24 
ROOT
ATOM      1  C   LIG d   1       4.059  -2.161  -7.904  0.00  0.00    -0.006 C 
ATOM      2  C   LIG d   1       3.869  -3.665  -8.002  0.00  0.00    -0.037 C 
ATOM      3  C   LIG d   1       3.576  -4.105  -9.436  0.00  0.00     0.012 C 
ATOM      4  C   LIG d   1       2.335  -3.365  -9.893  0.00  0.00     0.174 C 
ATOM      5  O   LIG d   1       1.401  -3.942 -10.411  0.00  0.00    -0.291 OA
ATOM      6  C   LIG d   1       2.323  -1.913  -9.676  0.00  0.00     0.083 C 
ATOM      7  C   LIG d   1       3.121  -1.369  -8.759  0.00  0.00    -0.042 C 
ATOM      8  C   LIG d   1       3.079   0.138  -8.588  0.00  0.00    -0.029 C 
ATOM      9  C   LIG d   1       2.926   0.457  -7.099  0.00  0.00    -0.046 C 
ATOM     10  C   LIG d   1       4.057  -0.218  -6.317  0.00  0.00    -0.034 C 
ATOM     11  H   LIG d   1       5.011   0.073  -6.759  0.00  0.00     0.031 H 
ATOM     12  C   LIG d   1       3.923  -1.735  -6.436  0.00  0.00    -0.029 C 
ATOM     13  H   LIG d   1       2.957  -2.049  -6.040  0.00  0.00     0.031 H 
ATOM     14  C   LIG d   1       5.051  -2.390  -5.629  0.00  0.00    -0.049 C 
ATOM     15  C   LIG d   1       4.883  -2.020  -4.159  0.00  0.00    -0.044 C 
ATOM     16  C   LIG d   1       5.015  -0.507  -3.966  0.00  0.00    -0.000 C 
ATOM     17  C   LIG d   1       4.027   0.239  -4.878  0.00  0.00    -0.030 C 
ATOM     18  H   LIG d   1       4.256   1.304  -4.837  0.00  0.00     0.031 H 
ATOM     19  C   LIG d   1       2.662  -0.008  -4.210  0.00  0.00    -0.047 C 
ATOM     20  C   LIG d   1       2.977   0.096  -2.700  0.00  0.00    -0.024 C 
ATOM     21  C   LIG d   1       4.481  -0.193  -2.543  0.00  0.00     0.069 C 
ATOM     22 CL   LIG d   1       1.267  -0.904 -10.616  0.00  0.00    -0.080 Cl
ATOM     23  H   LIG d   1       3.037  -3.960  -7.363  0.00  0.00     0.028 H 
ATOM     24  H   LIG d   1       4.776  -4.161  -7.656  0.00  0.00     0.028 H 
ATOM     25  H   LIG d   1       4.357  -3.880 -10.019  0.00  0.00     0.035 H 
ATOM     26  H   LIG d   1       3.399  -5.180  -9.464  0.00  0.00     0.035 H 
ATOM     27  H   LIG d   1       4.005   0.576  -8.962  0.00  0.00     0.031 H 
ATOM     28  H   LIG d   1       2.234   0.546  -9.142  0.00  0.00     0.031 H 
ATOM     29  H   LIG d   1       2.975   1.537  -6.952  0.00  0.00     0.027 H 
ATOM     30  H   LIG d   1       1.965   0.086  -6.745  0.00  0.00     0.027 H 
ATOM     31  H   LIG d   1       6.014  -2.030  -5.989  0.00  0.00     0.027 H 
ATOM     32  H   LIG d   1       5.000  -3.473  -5.743  0.00  0.00     0.027 H 
ATOM     33  H   LIG d   1       5.649  -2.526  -3.572  0.00  0.00     0.027 H 
ATOM     34  H   LIG d   1       3.899  -2.342  -3.818  0.00  0.00     0.027 H 
ATOM     35  H   LIG d   1       1.945   0.757  -4.507  0.00  0.00     0.027 H 
ATOM     36  H   LIG d   1       2.289  -1.003  -4.456  0.00  0.00     0.027 H 
ATOM     37  H   LIG d   1       2.750   1.099  -2.340  0.00  0.00     0.029 H 
ATOM     38  H   LIG d   1       2.395  -0.640  -2.145  0.00  0.00     0.029 H 
ENDROOT
BRANCH  21  39
ATOM     39  C   LIG d   1       4.692  -1.399  -1.625  0.00  0.00    -0.036 C 
ATOM     40  H   LIG d   1       5.679  -1.824  -1.805  0.00  0.00     0.026 H 
ATOM     41  H   LIG d   1       4.617  -1.082  -0.585  0.00  0.00     0.026 H 
ATOM     42  H   LIG d   1       3.929  -2.150  -1.831  0.00  0.00     0.026 H 
ENDBRANCH  21  39
BRANCH  21  43
ATOM     43  O   LIG d   1       5.149   0.952  -2.009  0.00  0.00    -0.388 OA
ATOM     44  H   LIG d   1       5.857   0.739  -1.386  0.00  0.00     0.210 HD
ENDBRANCH  21  43
BRANCH  16  45
ATOM     45  C   LIG d   1       6.452  -0.021  -4.162  0.00  0.00    -0.057 C 
ATOM     46  H   LIG d   1       7.142  -0.844  -3.982  0.00  0.00     0.024 H 
ATOM     47  H   LIG d   1       6.578   0.341  -5.182  0.00  0.00     0.024 H 
ATOM     48  H   LIG d   1       6.661   0.788  -3.461  0.00  0.00     0.024 H 
ENDBRANCH  16  45
BRANCH   1  49
ATOM     49  C   LIG d   1       5.488  -1.835  -8.341  0.00  0.00    -0.056 C 
ATOM     50  H   LIG d   1       5.663  -2.236  -9.339  0.00  0.00     0.024 H 
ATOM     51  H   LIG d   1       5.627  -0.754  -8.354  0.00  0.00     0.024 H 
ATOM     52  H   LIG d   1       6.194  -2.283  -7.640  0.00  0.00     0.024 H 
ENDBRANCH   1  49
TORSDOF 4
ENDMDL
MODEL 2
REMARK VINA RESULT:      -6.4      4.277      5.839
REMARK  4 active torsions:
REMARK  status: ('A' for Active; 'I' for Inactive)
REMARK    1  A    between atoms: C_1  and  C_2 
REMARK    2  A    between atoms: C_17  and  C_25 
REMARK    3  A    between atoms: C_22  and  C_23 
REMARK    4  A    between atoms: C_22  and  O_24 
ROOT
ATOM      1  C   LIG d   1       7.859   0.966  -6.694  0.00  0.00    -0.006 C 
ATOM      2  C   LIG d   1       7.188   1.336  -8.006  0.00  0.00    -0.037 C 
ATOM      3  C   LIG d   1       8.181   1.946  -8.995  0.00  0.00     0.012 C 
ATOM      4  C   LIG d   1       8.794   3.162  -8.330  0.00  0.00     0.174 C 
ATOM      5  O   LIG d   1       8.853   4.236  -8.893  0.00  0.00    -0.291 OA
ATOM      6  C   LIG d   1       9.313   2.972  -6.970  0.00  0.00     0.083 C 
ATOM      7  C   LIG d   1       8.876   1.957  -6.225  0.00  0.00    -0.042 C 
ATOM      8  C   LIG d   1       9.459   1.798  -4.833  0.00  0.00    -0.029 C 
ATOM      9  C   LIG d   1       8.308   1.627  -3.839  0.00  0.00    -0.046 C 
ATOM     10  C   LIG d   1       7.433   0.448  -4.276  0.00  0.00    -0.034 C 
ATOM     11  H   LIG d   1       8.066  -0.430  -4.409  0.00  0.00     0.031 H 
ATOM     12  C   LIG d   1       6.780   0.770  -5.619  0.00  0.00    -0.029 C 
ATOM     13  H   LIG d   1       6.173   1.670  -5.525  0.00  0.00     0.031 H 
ATOM     14  C   LIG d   1       5.892  -0.413  -6.028  0.00  0.00    -0.049 C 
ATOM     15  C   LIG d   1       4.781  -0.572  -4.995  0.00  0.00    -0.044 C 
ATOM     16  C   LIG d   1       5.367  -0.906  -3.621  0.00  0.00    -0.000 C 
ATOM     17  C   LIG d   1       6.407   0.150  -3.209  0.00  0.00    -0.030 C 
ATOM     18  H   LIG d   1       6.916  -0.198  -2.311  0.00  0.00     0.031 H 
ATOM     19  C   LIG d   1       5.550   1.380  -2.855  0.00  0.00    -0.047 C 
ATOM     20  C   LIG d   1       4.331   0.772  -2.126  0.00  0.00    -0.024 C 
ATOM     21  C   LIG d   1       4.227  -0.693  -2.589  0.00  0.00     0.069 C 
ATOM     22 CL   LIG d   1      10.497   4.070  -6.332  0.00  0.00    -0.080 Cl
ATOM     23  H   LIG d   1       6.395   2.057  -7.808  0.00  0.00     0.028 H 
ATOM     24  H   LIG d   1       6.751   0.440  -8.447  0.00  0.00     0.028 H 
ATOM     25  H   LIG d   1       8.885   1.271  -9.217  0.00  0.00     0.035 H 
ATOM     26  H   LIG d   1       7.660   2.243  -9.905  0.00  0.00     0.035 H 
ATOM     27  H   LIG d   1      10.102   0.919  -4.803  0.00  0.00     0.031 H 
ATOM     28  H   LIG d   1      10.039   2.684  -4.577  0.00  0.00     0.031 H 
ATOM     29  H   LIG d   1       8.713   1.431  -2.846  0.00  0.00     0.027 H 
ATOM     30  H   LIG d   1       7.710   2.537  -3.815  0.00  0.00     0.027 H 
ATOM     31  H   LIG d   1       6.491  -1.322  -6.065  0.00  0.00     0.027 H 
ATOM     32  H   LIG d   1       5.456  -0.222  -7.008  0.00  0.00     0.027 H 
ATOM     33  H   LIG d   1       4.115  -1.377  -5.307  0.00  0.00     0.027 H 
ATOM     34  H   LIG d   1       4.216   0.357  -4.929  0.00  0.00     0.027 H 
ATOM     35  H   LIG d   1       6.098   2.052  -2.194  0.00  0.00     0.027 H 
ATOM     36  H   LIG d   1       5.236   1.902  -3.760  0.00  0.00     0.027 H 
ATOM     37  H   LIG d   1       4.482   0.813  -1.047  0.00  0.00     0.029 H 
ATOM     38  H   LIG d   1       3.424   1.314  -2.397  0.00  0.00     0.029 H 
ENDROOT
BRANCH  21  39
ATOM     39  C   LIG d   1       2.869  -0.941  -3.248  0.00  0.00    -0.036 C 
ATOM     40  H   LIG d   1       3.013  -1.152  -4.308  0.00  0.00     0.026 H 
ATOM     41  H   LIG d   1       2.383  -1.792  -2.771  0.00  0.00     0.026 H 
ATOM     42  H   LIG d   1       2.243  -0.056  -3.136  0.00  0.00     0.026 H 
ENDBRANCH  21  39
BRANCH  21  43
ATOM     43  O   LIG d   1       4.400  -1.573  -1.476  0.00  0.00    -0.388 OA
ATOM     44  H   LIG d   1       5.150  -1.347  -0.909  0.00  0.00     0.210 HD
ENDBRANCH  21  43
BRANCH  16  45
ATOM     45  C   LIG d   1       5.939  -2.323  -3.562  0.00  0.00    -0.057 C 
ATOM     46  H   LIG d   1       5.967  -2.661  -2.526  0.00  0.00     0.024 H 
ATOM     47  H   LIG d   1       5.308  -2.994  -4.145  0.00  0.00     0.024 H 
ATOM     48  H   LIG d   1       6.949  -2.326  -3.972  0.00  0.00     0.024 H 
ENDBRANCH  16  45
BRANCH   1  49
ATOM     49  C   LIG d   1       8.560  -0.380  -6.885  0.00  0.00    -0.056 C 
ATOM     50  H   LIG d   1       7.908  -1.054  -7.441  0.00  0.00     0.024 H 
ATOM     51  H   LIG d   1       9.487  -0.231  -7.439  0.00  0.00     0.024 H 
ATOM     52  H   LIG d   1       8.786  -0.814  -5.909  0.00  0.00     0.024 H 
ENDBRANCH   1  49
TORSDOF 4
ENDMDL
MODEL 3
REMARK VINA RESULT:      -6.3      4.244      5.921
REMARK  4 active torsions:
REMARK  status: ('A' for Active; 'I' for Inactive)
REMARK    1  A    between atoms: C_1  and  C_2 
REMARK    2  A    between atoms: C_17  and  C_25 
REMARK    3  A    between atoms: C_22  and  C_23 
REMARK    4  A    between atoms: C_22  and  O_24 
ROOT
ATOM      1  C   LIG d   1       8.146  -3.825  -4.546  0.00  0.00    -0.006 C 
ATOM      2  C   LIG d   1       9.285  -3.892  -3.544  0.00  0.00    -0.037 C 
ATOM      3  C   LIG d   1      10.231  -5.054  -3.840  0.00  0.00     0.012 C 
ATOM      4  C   LIG d   1       9.407  -6.327  -3.818  0.00  0.00     0.174 C 
ATOM      5  O   LIG d   1       9.752  -7.300  -3.182  0.00  0.00    -0.291 OA
ATOM      6  C   LIG d   1       8.170  -6.318  -4.609  0.00  0.00     0.083 C 
ATOM      7  C   LIG d   1       7.598  -5.160  -4.939  0.00  0.00    -0.042 C 
ATOM      8  C   LIG d   1       6.330  -5.210  -5.771  0.00  0.00    -0.029 C 
ATOM      9  C   LIG d   1       5.277  -4.317  -5.109  0.00  0.00    -0.046 C 
ATOM     10  C   LIG d   1       5.846  -2.904  -4.940  0.00  0.00    -0.034 C 
ATOM     11  H   LIG d   1       6.210  -2.555  -5.906  0.00  0.00     0.031 H 
ATOM     12  C   LIG d   1       7.027  -2.944  -3.973  0.00  0.00    -0.029 C 
ATOM     13  H   LIG d   1       6.698  -3.332  -3.009  0.00  0.00     0.031 H 
ATOM     14  C   LIG d   1       7.567  -1.519  -3.801  0.00  0.00    -0.049 C 
ATOM     15  C   LIG d   1       6.478  -0.654  -3.173  0.00  0.00    -0.044 C 
ATOM     16  C   LIG d   1       5.262  -0.564  -4.098  0.00  0.00    -0.000 C 
ATOM     17  C   LIG d   1       4.759  -1.971  -4.463  0.00  0.00    -0.030 C 
ATOM     18  H   LIG d   1       4.002  -1.875  -5.242  0.00  0.00     0.031 H 
ATOM     19  C   LIG d   1       4.087  -2.461  -3.167  0.00  0.00    -0.047 C 
ATOM     20  C   LIG d   1       3.372  -1.199  -2.633  0.00  0.00    -0.024 C 
ATOM     21  C   LIG d   1       4.099   0.012  -3.246  0.00  0.00     0.069 C 
ATOM     22 CL   LIG d   1       7.452  -7.816  -5.113  0.00  0.00    -0.080 Cl
ATOM     23  H   LIG d   1       8.872  -4.017  -2.543  0.00  0.00     0.028 H 
ATOM     24  H   LIG d   1       9.847  -2.958  -3.582  0.00  0.00     0.028 H 
ATOM     25  H   LIG d   1      10.652  -4.921  -4.739  0.00  0.00     0.035 H 
ATOM     26  H   LIG d   1      11.009  -5.103  -3.078  0.00  0.00     0.035 H 
ATOM     27  H   LIG d   1       6.537  -4.846  -6.777  0.00  0.00     0.031 H 
ATOM     28  H   LIG d   1       5.965  -6.235  -5.820  0.00  0.00     0.031 H 
ATOM     29  H   LIG d   1       4.387  -4.279  -5.738  0.00  0.00     0.027 H 
ATOM     30  H   LIG d   1       5.016  -4.725  -4.134  0.00  0.00     0.027 H 
ATOM     31  H   LIG d   1       7.841  -1.113  -4.773  0.00  0.00     0.027 H 
ATOM     32  H   LIG d   1       8.442  -1.535  -3.151  0.00  0.00     0.027 H 
ATOM     33  H   LIG d   1       6.872   0.347  -2.998  0.00  0.00     0.027 H 
ATOM     34  H   LIG d   1       6.175  -1.092  -2.222  0.00  0.00     0.027 H 
ATOM     35  H   LIG d   1       3.366  -3.250  -3.383  0.00  0.00     0.027 H 
ATOM     36  H   LIG d   1       4.836  -2.808  -2.454  0.00  0.00     0.027 H 
ATOM     37  H   LIG d   1       2.326  -1.203  -2.943  0.00  0.00     0.029 H 
ATOM     38  H   LIG d   1       3.438  -1.163  -1.546  0.00  0.00     0.029 H 
ENDROOT
BRANCH  21  39
ATOM     39  C   LIG d   1       4.653   0.909  -2.137  0.00  0.00    -0.036 C 
ATOM     40  H   LIG d   1       4.325   0.533  -1.168  0.00  0.00     0.026 H 
ATOM     41  H   LIG d   1       5.742   0.906  -2.179  0.00  0.00     0.026 H 
ATOM     42  H   LIG d   1       4.287   1.926  -2.275  0.00  0.00     0.026 H 
ENDBRANCH  21  39
BRANCH  21  43
ATOM     43  O   LIG d   1       3.203   0.755  -4.076  0.00  0.00    -0.388 OA
ATOM     44  H   LIG d   1       2.842   1.546  -3.653  0.00  0.00     0.210 HD
ENDBRANCH  21  43
BRANCH  16  45
ATOM     45  C   LIG d   1       5.539   0.284  -5.340  0.00  0.00    -0.057 C 
ATOM     46  H   LIG d   1       5.416  -0.328  -6.233  0.00  0.00     0.024 H 
ATOM     47  H   LIG d   1       4.839   1.119  -5.374  0.00  0.00     0.024 H 
ATOM     48  H   LIG d   1       6.559   0.666  -5.300  0.00  0.00     0.024 H 
ENDBRANCH  16  45
BRANCH   1  49
ATOM     49  C   LIG d   1       8.666  -3.136  -5.808  0.00  0.00    -0.056 C 
ATOM     50  H   LIG d   1       8.837  -2.079  -5.600  0.00  0.00     0.024 H 
ATOM     51  H   LIG d   1       9.601  -3.602  -6.118  0.00  0.00     0.024 H 
ATOM     52  H   LIG d   1       7.929  -3.235  -6.607  0.00  0.00     0.024 H 
ENDBRANCH   1  49
TORSDOF 4
ENDMDL
MODEL 4
REMARK VINA RESULT:      -6.3      1.703      2.224
REMARK  4 active torsions:
REMARK  status: ('A' for Active; 'I' for Inactive)
REMARK    1  A    between atoms: C_1  and  C_2 
REMARK    2  A    between atoms: C_17  and  C_25 
REMARK    3  A    between atoms: C_22  and  C_23 
REMARK    4  A    between atoms: C_22  and  O_24 
ROOT
ATOM      1  C   LIG d   1       5.079  -3.893  -6.634  0.00  0.00    -0.006 C 
ATOM      2  C   LIG d   1       4.592  -5.218  -6.075  0.00  0.00    -0.037 C 
ATOM      3  C   LIG d   1       4.545  -6.302  -7.152  0.00  0.00     0.012 C 
ATOM      4  C   LIG d   1       3.634  -5.804  -8.257  0.00  0.00     0.174 C 
ATOM      5  O   LIG d   1       2.741  -6.492  -8.706  0.00  0.00    -0.291 OA
ATOM      6  C   LIG d   1       3.892  -4.448  -8.755  0.00  0.00     0.083 C 
ATOM      7  C   LIG d   1       4.558  -3.575  -8.000  0.00  0.00    -0.042 C 
ATOM      8  C   LIG d   1       4.810  -2.192  -8.571  0.00  0.00    -0.029 C 
ATOM      9  C   LIG d   1       4.393  -1.151  -7.529  0.00  0.00    -0.046 C 
ATOM     10  C   LIG d   1       5.140  -1.419  -6.218  0.00  0.00    -0.034 C 
ATOM     11  H   LIG d   1       6.209  -1.465  -6.426  0.00  0.00     0.031 H 
ATOM     12  C   LIG d   1       4.707  -2.771  -5.654  0.00  0.00    -0.029 C 
ATOM     13  H   LIG d   1       3.632  -2.766  -5.476  0.00  0.00     0.031 H 
ATOM     14  C   LIG d   1       5.449  -3.010  -4.333  0.00  0.00    -0.049 C 
ATOM     15  C   LIG d   1       5.034  -1.933  -3.335  0.00  0.00    -0.044 C 
ATOM     16  C   LIG d   1       5.447  -0.547  -3.836  0.00  0.00    -0.000 C 
ATOM     17  C   LIG d   1       4.882  -0.294  -5.244  0.00  0.00    -0.030 C 
ATOM     18  H   LIG d   1       5.323   0.624  -5.634  0.00  0.00     0.031 H 
ATOM     19  C   LIG d   1       3.381  -0.063  -4.994  0.00  0.00    -0.047 C 
ATOM     20  C   LIG d   1       3.356   0.769  -3.692  0.00  0.00    -0.024 C 
ATOM     21  C   LIG d   1       4.684   0.486  -2.964  0.00  0.00     0.069 C 
ATOM     22 CL   LIG d   1       3.326  -3.979 -10.328  0.00  0.00    -0.080 Cl
ATOM     23  H   LIG d   1       3.591  -5.084  -5.663  0.00  0.00     0.028 H 
ATOM     24  H   LIG d   1       5.264  -5.538  -5.279  0.00  0.00     0.028 H 
ATOM     25  H   LIG d   1       5.469  -6.464  -7.501  0.00  0.00     0.035 H 
ATOM     26  H   LIG d   1       4.148  -7.225  -6.731  0.00  0.00     0.035 H 
ATOM     27  H   LIG d   1       5.869  -2.077  -8.799  0.00  0.00     0.031 H 
ATOM     28  H   LIG d   1       4.224  -2.060  -9.479  0.00  0.00     0.031 H 
ATOM     29  H   LIG d   1       4.643  -0.154  -7.893  0.00  0.00     0.027 H 
ATOM     30  H   LIG d   1       3.320  -1.217  -7.358  0.00  0.00     0.027 H 
ATOM     31  H   LIG d   1       6.523  -2.956  -4.503  0.00  0.00     0.027 H 
ATOM     32  H   LIG d   1       5.189  -3.993  -3.940  0.00  0.00     0.027 H 
ATOM     33  H   LIG d   1       5.516  -2.127  -2.377  0.00  0.00     0.027 H 
ATOM     34  H   LIG d   1       3.952  -1.961  -3.205  0.00  0.00     0.027 H 
ATOM     35  H   LIG d   1       2.936   0.497  -5.816  0.00  0.00     0.027 H 
ATOM     36  H   LIG d   1       2.865  -1.014  -4.852  0.00  0.00     0.027 H 
ATOM     37  H   LIG d   1       3.278   1.830  -3.928  0.00  0.00     0.029 H 
ATOM     38  H   LIG d   1       2.517   0.463  -3.067  0.00  0.00     0.029 H 
ENDROOT
BRANCH  21  39
ATOM     39  C   LIG d   1       4.409  -0.099  -1.577  0.00  0.00    -0.036 C 
ATOM     40  H   LIG d   1       3.538  -0.752  -1.624  0.00  0.00     0.026 H 
ATOM     41  H   LIG d   1       5.275  -0.671  -1.246  0.00  0.00     0.026 H 
ATOM     42  H   LIG d   1       4.218   0.711  -0.873  0.00  0.00     0.026 H 
ENDBRANCH  21  39
BRANCH  21  43
ATOM     43  O   LIG d   1       5.446   1.690  -2.847  0.00  0.00    -0.388 OA
ATOM     44  H   LIG d   1       4.998   2.391  -2.355  0.00  0.00     0.210 HD
ENDBRANCH  21  43
BRANCH  16  45
ATOM     45  C   LIG d   1       6.962  -0.337  -3.782  0.00  0.00    -0.057 C 
ATOM     46  H   LIG d   1       7.220   0.583  -4.305  0.00  0.00     0.024 H 
ATOM     47  H   LIG d   1       7.282  -0.266  -2.743  0.00  0.00     0.024 H 
ATOM     48  H   LIG d   1       7.463  -1.179  -4.260  0.00  0.00     0.024 H 
ENDBRANCH  16  45
BRANCH   1  49
ATOM     49  C   LIG d   1       6.606  -3.943  -6.708  0.00  0.00    -0.056 C 
ATOM     50  H   LIG d   1       6.933  -4.982  -6.754  0.00  0.00     0.024 H 
ATOM     51  H   LIG d   1       6.944  -3.416  -7.601  0.00  0.00     0.024 H 
ATOM     52  H   LIG d   1       7.029  -3.466  -5.823  0.00  0.00     0.024 H 
ENDBRANCH   1  49
TORSDOF 4
ENDMDL
MODEL 5
REMARK VINA RESULT:      -6.2      2.443      6.464
REMARK  4 active torsions:
REMARK  status: ('A' for Active; 'I' for Inactive)
REMARK    1  A    between atoms: C_1  and  C_2 
REMARK    2  A    between atoms: C_17  and  C_25 
REMARK    3  A    between atoms: C_22  and  C_23 
REMARK    4  A    between atoms: C_22  and  O_24 
ROOT
ATOM      1  C   LIG d   1       4.927  -0.882  -5.597  0.00  0.00    -0.006 C 
ATOM      2  C   LIG d   1       6.397  -0.828  -5.222  0.00  0.00    -0.037 C 
ATOM      3  C   LIG d   1       6.593  -0.799  -3.707  0.00  0.00     0.012 C 
ATOM      4  C   LIG d   1       5.848   0.411  -3.177  0.00  0.00     0.174 C 
ATOM      5  O   LIG d   1       6.371   1.203  -2.422  0.00  0.00    -0.291 OA
ATOM      6  C   LIG d   1       4.459   0.570  -3.625  0.00  0.00     0.083 C 
ATOM      7  C   LIG d   1       4.045  -0.030  -4.741  0.00  0.00    -0.042 C 
ATOM      8  C   LIG d   1       2.595   0.156  -5.148  0.00  0.00    -0.029 C 
ATOM      9  C   LIG d   1       2.551   0.565  -6.622  0.00  0.00    -0.046 C 
ATOM     10  C   LIG d   1       3.295  -0.480  -7.460  0.00  0.00    -0.034 C 
ATOM     11  H   LIG d   1       2.883  -1.465  -7.239  0.00  0.00     0.031 H 
ATOM     12  C   LIG d   1       4.772  -0.485  -7.072  0.00  0.00    -0.029 C 
ATOM     13  H   LIG d   1       5.199   0.503  -7.244  0.00  0.00     0.031 H 
ATOM     14  C   LIG d   1       5.502  -1.521  -7.937  0.00  0.00    -0.049 C 
ATOM     15  C   LIG d   1       5.405  -1.096  -9.399  0.00  0.00    -0.044 C 
ATOM     16  C   LIG d   1       3.944  -1.078  -9.858  0.00  0.00    -0.000 C 
ATOM     17  C   LIG d   1       3.100  -0.189  -8.929  0.00  0.00    -0.030 C 
ATOM     18  H   LIG d   1       2.049  -0.325  -9.184  0.00  0.00     0.031 H 
ATOM     19  C   LIG d   1       3.529   1.240  -9.310  0.00  0.00    -0.047 C 
ATOM     20  C   LIG d   1       3.676   1.174 -10.847  0.00  0.00    -0.024 C 
ATOM     21  C   LIG d   1       3.912  -0.305 -11.204  0.00  0.00     0.069 C 
ATOM     22 CL   LIG d   1       3.356   1.542  -2.702  0.00  0.00    -0.080 Cl
ATOM     23  H   LIG d   1       6.842   0.067  -5.655  0.00  0.00     0.028 H 
ATOM     24  H   LIG d   1       6.900  -1.706  -5.628  0.00  0.00     0.028 H 
ATOM     25  H   LIG d   1       6.230  -1.641  -3.308  0.00  0.00     0.035 H 
ATOM     26  H   LIG d   1       7.654  -0.712  -3.473  0.00  0.00     0.035 H 
ATOM     27  H   LIG d   1       2.053  -0.780  -5.012  0.00  0.00     0.031 H 
ATOM     28  H   LIG d   1       2.140   0.934  -4.536  0.00  0.00     0.031 H 
ATOM     29  H   LIG d   1       1.513   0.624  -6.952  0.00  0.00     0.027 H 
ATOM     30  H   LIG d   1       3.027   1.537  -6.744  0.00  0.00     0.027 H 
ATOM     31  H   LIG d   1       5.036  -2.497  -7.807  0.00  0.00     0.027 H 
ATOM     32  H   LIG d   1       6.549  -1.573  -7.639  0.00  0.00     0.027 H 
ATOM     33  H   LIG d   1       5.967  -1.799 -10.014  0.00  0.00     0.027 H 
ATOM     34  H   LIG d   1       5.830  -0.100  -9.513  0.00  0.00     0.027 H 
ATOM     35  H   LIG d   1       2.761   1.960  -9.028  0.00  0.00     0.027 H 
ATOM     36  H   LIG d   1       4.483   1.491  -8.843  0.00  0.00     0.027 H 
ATOM     37  H   LIG d   1       2.765   1.533 -11.325  0.00  0.00     0.029 H 
ATOM     38  H   LIG d   1       4.527   1.776 -11.168  0.00  0.00     0.029 H 
ENDROOT
BRANCH  21  39
ATOM     39  C   LIG d   1       5.249  -0.464 -11.932  0.00  0.00    -0.036 C 
ATOM     40  H   LIG d   1       5.909  -1.102 -11.345  0.00  0.00     0.026 H 
ATOM     41  H   LIG d   1       5.079  -0.917 -12.909  0.00  0.00     0.026 H 
ATOM     42  H   LIG d   1       5.710   0.515 -12.061  0.00  0.00     0.026 H 
ENDBRANCH  21  39
BRANCH  21  43
ATOM     43  O   LIG d   1       2.847  -0.789 -12.024  0.00  0.00    -0.388 OA
ATOM     44  H   LIG d   1       2.904  -0.510 -12.947  0.00  0.00     0.210 HD
ENDBRANCH  21  43
BRANCH  16  45
ATOM     45  C   LIG d   1       3.359  -2.485  -9.989  0.00  0.00    -0.057 C 
ATOM     46  H   LIG d   1       2.723  -2.533 -10.872  0.00  0.00     0.024 H 
ATOM     47  H   LIG d   1       4.169  -3.208 -10.086  0.00  0.00     0.024 H 
ATOM     48  H   LIG d   1       2.769  -2.718  -9.103  0.00  0.00     0.024 H 
ENDBRANCH  16  45
BRANCH   1  49
ATOM     49  C   LIG d   1       4.458  -2.332  -5.466  0.00  0.00    -0.056 C 
ATOM     50  H   LIG d   1       4.273  -2.745  -6.458  0.00  0.00     0.024 H 
ATOM     51  H   LIG d   1       5.228  -2.919  -4.965  0.00  0.00     0.024 H 
ATOM     52  H   LIG d   1       3.538  -2.365  -4.881  0.00  0.00     0.024 H 
ENDBRANCH   1  49
TORSDOF 4
ENDMDL
MODEL 6
REMARK VINA RESULT:      -6.2      3.279      4.544
REMARK  4 active torsions:
REMARK  status: ('A' for Active; 'I' for Inactive)
REMARK    1  A    between atoms: C_1  and  C_2 
REMARK    2  A    between atoms: C_17  and  C_25 
REMARK    3  A    between atoms: C_22  and  C_23 
REMARK    4  A    between atoms: C_22  and  O_24 
ROOT
ATOM      1  C   LIG d   1       5.887  -3.747  -5.983  0.00  0.00    -0.006 C 
ATOM      2  C   LIG d   1       5.193  -3.679  -7.332  0.00  0.00    -0.037 C 
ATOM      3  C   LIG d   1       5.644  -4.809  -8.257  0.00  0.00     0.012 C 
ATOM      4  C   LIG d   1       7.148  -4.698  -8.408  0.00  0.00     0.174 C 
ATOM      5  O   LIG d   1       7.684  -4.718  -9.496  0.00  0.00    -0.291 OA
ATOM      6  C   LIG d   1       7.922  -4.568  -7.167  0.00  0.00     0.083 C 
ATOM      7  C   LIG d   1       7.331  -4.130  -6.055  0.00  0.00    -0.042 C 
ATOM      8  C   LIG d   1       8.174  -4.030  -4.798  0.00  0.00    -0.029 C 
ATOM      9  C   LIG d   1       7.967  -2.646  -4.179  0.00  0.00    -0.046 C 
ATOM     10  C   LIG d   1       6.471  -2.420  -3.935  0.00  0.00    -0.034 C 
ATOM     11  H   LIG d   1       6.081  -3.253  -3.350  0.00  0.00     0.031 H 
ATOM     12  C   LIG d   1       5.736  -2.393  -5.274  0.00  0.00    -0.029 C 
ATOM     13  H   LIG d   1       6.137  -1.594  -5.897  0.00  0.00     0.031 H 
ATOM     14  C   LIG d   1       4.246  -2.145  -5.008  0.00  0.00    -0.049 C 
ATOM     15  C   LIG d   1       4.084  -0.773  -4.361  0.00  0.00    -0.044 C 
ATOM     16  C   LIG d   1       4.794  -0.731  -3.005  0.00  0.00    -0.000 C 
ATOM     17  C   LIG d   1       6.268  -1.141  -3.157  0.00  0.00    -0.030 C 
ATOM     18  H   LIG d   1       6.699  -1.257  -2.162  0.00  0.00     0.031 H 
ATOM     19  C   LIG d   1       6.912   0.076  -3.845  0.00  0.00    -0.047 C 
ATOM     20  C   LIG d   1       6.226   1.281  -3.162  0.00  0.00    -0.024 C 
ATOM     21  C   LIG d   1       4.888   0.764  -2.599  0.00  0.00     0.069 C 
ATOM     22 CL   LIG d   1       9.607  -4.985  -7.147  0.00  0.00    -0.080 Cl
ATOM     23  H   LIG d   1       5.423  -2.722  -7.802  0.00  0.00     0.028 H 
ATOM     24  H   LIG d   1       4.116  -3.750  -7.182  0.00  0.00     0.028 H 
ATOM     25  H   LIG d   1       5.392  -5.689  -7.853  0.00  0.00     0.035 H 
ATOM     26  H   LIG d   1       5.165  -4.704  -9.230  0.00  0.00     0.035 H 
ATOM     27  H   LIG d   1       7.866  -4.797  -4.088  0.00  0.00     0.031 H 
ATOM     28  H   LIG d   1       9.225  -4.167  -5.051  0.00  0.00     0.031 H 
ATOM     29  H   LIG d   1       8.503  -2.587  -3.232  0.00  0.00     0.027 H 
ATOM     30  H   LIG d   1       8.345  -1.883  -4.859  0.00  0.00     0.027 H 
ATOM     31  H   LIG d   1       3.861  -2.913  -4.339  0.00  0.00     0.027 H 
ATOM     32  H   LIG d   1       3.697  -2.172  -5.950  0.00  0.00     0.027 H 
ATOM     33  H   LIG d   1       3.023  -0.566  -4.218  0.00  0.00     0.027 H 
ATOM     34  H   LIG d   1       4.513  -0.014  -5.015  0.00  0.00     0.027 H 
ATOM     35  H   LIG d   1       7.987   0.095  -3.667  0.00  0.00     0.027 H 
ATOM     36  H   LIG d   1       6.699   0.070  -4.915  0.00  0.00     0.027 H 
ATOM     37  H   LIG d   1       6.851   1.657  -2.352  0.00  0.00     0.029 H 
ATOM     38  H   LIG d   1       6.043   2.071  -3.890  0.00  0.00     0.029 H 
ENDROOT
BRANCH  21  39
ATOM     39  C   LIG d   1       3.724   1.548  -3.209  0.00  0.00    -0.036 C 
ATOM     40  H   LIG d   1       2.914   1.618  -2.483  0.00  0.00     0.026 H 
ATOM     41  H   LIG d   1       4.060   2.549  -3.476  0.00  0.00     0.026 H 
ATOM     42  H   LIG d   1       3.368   1.034  -4.102  0.00  0.00     0.026 H 
ENDBRANCH  21  39
BRANCH  21  43
ATOM     43  O   LIG d   1       4.872   0.890  -1.176  0.00  0.00    -0.388 OA
ATOM     44  H   LIG d   1       4.164   1.456  -0.840  0.00  0.00     0.210 HD
ENDBRANCH  21  43
BRANCH  16  45
ATOM     45  C   LIG d   1       4.074  -1.570  -1.947  0.00  0.00    -0.057 C 
ATOM     46  H   LIG d   1       4.330  -2.620  -2.080  0.00  0.00     0.024 H 
ATOM     47  H   LIG d   1       4.383  -1.244  -0.954  0.00  0.00     0.024 H 
ATOM     48  H   LIG d   1       2.997  -1.441  -2.053  0.00  0.00     0.024 H 
ENDBRANCH  16  45
BRANCH   1  49
ATOM     49  C   LIG d   1       5.162  -4.790  -5.130  0.00  0.00    -0.056 C 
ATOM     50  H   LIG d   1       4.156  -4.438  -4.905  0.00  0.00     0.024 H 
ATOM     51  H   LIG d   1       5.105  -5.731  -5.678  0.00  0.00     0.024 H 
ATOM     52  H   LIG d   1       5.711  -4.945  -4.200  0.00  0.00     0.024 H 
ENDBRANCH   1  49
TORSDOF 4
ENDMDL
MODEL 7
REMARK VINA RESULT:      -5.7      3.572      6.116
REMARK  4 active torsions:
REMARK  status: ('A' for Active; 'I' for Inactive)
REMARK    1  A    between atoms: C_1  and  C_2 
REMARK    2  A    between atoms: C_17  and  C_25 
REMARK    3  A    between atoms: C_22  and  C_23 
REMARK    4  A    between atoms: C_22  and  O_24 
ROOT
ATOM      1  C   LIG d   1       5.323  -1.728  -4.087  0.00  0.00    -0.006 C 
ATOM      2  C   LIG d   1       5.540  -1.430  -2.614  0.00  0.00    -0.037 C 
ATOM      3  C   LIG d   1       4.234  -1.057  -1.915  0.00  0.00     0.012 C 
ATOM      4  C   LIG d   1       3.659   0.145  -2.639  0.00  0.00     0.174 C 
ATOM      5  O   LIG d   1       3.289   1.135  -2.041  0.00  0.00    -0.291 OA
ATOM      6  C   LIG d   1       3.573   0.048  -4.101  0.00  0.00     0.083 C 
ATOM      7  C   LIG d   1       4.343  -0.819  -4.759  0.00  0.00    -0.042 C 
ATOM      8  C   LIG d   1       4.202  -0.889  -6.268  0.00  0.00    -0.029 C 
ATOM      9  C   LIG d   1       5.596  -0.810  -6.893  0.00  0.00    -0.046 C 
ATOM     10  C   LIG d   1       6.477  -1.918  -6.307  0.00  0.00    -0.034 C 
ATOM     11  H   LIG d   1       5.967  -2.874  -6.429  0.00  0.00     0.031 H 
ATOM     12  C   LIG d   1       6.676  -1.673  -4.813  0.00  0.00    -0.029 C 
ATOM     13  H   LIG d   1       7.147  -0.703  -4.660  0.00  0.00     0.031 H 
ATOM     14  C   LIG d   1       7.576  -2.780  -4.251  0.00  0.00    -0.049 C 
ATOM     15  C   LIG d   1       8.943  -2.690  -4.924  0.00  0.00    -0.044 C 
ATOM     16  C   LIG d   1       8.818  -2.935  -6.430  0.00  0.00    -0.000 C 
ATOM     17  C   LIG d   1       7.792  -1.971  -7.048  0.00  0.00    -0.030 C 
ATOM     18  H   LIG d   1       7.610  -2.275  -8.079  0.00  0.00     0.031 H 
ATOM     19  C   LIG d   1       8.524  -0.616  -7.046  0.00  0.00    -0.047 C 
ATOM     20  C   LIG d   1       9.974  -0.990  -7.431  0.00  0.00    -0.024 C 
ATOM     21  C   LIG d   1      10.157  -2.475  -7.066  0.00  0.00     0.069 C 
ATOM     22 CL   LIG d   1       2.468   1.063  -4.975  0.00  0.00    -0.080 Cl
ATOM     23  H   LIG d   1       6.243  -0.602  -2.518  0.00  0.00     0.028 H 
ATOM     24  H   LIG d   1       5.962  -2.311  -2.131  0.00  0.00     0.028 H 
ATOM     25  H   LIG d   1       3.601  -1.831  -1.957  0.00  0.00     0.035 H 
ATOM     26  H   LIG d   1       4.430  -0.803  -0.874  0.00  0.00     0.035 H 
ATOM     27  H   LIG d   1       3.728  -1.829  -6.548  0.00  0.00     0.031 H 
ATOM     28  H   LIG d   1       3.593  -0.055  -6.617  0.00  0.00     0.031 H 
ATOM     29  H   LIG d   1       5.518  -0.940  -7.973  0.00  0.00     0.027 H 
ATOM     30  H   LIG d   1       6.038   0.162  -6.675  0.00  0.00     0.027 H 
ATOM     31  H   LIG d   1       7.131  -3.753  -4.456  0.00  0.00     0.027 H 
ATOM     32  H   LIG d   1       7.689  -2.649  -3.175  0.00  0.00     0.027 H 
ATOM     33  H   LIG d   1       9.606  -3.440  -4.491  0.00  0.00     0.027 H 
ATOM     34  H   LIG d   1       9.362  -1.699  -4.754  0.00  0.00     0.027 H 
ATOM     35  H   LIG d   1       8.091   0.056  -7.787  0.00  0.00     0.027 H 
ATOM     36  H   LIG d   1       8.495  -0.165  -6.053  0.00  0.00     0.027 H 
ATOM     37  H   LIG d   1      10.125  -0.846  -8.500  0.00  0.00     0.029 H 
ATOM     38  H   LIG d   1      10.680  -0.378  -6.869  0.00  0.00     0.029 H 
ENDROOT
BRANCH  21  39
ATOM     39  C   LIG d   1      11.299  -2.632  -6.059  0.00  0.00    -0.036 C 
ATOM     40  H   LIG d   1      11.673  -3.655  -6.093  0.00  0.00     0.026 H 
ATOM     41  H   LIG d   1      12.103  -1.942  -6.312  0.00  0.00     0.026 H 
ATOM     42  H   LIG d   1      10.932  -2.412  -5.057  0.00  0.00     0.026 H 
ENDBRANCH  21  39
BRANCH  21  43
ATOM     43  O   LIG d   1      10.431  -3.239  -8.242  0.00  0.00    -0.388 OA
ATOM     44  H   LIG d   1      10.517  -4.189  -8.082  0.00  0.00     0.210 HD
ENDBRANCH  21  43
BRANCH  16  45
ATOM     45  C   LIG d   1       8.498  -4.395  -6.756  0.00  0.00    -0.057 C 
ATOM     46  H   LIG d   1       7.419  -4.541  -6.748  0.00  0.00     0.024 H 
ATOM     47  H   LIG d   1       8.890  -4.641  -7.743  0.00  0.00     0.024 H 
ATOM     48  H   LIG d   1       8.959  -5.044  -6.010  0.00  0.00     0.024 H 
ENDBRANCH  16  45
BRANCH   1  49
ATOM     49  C   LIG d   1       4.801  -3.160  -4.208  0.00  0.00    -0.056 C 
ATOM     50  H   LIG d   1       5.631  -3.859  -4.108  0.00  0.00     0.024 H 
ATOM     51  H   LIG d   1       4.070  -3.348  -3.421  0.00  0.00     0.024 H 
ATOM     52  H   LIG d   1       4.327  -3.294  -5.182  0.00  0.00     0.024 H 
ENDBRANCH   1  49
TORSDOF 4
ENDMDL
MODEL 8
REMARK VINA RESULT:      -5.7      4.151      6.501
REMARK  4 active torsions:
REMARK  status: ('A' for Active; 'I' for Inactive)
REMARK    1  A    between atoms: C_1  and  C_2 
REMARK    2  A    between atoms: C_17  and  C_25 
REMARK    3  A    between atoms: C_22  and  C_23 
REMARK    4  A    between atoms: C_22  and  O_24 
ROOT
ATOM      1  C   LIG d   1       8.897  -1.198  -5.357  0.00  0.00    -0.006 C 
ATOM      2  C   LIG d   1       9.888  -0.114  -4.970  0.00  0.00    -0.037 C 
ATOM      3  C   LIG d   1      11.310  -0.469  -5.399  0.00  0.00     0.012 C 
ATOM      4  C   LIG d   1      11.663  -1.792  -4.749  0.00  0.00     0.174 C 
ATOM      5  O   LIG d   1      12.701  -1.948  -4.139  0.00  0.00    -0.291 OA
ATOM      6  C   LIG d   1      10.683  -2.875  -4.897  0.00  0.00     0.083 C 
ATOM      7  C   LIG d   1       9.412  -2.591  -5.178  0.00  0.00    -0.042 C 
ATOM      8  C   LIG d   1       8.445  -3.750  -5.335  0.00  0.00    -0.029 C 
ATOM      9  C   LIG d   1       7.205  -3.470  -4.483  0.00  0.00    -0.046 C 
ATOM     10  C   LIG d   1       6.610  -2.116  -4.884  0.00  0.00    -0.034 C 
ATOM     11  H   LIG d   1       6.444  -2.110  -5.961  0.00  0.00     0.031 H 
ATOM     12  C   LIG d   1       7.605  -1.006  -4.550  0.00  0.00    -0.029 C 
ATOM     13  H   LIG d   1       7.821  -1.016  -3.482  0.00  0.00     0.031 H 
ATOM     14  C   LIG d   1       6.982   0.341  -4.939  0.00  0.00    -0.049 C 
ATOM     15  C   LIG d   1       5.731   0.566  -4.094  0.00  0.00    -0.044 C 
ATOM     16  C   LIG d   1       4.685  -0.512  -4.386  0.00  0.00    -0.000 C 
ATOM     17  C   LIG d   1       5.286  -1.914  -4.186  0.00  0.00    -0.030 C 
ATOM     18  H   LIG d   1       4.573  -2.651  -4.554  0.00  0.00     0.031 H 
ATOM     19  C   LIG d   1       5.400  -2.043  -2.656  0.00  0.00    -0.047 C 
ATOM     20  C   LIG d   1       4.103  -1.377  -2.142  0.00  0.00    -0.024 C 
ATOM     21  C   LIG d   1       3.628  -0.423  -3.252  0.00  0.00     0.069 C 
ATOM     22 CL   LIG d   1      11.181  -4.528  -4.705  0.00  0.00    -0.080 Cl
ATOM     23  H   LIG d   1       9.866   0.018  -3.888  0.00  0.00     0.028 H 
ATOM     24  H   LIG d   1       9.596   0.822  -5.447  0.00  0.00     0.028 H 
ATOM     25  H   LIG d   1      11.348  -0.544  -6.396  0.00  0.00     0.035 H 
ATOM     26  H   LIG d   1      12.002   0.304  -5.065  0.00  0.00     0.035 H 
ATOM     27  H   LIG d   1       8.156  -3.846  -6.381  0.00  0.00     0.031 H 
ATOM     28  H   LIG d   1       8.922  -4.671  -5.001  0.00  0.00     0.031 H 
ATOM     29  H   LIG d   1       6.467  -4.255  -4.649  0.00  0.00     0.027 H 
ATOM     30  H   LIG d   1       7.484  -3.450  -3.430  0.00  0.00     0.027 H 
ATOM     31  H   LIG d   1       6.713   0.328  -5.994  0.00  0.00     0.027 H 
ATOM     32  H   LIG d   1       7.698   1.142  -4.753  0.00  0.00     0.027 H 
ATOM     33  H   LIG d   1       5.313   1.546  -4.326  0.00  0.00     0.027 H 
ATOM     34  H   LIG d   1       6.000   0.531  -3.039  0.00  0.00     0.027 H 
ATOM     35  H   LIG d   1       5.437  -3.091  -2.361  0.00  0.00     0.027 H 
ATOM     36  H   LIG d   1       6.277  -1.508  -2.290  0.00  0.00     0.027 H 
ATOM     37  H   LIG d   1       3.344  -2.136  -1.951  0.00  0.00     0.029 H 
ATOM     38  H   LIG d   1       4.307  -0.816  -1.229  0.00  0.00     0.029 H 
ENDROOT
BRANCH  21  39
ATOM     39  C   LIG d   1       3.551   1.010  -2.718  0.00  0.00    -0.036 C 
ATOM     40  H   LIG d   1       4.172   1.660  -3.334  0.00  0.00     0.026 H 
ATOM     41  H   LIG d   1       2.518   1.355  -2.750  0.00  0.00     0.026 H 
ATOM     42  H   LIG d   1       3.910   1.033  -1.689  0.00  0.00     0.026 H 
ENDBRANCH  21  39
BRANCH  21  43
ATOM     43  O   LIG d   1       2.348  -0.833  -3.739  0.00  0.00    -0.388 OA
ATOM     44  H   LIG d   1       1.650  -0.178  -3.607  0.00  0.00     0.210 HD
ENDBRANCH  21  43
BRANCH  16  45
ATOM     45  C   LIG d   1       4.056  -0.352  -5.772  0.00  0.00    -0.057 C 
ATOM     46  H   LIG d   1       2.971  -0.401  -5.686  0.00  0.00     0.024 H 
ATOM     47  H   LIG d   1       4.345   0.611  -6.192  0.00  0.00     0.024 H 
ATOM     48  H   LIG d   1       4.406  -1.153  -6.424  0.00  0.00     0.024 H 
ENDBRANCH  16  45
BRANCH   1  49
ATOM     49  C   LIG d   1       8.543  -1.010  -6.833  0.00  0.00    -0.056 C 
ATOM     50  H   LIG d   1       8.709  -1.945  -7.368  0.00  0.00     0.024 H 
ATOM     51  H   LIG d   1       7.495  -0.722  -6.922  0.00  0.00     0.024 H 
ATOM     52  H   LIG d   1       9.172  -0.228  -7.262  0.00  0.00     0.024 H 
ENDBRANCH   1  49
TORSDOF 4
ENDMDL
MODEL 9
REMARK VINA RESULT:      -5.6     10.114     12.717
REMARK  4 active torsions:
REMARK  status: ('A' for Active; 'I' for Inactive)
REMARK    1  A    between atoms: C_1  and  C_2 
REMARK    2  A    between atoms: C_17  and  C_25 
REMARK    3  A    between atoms: C_22  and  C_23 
REMARK    4  A    between atoms: C_22  and  O_24 
ROOT
ATOM      1  C   LIG d   1      10.115  -9.534  -1.075  0.00  0.00    -0.006 C 
ATOM      2  C   LIG d   1      10.486  -8.077  -0.858  0.00  0.00    -0.037 C 
ATOM      3  C   LIG d   1      11.650  -7.930   0.122  0.00  0.00     0.012 C 
ATOM      4  C   LIG d   1      11.233  -8.589   1.422  0.00  0.00     0.174 C 
ATOM      5  O   LIG d   1      11.354  -8.027   2.491  0.00  0.00    -0.291 OA
ATOM      6  C   LIG d   1      10.677  -9.944   1.320  0.00  0.00     0.083 C 
ATOM      7  C   LIG d   1      10.165 -10.369   0.165  0.00  0.00    -0.042 C 
ATOM      8  C   LIG d   1       9.619 -11.784   0.111  0.00  0.00    -0.029 C 
ATOM      9  C   LIG d   1       8.221 -11.744  -0.511  0.00  0.00    -0.046 C 
ATOM     10  C   LIG d   1       8.296 -11.062  -1.881  0.00  0.00    -0.034 C 
ATOM     11  H   LIG d   1       9.057 -11.562  -2.481  0.00  0.00     0.031 H 
ATOM     12  C   LIG d   1       8.715  -9.604  -1.702  0.00  0.00    -0.029 C 
ATOM     13  H   LIG d   1       7.992  -9.091  -1.069  0.00  0.00     0.031 H 
ATOM     14  C   LIG d   1       8.763  -8.936  -3.081  0.00  0.00    -0.049 C 
ATOM     15  C   LIG d   1       7.361  -8.948  -3.682  0.00  0.00    -0.044 C 
ATOM     16  C   LIG d   1       6.880 -10.385  -3.897  0.00  0.00    -0.000 C 
ATOM     17  C   LIG d   1       6.966 -11.182  -2.585  0.00  0.00    -0.030 C 
ATOM     18  H   LIG d   1       6.772 -12.232  -2.806  0.00  0.00     0.031 H 
ATOM     19  C   LIG d   1       5.802 -10.623  -1.746  0.00  0.00    -0.047 C 
ATOM     20  C   LIG d   1       4.671 -10.430  -2.782  0.00  0.00    -0.024 C 
ATOM     21  C   LIG d   1       5.352 -10.307  -4.158  0.00  0.00     0.069 C 
ATOM     22 CL   LIG d   1      10.686 -10.993   2.703  0.00  0.00    -0.080 Cl
ATOM     23  H   LIG d   1       9.621  -7.544  -0.463  0.00  0.00     0.028 H 
ATOM     24  H   LIG d   1      10.769  -7.636  -1.814  0.00  0.00     0.028 H 
ATOM     25  H   LIG d   1      12.461  -8.376  -0.257  0.00  0.00     0.035 H 
ATOM     26  H   LIG d   1      11.860  -6.875   0.292  0.00  0.00     0.035 H 
ATOM     27  H   LIG d   1      10.273 -12.406  -0.499  0.00  0.00     0.031 H 
ATOM     28  H   LIG d   1       9.562 -12.192   1.120  0.00  0.00     0.031 H 
ATOM     29  H   LIG d   1       7.848 -12.761  -0.631  0.00  0.00     0.027 H 
ATOM     30  H   LIG d   1       7.549 -11.184   0.139  0.00  0.00     0.027 H 
ATOM     31  H   LIG d   1       9.444  -9.486  -3.730  0.00  0.00     0.027 H 
ATOM     32  H   LIG d   1       9.108  -7.907  -2.977  0.00  0.00     0.027 H 
ATOM     33  H   LIG d   1       7.376  -8.426  -4.639  0.00  0.00     0.027 H 
ATOM     34  H   LIG d   1       6.676  -8.436  -3.006  0.00  0.00     0.027 H 
ATOM     35  H   LIG d   1       5.503 -11.337  -0.979  0.00  0.00     0.027 H 
ATOM     36  H   LIG d   1       6.078  -9.668  -1.297  0.00  0.00     0.027 H 
ATOM     37  H   LIG d   1       4.004 -11.292  -2.771  0.00  0.00     0.029 H 
ATOM     38  H   LIG d   1       4.111  -9.521  -2.561  0.00  0.00     0.029 H 
ENDROOT
BRANCH  21  39
ATOM     39  C   LIG d   1       4.997  -8.964  -4.802  0.00  0.00    -0.036 C 
ATOM     40  H   LIG d   1       5.898  -8.359  -4.900  0.00  0.00     0.026 H 
ATOM     41  H   LIG d   1       4.566  -9.137  -5.788  0.00  0.00     0.026 H 
ATOM     42  H   LIG d   1       4.274  -8.441  -4.176  0.00  0.00     0.026 H 
ENDBRANCH  21  39
BRANCH  21  43
ATOM     43  O   LIG d   1       4.942 -11.381  -5.007  0.00  0.00    -0.388 OA
ATOM     44  H   LIG d   1       4.561 -12.133  -4.533  0.00  0.00     0.210 HD
ENDBRANCH  21  43
BRANCH  16  45
ATOM     45  C   LIG d   1       7.623 -11.081  -5.039  0.00  0.00    -0.057 C 
ATOM     46  H   LIG d   1       6.902 -11.495  -5.743  0.00  0.00     0.024 H 
ATOM     47  H   LIG d   1       8.259 -10.359  -5.552  0.00  0.00     0.024 H 
ATOM     48  H   LIG d   1       8.239 -11.885  -4.635  0.00  0.00     0.024 H 
ENDBRANCH  16  45
BRANCH   1  49
ATOM     49  C   LIG d   1      11.097 -10.127  -2.087  0.00  0.00    -0.056 C 
ATOM     50  H   LIG d   1      11.331  -9.380  -2.845  0.00  0.00     0.024 H 
ATOM     51  H   LIG d   1      12.012 -10.424  -1.574  0.00  0.00     0.024 H 
ATOM     52  H   LIG d   1      10.647 -10.999  -2.562  0.00  0.00     0.024 H 
ENDBRANCH   1  49
TORSDOF 4
ENDMDL
MODEL 10
REMARK VINA RESULT:      -5.5      4.007      6.089
REMARK  4 active torsions:
REMARK  status: ('A' for Active; 'I' for Inactive)
REMARK    1  A    between atoms: C_1  and  C_2 
REMARK    2  A    between atoms: C_17  and  C_25 
REMARK    3  A    between atoms: C_22  and  C_23 
REMARK    4  A    between atoms: C_22  and  O_24 
ROOT
ATOM      1  C   LIG d   1       1.508  -2.185 -12.710  0.00  0.00    -0.006 C 
ATOM      2  C   LIG d   1       0.004  -2.025 -12.847  0.00  0.00    -0.037 C 
ATOM      3  C   LIG d   1      -0.535  -2.777 -14.063  0.00  0.00     0.012 C 
ATOM      4  C   LIG d   1       0.186  -2.242 -15.284  0.00  0.00     0.174 C 
ATOM      5  O   LIG d   1      -0.415  -1.892 -16.279  0.00  0.00    -0.291 OA
ATOM      6  C   LIG d   1       1.650  -2.171 -15.200  0.00  0.00     0.083 C 
ATOM      7  C   LIG d   1       2.249  -2.146 -14.009  0.00  0.00    -0.042 C 
ATOM      8  C   LIG d   1       3.765  -2.089 -13.981  0.00  0.00    -0.029 C 
ATOM      9  C   LIG d   1       4.193  -0.970 -13.030  0.00  0.00    -0.046 C 
ATOM     10  C   LIG d   1       3.562  -1.205 -11.653  0.00  0.00    -0.034 C 
ATOM     11  H   LIG d   1       3.807  -2.215 -11.323  0.00  0.00     0.031 H 
ATOM     12  C   LIG d   1       2.042  -1.099 -11.766  0.00  0.00    -0.029 C 
ATOM     13  H   LIG d   1       1.771  -0.110 -12.137  0.00  0.00     0.031 H 
ATOM     14  C   LIG d   1       1.432  -1.316 -10.376  0.00  0.00    -0.049 C 
ATOM     15  C   LIG d   1       1.910  -0.202  -9.450  0.00  0.00    -0.044 C 
ATOM     16  C   LIG d   1       3.431  -0.255  -9.285  0.00  0.00    -0.000 C 
ATOM     17  C   LIG d   1       4.122  -0.217 -10.658  0.00  0.00    -0.030 C 
ATOM     18  H   LIG d   1       5.185  -0.418 -10.516  0.00  0.00     0.031 H 
ATOM     19  C   LIG d   1       3.943   1.243 -11.112  0.00  0.00    -0.047 C 
ATOM     20  C   LIG d   1       4.153   2.052  -9.812  0.00  0.00    -0.024 C 
ATOM     21  C   LIG d   1       3.856   1.093  -8.644  0.00  0.00     0.069 C 
ATOM     22 CL   LIG d   1       2.601  -2.120 -16.651  0.00  0.00    -0.080 Cl
ATOM     23  H   LIG d   1      -0.233  -0.966 -12.951  0.00  0.00     0.028 H 
ATOM     24  H   LIG d   1      -0.478  -2.411 -11.949  0.00  0.00     0.028 H 
ATOM     25  H   LIG d   1      -0.364  -3.757 -13.952  0.00  0.00     0.035 H 
ATOM     26  H   LIG d   1      -1.607  -2.604 -14.160  0.00  0.00     0.035 H 
ATOM     27  H   LIG d   1       4.161  -3.041 -13.627  0.00  0.00     0.031 H 
ATOM     28  H   LIG d   1       4.142  -1.886 -14.983  0.00  0.00     0.031 H 
ATOM     29  H   LIG d   1       5.279  -0.969 -12.936  0.00  0.00     0.027 H 
ATOM     30  H   LIG d   1       3.861  -0.010 -13.424  0.00  0.00     0.027 H 
ATOM     31  H   LIG d   1       1.752  -2.281  -9.984  0.00  0.00     0.027 H 
ATOM     32  H   LIG d   1       0.344  -1.292 -10.446  0.00  0.00     0.027 H 
ATOM     33  H   LIG d   1       1.438  -0.319  -8.474  0.00  0.00     0.027 H 
ATOM     34  H   LIG d   1       1.628   0.762  -9.872  0.00  0.00     0.027 H 
ATOM     35  H   LIG d   1       4.694   1.510 -11.856  0.00  0.00     0.027 H 
ATOM     36  H   LIG d   1       2.938   1.402 -11.505  0.00  0.00     0.027 H 
ATOM     37  H   LIG d   1       5.182   2.405  -9.753  0.00  0.00     0.029 H 
ATOM     38  H   LIG d   1       3.466   2.899  -9.783  0.00  0.00     0.029 H 
ENDROOT
BRANCH  21  39
ATOM     39  C   LIG d   1       2.717   1.648  -7.785  0.00  0.00    -0.036 C 
ATOM     40  H   LIG d   1       1.786   1.145  -8.047  0.00  0.00     0.026 H 
ATOM     41  H   LIG d   1       2.939   1.476  -6.732  0.00  0.00     0.026 H 
ATOM     42  H   LIG d   1       2.614   2.718  -7.965  0.00  0.00     0.026 H 
ENDBRANCH  21  39
BRANCH  21  43
ATOM     43  O   LIG d   1       5.027   0.912  -7.847  0.00  0.00    -0.388 OA
ATOM     44  H   LIG d   1       5.246   1.673  -7.292  0.00  0.00     0.210 HD
ENDBRANCH  21  43
BRANCH  16  45
ATOM     45  C   LIG d   1       3.883  -1.455  -8.451  0.00  0.00    -0.057 C 
ATOM     46  H   LIG d   1       4.187  -1.116  -7.461  0.00  0.00     0.024 H 
ATOM     47  H   LIG d   1       3.059  -2.162  -8.355  0.00  0.00     0.024 H 
ATOM     48  H   LIG d   1       4.725  -1.944  -8.942  0.00  0.00     0.024 H 
ENDBRANCH  16  45
BRANCH   1  49
ATOM     49  C   LIG d   1       1.782  -3.537 -12.049  0.00  0.00    -0.056 C 
ATOM     50  H   LIG d   1       2.704  -3.957 -12.450  0.00  0.00     0.024 H 
ATOM     51  H   LIG d   1       1.883  -3.400 -10.972  0.00  0.00     0.024 H 
ATOM     52  H   LIG d   1       0.953  -4.216 -12.252  0.00  0.00     0.024 H 
ENDBRANCH   1  49
TORSDOF 4
ENDMDL
