MODEL 1
REMARK VINA RESULT:      -6.1      0.000      0.000
REMARK  14 active torsions:
REMARK  status: ('A' for Active; 'I' for Inactive)
REMARK    1  A    between atoms: C_1  and  C_2 
REMARK    2  A    between atoms: C_2  and  C_4 
REMARK    3  A    between atoms: C_8  and  C_40 
REMARK    4  A    between atoms: C_17  and  C_39 
REMARK    5  A    between atoms: C_20  and  O_35 
REMARK    6  A    between atoms: C_22  and  C_33 
REMARK    7  A    between atoms: C_22  and  C_34 
REMARK    8  A    between atoms: C_27  and  C_32 
REMARK    9  A    between atoms: C_28  and  C_31 
REMARK   10  A    between atoms: O_35  and  C_36 
REMARK   11  A    between atoms: C_36  and  C_38 
REMARK   12  A    between atoms: C_40  and  O_41 
REMARK   13  A    between atoms: O_41  and  C_42 
REMARK   14  A    between atoms: C_42  and  C_44 
ROOT
ATOM      1  C   LIG d   1       4.410   0.023  -4.129  0.00  0.00     0.021 C 
ATOM      2  H   LIG d   1       4.999   0.670  -3.465  0.00  0.00     0.038 H 
ATOM      3  C   LIG d   1       3.327   0.887  -4.839  0.00  0.00    -0.043 C 
ATOM      4  C   LIG d   1       3.027   0.111  -6.137  0.00  0.00    -0.043 C 
ATOM      5  C   LIG d   1       4.346  -0.610  -6.518  0.00  0.00     0.009 C 
ATOM      6  C   LIG d   1       5.258  -0.464  -5.295  0.00  0.00    -0.019 C 
ATOM      7  H   LIG d   1       5.891   0.446  -5.557  0.00  0.00     0.032 H 
ATOM      8  C   LIG d   1       6.281  -1.528  -5.087  0.00  0.00    -0.031 C 
ATOM      9  H   LIG d   1       7.106  -1.193  -5.777  0.00  0.00     0.031 H 
ATOM     10  C   LIG d   1       6.947  -1.496  -3.714  0.00  0.00    -0.049 C 
ATOM     11  C   LIG d   1       8.242  -2.323  -3.772  0.00  0.00    -0.049 C 
ATOM     12  C   LIG d   1       7.910  -3.746  -4.205  0.00  0.00    -0.029 C 
ATOM     13  H   LIG d   1       7.178  -4.129  -3.455  0.00  0.00     0.031 H 
ATOM     14  C   LIG d   1       9.113  -4.682  -4.061  0.00  0.00    -0.025 C 
ATOM     15  C   LIG d   1       9.498  -4.722  -2.569  0.00  0.00    -0.044 C 
ATOM     16  C   LIG d   1      10.631  -5.724  -2.362  0.00  0.00    -0.015 C 
ATOM     17  C   LIG d   1      10.178  -7.127  -2.741  0.00  0.00     0.108 C 
ATOM     18  H   LIG d   1       9.382  -7.444  -2.057  0.00  0.00     0.074 H 
ATOM     19  C   LIG d   1       9.650  -7.197  -4.174  0.00  0.00     0.005 C 
ATOM     20  C   LIG d   1       8.675  -6.082  -4.473  0.00  0.00    -0.027 C 
ATOM     21  H   LIG d   1       7.763  -6.300  -3.856  0.00  0.00     0.031 H 
ATOM     22  C   LIG d   1       8.188  -6.077  -5.919  0.00  0.00    -0.049 C 
ATOM     23  C   LIG d   1       6.914  -5.217  -5.980  0.00  0.00    -0.047 C 
ATOM     24  C   LIG d   1       7.241  -3.779  -5.569  0.00  0.00    -0.023 C 
ATOM     25  C   LIG d   1       5.940  -2.947  -5.503  0.00  0.00    -0.023 C 
ATOM     26  C   LIG d   1       5.258  -2.931  -6.873  0.00  0.00    -0.046 C 
ATOM     27  C   LIG d   1       3.999  -2.069  -6.805  0.00  0.00    -0.043 C 
ATOM     28  H   LIG d   1       2.438   0.950  -4.219  0.00  0.00     0.027 H 
ATOM     29  H   LIG d   1       3.727   1.870  -5.064  0.00  0.00     0.027 H 
ATOM     30  H   LIG d   1       2.232  -0.613  -5.973  0.00  0.00     0.027 H 
ATOM     31  H   LIG d   1       2.741   0.808  -6.926  0.00  0.00     0.027 H 
ATOM     32  H   LIG d   1       7.204  -0.464  -3.461  0.00  0.00     0.027 H 
ATOM     33  H   LIG d   1       6.301  -1.902  -2.945  0.00  0.00     0.027 H 
ATOM     34  H   LIG d   1       8.933  -1.848  -4.462  0.00  0.00     0.027 H 
ATOM     35  H   LIG d   1       8.686  -2.333  -2.774  0.00  0.00     0.027 H 
ATOM     36  H   LIG d   1       9.826  -3.731  -2.262  0.00  0.00     0.027 H 
ATOM     37  H   LIG d   1       8.628  -5.021  -1.988  0.00  0.00     0.027 H 
ATOM     38  H   LIG d   1      11.516  -5.441  -2.924  0.00  0.00     0.030 H 
ATOM     39  H   LIG d   1      10.904  -5.721  -1.296  0.00  0.00     0.030 H 
ATOM     40  H   LIG d   1       8.939  -5.690  -6.593  0.00  0.00     0.027 H 
ATOM     41  H   LIG d   1       7.921  -7.089  -6.233  0.00  0.00     0.027 H 
ATOM     42  H   LIG d   1       6.537  -5.225  -7.003  0.00  0.00     0.027 H 
ATOM     43  H   LIG d   1       6.179  -5.663  -5.316  0.00  0.00     0.027 H 
ATOM     44  H   LIG d   1       5.915  -2.536  -7.641  0.00  0.00     0.027 H 
ATOM     45  H   LIG d   1       4.970  -3.952  -7.143  0.00  0.00     0.027 H 
ATOM     46  H   LIG d   1       3.309  -2.444  -6.060  0.00  0.00     0.027 H 
ATOM     47  H   LIG d   1       3.501  -2.119  -7.783  0.00  0.00     0.027 H 
ENDROOT
BRANCH   5  48
ATOM     48  C   LIG d   1       4.979   0.055  -7.756  0.00  0.00     0.098 C 
ATOM     49  H   LIG d   1       6.058   0.127  -7.617  0.00  0.00     0.070 H 
ATOM     50  H   LIG d   1       4.766  -0.546  -8.640  0.00  0.00     0.070 H 
BRANCH  48  51
ATOM     51  O   LIG d   1       4.431   1.363  -7.926  0.00  0.00    -0.464 OA
BRANCH  51  52
ATOM     52  C   LIG d   1       4.702   1.992  -9.081  0.00  0.00     0.304 C 
ATOM     53  O   LIG d   1       5.823   2.379  -9.311  0.00  0.00    -0.251 OA
BRANCH  52  54
ATOM     54  C   LIG d   1       3.607   2.212 -10.093  0.00  0.00     0.033 C 
ATOM     55  H   LIG d   1       3.112   1.265 -10.305  0.00  0.00     0.034 H 
ATOM     56  H   LIG d   1       2.880   2.920  -9.695  0.00  0.00     0.034 H 
ATOM     57  H   LIG d   1       4.036   2.612 -11.012  0.00  0.00     0.034 H 
ENDBRANCH  52  54
ENDBRANCH  51  52
ENDBRANCH  48  51
ENDBRANCH   5  48
BRANCH   1  58
ATOM     58  C   LIG d   1       3.730  -1.044  -3.326  0.00  0.00     0.134 C 
ATOM     59  O   LIG d   1       2.746  -1.594  -3.761  0.00  0.00    -0.297 OA
BRANCH  58  60
ATOM     60  C   LIG d   1       4.273  -1.432  -1.975  0.00  0.00    -0.006 C 
ATOM     61  H   LIG d   1       4.085  -2.491  -1.797  0.00  0.00     0.031 H 
ATOM     62  H   LIG d   1       5.346  -1.244  -1.947  0.00  0.00     0.031 H 
ATOM     63  H   LIG d   1       3.781  -0.840  -1.202  0.00  0.00     0.031 H 
ENDBRANCH  58  60
ENDBRANCH   1  58
BRANCH  25  64
ATOM     64  C   LIG d   1       4.992  -3.619  -4.503  0.00  0.00    -0.059 C 
ATOM     65  H   LIG d   1       5.274  -4.665  -4.381  0.00  0.00     0.024 H 
ATOM     66  H   LIG d   1       5.060  -3.111  -3.541  0.00  0.00     0.024 H 
ATOM     67  H   LIG d   1       3.969  -3.559  -4.875  0.00  0.00     0.024 H 
ENDBRANCH  25  64
BRANCH  24  68
ATOM     68  C   LIG d   1       8.130  -3.180  -6.666  0.00  0.00    -0.059 C 
ATOM     69  H   LIG d   1       8.078  -2.092  -6.621  0.00  0.00     0.024 H 
ATOM     70  H   LIG d   1       9.160  -3.501  -6.515  0.00  0.00     0.024 H 
ATOM     71  H   LIG d   1       7.782  -3.520  -7.642  0.00  0.00     0.024 H 
ENDBRANCH  24  68
BRANCH  14  72
ATOM     72  C   LIG d   1      10.320  -4.173  -4.836  0.00  0.00    -0.059 C 
ATOM     73  H   LIG d   1      11.183  -4.121  -4.171  0.00  0.00     0.024 H 
ATOM     74  H   LIG d   1      10.537  -4.854  -5.659  0.00  0.00     0.024 H 
ATOM     75  H   LIG d   1      10.106  -3.181  -5.231  0.00  0.00     0.024 H 
ENDBRANCH  14  72
BRANCH  19  76
ATOM     76  C   LIG d   1       8.896  -8.545  -4.292  0.00  0.00    -0.056 C 
ATOM     77  H   LIG d   1       8.684  -8.752  -5.341  0.00  0.00     0.024 H 
ATOM     78  H   LIG d   1       9.514  -9.344  -3.882  0.00  0.00     0.024 H 
ATOM     79  H   LIG d   1       7.960  -8.488  -3.737  0.00  0.00     0.024 H 
ENDBRANCH  19  76
BRANCH  19  80
ATOM     80  C   LIG d   1      10.817  -7.250  -5.160  0.00  0.00    -0.056 C 
ATOM     81  H   LIG d   1      11.386  -8.165  -4.999  0.00  0.00     0.024 H 
ATOM     82  H   LIG d   1      10.430  -7.237  -6.180  0.00  0.00     0.024 H 
ATOM     83  H   LIG d   1      11.463  -6.387  -5.005  0.00  0.00     0.024 H 
ENDBRANCH  19  80
BRANCH  17  84
ATOM     84  O   LIG d   1      11.278  -8.035  -2.603  0.00  0.00    -0.461 OA
BRANCH  84  85
ATOM     85  C   LIG d   1      11.580  -8.443  -1.360  0.00  0.00     0.304 C 
ATOM     86  O   LIG d   1      12.672  -8.213  -0.897  0.00  0.00    -0.251 OA
BRANCH  85  87
ATOM     87  C   LIG d   1      10.557  -9.189  -0.544  0.00  0.00     0.033 C 
ATOM     88  H   LIG d   1      10.945  -9.355   0.462  0.00  0.00     0.034 H 
ATOM     89  H   LIG d   1       9.640  -8.602  -0.486  0.00  0.00     0.034 H 
ATOM     90  H   LIG d   1      10.345 -10.148  -1.015  0.00  0.00     0.034 H 
ENDBRANCH  85  87
ENDBRANCH  84  85
ENDBRANCH  17  84
TORSDOF 14
ENDMDL
MODEL 2
REMARK VINA RESULT:      -5.6      8.869     11.702
REMARK  14 active torsions:
REMARK  status: ('A' for Active; 'I' for Inactive)
REMARK    1  A    between atoms: C_1  and  C_2 
REMARK    2  A    between atoms: C_2  and  C_4 
REMARK    3  A    between atoms: C_8  and  C_40 
REMARK    4  A    between atoms: C_17  and  C_39 
REMARK    5  A    between atoms: C_20  and  O_35 
REMARK    6  A    between atoms: C_22  and  C_33 
REMARK    7  A    between atoms: C_22  and  C_34 
REMARK    8  A    between atoms: C_27  and  C_32 
REMARK    9  A    between atoms: C_28  and  C_31 
REMARK   10  A    between atoms: O_35  and  C_36 
REMARK   11  A    between atoms: C_36  and  C_38 
REMARK   12  A    between atoms: C_40  and  O_41 
REMARK   13  A    between atoms: O_41  and  C_42 
REMARK   14  A    between atoms: C_42  and  C_44 
ROOT
ATOM      1  C   LIG d   1      10.574   7.872  -0.103  0.00  0.00     0.021 C 
ATOM      2  H   LIG d   1      10.259   7.106   0.619  0.00  0.00     0.038 H 
ATOM      3  C   LIG d   1      11.291   9.020   0.664  0.00  0.00    -0.043 C 
ATOM      4  C   LIG d   1      12.214   9.654  -0.396  0.00  0.00    -0.043 C 
ATOM      5  C   LIG d   1      12.604   8.506  -1.362  0.00  0.00     0.009 C 
ATOM      6  C   LIG d   1      11.678   7.339  -1.004  0.00  0.00    -0.019 C 
ATOM      7  H   LIG d   1      12.317   6.716  -0.295  0.00  0.00     0.032 H 
ATOM      8  C   LIG d   1      11.358   6.374  -2.094  0.00  0.00    -0.031 C 
ATOM      9  H   LIG d   1      12.261   5.699  -2.077  0.00  0.00     0.031 H 
ATOM     10  C   LIG d   1      10.212   5.420  -1.769  0.00  0.00    -0.049 C 
ATOM     11  C   LIG d   1      10.264   4.232  -2.743  0.00  0.00    -0.049 C 
ATOM     12  C   LIG d   1      10.178   4.751  -4.174  0.00  0.00    -0.029 C 
ATOM     13  H   LIG d   1       9.223   5.326  -4.232  0.00  0.00     0.031 H 
ATOM     14  C   LIG d   1       9.991   3.616  -5.184  0.00  0.00    -0.025 C 
ATOM     15  C   LIG d   1       8.657   2.915  -4.857  0.00  0.00    -0.044 C 
ATOM     16  C   LIG d   1       8.378   1.838  -5.902  0.00  0.00    -0.015 C 
ATOM     17  C   LIG d   1       8.225   2.463  -7.283  0.00  0.00     0.108 C 
ATOM     18  H   LIG d   1       7.339   3.109  -7.288  0.00  0.00     0.074 H 
ATOM     19  C   LIG d   1       9.443   3.297  -7.679  0.00  0.00     0.005 C 
ATOM     20  C   LIG d   1       9.872   4.233  -6.572  0.00  0.00    -0.027 C 
ATOM     21  H   LIG d   1       9.056   4.999  -6.486  0.00  0.00     0.031 H 
ATOM     22  C   LIG d   1      11.132   5.026  -6.906  0.00  0.00    -0.049 C 
ATOM     23  C   LIG d   1      11.205   6.217  -5.935  0.00  0.00    -0.047 C 
ATOM     24  C   LIG d   1      11.316   5.706  -4.497  0.00  0.00    -0.023 C 
ATOM     25  C   LIG d   1      11.257   6.897  -3.514  0.00  0.00    -0.023 C 
ATOM     26  C   LIG d   1      12.412   7.862  -3.790  0.00  0.00    -0.046 C 
ATOM     27  C   LIG d   1      12.368   9.010  -2.785  0.00  0.00    -0.043 C 
ATOM     28  H   LIG d   1      10.561   9.744   1.015  0.00  0.00     0.027 H 
ATOM     29  H   LIG d   1      11.873   8.611   1.483  0.00  0.00     0.027 H 
ATOM     30  H   LIG d   1      11.692  10.443  -0.932  0.00  0.00     0.027 H 
ATOM     31  H   LIG d   1      13.106  10.056   0.085  0.00  0.00     0.027 H 
ATOM     32  H   LIG d   1      10.334   5.041  -0.751  0.00  0.00     0.027 H 
ATOM     33  H   LIG d   1       9.248   5.908  -1.855  0.00  0.00     0.027 H 
ATOM     34  H   LIG d   1      11.183   3.679  -2.576  0.00  0.00     0.027 H 
ATOM     35  H   LIG d   1       9.412   3.581  -2.534  0.00  0.00     0.027 H 
ATOM     36  H   LIG d   1       8.730   2.457  -3.872  0.00  0.00     0.027 H 
ATOM     37  H   LIG d   1       7.859   3.654  -4.864  0.00  0.00     0.027 H 
ATOM     38  H   LIG d   1       9.157   1.082  -5.908  0.00  0.00     0.030 H 
ATOM     39  H   LIG d   1       7.435   1.337  -5.639  0.00  0.00     0.030 H 
ATOM     40  H   LIG d   1      12.022   4.416  -6.825  0.00  0.00     0.027 H 
ATOM     41  H   LIG d   1      11.071   5.426  -7.921  0.00  0.00     0.027 H 
ATOM     42  H   LIG d   1      12.088   6.810  -6.178  0.00  0.00     0.027 H 
ATOM     43  H   LIG d   1      10.312   6.817  -6.077  0.00  0.00     0.027 H 
ATOM     44  H   LIG d   1      13.374   7.364  -3.715  0.00  0.00     0.027 H 
ATOM     45  H   LIG d   1      12.303   8.274  -4.799  0.00  0.00     0.027 H 
ATOM     46  H   LIG d   1      11.428   9.545  -2.842  0.00  0.00     0.027 H 
ATOM     47  H   LIG d   1      13.173   9.714  -3.038  0.00  0.00     0.027 H 
ENDROOT
BRANCH   5  48
ATOM     48  C   LIG d   1      14.081   8.116  -1.159  0.00  0.00     0.098 C 
ATOM     49  H   LIG d   1      14.492   7.748  -2.099  0.00  0.00     0.070 H 
ATOM     50  H   LIG d   1      14.646   8.989  -0.832  0.00  0.00     0.070 H 
BRANCH  48  51
ATOM     51  O   LIG d   1      14.171   7.091  -0.167  0.00  0.00    -0.464 OA
BRANCH  51  52
ATOM     52  C   LIG d   1      15.082   6.126  -0.369  0.00  0.00     0.304 C 
ATOM     53  O   LIG d   1      16.146   6.170   0.203  0.00  0.00    -0.251 OA
BRANCH  52  54
ATOM     54  C   LIG d   1      14.777   4.986  -1.307  0.00  0.00     0.033 C 
ATOM     55  H   LIG d   1      15.381   5.087  -2.208  0.00  0.00     0.034 H 
ATOM     56  H   LIG d   1      15.010   4.041  -0.817  0.00  0.00     0.034 H 
ATOM     57  H   LIG d   1      13.721   5.007  -1.572  0.00  0.00     0.034 H 
ENDBRANCH  52  54
ENDBRANCH  51  52
ENDBRANCH  48  51
ENDBRANCH   5  48
BRANCH   1  58
ATOM     58  C   LIG d   1       9.373   8.432  -0.804  0.00  0.00     0.134 C 
ATOM     59  O   LIG d   1       8.409   7.732  -1.005  0.00  0.00    -0.297 OA
BRANCH  58  60
ATOM     60  C   LIG d   1       9.367   9.868  -1.259  0.00  0.00    -0.006 C 
ATOM     61  H   LIG d   1       9.548   9.911  -2.333  0.00  0.00     0.031 H 
ATOM     62  H   LIG d   1       8.399  10.316  -1.035  0.00  0.00     0.031 H 
ATOM     63  H   LIG d   1      10.151  10.418  -0.736  0.00  0.00     0.031 H 
ENDBRANCH  58  60
ENDBRANCH   1  58
BRANCH  25  64
ATOM     64  C   LIG d   1       9.940   7.647  -3.749  0.00  0.00    -0.059 C 
ATOM     65  H   LIG d   1       9.142   6.928  -3.941  0.00  0.00     0.024 H 
ATOM     66  H   LIG d   1       9.693   8.233  -2.863  0.00  0.00     0.024 H 
ATOM     67  H   LIG d   1      10.046   8.310  -4.607  0.00  0.00     0.024 H 
ENDBRANCH  25  64
BRANCH  24  68
ATOM     68  C   LIG d   1      12.690   5.041  -4.351  0.00  0.00    -0.059 C 
ATOM     69  H   LIG d   1      13.234   5.507  -3.529  0.00  0.00     0.024 H 
ATOM     70  H   LIG d   1      12.560   3.979  -4.144  0.00  0.00     0.024 H 
ATOM     71  H   LIG d   1      13.254   5.165  -5.276  0.00  0.00     0.024 H 
ENDBRANCH  24  68
BRANCH  14  72
ATOM     72  C   LIG d   1      11.097   2.577  -5.076  0.00  0.00    -0.059 C 
ATOM     73  H   LIG d   1      11.971   2.919  -5.632  0.00  0.00     0.024 H 
ATOM     74  H   LIG d   1      11.365   2.438  -4.028  0.00  0.00     0.024 H 
ATOM     75  H   LIG d   1      10.750   1.632  -5.491  0.00  0.00     0.024 H 
ENDBRANCH  14  72
BRANCH  19  76
ATOM     76  C   LIG d   1       9.005   4.153  -8.893  0.00  0.00    -0.056 C 
ATOM     77  H   LIG d   1       9.050   3.548  -9.799  0.00  0.00     0.024 H 
ATOM     78  H   LIG d   1       7.984   4.503  -8.742  0.00  0.00     0.024 H 
ATOM     79  H   LIG d   1       9.671   5.009  -8.995  0.00  0.00     0.024 H 
ENDBRANCH  19  76
BRANCH  19  80
ATOM     80  C   LIG d   1      10.570   2.384  -8.159  0.00  0.00    -0.056 C 
ATOM     81  H   LIG d   1      11.114   2.872  -8.967  0.00  0.00     0.024 H 
ATOM     82  H   LIG d   1      11.252   2.183  -7.332  0.00  0.00     0.024 H 
ATOM     83  H   LIG d   1      10.149   1.446  -8.519  0.00  0.00     0.024 H 
ENDBRANCH  19  80
BRANCH  17  84
ATOM     84  O   LIG d   1       8.033   1.427  -8.254  0.00  0.00    -0.461 OA
BRANCH  84  85
ATOM     85  C   LIG d   1       6.777   1.214  -8.678  0.00  0.00     0.304 C 
ATOM     86  O   LIG d   1       6.264   1.981  -9.458  0.00  0.00    -0.251 OA
BRANCH  85  87
ATOM     87  C   LIG d   1       6.006   0.020  -8.179  0.00  0.00     0.033 C 
ATOM     88  H   LIG d   1       5.990  -0.751  -8.950  0.00  0.00     0.034 H 
ATOM     89  H   LIG d   1       6.486  -0.374  -7.283  0.00  0.00     0.034 H 
ATOM     90  H   LIG d   1       4.985   0.319  -7.943  0.00  0.00     0.034 H 
ENDBRANCH  85  87
ENDBRANCH  84  85
ENDBRANCH  17  84
TORSDOF 14
ENDMDL
MODEL 3
REMARK VINA RESULT:      -5.4      4.850      8.686
REMARK  14 active torsions:
REMARK  status: ('A' for Active; 'I' for Inactive)
REMARK    1  A    between atoms: C_1  and  C_2 
REMARK    2  A    between atoms: C_2  and  C_4 
REMARK    3  A    between atoms: C_8  and  C_40 
REMARK    4  A    between atoms: C_17  and  C_39 
REMARK    5  A    between atoms: C_20  and  O_35 
REMARK    6  A    between atoms: C_22  and  C_33 
REMARK    7  A    between atoms: C_22  and  C_34 
REMARK    8  A    between atoms: C_27  and  C_32 
REMARK    9  A    between atoms: C_28  and  C_31 
REMARK   10  A    between atoms: O_35  and  C_36 
REMARK   11  A    between atoms: C_36  and  C_38 
REMARK   12  A    between atoms: C_40  and  O_41 
REMARK   13  A    between atoms: O_41  and  C_42 
REMARK   14  A    between atoms: C_42  and  C_44 
ROOT
ATOM      1  C   LIG d   1       1.380  -2.358 -14.022  0.00  0.00     0.021 C 
ATOM      2  H   LIG d   1       0.575  -1.615 -13.949  0.00  0.00     0.038 H 
ATOM      3  C   LIG d   1       1.492  -2.833 -15.499  0.00  0.00    -0.043 C 
ATOM      4  C   LIG d   1       2.952  -3.312 -15.625  0.00  0.00    -0.043 C 
ATOM      5  C   LIG d   1       3.773  -2.442 -14.638  0.00  0.00     0.009 C 
ATOM      6  C   LIG d   1       2.735  -1.708 -13.782  0.00  0.00    -0.019 C 
ATOM      7  H   LIG d   1       2.639  -0.701 -14.307  0.00  0.00     0.032 H 
ATOM      8  C   LIG d   1       3.151  -1.323 -12.403  0.00  0.00    -0.031 C 
ATOM      9  H   LIG d   1       3.714  -0.366 -12.591  0.00  0.00     0.031 H 
ATOM     10  C   LIG d   1       2.000  -0.874 -11.506  0.00  0.00    -0.049 C 
ATOM     11  C   LIG d   1       2.580  -0.110 -10.304  0.00  0.00    -0.049 C 
ATOM     12  C   LIG d   1       3.557  -1.012  -9.559  0.00  0.00    -0.029 C 
ATOM     13  H   LIG d   1       2.974  -1.916  -9.265  0.00  0.00     0.031 H 
ATOM     14  C   LIG d   1       3.994  -0.402  -8.225  0.00  0.00    -0.025 C 
ATOM     15  C   LIG d   1       2.736  -0.247  -7.347  0.00  0.00    -0.044 C 
ATOM     16  C   LIG d   1       3.138   0.265  -5.966  0.00  0.00    -0.015 C 
ATOM     17  C   LIG d   1       4.044  -0.741  -5.269  0.00  0.00     0.108 C 
ATOM     18  H   LIG d   1       3.482  -1.664  -5.084  0.00  0.00     0.074 H 
ATOM     19  C   LIG d   1       5.282  -1.079  -6.101  0.00  0.00     0.005 C 
ATOM     20  C   LIG d   1       4.930  -1.389  -7.538  0.00  0.00    -0.027 C 
ATOM     21  H   LIG d   1       4.368  -2.360  -7.512  0.00  0.00     0.031 H 
ATOM     22  C   LIG d   1       6.150  -1.655  -8.414  0.00  0.00    -0.049 C 
ATOM     23  C   LIG d   1       5.665  -2.372  -9.686  0.00  0.00    -0.047 C 
ATOM     24  C   LIG d   1       4.700  -1.465 -10.453  0.00  0.00    -0.023 C 
ATOM     25  C   LIG d   1       4.110  -2.232 -11.659  0.00  0.00    -0.023 C 
ATOM     26  C   LIG d   1       5.234  -2.673 -12.599  0.00  0.00    -0.046 C 
ATOM     27  C   LIG d   1       4.636  -3.390 -13.807  0.00  0.00    -0.043 C 
ATOM     28  H   LIG d   1       0.805  -3.655 -15.677  0.00  0.00     0.027 H 
ATOM     29  H   LIG d   1       1.303  -2.002 -16.170  0.00  0.00     0.027 H 
ATOM     30  H   LIG d   1       3.031  -4.364 -15.362  0.00  0.00     0.027 H 
ATOM     31  H   LIG d   1       3.306  -3.154 -16.645  0.00  0.00     0.027 H 
ATOM     32  H   LIG d   1       1.348  -0.198 -12.065  0.00  0.00     0.027 H 
ATOM     33  H   LIG d   1       1.420  -1.715 -11.146  0.00  0.00     0.027 H 
ATOM     34  H   LIG d   1       3.064   0.794 -10.661  0.00  0.00     0.027 H 
ATOM     35  H   LIG d   1       1.753   0.165  -9.644  0.00  0.00     0.027 H 
ATOM     36  H   LIG d   1       2.062   0.466  -7.818  0.00  0.00     0.027 H 
ATOM     37  H   LIG d   1       2.248  -1.214  -7.257  0.00  0.00     0.027 H 
ATOM     38  H   LIG d   1       3.620   1.236  -6.029  0.00  0.00     0.030 H 
ATOM     39  H   LIG d   1       2.225   0.389  -5.365  0.00  0.00     0.030 H 
ATOM     40  H   LIG d   1       6.668  -0.740  -8.669  0.00  0.00     0.027 H 
ATOM     41  H   LIG d   1       6.847  -2.322  -7.901  0.00  0.00     0.027 H 
ATOM     42  H   LIG d   1       6.529  -2.593 -10.313  0.00  0.00     0.027 H 
ATOM     43  H   LIG d   1       5.185  -3.297  -9.384  0.00  0.00     0.027 H 
ATOM     44  H   LIG d   1       5.820  -1.827 -12.946  0.00  0.00     0.027 H 
ATOM     45  H   LIG d   1       5.894  -3.368 -12.070  0.00  0.00     0.027 H 
ATOM     46  H   LIG d   1       4.058  -4.253 -13.503  0.00  0.00     0.027 H 
ATOM     47  H   LIG d   1       5.464  -3.743 -14.437  0.00  0.00     0.027 H 
ENDROOT
BRANCH   5  48
ATOM     48  C   LIG d   1       4.652  -1.441 -15.413  0.00  0.00     0.098 C 
ATOM     49  H   LIG d   1       5.614  -1.340 -14.912  0.00  0.00     0.070 H 
ATOM     50  H   LIG d   1       4.807  -1.803 -16.429  0.00  0.00     0.070 H 
BRANCH  48  51
ATOM     51  O   LIG d   1       4.001  -0.169 -15.454  0.00  0.00    -0.464 OA
BRANCH  51  52
ATOM     52  C   LIG d   1       3.796   0.370 -16.666  0.00  0.00     0.304 C 
ATOM     53  O   LIG d   1       3.274  -0.283 -17.539  0.00  0.00    -0.251 OA
BRANCH  52  54
ATOM     54  C   LIG d   1       4.215   1.792 -16.938  0.00  0.00     0.033 C 
ATOM     55  H   LIG d   1       3.641   2.186 -17.777  0.00  0.00     0.034 H 
ATOM     56  H   LIG d   1       4.030   2.402 -16.054  0.00  0.00     0.034 H 
ATOM     57  H   LIG d   1       5.277   1.818 -17.181  0.00  0.00     0.034 H 
ENDBRANCH  52  54
ENDBRANCH  51  52
ENDBRANCH  48  51
ENDBRANCH   5  48
BRANCH   1  58
ATOM     58  C   LIG d   1       1.060  -3.538 -13.155  0.00  0.00     0.134 C 
ATOM     59  O   LIG d   1       1.616  -4.594 -13.343  0.00  0.00    -0.297 OA
BRANCH  58  60
ATOM     60  C   LIG d   1       0.045  -3.409 -12.049  0.00  0.00    -0.006 C 
ATOM     61  H   LIG d   1       0.553  -3.168 -11.115  0.00  0.00     0.031 H 
ATOM     62  H   LIG d   1      -0.660  -2.615 -12.294  0.00  0.00     0.031 H 
ATOM     63  H   LIG d   1      -0.493  -4.351 -11.937  0.00  0.00     0.031 H 
ENDBRANCH  58  60
ENDBRANCH   1  58
BRANCH  25  64
ATOM     64  C   LIG d   1       3.407  -3.487 -11.130  0.00  0.00    -0.059 C 
ATOM     65  H   LIG d   1       2.845  -3.956 -11.938  0.00  0.00     0.024 H 
ATOM     66  H   LIG d   1       4.151  -4.188 -10.752  0.00  0.00     0.024 H 
ATOM     67  H   LIG d   1       2.725  -3.211 -10.326  0.00  0.00     0.024 H 
ENDBRANCH  25  64
BRANCH  24  68
ATOM     68  C   LIG d   1       5.514  -0.284 -10.997  0.00  0.00    -0.059 C 
ATOM     69  H   LIG d   1       4.843   0.540 -11.237  0.00  0.00     0.024 H 
ATOM     70  H   LIG d   1       6.232   0.040 -10.244  0.00  0.00     0.024 H 
ATOM     71  H   LIG d   1       6.046  -0.593 -11.897  0.00  0.00     0.024 H 
ENDBRANCH  24  68
BRANCH  14  72
ATOM     72  C   LIG d   1       4.603   0.981  -8.409  0.00  0.00    -0.059 C 
ATOM     73  H   LIG d   1       5.647   0.963  -8.096  0.00  0.00     0.024 H 
ATOM     74  H   LIG d   1       4.543   1.268  -9.459  0.00  0.00     0.024 H 
ATOM     75  H   LIG d   1       4.055   1.702  -7.803  0.00  0.00     0.024 H 
ENDBRANCH  14  72
BRANCH  19  76
ATOM     76  C   LIG d   1       5.894  -2.352  -5.467  0.00  0.00    -0.056 C 
ATOM     77  H   LIG d   1       6.850  -2.572  -5.943  0.00  0.00     0.024 H 
ATOM     78  H   LIG d   1       6.050  -2.188  -4.401  0.00  0.00     0.024 H 
ATOM     79  H   LIG d   1       5.216  -3.192  -5.610  0.00  0.00     0.024 H 
ENDBRANCH  19  76
BRANCH  19  80
ATOM     80  C   LIG d   1       6.323   0.032  -5.967  0.00  0.00    -0.056 C 
ATOM     81  H   LIG d   1       7.289  -0.332  -6.315  0.00  0.00     0.024 H 
ATOM     82  H   LIG d   1       6.019   0.889  -6.570  0.00  0.00     0.024 H 
ATOM     83  H   LIG d   1       6.401   0.332  -4.923  0.00  0.00     0.024 H 
ENDBRANCH  19  80
BRANCH  17  84
ATOM     84  O   LIG d   1       4.462  -0.207  -4.006  0.00  0.00    -0.461 OA
BRANCH  84  85
ATOM     85  C   LIG d   1       3.715  -0.521  -2.935  0.00  0.00     0.304 C 
ATOM     86  O   LIG d   1       3.066   0.333  -2.381  0.00  0.00    -0.251 OA
BRANCH  85  87
ATOM     87  C   LIG d   1       3.689  -1.938  -2.424  0.00  0.00     0.033 C 
ATOM     88  H   LIG d   1       4.587  -2.130  -1.837  0.00  0.00     0.034 H 
ATOM     89  H   LIG d   1       2.808  -2.082  -1.798  0.00  0.00     0.034 H 
ATOM     90  H   LIG d   1       3.652  -2.628  -3.267  0.00  0.00     0.034 H 
ENDBRANCH  85  87
ENDBRANCH  84  85
ENDBRANCH  17  84
TORSDOF 14
ENDMDL
MODEL 4
REMARK VINA RESULT:      -5.4      4.279      9.256
REMARK  14 active torsions:
REMARK  status: ('A' for Active; 'I' for Inactive)
REMARK    1  A    between atoms: C_1  and  C_2 
REMARK    2  A    between atoms: C_2  and  C_4 
REMARK    3  A    between atoms: C_8  and  C_40 
REMARK    4  A    between atoms: C_17  and  C_39 
REMARK    5  A    between atoms: C_20  and  O_35 
REMARK    6  A    between atoms: C_22  and  C_33 
REMARK    7  A    between atoms: C_22  and  C_34 
REMARK    8  A    between atoms: C_27  and  C_32 
REMARK    9  A    between atoms: C_28  and  C_31 
REMARK   10  A    between atoms: O_35  and  C_36 
REMARK   11  A    between atoms: C_36  and  C_38 
REMARK   12  A    between atoms: C_40  and  O_41 
REMARK   13  A    between atoms: O_41  and  C_42 
REMARK   14  A    between atoms: C_42  and  C_44 
ROOT
ATOM      1  C   LIG d   1       7.549  -0.331  -5.638  0.00  0.00     0.021 C 
ATOM      2  H   LIG d   1       7.873   0.678  -5.926  0.00  0.00     0.038 H 
ATOM      3  C   LIG d   1       7.768  -0.511  -4.108  0.00  0.00    -0.043 C 
ATOM      4  C   LIG d   1       6.748  -1.598  -3.714  0.00  0.00    -0.043 C 
ATOM      5  C   LIG d   1       5.552  -1.434  -4.687  0.00  0.00     0.009 C 
ATOM      6  C   LIG d   1       6.040  -0.470  -5.774  0.00  0.00    -0.019 C 
ATOM      7  H   LIG d   1       5.651   0.538  -5.412  0.00  0.00     0.032 H 
ATOM      8  C   LIG d   1       5.415  -0.602  -7.121  0.00  0.00    -0.031 C 
ATOM      9  H   LIG d   1       4.461  -0.017  -6.991  0.00  0.00     0.031 H 
ATOM     10  C   LIG d   1       6.140   0.164  -8.224  0.00  0.00    -0.049 C 
ATOM     11  C   LIG d   1       5.194   0.312  -9.427  0.00  0.00    -0.049 C 
ATOM     12  C   LIG d   1       4.756  -1.072  -9.895  0.00  0.00    -0.029 C 
ATOM     13  H   LIG d   1       5.696  -1.622 -10.139  0.00  0.00     0.031 H 
ATOM     14  C   LIG d   1       4.004  -1.013 -11.226  0.00  0.00    -0.025 C 
ATOM     15  C   LIG d   1       4.969  -0.443 -12.285  0.00  0.00    -0.044 C 
ATOM     16  C   LIG d   1       4.293  -0.460 -13.653  0.00  0.00    -0.015 C 
ATOM     17  C   LIG d   1       3.971  -1.889 -14.070  0.00  0.00     0.108 C 
ATOM     18  H   LIG d   1       4.907  -2.445 -14.202  0.00  0.00     0.074 H 
ATOM     19  C   LIG d   1       3.112  -2.614 -13.034  0.00  0.00     0.005 C 
ATOM     20  C   LIG d   1       3.647  -2.437 -11.631  0.00  0.00    -0.027 C 
ATOM     21  H   LIG d   1       4.616  -3.005 -11.600  0.00  0.00     0.031 H 
ATOM     22  C   LIG d   1       2.770  -3.085 -10.564  0.00  0.00    -0.049 C 
ATOM     23  C   LIG d   1       3.615  -3.224  -9.286  0.00  0.00    -0.047 C 
ATOM     24  C   LIG d   1       4.040  -1.838  -8.795  0.00  0.00    -0.023 C 
ATOM     25  C   LIG d   1       4.996  -1.983  -7.589  0.00  0.00    -0.023 C 
ATOM     26  C   LIG d   1       4.293  -2.722  -6.448  0.00  0.00    -0.046 C 
ATOM     27  C   LIG d   1       5.232  -2.819  -5.248  0.00  0.00    -0.043 C 
ATOM     28  H   LIG d   1       8.780  -0.851  -3.916  0.00  0.00     0.027 H 
ATOM     29  H   LIG d   1       7.554   0.419  -3.592  0.00  0.00     0.027 H 
ATOM     30  H   LIG d   1       7.189  -2.587  -3.814  0.00  0.00     0.027 H 
ATOM     31  H   LIG d   1       6.417  -1.438  -2.686  0.00  0.00     0.027 H 
ATOM     32  H   LIG d   1       6.399   1.162  -7.861  0.00  0.00     0.027 H 
ATOM     33  H   LIG d   1       7.042  -0.347  -8.541  0.00  0.00     0.027 H 
ATOM     34  H   LIG d   1       4.344   0.921  -9.135  0.00  0.00     0.027 H 
ATOM     35  H   LIG d   1       5.738   0.818 -10.229  0.00  0.00     0.027 H 
ATOM     36  H   LIG d   1       5.223   0.581 -12.016  0.00  0.00     0.027 H 
ATOM     37  H   LIG d   1       5.868  -1.054 -12.307  0.00  0.00     0.027 H 
ATOM     38  H   LIG d   1       3.396   0.152 -13.659  0.00  0.00     0.030 H 
ATOM     39  H   LIG d   1       4.990  -0.030 -14.388  0.00  0.00     0.030 H 
ATOM     40  H   LIG d   1       1.880  -2.501 -10.369  0.00  0.00     0.027 H 
ATOM     41  H   LIG d   1       2.471  -4.088 -10.876  0.00  0.00     0.027 H 
ATOM     42  H   LIG d   1       3.009  -3.710  -8.520  0.00  0.00     0.027 H 
ATOM     43  H   LIG d   1       4.474  -3.844  -9.521  0.00  0.00     0.027 H 
ATOM     44  H   LIG d   1       3.383  -2.212  -6.144  0.00  0.00     0.027 H 
ATOM     45  H   LIG d   1       4.038  -3.734  -6.778  0.00  0.00     0.027 H 
ATOM     46  H   LIG d   1       6.145  -3.338  -5.508  0.00  0.00     0.027 H 
ATOM     47  H   LIG d   1       4.724  -3.398  -4.466  0.00  0.00     0.027 H 
ENDROOT
BRANCH   5  48
ATOM     48  C   LIG d   1       4.334  -0.852  -3.943  0.00  0.00     0.098 C 
ATOM     49  H   LIG d   1       3.422  -1.309  -4.327  0.00  0.00     0.070 H 
ATOM     50  H   LIG d   1       4.425  -1.060  -2.877  0.00  0.00     0.070 H 
BRANCH  48  51
ATOM     51  O   LIG d   1       4.282   0.561  -4.151  0.00  0.00    -0.464 OA
BRANCH  51  52
ATOM     52  C   LIG d   1       4.124   1.331  -3.062  0.00  0.00     0.304 C 
ATOM     53  O   LIG d   1       3.543   2.387  -3.148  0.00  0.00    -0.251 OA
BRANCH  52  54
ATOM     54  C   LIG d   1       4.668   0.877  -1.732  0.00  0.00     0.033 C 
ATOM     55  H   LIG d   1       3.926   0.258  -1.228  0.00  0.00     0.034 H 
ATOM     56  H   LIG d   1       5.577   0.297  -1.890  0.00  0.00     0.034 H 
ATOM     57  H   LIG d   1       4.895   1.746  -1.116  0.00  0.00     0.034 H 
ENDBRANCH  52  54
ENDBRANCH  51  52
ENDBRANCH  48  51
ENDBRANCH   5  48
BRANCH   1  58
ATOM     58  C   LIG d   1       8.367  -1.353  -6.369  0.00  0.00     0.134 C 
ATOM     59  O   LIG d   1       8.424  -2.488  -5.958  0.00  0.00    -0.297 OA
BRANCH  58  60
ATOM     60  C   LIG d   1       9.119  -0.966  -7.616  0.00  0.00    -0.006 C 
ATOM     61  H   LIG d   1       8.668  -1.456  -8.479  0.00  0.00     0.031 H 
ATOM     62  H   LIG d   1       9.073   0.115  -7.747  0.00  0.00     0.031 H 
ATOM     63  H   LIG d   1      10.160  -1.278  -7.524  0.00  0.00     0.031 H 
ENDBRANCH  58  60
ENDBRANCH   1  58
BRANCH  25  64
ATOM     64  C   LIG d   1       6.201  -2.821  -8.032  0.00  0.00    -0.059 C 
ATOM     65  H   LIG d   1       5.855  -3.778  -8.422  0.00  0.00     0.024 H 
ATOM     66  H   LIG d   1       6.748  -2.288  -8.810  0.00  0.00     0.024 H 
ATOM     67  H   LIG d   1       6.858  -2.993  -7.179  0.00  0.00     0.024 H 
ENDBRANCH  25  64
BRANCH  24  68
ATOM     68  C   LIG d   1       2.777  -1.115  -8.312  0.00  0.00    -0.059 C 
ATOM     69  H   LIG d   1       3.060  -0.209  -7.774  0.00  0.00     0.024 H 
ATOM     70  H   LIG d   1       2.159  -0.850  -9.170  0.00  0.00     0.024 H 
ATOM     71  H   LIG d   1       2.214  -1.770  -7.647  0.00  0.00     0.024 H 
ENDBRANCH  24  68
BRANCH  14  72
ATOM     72  C   LIG d   1       2.799  -0.085 -11.153  0.00  0.00    -0.059 C 
ATOM     73  H   LIG d   1       3.065   0.888 -11.567  0.00  0.00     0.024 H 
ATOM     74  H   LIG d   1       1.976  -0.512 -11.727  0.00  0.00     0.024 H 
ATOM     75  H   LIG d   1       2.494   0.033 -10.114  0.00  0.00     0.024 H 
ENDBRANCH  14  72
BRANCH  19  76
ATOM     76  C   LIG d   1       3.181  -4.119 -13.392  0.00  0.00    -0.056 C 
ATOM     77  H   LIG d   1       3.917  -4.272 -14.182  0.00  0.00     0.024 H 
ATOM     78  H   LIG d   1       3.472  -4.690 -12.511  0.00  0.00     0.024 H 
ATOM     79  H   LIG d   1       2.204  -4.456 -13.737  0.00  0.00     0.024 H 
ENDBRANCH  19  76
BRANCH  19  80
ATOM     80  C   LIG d   1       1.651  -2.188 -13.173  0.00  0.00    -0.056 C 
ATOM     81  H   LIG d   1       1.603  -1.120 -13.385  0.00  0.00     0.024 H 
ATOM     82  H   LIG d   1       1.188  -2.742 -13.991  0.00  0.00     0.024 H 
ATOM     83  H   LIG d   1       1.121  -2.399 -12.245  0.00  0.00     0.024 H 
ENDBRANCH  19  80
BRANCH  17  84
ATOM     84  O   LIG d   1       3.276  -1.873 -15.324  0.00  0.00    -0.461 OA
BRANCH  84  85
ATOM     85  C   LIG d   1       4.028  -1.878 -16.436  0.00  0.00     0.304 C 
ATOM     86  O   LIG d   1       3.766  -1.128 -17.346  0.00  0.00    -0.251 OA
BRANCH  85  87
ATOM     87  C   LIG d   1       5.197  -2.821 -16.551  0.00  0.00     0.033 C 
ATOM     88  H   LIG d   1       6.127  -2.256 -16.499  0.00  0.00     0.034 H 
ATOM     89  H   LIG d   1       5.164  -3.542 -15.733  0.00  0.00     0.034 H 
ATOM     90  H   LIG d   1       5.146  -3.350 -17.502  0.00  0.00     0.034 H 
ENDBRANCH  85  87
ENDBRANCH  84  85
ENDBRANCH  17  84
TORSDOF 14
ENDMDL
MODEL 5
REMARK VINA RESULT:      -5.3      5.467      7.554
REMARK  14 active torsions:
REMARK  status: ('A' for Active; 'I' for Inactive)
REMARK    1  A    between atoms: C_1  and  C_2 
REMARK    2  A    between atoms: C_2  and  C_4 
REMARK    3  A    between atoms: C_8  and  C_40 
REMARK    4  A    between atoms: C_17  and  C_39 
REMARK    5  A    between atoms: C_20  and  O_35 
REMARK    6  A    between atoms: C_22  and  C_33 
REMARK    7  A    between atoms: C_22  and  C_34 
REMARK    8  A    between atoms: C_27  and  C_32 
REMARK    9  A    between atoms: C_28  and  C_31 
REMARK   10  A    between atoms: O_35  and  C_36 
REMARK   11  A    between atoms: C_36  and  C_38 
REMARK   12  A    between atoms: C_40  and  O_41 
REMARK   13  A    between atoms: O_41  and  C_42 
REMARK   14  A    between atoms: C_42  and  C_44 
ROOT
ATOM      1  C   LIG d   1       5.607  -1.663  -4.656  0.00  0.00     0.021 C 
ATOM      2  H   LIG d   1       5.022  -1.192  -3.855  0.00  0.00     0.038 H 
ATOM      3  C   LIG d   1       4.684  -2.637  -5.445  0.00  0.00    -0.043 C 
ATOM      4  C   LIG d   1       5.341  -2.724  -6.837  0.00  0.00    -0.043 C 
ATOM      5  C   LIG d   1       6.024  -1.352  -7.073  0.00  0.00     0.009 C 
ATOM      6  C   LIG d   1       5.988  -0.640  -5.717  0.00  0.00    -0.019 C 
ATOM      7  H   LIG d   1       5.057   0.012  -5.797  0.00  0.00     0.032 H 
ATOM      8  C   LIG d   1       7.066   0.354  -5.449  0.00  0.00    -0.031 C 
ATOM      9  H   LIG d   1       6.670   1.270  -5.972  0.00  0.00     0.031 H 
ATOM     10  C   LIG d   1       7.155   0.802  -3.993  0.00  0.00    -0.049 C 
ATOM     11  C   LIG d   1       7.973   2.103  -3.924  0.00  0.00    -0.049 C 
ATOM     12  C   LIG d   1       9.352   1.861  -4.527  0.00  0.00    -0.029 C 
ATOM     13  H   LIG d   1       9.801   1.029  -3.935  0.00  0.00     0.031 H 
ATOM     14  C   LIG d   1      10.296   3.041  -4.283  0.00  0.00    -0.025 C 
ATOM     15  C   LIG d   1      10.469   3.195  -2.759  0.00  0.00    -0.044 C 
ATOM     16  C   LIG d   1      11.484   4.297  -2.469  0.00  0.00    -0.015 C 
ATOM     17  C   LIG d   1      12.849   3.927  -3.036  0.00  0.00     0.108 C 
ATOM     18  H   LIG d   1      13.226   3.041  -2.513  0.00  0.00     0.074 H 
ATOM     19  C   LIG d   1      12.791   3.625  -4.534  0.00  0.00     0.005 C 
ATOM     20  C   LIG d   1      11.654   2.691  -4.879  0.00  0.00    -0.027 C 
ATOM     21  H   LIG d   1      11.927   1.699  -4.430  0.00  0.00     0.031 H 
ATOM     22  C   LIG d   1      11.521   2.431  -6.377  0.00  0.00    -0.049 C 
ATOM     23  C   LIG d   1      10.659   1.169  -6.556  0.00  0.00    -0.047 C 
ATOM     24  C   LIG d   1       9.264   1.408  -5.975  0.00  0.00    -0.023 C 
ATOM     25  C   LIG d   1       8.441   0.101  -6.036  0.00  0.00    -0.023 C 
ATOM     26  C   LIG d   1       8.304  -0.364  -7.487  0.00  0.00    -0.046 C 
ATOM     27  C   LIG d   1       7.452  -1.630  -7.538  0.00  0.00    -0.043 C 
ATOM     28  H   LIG d   1       4.677  -3.611  -4.966  0.00  0.00     0.027 H 
ATOM     29  H   LIG d   1       3.685  -2.222  -5.519  0.00  0.00     0.027 H 
ATOM     30  H   LIG d   1       6.077  -3.525  -6.861  0.00  0.00     0.027 H 
ATOM     31  H   LIG d   1       4.576  -2.896  -7.596  0.00  0.00     0.027 H 
ATOM     32  H   LIG d   1       6.150   1.003  -3.613  0.00  0.00     0.027 H 
ATOM     33  H   LIG d   1       7.629   0.052  -3.370  0.00  0.00     0.027 H 
ATOM     34  H   LIG d   1       7.437   2.884  -4.456  0.00  0.00     0.027 H 
ATOM     35  H   LIG d   1       8.072   2.389  -2.875  0.00  0.00     0.027 H 
ATOM     36  H   LIG d   1       9.509   3.458  -2.319  0.00  0.00     0.027 H 
ATOM     37  H   LIG d   1      10.819   2.251  -2.346  0.00  0.00     0.027 H 
ATOM     38  H   LIG d   1      11.152   5.253  -2.863  0.00  0.00     0.030 H 
ATOM     39  H   LIG d   1      11.576   4.404  -1.378  0.00  0.00     0.030 H 
ATOM     40  H   LIG d   1      11.074   3.271  -6.891  0.00  0.00     0.027 H 
ATOM     41  H   LIG d   1      12.501   2.230  -6.815  0.00  0.00     0.027 H 
ATOM     42  H   LIG d   1      10.576   0.953  -7.622  0.00  0.00     0.027 H 
ATOM     43  H   LIG d   1      11.163   0.348  -6.055  0.00  0.00     0.027 H 
ATOM     44  H   LIG d   1       7.841   0.397  -8.108  0.00  0.00     0.027 H 
ATOM     45  H   LIG d   1       9.297  -0.592  -7.888  0.00  0.00     0.027 H 
ATOM     46  H   LIG d   1       7.893  -2.421  -6.943  0.00  0.00     0.027 H 
ATOM     47  H   LIG d   1       7.415  -1.973  -8.581  0.00  0.00     0.027 H 
ENDROOT
BRANCH   5  48
ATOM     48  C   LIG d   1       5.251  -0.547  -8.136  0.00  0.00     0.098 C 
ATOM     49  H   LIG d   1       5.945  -0.191  -8.897  0.00  0.00     0.070 H 
ATOM     50  H   LIG d   1       4.499  -1.186  -8.600  0.00  0.00     0.070 H 
BRANCH  48  51
ATOM     51  O   LIG d   1       4.611   0.569  -7.514  0.00  0.00    -0.464 OA
BRANCH  51  52
ATOM     52  C   LIG d   1       3.337   0.811  -7.862  0.00  0.00     0.304 C 
ATOM     53  O   LIG d   1       2.903   1.939  -7.822  0.00  0.00    -0.251 OA
BRANCH  52  54
ATOM     54  C   LIG d   1       2.447  -0.323  -8.304  0.00  0.00     0.033 C 
ATOM     55  H   LIG d   1       1.535  -0.321  -7.709  0.00  0.00     0.034 H 
ATOM     56  H   LIG d   1       2.195  -0.198  -9.356  0.00  0.00     0.034 H 
ATOM     57  H   LIG d   1       2.970  -1.269  -8.166  0.00  0.00     0.034 H 
ENDBRANCH  52  54
ENDBRANCH  51  52
ENDBRANCH  48  51
ENDBRANCH   5  48
BRANCH   1  58
ATOM     58  C   LIG d   1       6.742  -2.442  -4.064  0.00  0.00     0.134 C 
ATOM     59  O   LIG d   1       7.291  -2.045  -3.065  0.00  0.00    -0.297 OA
BRANCH  58  60
ATOM     60  C   LIG d   1       7.199  -3.722  -4.715  0.00  0.00    -0.006 C 
ATOM     61  H   LIG d   1       7.468  -3.527  -5.753  0.00  0.00     0.031 H 
ATOM     62  H   LIG d   1       8.065  -4.112  -4.182  0.00  0.00     0.031 H 
ATOM     63  H   LIG d   1       6.392  -4.455  -4.681  0.00  0.00     0.031 H 
ENDBRANCH  58  60
ENDBRANCH   1  58
BRANCH  25  64
ATOM     64  C   LIG d   1       9.200  -0.978  -5.256  0.00  0.00    -0.059 C 
ATOM     65  H   LIG d   1      10.204  -1.087  -5.669  0.00  0.00     0.024 H 
ATOM     66  H   LIG d   1       9.269  -0.688  -4.207  0.00  0.00     0.024 H 
ATOM     67  H   LIG d   1       8.670  -1.927  -5.337  0.00  0.00     0.024 H 
ENDBRANCH  25  64
BRANCH  24  68
ATOM     68  C   LIG d   1       8.569   2.446  -6.866  0.00  0.00    -0.059 C 
ATOM     69  H   LIG d   1       8.635   2.133  -7.908  0.00  0.00     0.024 H 
ATOM     70  H   LIG d   1       7.521   2.529  -6.578  0.00  0.00     0.024 H 
ATOM     71  H   LIG d   1       9.056   3.414  -6.746  0.00  0.00     0.024 H 
ENDBRANCH  24  68
BRANCH  14  72
ATOM     72  C   LIG d   1       9.720   4.345  -4.816  0.00  0.00    -0.059 C 
ATOM     73  H   LIG d   1      10.478   5.126  -4.762  0.00  0.00     0.024 H 
ATOM     74  H   LIG d   1       9.411   4.210  -5.853  0.00  0.00     0.024 H 
ATOM     75  H   LIG d   1       8.858   4.634  -4.215  0.00  0.00     0.024 H 
ENDBRANCH  14  72
BRANCH  19  76
ATOM     76  C   LIG d   1      14.123   2.918  -4.884  0.00  0.00    -0.056 C 
ATOM     77  H   LIG d   1      14.369   2.198  -4.102  0.00  0.00     0.024 H 
ATOM     78  H   LIG d   1      14.019   2.397  -5.836  0.00  0.00     0.024 H 
ATOM     79  H   LIG d   1      14.919   3.657  -4.960  0.00  0.00     0.024 H 
ENDBRANCH  19  76
BRANCH  19  80
ATOM     80  C   LIG d   1      12.755   4.929  -5.330  0.00  0.00    -0.056 C 
ATOM     81  H   LIG d   1      12.293   5.710  -4.727  0.00  0.00     0.024 H 
ATOM     82  H   LIG d   1      13.773   5.224  -5.588  0.00  0.00     0.024 H 
ATOM     83  H   LIG d   1      12.176   4.783  -6.241  0.00  0.00     0.024 H 
ENDBRANCH  19  80
BRANCH  17  84
ATOM     84  O   LIG d   1      13.765   5.007  -2.812  0.00  0.00    -0.461 OA
BRANCH  84  85
ATOM     85  C   LIG d   1      14.509   4.953  -1.696  0.00  0.00     0.304 C 
ATOM     86  O   LIG d   1      14.227   5.646  -0.748  0.00  0.00    -0.251 OA
BRANCH  85  87
ATOM     87  C   LIG d   1      15.696   4.027  -1.626  0.00  0.00     0.033 C 
ATOM     88  H   LIG d   1      16.513   4.439  -2.218  0.00  0.00     0.034 H 
ATOM     89  H   LIG d   1      16.015   3.923  -0.589  0.00  0.00     0.034 H 
ATOM     90  H   LIG d   1      15.418   3.050  -2.020  0.00  0.00     0.034 H 
ENDBRANCH  85  87
ENDBRANCH  84  85
ENDBRANCH  17  84
TORSDOF 14
ENDMDL
MODEL 6
REMARK VINA RESULT:      -5.2      2.826      3.829
REMARK  14 active torsions:
REMARK  status: ('A' for Active; 'I' for Inactive)
REMARK    1  A    between atoms: C_1  and  C_2 
REMARK    2  A    between atoms: C_2  and  C_4 
REMARK    3  A    between atoms: C_8  and  C_40 
REMARK    4  A    between atoms: C_17  and  C_39 
REMARK    5  A    between atoms: C_20  and  O_35 
REMARK    6  A    between atoms: C_22  and  C_33 
REMARK    7  A    between atoms: C_22  and  C_34 
REMARK    8  A    between atoms: C_27  and  C_32 
REMARK    9  A    between atoms: C_28  and  C_31 
REMARK   10  A    between atoms: O_35  and  C_36 
REMARK   11  A    between atoms: C_36  and  C_38 
REMARK   12  A    between atoms: C_40  and  O_41 
REMARK   13  A    between atoms: O_41  and  C_42 
REMARK   14  A    between atoms: C_42  and  C_44 
ROOT
ATOM      1  C   LIG d   1       7.266  -1.113  -5.831  0.00  0.00     0.021 C 
ATOM      2  H   LIG d   1       8.344  -1.091  -5.621  0.00  0.00     0.038 H 
ATOM      3  C   LIG d   1       6.858   0.233  -6.497  0.00  0.00    -0.043 C 
ATOM      4  C   LIG d   1       5.593  -0.123  -7.303  0.00  0.00    -0.043 C 
ATOM      5  C   LIG d   1       5.759  -1.605  -7.727  0.00  0.00     0.009 C 
ATOM      6  C   LIG d   1       6.952  -2.128  -6.920  0.00  0.00    -0.019 C 
ATOM      7  H   LIG d   1       7.821  -2.011  -7.646  0.00  0.00     0.032 H 
ATOM      8  C   LIG d   1       6.970  -3.587  -6.615  0.00  0.00    -0.031 C 
ATOM      9  H   LIG d   1       7.391  -4.017  -7.568  0.00  0.00     0.031 H 
ATOM     10  C   LIG d   1       8.004  -3.994  -5.569  0.00  0.00    -0.049 C 
ATOM     11  C   LIG d   1       8.229  -5.513  -5.659  0.00  0.00    -0.049 C 
ATOM     12  C   LIG d   1       6.900  -6.230  -5.448  0.00  0.00    -0.029 C 
ATOM     13  H   LIG d   1       6.530  -5.899  -4.449  0.00  0.00     0.031 H 
ATOM     14  C   LIG d   1       7.085  -7.742  -5.294  0.00  0.00    -0.025 C 
ATOM     15  C   LIG d   1       7.952  -7.981  -4.042  0.00  0.00    -0.044 C 
ATOM     16  C   LIG d   1       8.079  -9.481  -3.790  0.00  0.00    -0.015 C 
ATOM     17  C   LIG d   1       6.713 -10.092  -3.506  0.00  0.00     0.108 C 
ATOM     18  H   LIG d   1       6.319  -9.673  -2.573  0.00  0.00     0.074 H 
ATOM     19  C   LIG d   1       5.712  -9.816  -4.629  0.00  0.00     0.005 C 
ATOM     20  C   LIG d   1       5.716  -8.363  -5.046  0.00  0.00    -0.027 C 
ATOM     21  H   LIG d   1       5.287  -7.795  -4.178  0.00  0.00     0.031 H 
ATOM     22  C   LIG d   1       4.784  -8.069  -6.217  0.00  0.00    -0.049 C 
ATOM     23  C   LIG d   1       4.542  -6.550  -6.252  0.00  0.00    -0.047 C 
ATOM     24  C   LIG d   1       5.867  -5.820  -6.486  0.00  0.00    -0.023 C 
ATOM     25  C   LIG d   1       5.647  -4.294  -6.389  0.00  0.00    -0.023 C 
ATOM     26  C   LIG d   1       4.636  -3.842  -7.446  0.00  0.00    -0.046 C 
ATOM     27  C   LIG d   1       4.461  -2.328  -7.370  0.00  0.00    -0.043 C 
ATOM     28  H   LIG d   1       6.628   0.969  -5.734  0.00  0.00     0.027 H 
ATOM     29  H   LIG d   1       7.649   0.574  -7.157  0.00  0.00     0.027 H 
ATOM     30  H   LIG d   1       4.703   0.001  -6.690  0.00  0.00     0.027 H 
ATOM     31  H   LIG d   1       5.528   0.513  -8.188  0.00  0.00     0.027 H 
ATOM     32  H   LIG d   1       8.951  -3.491  -5.780  0.00  0.00     0.027 H 
ATOM     33  H   LIG d   1       7.681  -3.742  -4.566  0.00  0.00     0.027 H 
ATOM     34  H   LIG d   1       8.659  -5.749  -6.627  0.00  0.00     0.027 H 
ATOM     35  H   LIG d   1       8.933  -5.801  -4.875  0.00  0.00     0.027 H 
ATOM     36  H   LIG d   1       8.939  -7.554  -4.209  0.00  0.00     0.027 H 
ATOM     37  H   LIG d   1       7.480  -7.500  -3.188  0.00  0.00     0.027 H 
ATOM     38  H   LIG d   1       8.558  -9.984  -4.625  0.00  0.00     0.030 H 
ATOM     39  H   LIG d   1       8.718  -9.630  -2.906  0.00  0.00     0.030 H 
ATOM     40  H   LIG d   1       5.201  -8.407  -7.156  0.00  0.00     0.027 H 
ATOM     41  H   LIG d   1       3.818  -8.556  -6.065  0.00  0.00     0.027 H 
ATOM     42  H   LIG d   1       3.855  -6.324  -7.069  0.00  0.00     0.027 H 
ATOM     43  H   LIG d   1       4.092  -6.263  -5.306  0.00  0.00     0.027 H 
ATOM     44  H   LIG d   1       4.960  -4.110  -8.447  0.00  0.00     0.027 H 
ATOM     45  H   LIG d   1       3.670  -4.318  -7.246  0.00  0.00     0.027 H 
ATOM     46  H   LIG d   1       4.121  -2.022  -6.388  0.00  0.00     0.027 H 
ATOM     47  H   LIG d   1       3.693  -2.037  -8.099  0.00  0.00     0.027 H 
ENDROOT
BRANCH   5  48
ATOM     48  C   LIG d   1       6.037  -1.700  -9.240  0.00  0.00     0.098 C 
ATOM     49  H   LIG d   1       7.113  -1.716  -9.411  0.00  0.00     0.070 H 
ATOM     50  H   LIG d   1       5.592  -2.613  -9.635  0.00  0.00     0.070 H 
BRANCH  48  51
ATOM     51  O   LIG d   1       5.467  -0.568  -9.900  0.00  0.00    -0.464 OA
BRANCH  51  52
ATOM     52  C   LIG d   1       4.519  -0.813 -10.819  0.00  0.00     0.304 C 
ATOM     53  O   LIG d   1       4.002  -1.903 -10.879  0.00  0.00    -0.251 OA
BRANCH  52  54
ATOM     54  C   LIG d   1       4.098   0.273 -11.776  0.00  0.00     0.033 C 
ATOM     55  H   LIG d   1       3.019   0.236 -11.916  0.00  0.00     0.034 H 
ATOM     56  H   LIG d   1       4.379   1.245 -11.369  0.00  0.00     0.034 H 
ATOM     57  H   LIG d   1       4.594   0.125 -12.735  0.00  0.00     0.034 H 
ENDBRANCH  52  54
ENDBRANCH  51  52
ENDBRANCH  48  51
ENDBRANCH   5  48
BRANCH   1  58
ATOM     58  C   LIG d   1       6.503  -1.272  -4.550  0.00  0.00     0.134 C 
ATOM     59  O   LIG d   1       5.356  -0.902  -4.481  0.00  0.00    -0.297 OA
BRANCH  58  60
ATOM     60  C   LIG d   1       7.167  -1.894  -3.349  0.00  0.00    -0.006 C 
ATOM     61  H   LIG d   1       6.437  -2.479  -2.791  0.00  0.00     0.031 H 
ATOM     62  H   LIG d   1       7.979  -2.543  -3.678  0.00  0.00     0.031 H 
ATOM     63  H   LIG d   1       7.568  -1.108  -2.708  0.00  0.00     0.031 H 
ENDBRANCH  58  60
ENDBRANCH   1  58
BRANCH  25  64
ATOM     64  C   LIG d   1       5.066  -3.981  -5.006  0.00  0.00    -0.059 C 
ATOM     65  H   LIG d   1       4.746  -2.939  -4.973  0.00  0.00     0.024 H 
ATOM     66  H   LIG d   1       4.211  -4.629  -4.816  0.00  0.00     0.024 H 
ATOM     67  H   LIG d   1       5.827  -4.150  -4.244  0.00  0.00     0.024 H 
ENDBRANCH  25  64
BRANCH  24  68
ATOM     68  C   LIG d   1       6.321  -6.143  -7.915  0.00  0.00    -0.059 C 
ATOM     69  H   LIG d   1       7.299  -5.695  -8.095  0.00  0.00     0.024 H 
ATOM     70  H   LIG d   1       6.388  -7.223  -8.041  0.00  0.00     0.024 H 
ATOM     71  H   LIG d   1       5.600  -5.739  -8.626  0.00  0.00     0.024 H 
ENDBRANCH  24  68
BRANCH  14  72
ATOM     72  C   LIG d   1       7.816  -8.346  -6.485  0.00  0.00    -0.059 C 
ATOM     73  H   LIG d   1       7.301  -8.070  -7.405  0.00  0.00     0.024 H 
ATOM     74  H   LIG d   1       8.838  -7.967  -6.514  0.00  0.00     0.024 H 
ATOM     75  H   LIG d   1       7.833  -9.430  -6.389  0.00  0.00     0.024 H 
ENDBRANCH  14  72
BRANCH  19  76
ATOM     76  C   LIG d   1       4.314 -10.151  -4.054  0.00  0.00    -0.056 C 
ATOM     77  H   LIG d   1       4.309  -9.968  -2.979  0.00  0.00     0.024 H 
ATOM     78  H   LIG d   1       3.564  -9.521  -4.532  0.00  0.00     0.024 H 
ATOM     79  H   LIG d   1       4.084 -11.199  -4.245  0.00  0.00     0.024 H 
ENDBRANCH  19  76
BRANCH  19  80
ATOM     80  C   LIG d   1       5.957 -10.772  -5.796  0.00  0.00    -0.056 C 
ATOM     81  H   LIG d   1       5.603 -10.316  -6.720  0.00  0.00     0.024 H 
ATOM     82  H   LIG d   1       7.024 -10.979  -5.878  0.00  0.00     0.024 H 
ATOM     83  H   LIG d   1       5.418 -11.703  -5.621  0.00  0.00     0.024 H 
ENDBRANCH  19  80
BRANCH  17  84
ATOM     84  O   LIG d   1       6.851 -11.509  -3.342  0.00  0.00    -0.461 OA
BRANCH  84  85
ATOM     85  C   LIG d   1       6.983 -11.966  -2.086  0.00  0.00     0.304 C 
ATOM     86  O   LIG d   1       7.729 -12.887  -1.854  0.00  0.00    -0.251 OA
BRANCH  85  87
ATOM     87  C   LIG d   1       6.199 -11.331  -0.967  0.00  0.00     0.033 C 
ATOM     88  H   LIG d   1       6.021 -10.280  -1.199  0.00  0.00     0.034 H 
ATOM     89  H   LIG d   1       5.244 -11.845  -0.855  0.00  0.00     0.034 H 
ATOM     90  H   LIG d   1       6.764 -11.407  -0.039  0.00  0.00     0.034 H 
ENDBRANCH  85  87
ENDBRANCH  84  85
ENDBRANCH  17  84
TORSDOF 14
ENDMDL
MODEL 7
REMARK VINA RESULT:      -5.2      7.296      8.542
REMARK  14 active torsions:
REMARK  status: ('A' for Active; 'I' for Inactive)
REMARK    1  A    between atoms: C_1  and  C_2 
REMARK    2  A    between atoms: C_2  and  C_4 
REMARK    3  A    between atoms: C_8  and  C_40 
REMARK    4  A    between atoms: C_17  and  C_39 
REMARK    5  A    between atoms: C_20  and  O_35 
REMARK    6  A    between atoms: C_22  and  C_33 
REMARK    7  A    between atoms: C_22  and  C_34 
REMARK    8  A    between atoms: C_27  and  C_32 
REMARK    9  A    between atoms: C_28  and  C_31 
REMARK   10  A    between atoms: O_35  and  C_36 
REMARK   11  A    between atoms: C_36  and  C_38 
REMARK   12  A    between atoms: C_40  and  O_41 
REMARK   13  A    between atoms: O_41  and  C_42 
REMARK   14  A    between atoms: C_42  and  C_44 
ROOT
ATOM      1  C   LIG d   1      11.681   7.350  -2.067  0.00  0.00     0.021 C 
ATOM      2  H   LIG d   1      12.721   7.321  -1.717  0.00  0.00     0.038 H 
ATOM      3  C   LIG d   1      11.190   8.827  -2.056  0.00  0.00    -0.043 C 
ATOM      4  C   LIG d   1      10.064   8.851  -3.108  0.00  0.00    -0.043 C 
ATOM      5  C   LIG d   1      10.443   7.779  -4.163  0.00  0.00     0.009 C 
ATOM      6  C   LIG d   1      11.598   6.987  -3.542  0.00  0.00    -0.019 C 
ATOM      7  H   LIG d   1      12.519   7.491  -3.987  0.00  0.00     0.032 H 
ATOM      8  C   LIG d   1      11.754   5.570  -3.977  0.00  0.00    -0.031 C 
ATOM      9  H   LIG d   1      12.317   5.687  -4.946  0.00  0.00     0.031 H 
ATOM     10  C   LIG d   1      12.716   4.754  -3.117  0.00  0.00    -0.049 C 
ATOM     11  C   LIG d   1      13.121   3.490  -3.892  0.00  0.00    -0.049 C 
ATOM     12  C   LIG d   1      11.870   2.695  -4.248  0.00  0.00    -0.029 C 
ATOM     13  H   LIG d   1      11.364   2.473  -3.279  0.00  0.00     0.031 H 
ATOM     14  C   LIG d   1      12.211   1.315  -4.814  0.00  0.00    -0.025 C 
ATOM     15  C   LIG d   1      12.967   0.535  -3.720  0.00  0.00    -0.044 C 
ATOM     16  C   LIG d   1      13.240  -0.887  -4.204  0.00  0.00    -0.015 C 
ATOM     17  C   LIG d   1      11.932  -1.626  -4.452  0.00  0.00     0.108 C 
ATOM     18  H   LIG d   1      11.398  -1.740  -3.501  0.00  0.00     0.074 H 
ATOM     19  C   LIG d   1      11.026  -0.884  -5.436  0.00  0.00     0.005 C 
ATOM     20  C   LIG d   1      10.905   0.584  -5.098  0.00  0.00    -0.027 C 
ATOM     21  H   LIG d   1      10.326   0.629  -4.137  0.00  0.00     0.031 H 
ATOM     22  C   LIG d   1      10.070   1.368  -6.105  0.00  0.00    -0.049 C 
ATOM     23  C   LIG d   1       9.660   2.694  -5.440  0.00  0.00    -0.047 C 
ATOM     24  C   LIG d   1      10.909   3.509  -5.099  0.00  0.00    -0.023 C 
ATOM     25  C   LIG d   1      10.505   4.778  -4.314  0.00  0.00    -0.023 C 
ATOM     26  C   LIG d   1       9.563   5.639  -5.158  0.00  0.00    -0.046 C 
ATOM     27  C   LIG d   1       9.207   6.910  -4.390  0.00  0.00    -0.043 C 
ATOM     28  H   LIG d   1      10.800   9.081  -1.075  0.00  0.00     0.027 H 
ATOM     29  H   LIG d   1      12.000   9.488  -2.347  0.00  0.00     0.027 H 
ATOM     30  H   LIG d   1       9.108   8.611  -2.648  0.00  0.00     0.027 H 
ATOM     31  H   LIG d   1      10.017   9.835  -3.577  0.00  0.00     0.027 H 
ATOM     32  H   LIG d   1      13.614   5.344  -2.920  0.00  0.00     0.027 H 
ATOM     33  H   LIG d   1      12.264   4.464  -2.175  0.00  0.00     0.027 H 
ATOM     34  H   LIG d   1      13.673   3.782  -4.780  0.00  0.00     0.027 H 
ATOM     35  H   LIG d   1      13.770   2.889  -3.250  0.00  0.00     0.027 H 
ATOM     36  H   LIG d   1      13.910   1.038  -3.515  0.00  0.00     0.027 H 
ATOM     37  H   LIG d   1      12.357   0.510  -2.820  0.00  0.00     0.027 H 
ATOM     38  H   LIG d   1      13.856  -0.889  -5.098  0.00  0.00     0.030 H 
ATOM     39  H   LIG d   1      13.798  -1.418  -3.418  0.00  0.00     0.030 H 
ATOM     40  H   LIG d   1      10.617   1.556  -7.019  0.00  0.00     0.027 H 
ATOM     41  H   LIG d   1       9.156   0.821  -6.349  0.00  0.00     0.027 H 
ATOM     42  H   LIG d   1       9.039   3.256  -6.139  0.00  0.00     0.027 H 
ATOM     43  H   LIG d   1       9.085   2.455  -4.551  0.00  0.00     0.027 H 
ATOM     44  H   LIG d   1      10.016   5.915  -6.106  0.00  0.00     0.027 H 
ATOM     45  H   LIG d   1       8.643   5.079  -5.355  0.00  0.00     0.027 H 
ATOM     46  H   LIG d   1       8.735   6.675  -3.444  0.00  0.00     0.027 H 
ATOM     47  H   LIG d   1       8.490   7.482  -4.993  0.00  0.00     0.027 H 
ENDROOT
BRANCH   5  48
ATOM     48  C   LIG d   1      10.884   8.454  -5.476  0.00  0.00     0.098 C 
ATOM     49  H   LIG d   1      11.779   9.049  -5.296  0.00  0.00     0.070 H 
ATOM     50  H   LIG d   1      11.099   7.690  -6.223  0.00  0.00     0.070 H 
BRANCH  48  51
ATOM     51  O   LIG d   1       9.835   9.302  -5.950  0.00  0.00    -0.464 OA
BRANCH  51  52
ATOM     52  C   LIG d   1       9.637   9.341  -7.278  0.00  0.00     0.304 C 
ATOM     53  O   LIG d   1       9.900  10.344  -7.899  0.00  0.00    -0.251 OA
BRANCH  52  54
ATOM     54  C   LIG d   1       9.089   8.133  -7.993  0.00  0.00     0.033 C 
ATOM     55  H   LIG d   1       9.416   8.147  -9.032  0.00  0.00     0.034 H 
ATOM     56  H   LIG d   1       9.453   7.227  -7.510  0.00  0.00     0.034 H 
ATOM     57  H   LIG d   1       8.000   8.152  -7.955  0.00  0.00     0.034 H 
ENDBRANCH  52  54
ENDBRANCH  51  52
ENDBRANCH  48  51
ENDBRANCH   5  48
BRANCH   1  58
ATOM     58  C   LIG d   1      10.814   6.544  -1.147  0.00  0.00     0.134 C 
ATOM     59  O   LIG d   1       9.619   6.720  -1.134  0.00  0.00    -0.297 OA
BRANCH  58  60
ATOM     60  C   LIG d   1      11.432   5.515  -0.237  0.00  0.00    -0.006 C 
ATOM     61  H   LIG d   1      10.908   4.566  -0.351  0.00  0.00     0.031 H 
ATOM     62  H   LIG d   1      12.482   5.383  -0.499  0.00  0.00     0.031 H 
ATOM     63  H   LIG d   1      11.355   5.851   0.797  0.00  0.00     0.031 H 
ENDBRANCH  58  60
ENDBRANCH   1  58
BRANCH  25  64
ATOM     64  C   LIG d   1       9.753   4.341  -3.052  0.00  0.00    -0.059 C 
ATOM     65  H   LIG d   1       9.445   5.223  -2.488  0.00  0.00     0.024 H 
ATOM     66  H   LIG d   1       8.871   3.766  -3.335  0.00  0.00     0.024 H 
ATOM     67  H   LIG d   1      10.406   3.725  -2.434  0.00  0.00     0.024 H 
ENDBRANCH  25  64
BRANCH  24  68
ATOM     68  C   LIG d   1      11.541   3.955  -6.424  0.00  0.00    -0.059 C 
ATOM     69  H   LIG d   1      12.445   4.530  -6.220  0.00  0.00     0.024 H 
ATOM     70  H   LIG d   1      11.796   3.078  -7.018  0.00  0.00     0.024 H 
ATOM     71  H   LIG d   1      10.833   4.574  -6.975  0.00  0.00     0.024 H 
ENDBRANCH  24  68
BRANCH  14  72
ATOM     72  C   LIG d   1      13.126   1.412  -6.027  0.00  0.00    -0.059 C 
ATOM     73  H   LIG d   1      14.022   1.973  -5.761  0.00  0.00     0.024 H 
ATOM     74  H   LIG d   1      13.408   0.410  -6.352  0.00  0.00     0.024 H 
ATOM     75  H   LIG d   1      12.604   1.923  -6.835  0.00  0.00     0.024 H 
ENDBRANCH  14  72
BRANCH  19  76
ATOM     76  C   LIG d   1       9.624  -1.529  -5.304  0.00  0.00    -0.056 C 
ATOM     77  H   LIG d   1       9.731  -2.604  -5.153  0.00  0.00     0.024 H 
ATOM     78  H   LIG d   1       9.102  -1.093  -4.452  0.00  0.00     0.024 H 
ATOM     79  H   LIG d   1       9.052  -1.346  -6.213  0.00  0.00     0.024 H 
ENDBRANCH  19  76
BRANCH  19  80
ATOM     80  C   LIG d   1      11.498  -1.130  -6.869  0.00  0.00    -0.056 C 
ATOM     81  H   LIG d   1      10.651  -1.047  -7.549  0.00  0.00     0.024 H 
ATOM     82  H   LIG d   1      12.252  -0.389  -7.135  0.00  0.00     0.024 H 
ATOM     83  H   LIG d   1      11.927  -2.129  -6.943  0.00  0.00     0.024 H 
ENDBRANCH  19  80
BRANCH  17  84
ATOM     84  O   LIG d   1      12.214  -2.932  -4.970  0.00  0.00    -0.461 OA
BRANCH  84  85
ATOM     85  C   LIG d   1      12.249  -3.943  -4.087  0.00  0.00     0.304 C 
ATOM     86  O   LIG d   1      13.218  -4.662  -4.031  0.00  0.00    -0.251 OA
BRANCH  85  87
ATOM     87  C   LIG d   1      11.080  -4.181  -3.168  0.00  0.00     0.033 C 
ATOM     88  H   LIG d   1      10.415  -3.317  -3.193  0.00  0.00     0.034 H 
ATOM     89  H   LIG d   1      10.535  -5.067  -3.496  0.00  0.00     0.034 H 
ATOM     90  H   LIG d   1      11.441  -4.332  -2.151  0.00  0.00     0.034 H 
ENDBRANCH  85  87
ENDBRANCH  84  85
ENDBRANCH  17  84
TORSDOF 14
ENDMDL
MODEL 8
REMARK VINA RESULT:      -5.1      9.127     11.750
REMARK  14 active torsions:
REMARK  status: ('A' for Active; 'I' for Inactive)
REMARK    1  A    between atoms: C_1  and  C_2 
REMARK    2  A    between atoms: C_2  and  C_4 
REMARK    3  A    between atoms: C_8  and  C_40 
REMARK    4  A    between atoms: C_17  and  C_39 
REMARK    5  A    between atoms: C_20  and  O_35 
REMARK    6  A    between atoms: C_22  and  C_33 
REMARK    7  A    between atoms: C_22  and  C_34 
REMARK    8  A    between atoms: C_27  and  C_32 
REMARK    9  A    between atoms: C_28  and  C_31 
REMARK   10  A    between atoms: O_35  and  C_36 
REMARK   11  A    between atoms: C_36  and  C_38 
REMARK   12  A    between atoms: C_40  and  O_41 
REMARK   13  A    between atoms: O_41  and  C_42 
REMARK   14  A    between atoms: C_42  and  C_44 
ROOT
ATOM      1  C   LIG d   1       8.824   2.453  -6.330  0.00  0.00     0.021 C 
ATOM      2  H   LIG d   1       7.769   2.665  -6.113  0.00  0.00     0.038 H 
ATOM      3  C   LIG d   1       8.904   1.551  -7.596  0.00  0.00    -0.043 C 
ATOM      4  C   LIG d   1      10.304   1.844  -8.171  0.00  0.00    -0.043 C 
ATOM      5  C   LIG d   1      10.624   3.312  -7.790  0.00  0.00     0.009 C 
ATOM      6  C   LIG d   1       9.546   3.715  -6.779  0.00  0.00    -0.019 C 
ATOM      7  H   LIG d   1       8.772   4.242  -7.429  0.00  0.00     0.032 H 
ATOM      8  C   LIG d   1       9.912   4.765  -5.785  0.00  0.00    -0.031 C 
ATOM      9  H   LIG d   1       9.749   5.709  -6.377  0.00  0.00     0.031 H 
ATOM     10  C   LIG d   1       8.922   4.907  -4.633  0.00  0.00    -0.049 C 
ATOM     11  C   LIG d   1       9.157   6.261  -3.942  0.00  0.00    -0.049 C 
ATOM     12  C   LIG d   1      10.601   6.334  -3.459  0.00  0.00    -0.029 C 
ATOM     13  H   LIG d   1      10.738   5.463  -2.775  0.00  0.00     0.031 H 
ATOM     14  C   LIG d   1      10.843   7.551  -2.562  0.00  0.00    -0.025 C 
ATOM     15  C   LIG d   1       9.939   7.405  -1.322  0.00  0.00    -0.044 C 
ATOM     16  C   LIG d   1      10.220   8.547  -0.349  0.00  0.00    -0.015 C 
ATOM     17  C   LIG d   1      11.660   8.486   0.142  0.00  0.00     0.108 C 
ATOM     18  H   LIG d   1      11.803   7.567   0.723  0.00  0.00     0.074 H 
ATOM     19  C   LIG d   1      12.665   8.498  -1.010  0.00  0.00     0.005 C 
ATOM     20  C   LIG d   1      12.292   7.515  -2.096  0.00  0.00    -0.027 C 
ATOM     21  H   LIG d   1      12.434   6.496  -1.647  0.00  0.00     0.031 H 
ATOM     22  C   LIG d   1      13.233   7.557  -3.297  0.00  0.00    -0.049 C 
ATOM     23  C   LIG d   1      13.029   6.258  -4.096  0.00  0.00    -0.047 C 
ATOM     24  C   LIG d   1      11.588   6.186  -4.606  0.00  0.00    -0.023 C 
ATOM     25  C   LIG d   1      11.346   4.823  -5.294  0.00  0.00    -0.023 C 
ATOM     26  C   LIG d   1      12.302   4.657  -6.477  0.00  0.00    -0.046 C 
ATOM     27  C   LIG d   1      12.022   3.328  -7.175  0.00  0.00    -0.043 C 
ATOM     28  H   LIG d   1       8.819   0.507  -7.314  0.00  0.00     0.027 H 
ATOM     29  H   LIG d   1       8.133   1.838  -8.303  0.00  0.00     0.027 H 
ATOM     30  H   LIG d   1      11.041   1.170  -7.739  0.00  0.00     0.027 H 
ATOM     31  H   LIG d   1      10.288   1.735  -9.256  0.00  0.00     0.027 H 
ATOM     32  H   LIG d   1       7.903   4.891  -5.026  0.00  0.00     0.027 H 
ATOM     33  H   LIG d   1       9.037   4.113  -3.904  0.00  0.00     0.027 H 
ATOM     34  H   LIG d   1       8.931   7.058  -4.644  0.00  0.00     0.027 H 
ATOM     35  H   LIG d   1       8.478   6.333  -3.090  0.00  0.00     0.027 H 
ATOM     36  H   LIG d   1       8.897   7.442  -1.637  0.00  0.00     0.027 H 
ATOM     37  H   LIG d   1      10.147   6.450  -0.844  0.00  0.00     0.027 H 
ATOM     38  H   LIG d   1      10.009   9.511  -0.800  0.00  0.00     0.030 H 
ATOM     39  H   LIG d   1       9.550   8.435   0.517  0.00  0.00     0.030 H 
ATOM     40  H   LIG d   1      13.046   8.420  -3.922  0.00  0.00     0.027 H 
ATOM     41  H   LIG d   1      14.273   7.583  -2.963  0.00  0.00     0.027 H 
ATOM     42  H   LIG d   1      13.714   6.260  -4.945  0.00  0.00     0.027 H 
ATOM     43  H   LIG d   1      13.262   5.424  -3.440  0.00  0.00     0.027 H 
ATOM     44  H   LIG d   1      12.191   5.463  -7.196  0.00  0.00     0.027 H 
ATOM     45  H   LIG d   1      13.333   4.650  -6.109  0.00  0.00     0.027 H 
ATOM     46  H   LIG d   1      12.141   2.495  -6.493  0.00  0.00     0.027 H 
ATOM     47  H   LIG d   1      12.756   3.209  -7.984  0.00  0.00     0.027 H 
ENDROOT
BRANCH   5  48
ATOM     48  C   LIG d   1      10.567   4.213  -9.040  0.00  0.00     0.098 C 
ATOM     49  H   LIG d   1      11.079   5.152  -8.834  0.00  0.00     0.070 H 
ATOM     50  H   LIG d   1      11.055   3.708  -9.874  0.00  0.00     0.070 H 
BRANCH  48  51
ATOM     51  O   LIG d   1       9.203   4.476  -9.374  0.00  0.00    -0.464 OA
BRANCH  51  52
ATOM     52  C   LIG d   1       8.903   5.724  -9.767  0.00  0.00     0.304 C 
ATOM     53  O   LIG d   1       8.418   5.915 -10.858  0.00  0.00    -0.251 OA
BRANCH  52  54
ATOM     54  C   LIG d   1       9.168   6.889  -8.848  0.00  0.00     0.033 C 
ATOM     55  H   LIG d   1       9.040   6.571  -7.813  0.00  0.00     0.034 H 
ATOM     56  H   LIG d   1      10.188   7.243  -8.995  0.00  0.00     0.034 H 
ATOM     57  H   LIG d   1       8.468   7.694  -9.070  0.00  0.00     0.034 H 
ENDBRANCH  52  54
ENDBRANCH  51  52
ENDBRANCH  48  51
ENDBRANCH   5  48
BRANCH   1  58
ATOM     58  C   LIG d   1       9.442   1.723  -5.175  0.00  0.00     0.134 C 
ATOM     59  O   LIG d   1      10.453   1.082  -5.337  0.00  0.00    -0.297 OA
BRANCH  58  60
ATOM     60  C   LIG d   1       8.804   1.790  -3.812  0.00  0.00    -0.006 C 
ATOM     61  H   LIG d   1       7.992   1.065  -3.755  0.00  0.00     0.031 H 
ATOM     62  H   LIG d   1       9.549   1.562  -3.050  0.00  0.00     0.031 H 
ATOM     63  H   LIG d   1       8.408   2.792  -3.645  0.00  0.00     0.031 H 
ENDBRANCH  58  60
ENDBRANCH   1  58
BRANCH  25  64
ATOM     64  C   LIG d   1      11.642   3.714  -4.278  0.00  0.00    -0.059 C 
ATOM     65  H   LIG d   1      11.768   4.153  -3.288  0.00  0.00     0.024 H 
ATOM     66  H   LIG d   1      10.812   3.008  -4.259  0.00  0.00     0.024 H 
ATOM     67  H   LIG d   1      12.557   3.194  -4.563  0.00  0.00     0.024 H 
ENDBRANCH  25  64
BRANCH  24  68
ATOM     68  C   LIG d   1      11.420   7.286  -5.662  0.00  0.00    -0.059 C 
ATOM     69  H   LIG d   1      11.792   8.230  -5.264  0.00  0.00     0.024 H 
ATOM     70  H   LIG d   1      11.984   7.021  -6.556  0.00  0.00     0.024 H 
ATOM     71  H   LIG d   1      10.364   7.388  -5.915  0.00  0.00     0.024 H 
ENDBRANCH  24  68
BRANCH  14  72
ATOM     72  C   LIG d   1      10.463   8.850  -3.260  0.00  0.00    -0.059 C 
ATOM     73  H   LIG d   1      10.042   9.543  -2.531  0.00  0.00     0.024 H 
ATOM     74  H   LIG d   1      11.351   9.294  -3.711  0.00  0.00     0.024 H 
ATOM     75  H   LIG d   1       9.726   8.644  -4.034  0.00  0.00     0.024 H 
ENDBRANCH  14  72
BRANCH  19  76
ATOM     76  C   LIG d   1      14.022   8.060  -0.405  0.00  0.00    -0.056 C 
ATOM     77  H   LIG d   1      14.745   7.907  -1.207  0.00  0.00     0.024 H 
ATOM     78  H   LIG d   1      14.386   8.836   0.268  0.00  0.00     0.024 H 
ATOM     79  H   LIG d   1      13.891   7.131   0.148  0.00  0.00     0.024 H 
ENDBRANCH  19  76
BRANCH  19  80
ATOM     80  C   LIG d   1      12.847   9.923  -1.532  0.00  0.00    -0.056 C 
ATOM     81  H   LIG d   1      12.371  10.017  -2.507  0.00  0.00     0.024 H 
ATOM     82  H   LIG d   1      12.390  10.625  -0.834  0.00  0.00     0.024 H 
ATOM     83  H   LIG d   1      13.911  10.142  -1.624  0.00  0.00     0.024 H 
ENDBRANCH  19  80
BRANCH  17  84
ATOM     84  O   LIG d   1      11.918   9.606   0.998  0.00  0.00    -0.461 OA
BRANCH  84  85
ATOM     85  C   LIG d   1      12.058   9.351   2.309  0.00  0.00     0.304 C 
ATOM     86  O   LIG d   1      11.793   8.255   2.743  0.00  0.00    -0.251 OA
BRANCH  85  87
ATOM     87  C   LIG d   1      12.543  10.432   3.239  0.00  0.00     0.033 C 
ATOM     88  H   LIG d   1      13.280  10.017   3.926  0.00  0.00     0.034 H 
ATOM     89  H   LIG d   1      13.001  11.233   2.656  0.00  0.00     0.034 H 
ATOM     90  H   LIG d   1      11.702  10.831   3.805  0.00  0.00     0.034 H 
ENDBRANCH  85  87
ENDBRANCH  84  85
ENDBRANCH  17  84
TORSDOF 14
ENDMDL
MODEL 9
REMARK VINA RESULT:      -5.1      9.375     11.390
REMARK  14 active torsions:
REMARK  status: ('A' for Active; 'I' for Inactive)
REMARK    1  A    between atoms: C_1  and  C_2 
REMARK    2  A    between atoms: C_2  and  C_4 
REMARK    3  A    between atoms: C_8  and  C_40 
REMARK    4  A    between atoms: C_17  and  C_39 
REMARK    5  A    between atoms: C_20  and  O_35 
REMARK    6  A    between atoms: C_22  and  C_33 
REMARK    7  A    between atoms: C_22  and  C_34 
REMARK    8  A    between atoms: C_27  and  C_32 
REMARK    9  A    between atoms: C_28  and  C_31 
REMARK   10  A    between atoms: O_35  and  C_36 
REMARK   11  A    between atoms: C_36  and  C_38 
REMARK   12  A    between atoms: C_40  and  O_41 
REMARK   13  A    between atoms: O_41  and  C_42 
REMARK   14  A    between atoms: C_42  and  C_44 
ROOT
ATOM      1  C   LIG d   1      12.910   9.268  -1.348  0.00  0.00     0.021 C 
ATOM      2  H   LIG d   1      13.609   9.724  -2.063  0.00  0.00     0.038 H 
ATOM      3  C   LIG d   1      12.592  10.303  -0.230  0.00  0.00    -0.043 C 
ATOM      4  C   LIG d   1      11.211   9.864   0.297  0.00  0.00    -0.043 C 
ATOM      5  C   LIG d   1      10.478   9.222  -0.909  0.00  0.00     0.009 C 
ATOM      6  C   LIG d   1      11.549   9.050  -1.992  0.00  0.00    -0.019 C 
ATOM      7  H   LIG d   1      11.411   9.980  -2.635  0.00  0.00     0.032 H 
ATOM      8  C   LIG d   1      11.348   7.941  -2.967  0.00  0.00    -0.031 C 
ATOM      9  H   LIG d   1      10.637   8.409  -3.705  0.00  0.00     0.031 H 
ATOM     10  C   LIG d   1      12.574   7.630  -3.822  0.00  0.00    -0.049 C 
ATOM     11  C   LIG d   1      12.130   6.808  -5.043  0.00  0.00    -0.049 C 
ATOM     12  C   LIG d   1      11.437   5.536  -4.568  0.00  0.00    -0.029 C 
ATOM     13  H   LIG d   1      12.180   5.006  -3.927  0.00  0.00     0.031 H 
ATOM     14  C   LIG d   1      11.177   4.563  -5.720  0.00  0.00    -0.025 C 
ATOM     15  C   LIG d   1      12.543   4.160  -6.310  0.00  0.00    -0.044 C 
ATOM     16  C   LIG d   1      12.339   3.110  -7.398  0.00  0.00    -0.015 C 
ATOM     17  C   LIG d   1      11.720   1.848  -6.812  0.00  0.00     0.108 C 
ATOM     18  H   LIG d   1      12.425   1.398  -6.103  0.00  0.00     0.074 H 
ATOM     19  C   LIG d   1      10.406   2.134  -6.083  0.00  0.00     0.005 C 
ATOM     20  C   LIG d   1      10.525   3.312  -5.145  0.00  0.00    -0.027 C 
ATOM     21  H   LIG d   1      11.206   2.977  -4.318  0.00  0.00     0.031 H 
ATOM     22  C   LIG d   1       9.210   3.672  -4.459  0.00  0.00    -0.049 C 
ATOM     23  C   LIG d   1       9.543   4.554  -3.243  0.00  0.00    -0.047 C 
ATOM     24  C   LIG d   1      10.220   5.845  -3.711  0.00  0.00    -0.023 C 
ATOM     25  C   LIG d   1      10.672   6.670  -2.486  0.00  0.00    -0.023 C 
ATOM     26  C   LIG d   1       9.464   7.028  -1.619  0.00  0.00    -0.046 C 
ATOM     27  C   LIG d   1       9.918   7.881  -0.437  0.00  0.00    -0.043 C 
ATOM     28  H   LIG d   1      13.337  10.239   0.557  0.00  0.00     0.027 H 
ATOM     29  H   LIG d   1      12.541  11.300  -0.652  0.00  0.00     0.027 H 
ATOM     30  H   LIG d   1      11.323   9.143   1.104  0.00  0.00     0.027 H 
ATOM     31  H   LIG d   1      10.657  10.736   0.649  0.00  0.00     0.027 H 
ATOM     32  H   LIG d   1      13.016   8.565  -4.175  0.00  0.00     0.027 H 
ATOM     33  H   LIG d   1      13.318   7.070  -3.268  0.00  0.00     0.027 H 
ATOM     34  H   LIG d   1      11.472   7.415  -5.657  0.00  0.00     0.027 H 
ATOM     35  H   LIG d   1      13.020   6.550  -5.623  0.00  0.00     0.027 H 
ATOM     36  H   LIG d   1      13.017   5.042  -6.738  0.00  0.00     0.027 H 
ATOM     37  H   LIG d   1      13.165   3.755  -5.515  0.00  0.00     0.027 H 
ATOM     38  H   LIG d   1      11.729   3.495  -8.210  0.00  0.00     0.030 H 
ATOM     39  H   LIG d   1      13.323   2.853  -7.820  0.00  0.00     0.030 H 
ATOM     40  H   LIG d   1       8.536   4.189  -5.129  0.00  0.00     0.027 H 
ATOM     41  H   LIG d   1       8.715   2.770  -4.090  0.00  0.00     0.027 H 
ATOM     42  H   LIG d   1       8.615   4.799  -2.726  0.00  0.00     0.027 H 
ATOM     43  H   LIG d   1      10.189   3.983  -2.584  0.00  0.00     0.027 H 
ATOM     44  H   LIG d   1       8.716   7.577  -2.184  0.00  0.00     0.027 H 
ATOM     45  H   LIG d   1       9.011   6.108  -1.235  0.00  0.00     0.027 H 
ATOM     46  H   LIG d   1      10.653   7.358   0.163  0.00  0.00     0.027 H 
ATOM     47  H   LIG d   1       9.043   8.077   0.197  0.00  0.00     0.027 H 
ENDROOT
BRANCH   5  48
ATOM     48  C   LIG d   1       9.345  10.144  -1.399  0.00  0.00     0.098 C 
ATOM     49  H   LIG d   1       8.531   9.539  -1.796  0.00  0.00     0.070 H 
ATOM     50  H   LIG d   1       8.980  10.745  -0.566  0.00  0.00     0.070 H 
BRANCH  48  51
ATOM     51  O   LIG d   1       9.844  11.004  -2.425  0.00  0.00    -0.464 OA
BRANCH  51  52
ATOM     52  C   LIG d   1       9.073  11.165  -3.513  0.00  0.00     0.304 C 
ATOM     53  O   LIG d   1       8.043  11.793  -3.437  0.00  0.00    -0.251 OA
BRANCH  52  54
ATOM     54  C   LIG d   1       9.493  10.564  -4.830  0.00  0.00     0.033 C 
ATOM     55  H   LIG d   1      10.398   9.975  -4.688  0.00  0.00     0.034 H 
ATOM     56  H   LIG d   1       8.697   9.921  -5.206  0.00  0.00     0.034 H 
ATOM     57  H   LIG d   1       9.686  11.360  -5.548  0.00  0.00     0.034 H 
ENDBRANCH  52  54
ENDBRANCH  51  52
ENDBRANCH  48  51
ENDBRANCH   5  48
BRANCH   1  58
ATOM     58  C   LIG d   1      13.540   8.059  -0.726  0.00  0.00     0.134 C 
ATOM     59  O   LIG d   1      13.107   7.619   0.313  0.00  0.00    -0.297 OA
BRANCH  58  60
ATOM     60  C   LIG d   1      14.712   7.390  -1.395  0.00  0.00    -0.006 C 
ATOM     61  H   LIG d   1      14.949   6.462  -0.874  0.00  0.00     0.031 H 
ATOM     62  H   LIG d   1      14.462   7.170  -2.433  0.00  0.00     0.031 H 
ATOM     63  H   LIG d   1      15.576   8.054  -1.363  0.00  0.00     0.031 H 
ENDBRANCH  58  60
ENDBRANCH   1  58
BRANCH  25  64
ATOM     64  C   LIG d   1      11.623   5.805  -1.651  0.00  0.00    -0.059 C 
ATOM     65  H   LIG d   1      11.173   5.608  -0.677  0.00  0.00     0.024 H 
ATOM     66  H   LIG d   1      11.801   4.861  -2.165  0.00  0.00     0.024 H 
ATOM     67  H   LIG d   1      12.568   6.330  -1.514  0.00  0.00     0.024 H 
ENDBRANCH  25  64
BRANCH  24  68
ATOM     68  C   LIG d   1       9.168   6.664  -4.471  0.00  0.00    -0.059 C 
ATOM     69  H   LIG d   1       8.174   6.278  -4.244  0.00  0.00     0.024 H 
ATOM     70  H   LIG d   1       9.230   7.708  -4.166  0.00  0.00     0.024 H 
ATOM     71  H   LIG d   1       9.351   6.586  -5.543  0.00  0.00     0.024 H 
ENDBRANCH  24  68
BRANCH  14  72
ATOM     72  C   LIG d   1      10.366   5.210  -6.834  0.00  0.00    -0.059 C 
ATOM     73  H   LIG d   1      10.743   4.873  -7.800  0.00  0.00     0.024 H 
ATOM     74  H   LIG d   1       9.318   4.926  -6.734  0.00  0.00     0.024 H 
ATOM     75  H   LIG d   1      10.457   6.293  -6.767  0.00  0.00     0.024 H 
ENDBRANCH  14  72
BRANCH  19  76
ATOM     76  C   LIG d   1      10.097   0.872  -5.240  0.00  0.00    -0.056 C 
ATOM     77  H   LIG d   1       9.869   0.038  -5.904  0.00  0.00     0.024 H 
ATOM     78  H   LIG d   1      10.964   0.621  -4.629  0.00  0.00     0.024 H 
ATOM     79  H   LIG d   1       9.242   1.066  -4.594  0.00  0.00     0.024 H 
ENDBRANCH  19  76
BRANCH  19  80
ATOM     80  C   LIG d   1       9.269   2.286  -7.093  0.00  0.00    -0.056 C 
ATOM     81  H   LIG d   1       8.383   1.771  -6.723  0.00  0.00     0.024 H 
ATOM     82  H   LIG d   1       9.044   3.344  -7.229  0.00  0.00     0.024 H 
ATOM     83  H   LIG d   1       9.570   1.852  -8.046  0.00  0.00     0.024 H 
ENDBRANCH  19  80
BRANCH  17  84
ATOM     84  O   LIG d   1      11.475   0.906  -7.864  0.00  0.00    -0.461 OA
BRANCH  84  85
ATOM     85  C   LIG d   1      12.386  -0.065  -8.035  0.00  0.00     0.304 C 
ATOM     86  O   LIG d   1      12.542  -0.562  -9.125  0.00  0.00    -0.251 OA
BRANCH  85  87
ATOM     87  C   LIG d   1      13.213  -0.537  -6.867  0.00  0.00     0.033 C 
ATOM     88  H   LIG d   1      13.953  -1.258  -7.213  0.00  0.00     0.034 H 
ATOM     89  H   LIG d   1      13.720   0.315  -6.414  0.00  0.00     0.034 H 
ATOM     90  H   LIG d   1      12.564  -1.008  -6.129  0.00  0.00     0.034 H 
ENDBRANCH  85  87
ENDBRANCH  84  85
ENDBRANCH  17  84
TORSDOF 14
ENDMDL
