MODEL 1
REMARK VINA RESULT:      -4.7      0.000      0.000
REMARK  6 active torsions:
REMARK  status: ('A' for Active; 'I' for Inactive)
REMARK    1  A    between atoms: C_1  and  O_2 
REMARK    2  A    between atoms: O_2  and  C_3 
REMARK    3  A    between atoms: C_6  and  C_10 
REMARK    4  A    between atoms: C_10  and  C_11 
REMARK    5  A    between atoms: C_11  and  O_13 
REMARK    6  A    between atoms: O_13  and  C_14 
ROOT
ATOM      1  C   LIG d   1       6.792  -3.259  -4.633  0.00  0.00     0.134 A 
ATOM      2  C   LIG d   1       7.327  -2.293  -3.792  0.00  0.00    -0.019 A 
ATOM      3  C   LIG d   1       6.495  -1.558  -2.971  0.00  0.00    -0.054 A 
ATOM      4  C   LIG d   1       5.132  -1.790  -2.977  0.00  0.00    -0.035 A 
ATOM      5  C   LIG d   1       4.596  -2.752  -3.813  0.00  0.00    -0.041 A 
ATOM      6  C   LIG d   1       5.424  -3.487  -4.641  0.00  0.00     0.060 A 
ATOM      7 BR   LIG d   1       4.690  -4.803  -5.784  0.00  0.00    -0.046 Br
ATOM      8  H   LIG d   1       8.392  -2.114  -3.783  0.00  0.00     0.065 H 
ATOM      9  H   LIG d   1       6.911  -0.802  -2.319  0.00  0.00     0.062 H 
ATOM     10  H   LIG d   1       3.531  -2.928  -3.819  0.00  0.00     0.063 H 
ENDROOT
BRANCH   4  11
ATOM     11  C   LIG d   1       4.228  -0.989  -2.075  0.00  0.00     0.070 C 
ATOM     12  H   LIG d   1       4.473  -1.201  -1.034  0.00  0.00     0.043 H 
ATOM     13  H   LIG d   1       3.191  -1.261  -2.267  0.00  0.00     0.043 H 
BRANCH  11  14
ATOM     14  C   LIG d   1       4.421   0.481  -2.346  0.00  0.00     0.311 C 
ATOM     15  O   LIG d   1       4.817   1.211  -1.468  0.00  0.00    -0.251 OA
BRANCH  14  16
ATOM     16  O   LIG d   1       4.160   0.978  -3.566  0.00  0.00    -0.468 OA
BRANCH  16  17
ATOM     17  C   LIG d   1       2.880   0.633  -4.157  0.00  0.00     0.082 C 
ATOM     18  H   LIG d   1       2.078   1.101  -3.587  0.00  0.00     0.066 H 
ATOM     19  H   LIG d   1       2.848   0.988  -5.188  0.00  0.00     0.066 H 
ATOM     20  H   LIG d   1       2.753  -0.450  -4.143  0.00  0.00     0.066 H 
ENDBRANCH  16  17
ENDBRANCH  14  16
ENDBRANCH  11  14
ENDBRANCH   4  11
BRANCH   1  21
ATOM     21  O   LIG d   1       7.608  -3.981  -5.445  0.00  0.00    -0.494 OA
BRANCH  21  22
ATOM     22  C   LIG d   1       8.447  -4.956  -4.823  0.00  0.00     0.079 C 
ATOM     23  H   LIG d   1       8.736  -4.607  -3.832  0.00  0.00     0.066 H 
ATOM     24  H   LIG d   1       7.905  -5.898  -4.734  0.00  0.00     0.066 H 
ATOM     25  H   LIG d   1       9.340  -5.108  -5.430  0.00  0.00     0.066 H 
ENDBRANCH  21  22
ENDBRANCH   1  21
TORSDOF 6
ENDMDL
MODEL 2
REMARK VINA RESULT:      -4.6      3.378      5.366
REMARK  6 active torsions:
REMARK  status: ('A' for Active; 'I' for Inactive)
REMARK    1  A    between atoms: C_1  and  O_2 
REMARK    2  A    between atoms: O_2  and  C_3 
REMARK    3  A    between atoms: C_6  and  C_10 
REMARK    4  A    between atoms: C_10  and  C_11 
REMARK    5  A    between atoms: C_11  and  O_13 
REMARK    6  A    between atoms: O_13  and  C_14 
ROOT
ATOM      1  C   LIG d   1       3.880  -0.303  -3.679  0.00  0.00     0.134 A 
ATOM      2  C   LIG d   1       2.807   0.468  -4.105  0.00  0.00    -0.019 A 
ATOM      3  C   LIG d   1       2.504   0.543  -5.449  0.00  0.00    -0.054 A 
ATOM      4  C   LIG d   1       3.260  -0.156  -6.372  0.00  0.00    -0.035 A 
ATOM      5  C   LIG d   1       4.329  -0.925  -5.951  0.00  0.00    -0.041 A 
ATOM      6  C   LIG d   1       4.641  -1.000  -4.607  0.00  0.00     0.060 A 
ATOM      7 BR   LIG d   1       6.103  -2.052  -4.032  0.00  0.00    -0.046 Br
ATOM      8  H   LIG d   1       2.213   1.011  -3.385  0.00  0.00     0.065 H 
ATOM      9  H   LIG d   1       1.671   1.147  -5.782  0.00  0.00     0.062 H 
ATOM     10  H   LIG d   1       4.921  -1.467  -6.673  0.00  0.00     0.063 H 
ENDROOT
BRANCH   4  11
ATOM     11  C   LIG d   1       2.922  -0.076  -7.839  0.00  0.00     0.070 C 
ATOM     12  H   LIG d   1       1.851  -0.230  -7.974  0.00  0.00     0.043 H 
ATOM     13  H   LIG d   1       3.471  -0.846  -8.380  0.00  0.00     0.043 H 
BRANCH  11  14
ATOM     14  C   LIG d   1       3.305   1.282  -8.369  0.00  0.00     0.311 C 
ATOM     15  O   LIG d   1       2.460   2.008  -8.835  0.00  0.00    -0.251 OA
BRANCH  14  16
ATOM     16  O   LIG d   1       4.584   1.686  -8.317  0.00  0.00    -0.468 OA
BRANCH  16  17
ATOM     17  C   LIG d   1       5.427   1.352  -9.451  0.00  0.00     0.082 C 
ATOM     18  H   LIG d   1       4.807   1.212 -10.336  0.00  0.00     0.066 H 
ATOM     19  H   LIG d   1       6.136   2.160  -9.627  0.00  0.00     0.066 H 
ATOM     20  H   LIG d   1       5.971   0.431  -9.240  0.00  0.00     0.066 H 
ENDBRANCH  16  17
ENDBRANCH  14  16
ENDBRANCH  11  14
ENDBRANCH   4  11
BRANCH   1  21
ATOM     21  O   LIG d   1       4.184  -0.375  -2.356  0.00  0.00    -0.494 OA
BRANCH  21  22
ATOM     22  C   LIG d   1       4.572   0.840  -1.712  0.00  0.00     0.079 C 
ATOM     23  H   LIG d   1       4.852   0.631  -0.680  0.00  0.00     0.066 H 
ATOM     24  H   LIG d   1       5.423   1.274  -2.239  0.00  0.00     0.066 H 
ATOM     25  H   LIG d   1       3.739   1.542  -1.729  0.00  0.00     0.066 H 
ENDBRANCH  21  22
ENDBRANCH   1  21
TORSDOF 6
ENDMDL
MODEL 3
REMARK VINA RESULT:      -4.5      2.614      5.441
REMARK  6 active torsions:
REMARK  status: ('A' for Active; 'I' for Inactive)
REMARK    1  A    between atoms: C_1  and  O_2 
REMARK    2  A    between atoms: O_2  and  C_3 
REMARK    3  A    between atoms: C_6  and  C_10 
REMARK    4  A    between atoms: C_10  and  C_11 
REMARK    5  A    between atoms: C_11  and  O_13 
REMARK    6  A    between atoms: O_13  and  C_14 
ROOT
ATOM      1  C   LIG d   1       5.062  -0.473  -2.635  0.00  0.00     0.134 A 
ATOM      2  C   LIG d   1       4.258  -1.598  -2.507  0.00  0.00    -0.019 A 
ATOM      3  C   LIG d   1       4.513  -2.718  -3.273  0.00  0.00    -0.054 A 
ATOM      4  C   LIG d   1       5.574  -2.724  -4.160  0.00  0.00    -0.035 A 
ATOM      5  C   LIG d   1       6.376  -1.606  -4.291  0.00  0.00    -0.041 A 
ATOM      6  C   LIG d   1       6.122  -0.480  -3.530  0.00  0.00     0.060 A 
ATOM      7 BR   LIG d   1       7.220   1.049  -3.708  0.00  0.00    -0.046 Br
ATOM      8  H   LIG d   1       3.432  -1.596  -1.811  0.00  0.00     0.065 H 
ATOM      9  H   LIG d   1       3.885  -3.592  -3.176  0.00  0.00     0.062 H 
ATOM     10  H   LIG d   1       7.201  -1.612  -4.987  0.00  0.00     0.063 H 
ENDROOT
BRANCH   4  11
ATOM     11  C   LIG d   1       5.853  -3.951  -4.992  0.00  0.00     0.070 C 
ATOM     12  H   LIG d   1       6.081  -4.791  -4.335  0.00  0.00     0.043 H 
ATOM     13  H   LIG d   1       6.702  -3.760  -5.646  0.00  0.00     0.043 H 
BRANCH  11  14
ATOM     14  C   LIG d   1       4.640  -4.280  -5.824  0.00  0.00     0.311 C 
ATOM     15  O   LIG d   1       4.278  -3.520  -6.690  0.00  0.00    -0.251 OA
BRANCH  14  16
ATOM     16  O   LIG d   1       3.967  -5.421  -5.607  0.00  0.00    -0.468 OA
BRANCH  16  17
ATOM     17  C   LIG d   1       4.749  -6.642  -5.531  0.00  0.00     0.082 C 
ATOM     18  H   LIG d   1       5.214  -6.838  -6.497  0.00  0.00     0.066 H 
ATOM     19  H   LIG d   1       5.522  -6.533  -4.771  0.00  0.00     0.066 H 
ATOM     20  H   LIG d   1       4.096  -7.475  -5.267  0.00  0.00     0.066 H 
ENDBRANCH  16  17
ENDBRANCH  14  16
ENDBRANCH  11  14
ENDBRANCH   4  11
BRANCH   1  21
ATOM     21  O   LIG d   1       4.810   0.632  -1.885  0.00  0.00    -0.494 OA
BRANCH  21  22
ATOM     22  C   LIG d   1       3.682   1.426  -2.258  0.00  0.00     0.079 C 
ATOM     23  H   LIG d   1       2.787   1.036  -1.775  0.00  0.00     0.066 H 
ATOM     24  H   LIG d   1       3.845   2.458  -1.944  0.00  0.00     0.066 H 
ATOM     25  H   LIG d   1       3.556   1.392  -3.340  0.00  0.00     0.066 H 
ENDBRANCH  21  22
ENDBRANCH   1  21
TORSDOF 6
ENDMDL
MODEL 4
REMARK VINA RESULT:      -4.5      2.730      3.132
REMARK  6 active torsions:
REMARK  status: ('A' for Active; 'I' for Inactive)
REMARK    1  A    between atoms: C_1  and  O_2 
REMARK    2  A    between atoms: O_2  and  C_3 
REMARK    3  A    between atoms: C_6  and  C_10 
REMARK    4  A    between atoms: C_10  and  C_11 
REMARK    5  A    between atoms: C_11  and  O_13 
REMARK    6  A    between atoms: O_13  and  C_14 
ROOT
ATOM      1  C   LIG d   1       7.753  -0.940  -4.467  0.00  0.00     0.134 A 
ATOM      2  C   LIG d   1       7.017  -2.091  -4.222  0.00  0.00    -0.019 A 
ATOM      3  C   LIG d   1       5.902  -2.036  -3.410  0.00  0.00    -0.054 A 
ATOM      4  C   LIG d   1       5.512  -0.835  -2.847  0.00  0.00    -0.035 A 
ATOM      5  C   LIG d   1       6.243   0.313  -3.088  0.00  0.00    -0.041 A 
ATOM      6  C   LIG d   1       7.363   0.263  -3.897  0.00  0.00     0.060 A 
ATOM      7 BR   LIG d   1       8.362   1.834  -4.227  0.00  0.00    -0.046 Br
ATOM      8  H   LIG d   1       7.318  -3.029  -4.664  0.00  0.00     0.065 H 
ATOM      9  H   LIG d   1       5.331  -2.933  -3.216  0.00  0.00     0.062 H 
ATOM     10  H   LIG d   1       5.939   1.249  -2.644  0.00  0.00     0.063 H 
ENDROOT
BRANCH   4  11
ATOM     11  C   LIG d   1       4.291  -0.778  -1.964  0.00  0.00     0.070 C 
ATOM     12  H   LIG d   1       4.572  -0.409  -0.978  0.00  0.00     0.043 H 
ATOM     13  H   LIG d   1       3.864  -1.776  -1.871  0.00  0.00     0.043 H 
BRANCH  11  14
ATOM     14  C   LIG d   1       3.272   0.150  -2.575  0.00  0.00     0.311 C 
ATOM     15  O   LIG d   1       3.156   1.278  -2.159  0.00  0.00    -0.251 OA
BRANCH  14  16
ATOM     16  O   LIG d   1       2.499  -0.276  -3.587  0.00  0.00    -0.468 OA
BRANCH  16  17
ATOM     17  C   LIG d   1       2.525   0.507  -4.809  0.00  0.00     0.082 C 
ATOM     18  H   LIG d   1       1.787   1.306  -4.745  0.00  0.00     0.066 H 
ATOM     19  H   LIG d   1       3.517   0.937  -4.946  0.00  0.00     0.066 H 
ATOM     20  H   LIG d   1       2.289  -0.137  -5.658  0.00  0.00     0.066 H 
ENDBRANCH  16  17
ENDBRANCH  14  16
ENDBRANCH  11  14
ENDBRANCH   4  11
BRANCH   1  21
ATOM     21  O   LIG d   1       8.854  -0.993  -5.262  0.00  0.00    -0.494 OA
BRANCH  21  22
ATOM     22  C   LIG d   1       8.634  -1.175  -6.662  0.00  0.00     0.079 C 
ATOM     23  H   LIG d   1       8.597  -0.203  -7.154  0.00  0.00     0.066 H 
ATOM     24  H   LIG d   1       9.449  -1.765  -7.084  0.00  0.00     0.066 H 
ATOM     25  H   LIG d   1       7.691  -1.697  -6.818  0.00  0.00     0.066 H 
ENDBRANCH  21  22
ENDBRANCH   1  21
TORSDOF 6
ENDMDL
MODEL 5
REMARK VINA RESULT:      -4.5      1.561      2.003
REMARK  6 active torsions:
REMARK  status: ('A' for Active; 'I' for Inactive)
REMARK    1  A    between atoms: C_1  and  O_2 
REMARK    2  A    between atoms: O_2  and  C_3 
REMARK    3  A    between atoms: C_6  and  C_10 
REMARK    4  A    between atoms: C_10  and  C_11 
REMARK    5  A    between atoms: C_11  and  O_13 
REMARK    6  A    between atoms: O_13  and  C_14 
ROOT
ATOM      1  C   LIG d   1       6.065  -3.307  -4.897  0.00  0.00     0.134 A 
ATOM      2  C   LIG d   1       4.748  -3.425  -4.476  0.00  0.00    -0.019 A 
ATOM      3  C   LIG d   1       4.295  -2.672  -3.411  0.00  0.00    -0.054 A 
ATOM      4  C   LIG d   1       5.149  -1.793  -2.770  0.00  0.00    -0.035 A 
ATOM      5  C   LIG d   1       6.461  -1.673  -3.187  0.00  0.00    -0.041 A 
ATOM      6  C   LIG d   1       6.921  -2.428  -4.249  0.00  0.00     0.060 A 
ATOM      7 BR   LIG d   1       8.717  -2.263  -4.819  0.00  0.00    -0.046 Br
ATOM      8  H   LIG d   1       4.079  -4.109  -4.978  0.00  0.00     0.065 H 
ATOM      9  H   LIG d   1       3.270  -2.767  -3.080  0.00  0.00     0.062 H 
ATOM     10  H   LIG d   1       7.127  -0.989  -2.682  0.00  0.00     0.063 H 
ENDROOT
BRANCH   4  11
ATOM     11  C   LIG d   1       4.649  -0.968  -1.611  0.00  0.00     0.070 C 
ATOM     12  H   LIG d   1       5.417  -0.925  -0.838  0.00  0.00     0.043 H 
ATOM     13  H   LIG d   1       3.748  -1.425  -1.203  0.00  0.00     0.043 H 
BRANCH  11  14
ATOM     14  C   LIG d   1       4.334   0.427  -2.086  0.00  0.00     0.311 C 
ATOM     15  O   LIG d   1       5.172   1.294  -2.011  0.00  0.00    -0.251 OA
BRANCH  14  16
ATOM     16  O   LIG d   1       3.125   0.704  -2.599  0.00  0.00    -0.468 OA
BRANCH  16  17
ATOM     17  C   LIG d   1       3.023   0.772  -4.045  0.00  0.00     0.082 C 
ATOM     18  H   LIG d   1       2.694   1.767  -4.341  0.00  0.00     0.066 H 
ATOM     19  H   LIG d   1       3.997   0.564  -4.489  0.00  0.00     0.066 H 
ATOM     20  H   LIG d   1       2.301   0.032  -4.393  0.00  0.00     0.066 H 
ENDBRANCH  16  17
ENDBRANCH  14  16
ENDBRANCH  11  14
ENDBRANCH   4  11
BRANCH   1  21
ATOM     21  O   LIG d   1       6.515  -4.051  -5.942  0.00  0.00    -0.494 OA
BRANCH  21  22
ATOM     22  C   LIG d   1       6.669  -5.454  -5.721  0.00  0.00     0.079 C 
ATOM     23  H   LIG d   1       7.164  -5.619  -4.764  0.00  0.00     0.066 H 
ATOM     24  H   LIG d   1       5.688  -5.930  -5.710  0.00  0.00     0.066 H 
ATOM     25  H   LIG d   1       7.272  -5.884  -6.521  0.00  0.00     0.066 H 
ENDBRANCH  21  22
ENDBRANCH   1  21
TORSDOF 6
ENDMDL
MODEL 6
REMARK VINA RESULT:      -4.3      2.947      4.595
REMARK  6 active torsions:
REMARK  status: ('A' for Active; 'I' for Inactive)
REMARK    1  A    between atoms: C_1  and  O_2 
REMARK    2  A    between atoms: O_2  and  C_3 
REMARK    3  A    between atoms: C_6  and  C_10 
REMARK    4  A    between atoms: C_10  and  C_11 
REMARK    5  A    between atoms: C_11  and  O_13 
REMARK    6  A    between atoms: O_13  and  C_14 
ROOT
ATOM      1  C   LIG d   1       2.972   0.135  -6.820  0.00  0.00     0.134 A 
ATOM      2  C   LIG d   1       2.328   0.745  -5.753  0.00  0.00    -0.019 A 
ATOM      3  C   LIG d   1       2.711   0.454  -4.459  0.00  0.00    -0.054 A 
ATOM      4  C   LIG d   1       3.742  -0.438  -4.224  0.00  0.00    -0.035 A 
ATOM      5  C   LIG d   1       4.386  -1.047  -5.284  0.00  0.00    -0.041 A 
ATOM      6  C   LIG d   1       4.003  -0.763  -6.582  0.00  0.00     0.060 A 
ATOM      7 BR   LIG d   1       4.885  -1.598  -8.032  0.00  0.00    -0.046 Br
ATOM      8  H   LIG d   1       1.525   1.444  -5.935  0.00  0.00     0.065 H 
ATOM      9  H   LIG d   1       2.206   0.926  -3.628  0.00  0.00     0.062 H 
ATOM     10  H   LIG d   1       5.188  -1.746  -5.099  0.00  0.00     0.063 H 
ENDROOT
BRANCH   4  11
ATOM     11  C   LIG d   1       4.160  -0.749  -2.810  0.00  0.00     0.070 C 
ATOM     12  H   LIG d   1       4.565  -1.761  -2.765  0.00  0.00     0.043 H 
ATOM     13  H   LIG d   1       3.296  -0.673  -2.151  0.00  0.00     0.043 H 
BRANCH  11  14
ATOM     14  C   LIG d   1       5.216   0.233  -2.370  0.00  0.00     0.311 C 
ATOM     15  O   LIG d   1       4.932   1.121  -1.601  0.00  0.00    -0.251 OA
BRANCH  14  16
ATOM     16  O   LIG d   1       6.472   0.118  -2.829  0.00  0.00    -0.468 OA
BRANCH  16  17
ATOM     17  C   LIG d   1       7.003   1.237  -3.586  0.00  0.00     0.082 C 
ATOM     18  H   LIG d   1       6.456   2.143  -3.326  0.00  0.00     0.066 H 
ATOM     19  H   LIG d   1       8.059   1.369  -3.349  0.00  0.00     0.066 H 
ATOM     20  H   LIG d   1       6.892   1.039  -4.652  0.00  0.00     0.066 H 
ENDBRANCH  16  17
ENDBRANCH  14  16
ENDBRANCH  11  14
ENDBRANCH   4  11
BRANCH   1  21
ATOM     21  O   LIG d   1       2.594   0.416  -8.095  0.00  0.00    -0.494 OA
BRANCH  21  22
ATOM     22  C   LIG d   1       2.870   1.732  -8.578  0.00  0.00     0.079 C 
ATOM     23  H   LIG d   1       2.584   1.801  -9.627  0.00  0.00     0.066 H 
ATOM     24  H   LIG d   1       2.302   2.459  -7.997  0.00  0.00     0.066 H 
ATOM     25  H   LIG d   1       3.935   1.940  -8.477  0.00  0.00     0.066 H 
ENDBRANCH  21  22
ENDBRANCH   1  21
TORSDOF 6
ENDMDL
MODEL 7
REMARK VINA RESULT:      -4.3      2.423      3.028
REMARK  6 active torsions:
REMARK  status: ('A' for Active; 'I' for Inactive)
REMARK    1  A    between atoms: C_1  and  O_2 
REMARK    2  A    between atoms: O_2  and  C_3 
REMARK    3  A    between atoms: C_6  and  C_10 
REMARK    4  A    between atoms: C_10  and  C_11 
REMARK    5  A    between atoms: C_11  and  O_13 
REMARK    6  A    between atoms: O_13  and  C_14 
ROOT
ATOM      1  C   LIG d   1       8.081  -0.237  -4.436  0.00  0.00     0.134 A 
ATOM      2  C   LIG d   1       7.719   1.073  -4.154  0.00  0.00    -0.019 A 
ATOM      3  C   LIG d   1       6.589   1.328  -3.402  0.00  0.00    -0.054 A 
ATOM      4  C   LIG d   1       5.824   0.281  -2.922  0.00  0.00    -0.035 A 
ATOM      5  C   LIG d   1       6.181  -1.024  -3.201  0.00  0.00    -0.041 A 
ATOM      6  C   LIG d   1       7.308  -1.286  -3.958  0.00  0.00     0.060 A 
ATOM      7 BR   LIG d   1       7.797  -3.072  -4.339  0.00  0.00    -0.046 Br
ATOM      8  H   LIG d   1       8.318   1.891  -4.525  0.00  0.00     0.065 H 
ATOM      9  H   LIG d   1       6.305   2.348  -3.186  0.00  0.00     0.062 H 
ATOM     10  H   LIG d   1       5.580  -1.840  -2.829  0.00  0.00     0.063 H 
ENDROOT
BRANCH   4  11
ATOM     11  C   LIG d   1       4.594   0.565  -2.097  0.00  0.00     0.070 C 
ATOM     12  H   LIG d   1       4.627   1.593  -1.738  0.00  0.00     0.043 H 
ATOM     13  H   LIG d   1       4.562  -0.117  -1.248  0.00  0.00     0.043 H 
BRANCH  11  14
ATOM     14  C   LIG d   1       3.364   0.368  -2.945  0.00  0.00     0.311 C 
ATOM     15  O   LIG d   1       2.567  -0.494  -2.663  0.00  0.00    -0.251 OA
BRANCH  14  16
ATOM     16  O   LIG d   1       3.151   1.157  -4.010  0.00  0.00    -0.468 OA
BRANCH  16  17
ATOM     17  C   LIG d   1       2.410   0.581  -5.118  0.00  0.00     0.082 C 
ATOM     18  H   LIG d   1       1.399   0.988  -5.130  0.00  0.00     0.066 H 
ATOM     19  H   LIG d   1       2.910   0.824  -6.056  0.00  0.00     0.066 H 
ATOM     20  H   LIG d   1       2.364  -0.502  -5.001  0.00  0.00     0.066 H 
ENDBRANCH  16  17
ENDBRANCH  14  16
ENDBRANCH  11  14
ENDBRANCH   4  11
BRANCH   1  21
ATOM     21  O   LIG d   1       9.190  -0.492  -5.180  0.00  0.00    -0.494 OA
BRANCH  21  22
ATOM     22  C   LIG d   1      10.258   0.454  -5.097  0.00  0.00     0.079 C 
ATOM     23  H   LIG d   1       9.864   1.460  -5.237  0.00  0.00     0.066 H 
ATOM     24  H   LIG d   1      10.732   0.381  -4.117  0.00  0.00     0.066 H 
ATOM     25  H   LIG d   1      10.994   0.239  -5.872  0.00  0.00     0.066 H 
ENDBRANCH  21  22
ENDBRANCH   1  21
TORSDOF 6
ENDMDL
MODEL 8
REMARK VINA RESULT:      -4.2      3.777      4.899
REMARK  6 active torsions:
REMARK  status: ('A' for Active; 'I' for Inactive)
REMARK    1  A    between atoms: C_1  and  O_2 
REMARK    2  A    between atoms: O_2  and  C_3 
REMARK    3  A    between atoms: C_6  and  C_10 
REMARK    4  A    between atoms: C_10  and  C_11 
REMARK    5  A    between atoms: C_11  and  O_13 
REMARK    6  A    between atoms: O_13  and  C_14 
ROOT
ATOM      1  C   LIG d   1       4.966  -1.082  -4.433  0.00  0.00     0.134 A 
ATOM      2  C   LIG d   1       5.288  -1.583  -5.687  0.00  0.00    -0.019 A 
ATOM      3  C   LIG d   1       4.542  -1.214  -6.788  0.00  0.00    -0.054 A 
ATOM      4  C   LIG d   1       3.481  -0.339  -6.646  0.00  0.00    -0.035 A 
ATOM      5  C   LIG d   1       3.157   0.162  -5.399  0.00  0.00    -0.041 A 
ATOM      6  C   LIG d   1       3.897  -0.208  -4.292  0.00  0.00     0.060 A 
ATOM      7 BR   LIG d   1       3.454   0.477  -2.586  0.00  0.00    -0.046 Br
ATOM      8  H   LIG d   1       6.119  -2.263  -5.799  0.00  0.00     0.065 H 
ATOM      9  H   LIG d   1       4.790  -1.606  -7.764  0.00  0.00     0.062 H 
ATOM     10  H   LIG d   1       2.326   0.842  -5.290  0.00  0.00     0.063 H 
ENDROOT
BRANCH   4  11
ATOM     11  C   LIG d   1       2.672   0.066  -7.853  0.00  0.00     0.070 C 
ATOM     12  H   LIG d   1       1.632   0.215  -7.560  0.00  0.00     0.043 H 
ATOM     13  H   LIG d   1       2.728  -0.718  -8.607  0.00  0.00     0.043 H 
BRANCH  11  14
ATOM     14  C   LIG d   1       3.223   1.350  -8.419  0.00  0.00     0.311 C 
ATOM     15  O   LIG d   1       2.848   2.412  -7.983  0.00  0.00    -0.251 OA
BRANCH  14  16
ATOM     16  O   LIG d   1       4.135   1.311  -9.403  0.00  0.00    -0.468 OA
BRANCH  16  17
ATOM     17  C   LIG d   1       5.474   1.768  -9.077  0.00  0.00     0.082 C 
ATOM     18  H   LIG d   1       5.928   2.222  -9.958  0.00  0.00     0.066 H 
ATOM     19  H   LIG d   1       5.423   2.504  -8.275  0.00  0.00     0.066 H 
ATOM     20  H   LIG d   1       6.079   0.921  -8.753  0.00  0.00     0.066 H 
ENDBRANCH  16  17
ENDBRANCH  14  16
ENDBRANCH  11  14
ENDBRANCH   4  11
BRANCH   1  21
ATOM     21  O   LIG d   1       5.695  -1.448  -3.346  0.00  0.00    -0.494 OA
BRANCH  21  22
ATOM     22  C   LIG d   1       6.985  -2.011  -3.590  0.00  0.00     0.079 C 
ATOM     23  H   LIG d   1       7.727  -1.214  -3.639  0.00  0.00     0.066 H 
ATOM     24  H   LIG d   1       7.241  -2.697  -2.781  0.00  0.00     0.066 H 
ATOM     25  H   LIG d   1       6.972  -2.555  -4.535  0.00  0.00     0.066 H 
ENDBRANCH  21  22
ENDBRANCH   1  21
TORSDOF 6
ENDMDL
MODEL 9
REMARK VINA RESULT:      -4.2      3.315      4.162
REMARK  6 active torsions:
REMARK  status: ('A' for Active; 'I' for Inactive)
REMARK    1  A    between atoms: C_1  and  O_2 
REMARK    2  A    between atoms: O_2  and  C_3 
REMARK    3  A    between atoms: C_6  and  C_10 
REMARK    4  A    between atoms: C_10  and  C_11 
REMARK    5  A    between atoms: C_11  and  O_13 
REMARK    6  A    between atoms: O_13  and  C_14 
ROOT
ATOM      1  C   LIG d   1       4.448  -0.776  -7.680  0.00  0.00     0.134 A 
ATOM      2  C   LIG d   1       4.993  -1.377  -6.554  0.00  0.00    -0.019 A 
ATOM      3  C   LIG d   1       4.463  -1.113  -5.307  0.00  0.00    -0.054 A 
ATOM      4  C   LIG d   1       3.383  -0.259  -5.179  0.00  0.00    -0.035 A 
ATOM      5  C   LIG d   1       2.837   0.341  -6.298  0.00  0.00    -0.041 A 
ATOM      6  C   LIG d   1       3.367   0.085  -7.549  0.00  0.00     0.060 A 
ATOM      7 BR   LIG d   1       2.620   0.906  -9.079  0.00  0.00    -0.046 Br
ATOM      8  H   LIG d   1       5.834  -2.047  -6.653  0.00  0.00     0.065 H 
ATOM      9  H   LIG d   1       4.890  -1.578  -4.429  0.00  0.00     0.062 H 
ATOM     10  H   LIG d   1       1.996   1.011  -6.195  0.00  0.00     0.063 H 
ENDROOT
BRANCH   4  11
ATOM     11  C   LIG d   1       2.803   0.023  -3.816  0.00  0.00     0.070 C 
ATOM     12  H   LIG d   1       2.762  -0.903  -3.240  0.00  0.00     0.043 H 
ATOM     13  H   LIG d   1       1.797   0.426  -3.926  0.00  0.00     0.043 H 
BRANCH  11  14
ATOM     14  C   LIG d   1       3.670   1.024  -3.097  0.00  0.00     0.311 C 
ATOM     15  O   LIG d   1       3.610   2.194  -3.389  0.00  0.00    -0.251 OA
BRANCH  14  16
ATOM     16  O   LIG d   1       4.505   0.615  -2.129  0.00  0.00    -0.468 OA
BRANCH  16  17
ATOM     17  C   LIG d   1       4.411  -0.775  -1.721  0.00  0.00     0.082 C 
ATOM     18  H   LIG d   1       4.148  -1.390  -2.582  0.00  0.00     0.066 H 
ATOM     19  H   LIG d   1       5.370  -1.103  -1.320  0.00  0.00     0.066 H 
ATOM     20  H   LIG d   1       3.643  -0.877  -0.954  0.00  0.00     0.066 H 
ENDBRANCH  16  17
ENDBRANCH  14  16
ENDBRANCH  11  14
ENDBRANCH   4  11
BRANCH   1  21
ATOM     21  O   LIG d   1       4.971  -1.031  -8.908  0.00  0.00    -0.494 OA
BRANCH  21  22
ATOM     22  C   LIG d   1       4.766  -2.339  -9.443  0.00  0.00     0.079 C 
ATOM     23  H   LIG d   1       4.516  -2.265 -10.501  0.00  0.00     0.066 H 
ATOM     24  H   LIG d   1       5.677  -2.927  -9.325  0.00  0.00     0.066 H 
ATOM     25  H   LIG d   1       3.949  -2.826  -8.909  0.00  0.00     0.066 H 
ENDBRANCH  21  22
ENDBRANCH   1  21
TORSDOF 6
ENDMDL
