MODEL 1
REMARK VINA RESULT:      -6.4      0.000      0.000
REMARK  2 active torsions:
REMARK  status: ('A' for Active; 'I' for Inactive)
REMARK    1  A    between atoms: C_4  and  C_7 
REMARK    2  A    between atoms: C_12  and  N_18 
ROOT
ATOM      1  C   LIG d   1       4.671  -0.487  -5.819  0.00  0.00     0.067 A 
ATOM      2  C   LIG d   1       3.568  -0.211  -6.581  0.00  0.00    -0.036 A 
ATOM      3  C   LIG d   1       3.725  -0.036  -7.979  0.00  0.00     0.018 A 
ATOM      4  C   LIG d   1       2.611   0.247  -8.784  0.00  0.00    -0.049 A 
ATOM      5  C   LIG d   1       2.765   0.409 -10.128  0.00  0.00    -0.040 A 
ATOM      6  C   LIG d   1       4.030   0.306 -10.711  0.00  0.00     0.028 A 
ATOM      7  C   LIG d   1       5.142   0.026  -9.930  0.00  0.00     0.002 A 
ATOM      8  C   LIG d   1       5.001  -0.146  -8.561  0.00  0.00     0.141 A 
ATOM      9  O   LIG d   1       6.085  -0.419  -7.801  0.00  0.00    -0.422 OA
ATOM     10  C   LIG d   1       5.978  -0.593  -6.473  0.00  0.00     0.345 A 
ATOM     11  O   LIG d   1       6.970  -0.837  -5.812  0.00  0.00    -0.244 OA
ATOM     12  H   LIG d   1       2.592  -0.128  -6.124  0.00  0.00     0.063 H 
ATOM     13  H   LIG d   1       1.631   0.332  -8.339  0.00  0.00     0.062 H 
ATOM     14  H   LIG d   1       1.905   0.624 -10.745  0.00  0.00     0.064 H 
ATOM     15  H   LIG d   1       6.117  -0.057 -10.388  0.00  0.00     0.067 H 
ENDROOT
BRANCH   1  16
ATOM     16  C   LIG d   1       4.547  -0.678  -4.356  0.00  0.00    -0.011 A 
ATOM     17  C   LIG d   1       4.815   0.378  -3.486  0.00  0.00    -0.054 A 
ATOM     18  C   LIG d   1       4.698   0.195  -2.124  0.00  0.00    -0.061 A 
ATOM     19  H   LIG d   1       5.115   1.339  -3.879  0.00  0.00     0.062 H 
ATOM     20  C   LIG d   1       4.314  -1.035  -1.619  0.00  0.00    -0.062 A 
ATOM     21  H   LIG d   1       4.906   1.013  -1.450  0.00  0.00     0.062 H 
ATOM     22  C   LIG d   1       4.047  -2.087  -2.476  0.00  0.00    -0.061 A 
ATOM     23  H   LIG d   1       4.224  -1.175  -0.552  0.00  0.00     0.062 H 
ATOM     24  C   LIG d   1       4.155  -1.914  -3.842  0.00  0.00    -0.054 A 
ATOM     25  H   LIG d   1       3.749  -3.046  -2.078  0.00  0.00     0.062 H 
ATOM     26  H   LIG d   1       3.941  -2.735  -4.510  0.00  0.00     0.062 H 
ENDBRANCH   1  16
BRANCH   6  27
ATOM     27  N   LIG d   1       4.175   0.478 -12.084  0.00  0.00    -0.358 N 
ATOM     28  H   LIG d   1       4.926   0.076 -12.547  0.00  0.00     0.142 HD
ATOM     29  H   LIG d   1       3.525   1.002 -12.578  0.00  0.00     0.142 HD
ENDBRANCH   6  27
TORSDOF 2
ENDMDL
MODEL 2
REMARK VINA RESULT:      -6.3      1.904      1.995
REMARK  2 active torsions:
REMARK  status: ('A' for Active; 'I' for Inactive)
REMARK    1  A    between atoms: C_4  and  C_7 
REMARK    2  A    between atoms: C_12  and  N_18 
ROOT
ATOM      1  C   LIG d   1       3.975  -0.680  -5.787  0.00  0.00     0.067 A 
ATOM      2  C   LIG d   1       3.259   0.028  -6.715  0.00  0.00    -0.036 A 
ATOM      3  C   LIG d   1       3.045  -0.541  -7.996  0.00  0.00     0.018 A 
ATOM      4  C   LIG d   1       2.315   0.162  -8.967  0.00  0.00    -0.049 A 
ATOM      5  C   LIG d   1       2.107  -0.390 -10.195  0.00  0.00    -0.040 A 
ATOM      6  C   LIG d   1       2.627  -1.650 -10.500  0.00  0.00     0.028 A 
ATOM      7  C   LIG d   1       3.351  -2.359  -9.552  0.00  0.00     0.002 A 
ATOM      8  C   LIG d   1       3.567  -1.812  -8.296  0.00  0.00     0.141 A 
ATOM      9  O   LIG d   1       4.273  -2.504  -7.373  0.00  0.00    -0.422 OA
ATOM     10  C   LIG d   1       4.497  -2.001  -6.148  0.00  0.00     0.345 A 
ATOM     11  O   LIG d   1       5.136  -2.643  -5.336  0.00  0.00    -0.244 OA
ATOM     12  H   LIG d   1       2.863   1.004  -6.475  0.00  0.00     0.063 H 
ATOM     13  H   LIG d   1       1.914   1.138  -8.739  0.00  0.00     0.062 H 
ATOM     14  H   LIG d   1       1.541   0.152 -10.938  0.00  0.00     0.064 H 
ATOM     15  H   LIG d   1       3.747  -3.335  -9.794  0.00  0.00     0.067 H 
ENDROOT
BRANCH   1  16
ATOM     16  C   LIG d   1       4.219  -0.120  -4.438  0.00  0.00    -0.011 A 
ATOM     17  C   LIG d   1       5.513   0.209  -4.039  0.00  0.00    -0.054 A 
ATOM     18  C   LIG d   1       5.734   0.731  -2.781  0.00  0.00    -0.061 A 
ATOM     19  H   LIG d   1       6.343   0.056  -4.713  0.00  0.00     0.062 H 
ATOM     20  C   LIG d   1       4.673   0.928  -1.915  0.00  0.00    -0.062 A 
ATOM     21  H   LIG d   1       6.736   0.986  -2.470  0.00  0.00     0.062 H 
ATOM     22  C   LIG d   1       3.386   0.603  -2.304  0.00  0.00    -0.061 A 
ATOM     23  H   LIG d   1       4.850   1.336  -0.930  0.00  0.00     0.062 H 
ATOM     24  C   LIG d   1       3.152   0.087  -3.563  0.00  0.00    -0.054 A 
ATOM     25  H   LIG d   1       2.561   0.758  -1.624  0.00  0.00     0.062 H 
ATOM     26  H   LIG d   1       2.146  -0.162  -3.867  0.00  0.00     0.062 H 
ENDBRANCH   1  16
BRANCH   6  27
ATOM     27  N   LIG d   1       2.411  -2.200 -11.759  0.00  0.00    -0.358 N 
ATOM     28  H   LIG d   1       2.332  -3.161 -11.861  0.00  0.00     0.142 HD
ATOM     29  H   LIG d   1       2.341  -1.623 -12.535  0.00  0.00     0.142 HD
ENDBRANCH   6  27
TORSDOF 2
ENDMDL
MODEL 3
REMARK VINA RESULT:      -6.2      1.521      2.412
REMARK  2 active torsions:
REMARK  status: ('A' for Active; 'I' for Inactive)
REMARK    1  A    between atoms: C_4  and  C_7 
REMARK    2  A    between atoms: C_12  and  N_18 
ROOT
ATOM      1  C   LIG d   1       4.081  -0.335  -5.725  0.00  0.00     0.067 A 
ATOM      2  C   LIG d   1       5.104  -0.616  -6.590  0.00  0.00    -0.036 A 
ATOM      3  C   LIG d   1       4.925  -0.355  -7.972  0.00  0.00     0.018 A 
ATOM      4  C   LIG d   1       5.957  -0.632  -8.882  0.00  0.00    -0.049 A 
ATOM      5  C   LIG d   1       5.782  -0.376 -10.208  0.00  0.00    -0.040 A 
ATOM      6  C   LIG d   1       4.576   0.152 -10.673  0.00  0.00     0.028 A 
ATOM      7  C   LIG d   1       3.545   0.432  -9.788  0.00  0.00     0.002 A 
ATOM      8  C   LIG d   1       3.709   0.181  -8.433  0.00  0.00     0.141 A 
ATOM      9  O   LIG d   1       2.704   0.455  -7.571  0.00  0.00    -0.422 OA
ATOM     10  C   LIG d   1       2.834   0.223  -6.254  0.00  0.00     0.345 A 
ATOM     11  O   LIG d   1       1.914   0.478  -5.500  0.00  0.00    -0.244 OA
ATOM     12  H   LIG d   1       6.034  -1.028  -6.226  0.00  0.00     0.063 H 
ATOM     13  H   LIG d   1       6.891  -1.045  -8.530  0.00  0.00     0.062 H 
ATOM     14  H   LIG d   1       6.580  -0.587 -10.905  0.00  0.00     0.064 H 
ATOM     15  H   LIG d   1       2.616   0.845 -10.153  0.00  0.00     0.067 H 
ENDROOT
BRANCH   1  16
ATOM     16  C   LIG d   1       4.231  -0.592  -4.274  0.00  0.00    -0.011 A 
ATOM     17  C   LIG d   1       3.928  -1.848  -3.749  0.00  0.00    -0.054 A 
ATOM     18  C   LIG d   1       4.069  -2.081  -2.397  0.00  0.00    -0.061 A 
ATOM     19  H   LIG d   1       3.582  -2.637  -4.401  0.00  0.00     0.062 H 
ATOM     20  C   LIG d   1       4.512  -1.072  -1.561  0.00  0.00    -0.062 A 
ATOM     21  H   LIG d   1       3.834  -3.054  -1.990  0.00  0.00     0.062 H 
ATOM     22  C   LIG d   1       4.814   0.176  -2.074  0.00  0.00    -0.061 A 
ATOM     23  H   LIG d   1       4.621  -1.259  -0.502  0.00  0.00     0.062 H 
ATOM     24  C   LIG d   1       4.682   0.420  -3.427  0.00  0.00    -0.054 A 
ATOM     25  H   LIG d   1       5.159   0.961  -1.417  0.00  0.00     0.062 H 
ATOM     26  H   LIG d   1       4.924   1.393  -3.827  0.00  0.00     0.062 H 
ENDBRANCH   1  16
BRANCH   6  27
ATOM     27  N   LIG d   1       4.409   0.405 -12.031  0.00  0.00    -0.358 N 
ATOM     28  H   LIG d   1       3.988   1.228 -12.322  0.00  0.00     0.142 HD
ATOM     29  H   LIG d   1       4.714  -0.242 -12.685  0.00  0.00     0.142 HD
ENDBRANCH   6  27
TORSDOF 2
ENDMDL
MODEL 4
REMARK VINA RESULT:      -6.0      4.186      5.204
REMARK  2 active torsions:
REMARK  status: ('A' for Active; 'I' for Inactive)
REMARK    1  A    between atoms: C_4  and  C_7 
REMARK    2  A    between atoms: C_12  and  N_18 
ROOT
ATOM      1  C   LIG d   1       5.417  -2.031  -4.102  0.00  0.00     0.067 A 
ATOM      2  C   LIG d   1       4.679  -3.137  -4.430  0.00  0.00    -0.036 A 
ATOM      3  C   LIG d   1       5.338  -4.261  -4.987  0.00  0.00     0.018 A 
ATOM      4  C   LIG d   1       4.608  -5.409  -5.333  0.00  0.00    -0.049 A 
ATOM      5  C   LIG d   1       5.246  -6.489  -5.863  0.00  0.00    -0.040 A 
ATOM      6  C   LIG d   1       6.625  -6.459  -6.077  0.00  0.00     0.028 A 
ATOM      7  C   LIG d   1       7.364  -5.334  -5.742  0.00  0.00     0.002 A 
ATOM      8  C   LIG d   1       6.729  -4.227  -5.196  0.00  0.00     0.141 A 
ATOM      9  O   LIG d   1       7.449  -3.131  -4.870  0.00  0.00    -0.422 OA
ATOM     10  C   LIG d   1       6.863  -2.046  -4.338  0.00  0.00     0.345 A 
ATOM     11  O   LIG d   1       7.534  -1.071  -4.054  0.00  0.00    -0.244 OA
ATOM     12  H   LIG d   1       3.611  -3.153  -4.266  0.00  0.00     0.063 H 
ATOM     13  H   LIG d   1       3.540  -5.437  -5.173  0.00  0.00     0.062 H 
ATOM     14  H   LIG d   1       4.681  -7.372  -6.124  0.00  0.00     0.064 H 
ATOM     15  H   LIG d   1       8.431  -5.319  -5.906  0.00  0.00     0.067 H 
ENDROOT
BRANCH   1  16
ATOM     16  C   LIG d   1       4.764  -0.838  -3.517  0.00  0.00    -0.011 A 
ATOM     17  C   LIG d   1       3.862  -0.091  -4.273  0.00  0.00    -0.054 A 
ATOM     18  C   LIG d   1       3.257   1.020  -3.722  0.00  0.00    -0.061 A 
ATOM     19  H   LIG d   1       3.637  -0.381  -5.288  0.00  0.00     0.062 H 
ATOM     20  C   LIG d   1       3.543   1.394  -2.421  0.00  0.00    -0.062 A 
ATOM     21  H   LIG d   1       2.558   1.600  -4.307  0.00  0.00     0.062 H 
ATOM     22  C   LIG d   1       4.438   0.657  -1.665  0.00  0.00    -0.061 A 
ATOM     23  H   LIG d   1       3.068   2.264  -1.993  0.00  0.00     0.062 H 
ATOM     24  C   LIG d   1       5.044  -0.460  -2.203  0.00  0.00    -0.054 A 
ATOM     25  H   LIG d   1       4.659   0.953  -0.650  0.00  0.00     0.062 H 
ATOM     26  H   LIG d   1       5.738  -1.037  -1.610  0.00  0.00     0.062 H 
ENDBRANCH   1  16
BRANCH   6  27
ATOM     27  N   LIG d   1       7.264  -7.568  -6.624  0.00  0.00    -0.358 N 
ATOM     28  H   LIG d   1       8.222  -7.551  -6.771  0.00  0.00     0.142 HD
ATOM     29  H   LIG d   1       6.751  -8.356  -6.859  0.00  0.00     0.142 HD
ENDBRANCH   6  27
TORSDOF 2
ENDMDL
MODEL 5
REMARK VINA RESULT:      -5.9      4.792      6.704
REMARK  2 active torsions:
REMARK  status: ('A' for Active; 'I' for Inactive)
REMARK    1  A    between atoms: C_4  and  C_7 
REMARK    2  A    between atoms: C_12  and  N_18 
ROOT
ATOM      1  C   LIG d   1       8.013   1.548  -4.106  0.00  0.00     0.067 A 
ATOM      2  C   LIG d   1       6.855   1.729  -3.397  0.00  0.00    -0.036 A 
ATOM      3  C   LIG d   1       6.033   0.606  -3.130  0.00  0.00     0.018 A 
ATOM      4  C   LIG d   1       4.840   0.762  -2.406  0.00  0.00    -0.049 A 
ATOM      5  C   LIG d   1       4.055  -0.321  -2.146  0.00  0.00    -0.040 A 
ATOM      6  C   LIG d   1       4.423  -1.587  -2.607  0.00  0.00     0.028 A 
ATOM      7  C   LIG d   1       5.598  -1.759  -3.324  0.00  0.00     0.002 A 
ATOM      8  C   LIG d   1       6.411  -0.668  -3.592  0.00  0.00     0.141 A 
ATOM      9  O   LIG d   1       7.556  -0.836  -4.291  0.00  0.00    -0.422 OA
ATOM     10  C   LIG d   1       8.363   0.202  -4.564  0.00  0.00     0.345 A 
ATOM     11  O   LIG d   1       9.388   0.023  -5.196  0.00  0.00    -0.244 OA
ATOM     12  H   LIG d   1       6.574   2.712  -3.047  0.00  0.00     0.063 H 
ATOM     13  H   LIG d   1       4.548   1.739  -2.050  0.00  0.00     0.062 H 
ATOM     14  H   LIG d   1       3.140  -0.198  -1.585  0.00  0.00     0.064 H 
ATOM     15  H   LIG d   1       5.878  -2.742  -3.673  0.00  0.00     0.067 H 
ENDROOT
BRANCH   1  16
ATOM     16  C   LIG d   1       8.899   2.697  -4.404  0.00  0.00    -0.011 A 
ATOM     17  C   LIG d   1       9.024   3.166  -5.711  0.00  0.00    -0.054 A 
ATOM     18  C   LIG d   1       9.851   4.236  -5.982  0.00  0.00    -0.061 A 
ATOM     19  H   LIG d   1       8.473   2.692  -6.510  0.00  0.00     0.062 H 
ATOM     20  C   LIG d   1      10.557   4.845  -4.960  0.00  0.00    -0.062 A 
ATOM     21  H   LIG d   1       9.948   4.600  -6.994  0.00  0.00     0.062 H 
ATOM     22  C   LIG d   1      10.440   4.384  -3.661  0.00  0.00    -0.061 A 
ATOM     23  H   LIG d   1      11.204   5.682  -5.177  0.00  0.00     0.062 H 
ATOM     24  C   LIG d   1       9.610   3.318  -3.376  0.00  0.00    -0.054 A 
ATOM     25  H   LIG d   1      10.993   4.862  -2.866  0.00  0.00     0.062 H 
ATOM     26  H   LIG d   1       9.515   2.963  -2.361  0.00  0.00     0.062 H 
ENDBRANCH   1  16
BRANCH   6  27
ATOM     27  N   LIG d   1       3.609  -2.683  -2.339  0.00  0.00    -0.358 N 
ATOM     28  H   LIG d   1       2.646  -2.580  -2.324  0.00  0.00     0.142 HD
ATOM     29  H   LIG d   1       4.007  -3.551  -2.167  0.00  0.00     0.142 HD
ENDBRANCH   6  27
TORSDOF 2
ENDMDL
MODEL 6
REMARK VINA RESULT:      -5.9      2.973      6.375
REMARK  2 active torsions:
REMARK  status: ('A' for Active; 'I' for Inactive)
REMARK    1  A    between atoms: C_4  and  C_7 
REMARK    2  A    between atoms: C_12  and  N_18 
ROOT
ATOM      1  C   LIG d   1       3.397  -0.884  -7.846  0.00  0.00     0.067 A 
ATOM      2  C   LIG d   1       2.853   0.003  -6.957  0.00  0.00    -0.036 A 
ATOM      3  C   LIG d   1       3.273  -0.038  -5.604  0.00  0.00     0.018 A 
ATOM      4  C   LIG d   1       2.733   0.860  -4.670  0.00  0.00    -0.049 A 
ATOM      5  C   LIG d   1       3.143   0.821  -3.371  0.00  0.00    -0.040 A 
ATOM      6  C   LIG d   1       4.091  -0.117  -2.958  0.00  0.00     0.028 A 
ATOM      7  C   LIG d   1       4.635  -1.012  -3.867  0.00  0.00     0.002 A 
ATOM      8  C   LIG d   1       4.232  -0.982  -5.194  0.00  0.00     0.141 A 
ATOM      9  O   LIG d   1       4.763  -1.854  -6.079  0.00  0.00    -0.422 OA
ATOM     10  C   LIG d   1       4.393  -1.848  -7.371  0.00  0.00     0.345 A 
ATOM     11  O   LIG d   1       4.886  -2.644  -8.148  0.00  0.00    -0.244 OA
ATOM     12  H   LIG d   1       2.117   0.724  -7.281  0.00  0.00     0.063 H 
ATOM     13  H   LIG d   1       1.996   1.585  -4.982  0.00  0.00     0.062 H 
ATOM     14  H   LIG d   1       2.728   1.516  -2.656  0.00  0.00     0.064 H 
ATOM     15  H   LIG d   1       5.372  -1.733  -3.542  0.00  0.00     0.067 H 
ENDROOT
BRANCH   1  16
ATOM     16  C   LIG d   1       2.985  -0.871  -9.269  0.00  0.00    -0.011 A 
ATOM     17  C   LIG d   1       1.820  -1.525  -9.667  0.00  0.00    -0.054 A 
ATOM     18  C   LIG d   1       1.441  -1.510 -10.994  0.00  0.00    -0.061 A 
ATOM     19  H   LIG d   1       1.214  -2.043  -8.938  0.00  0.00     0.062 H 
ATOM     20  C   LIG d   1       2.215  -0.846 -11.929  0.00  0.00    -0.062 A 
ATOM     21  H   LIG d   1       0.539  -2.016 -11.303  0.00  0.00     0.062 H 
ATOM     22  C   LIG d   1       3.373  -0.196 -11.541  0.00  0.00    -0.061 A 
ATOM     23  H   LIG d   1       1.916  -0.837 -12.967  0.00  0.00     0.062 H 
ATOM     24  C   LIG d   1       3.758  -0.199 -10.216  0.00  0.00    -0.054 A 
ATOM     25  H   LIG d   1       3.975   0.319 -12.275  0.00  0.00     0.062 H 
ATOM     26  H   LIG d   1       4.660   0.313  -9.913  0.00  0.00     0.062 H 
ENDBRANCH   1  16
BRANCH   6  27
ATOM     27  N   LIG d   1       4.497  -0.150  -1.628  0.00  0.00    -0.358 N 
ATOM     28  H   LIG d   1       4.668  -1.000  -1.194  0.00  0.00     0.142 HD
ATOM     29  H   LIG d   1       4.609   0.678  -1.134  0.00  0.00     0.142 HD
ENDBRANCH   6  27
TORSDOF 2
ENDMDL
MODEL 7
REMARK VINA RESULT:      -5.8      4.442      5.722
REMARK  2 active torsions:
REMARK  status: ('A' for Active; 'I' for Inactive)
REMARK    1  A    between atoms: C_4  and  C_7 
REMARK    2  A    between atoms: C_12  and  N_18 
ROOT
ATOM      1  C   LIG d   1       7.281   1.141  -4.240  0.00  0.00     0.067 A 
ATOM      2  C   LIG d   1       8.268   1.900  -3.670  0.00  0.00    -0.036 A 
ATOM      3  C   LIG d   1       9.220   2.530  -4.510  0.00  0.00     0.018 A 
ATOM      4  C   LIG d   1      10.243   3.314  -3.954  0.00  0.00    -0.049 A 
ATOM      5  C   LIG d   1      11.153   3.923  -4.764  0.00  0.00    -0.040 A 
ATOM      6  C   LIG d   1      11.082   3.762  -6.150  0.00  0.00     0.028 A 
ATOM      7  C   LIG d   1      10.079   2.991  -6.717  0.00  0.00     0.002 A 
ATOM      8  C   LIG d   1       9.141   2.369  -5.906  0.00  0.00     0.141 A 
ATOM      9  O   LIG d   1       8.164   1.618  -6.459  0.00  0.00    -0.422 OA
ATOM     10  C   LIG d   1       7.241   1.005  -5.698  0.00  0.00     0.345 A 
ATOM     11  O   LIG d   1       6.372   0.333  -6.222  0.00  0.00    -0.244 OA
ATOM     12  H   LIG d   1       8.320   2.017  -2.597  0.00  0.00     0.063 H 
ATOM     13  H   LIG d   1      10.305   3.439  -2.882  0.00  0.00     0.062 H 
ATOM     14  H   LIG d   1      11.936   4.529  -4.333  0.00  0.00     0.064 H 
ATOM     15  H   LIG d   1      10.028   2.875  -7.790  0.00  0.00     0.067 H 
ENDROOT
BRANCH   1  16
ATOM     16  C   LIG d   1       6.267   0.468  -3.396  0.00  0.00    -0.011 A 
ATOM     17  C   LIG d   1       5.348   1.223  -2.668  0.00  0.00    -0.054 A 
ATOM     18  C   LIG d   1       4.406   0.590  -1.883  0.00  0.00    -0.061 A 
ATOM     19  H   LIG d   1       5.373   2.302  -2.719  0.00  0.00     0.062 H 
ATOM     20  C   LIG d   1       4.372  -0.791  -1.817  0.00  0.00    -0.062 A 
ATOM     21  H   LIG d   1       3.694   1.174  -1.319  0.00  0.00     0.062 H 
ATOM     22  C   LIG d   1       5.282  -1.546  -2.535  0.00  0.00    -0.061 A 
ATOM     23  H   LIG d   1       3.633  -1.283  -1.201  0.00  0.00     0.062 H 
ATOM     24  C   LIG d   1       6.224  -0.924  -3.329  0.00  0.00    -0.054 A 
ATOM     25  H   LIG d   1       5.252  -2.625  -2.480  0.00  0.00     0.062 H 
ATOM     26  H   LIG d   1       6.931  -1.516  -3.894  0.00  0.00     0.062 H 
ENDBRANCH   1  16
BRANCH   6  27
ATOM     27  N   LIG d   1      12.021   4.385  -6.967  0.00  0.00    -0.358 N 
ATOM     28  H   LIG d   1      12.967   4.285  -6.782  0.00  0.00     0.142 HD
ATOM     29  H   LIG d   1      11.728   4.920  -7.721  0.00  0.00     0.142 HD
ENDBRANCH   6  27
TORSDOF 2
ENDMDL
MODEL 8
REMARK VINA RESULT:      -5.7      3.015      6.599
REMARK  2 active torsions:
REMARK  status: ('A' for Active; 'I' for Inactive)
REMARK    1  A    between atoms: C_4  and  C_7 
REMARK    2  A    between atoms: C_12  and  N_18 
ROOT
ATOM      1  C   LIG d   1       3.684  -0.449  -7.963  0.00  0.00     0.067 A 
ATOM      2  C   LIG d   1       4.157  -1.552  -7.303  0.00  0.00    -0.036 A 
ATOM      3  C   LIG d   1       4.213  -1.533  -5.887  0.00  0.00     0.018 A 
ATOM      4  C   LIG d   1       4.693  -2.649  -5.185  0.00  0.00    -0.049 A 
ATOM      5  C   LIG d   1       4.741  -2.629  -3.824  0.00  0.00    -0.040 A 
ATOM      6  C   LIG d   1       4.326  -1.496  -3.120  0.00  0.00     0.028 A 
ATOM      7  C   LIG d   1       3.849  -0.384  -3.797  0.00  0.00     0.002 A 
ATOM      8  C   LIG d   1       3.789  -0.391  -5.183  0.00  0.00     0.141 A 
ATOM      9  O   LIG d   1       3.325   0.694  -5.843  0.00  0.00    -0.422 OA
ATOM     10  C   LIG d   1       3.254   0.715  -7.184  0.00  0.00     0.345 A 
ATOM     11  O   LIG d   1       2.832   1.704  -7.754  0.00  0.00    -0.244 OA
ATOM     12  H   LIG d   1       4.480  -2.424  -7.854  0.00  0.00     0.063 H 
ATOM     13  H   LIG d   1       5.019  -3.527  -5.724  0.00  0.00     0.062 H 
ATOM     14  H   LIG d   1       5.106  -3.491  -3.286  0.00  0.00     0.064 H 
ATOM     15  H   LIG d   1       3.526   0.487  -3.246  0.00  0.00     0.067 H 
ENDROOT
BRANCH   1  16
ATOM     16  C   LIG d   1       3.609  -0.432  -9.442  0.00  0.00    -0.011 A 
ATOM     17  C   LIG d   1       2.434  -0.815 -10.088  0.00  0.00    -0.054 A 
ATOM     18  C   LIG d   1       2.370  -0.797 -11.466  0.00  0.00    -0.061 A 
ATOM     19  H   LIG d   1       1.576  -1.125  -9.511  0.00  0.00     0.062 H 
ATOM     20  C   LIG d   1       3.468  -0.400 -12.208  0.00  0.00    -0.062 A 
ATOM     21  H   LIG d   1       1.461  -1.094 -11.968  0.00  0.00     0.062 H 
ATOM     22  C   LIG d   1       4.637  -0.019 -11.573  0.00  0.00    -0.061 A 
ATOM     23  H   LIG d   1       3.414  -0.387 -13.287  0.00  0.00     0.062 H 
ATOM     24  C   LIG d   1       4.711  -0.026 -10.195  0.00  0.00    -0.054 A 
ATOM     25  H   LIG d   1       5.492   0.290 -12.156  0.00  0.00     0.062 H 
ATOM     26  H   LIG d   1       5.623   0.276  -9.701  0.00  0.00     0.062 H 
ENDBRANCH   1  16
BRANCH   6  27
ATOM     27  N   LIG d   1       4.384  -1.486  -1.729  0.00  0.00    -0.358 N 
ATOM     28  H   LIG d   1       3.647  -1.124  -1.216  0.00  0.00     0.142 HD
ATOM     29  H   LIG d   1       5.164  -1.842  -1.275  0.00  0.00     0.142 HD
ENDBRANCH   6  27
TORSDOF 2
ENDMDL
MODEL 9
REMARK VINA RESULT:      -5.6      2.632      3.145
REMARK  2 active torsions:
REMARK  status: ('A' for Active; 'I' for Inactive)
REMARK    1  A    between atoms: C_4  and  C_7 
REMARK    2  A    between atoms: C_12  and  N_18 
ROOT
ATOM      1  C   LIG d   1       4.153  -0.870  -5.734  0.00  0.00     0.067 A 
ATOM      2  C   LIG d   1       4.622  -2.136  -5.963  0.00  0.00    -0.036 A 
ATOM      3  C   LIG d   1       4.451  -2.708  -7.248  0.00  0.00     0.018 A 
ATOM      4  C   LIG d   1       4.922  -4.004  -7.513  0.00  0.00    -0.049 A 
ATOM      5  C   LIG d   1       4.759  -4.548  -8.751  0.00  0.00    -0.040 A 
ATOM      6  C   LIG d   1       4.115  -3.829  -9.760  0.00  0.00     0.028 A 
ATOM      7  C   LIG d   1       3.643  -2.547  -9.517  0.00  0.00     0.002 A 
ATOM      8  C   LIG d   1       3.805  -1.977  -8.262  0.00  0.00     0.141 A 
ATOM      9  O   LIG d   1       3.345  -0.728  -8.026  0.00  0.00    -0.422 OA
ATOM     10  C   LIG d   1       3.489  -0.149  -6.822  0.00  0.00     0.345 A 
ATOM     11  O   LIG d   1       3.065   0.976  -6.635  0.00  0.00    -0.244 OA
ATOM     12  H   LIG d   1       5.116  -2.689  -5.178  0.00  0.00     0.063 H 
ATOM     13  H   LIG d   1       5.417  -4.567  -6.736  0.00  0.00     0.062 H 
ATOM     14  H   LIG d   1       5.127  -5.544  -8.952  0.00  0.00     0.064 H 
ATOM     15  H   LIG d   1       3.150  -1.995 -10.303  0.00  0.00     0.067 H 
ENDROOT
BRANCH   1  16
ATOM     16  C   LIG d   1       4.315  -0.238  -4.404  0.00  0.00    -0.011 A 
ATOM     17  C   LIG d   1       5.569   0.208  -3.988  0.00  0.00    -0.054 A 
ATOM     18  C   LIG d   1       5.713   0.796  -2.748  0.00  0.00    -0.061 A 
ATOM     19  H   LIG d   1       6.426   0.093  -4.635  0.00  0.00     0.062 H 
ATOM     20  C   LIG d   1       4.617   0.944  -1.918  0.00  0.00    -0.062 A 
ATOM     21  H   LIG d   1       6.684   1.141  -2.424  0.00  0.00     0.062 H 
ATOM     22  C   LIG d   1       3.370   0.503  -2.324  0.00  0.00    -0.061 A 
ATOM     23  H   LIG d   1       4.734   1.405  -0.948  0.00  0.00     0.062 H 
ATOM     24  C   LIG d   1       3.212  -0.080  -3.565  0.00  0.00    -0.054 A 
ATOM     25  H   LIG d   1       2.517   0.621  -1.672  0.00  0.00     0.062 H 
ATOM     26  H   LIG d   1       2.237  -0.419  -3.883  0.00  0.00     0.062 H 
ENDBRANCH   1  16
BRANCH   6  27
ATOM     27  N   LIG d   1       3.951  -4.399 -11.019  0.00  0.00    -0.358 N 
ATOM     28  H   LIG d   1       4.115  -3.870 -11.815  0.00  0.00     0.142 HD
ATOM     29  H   LIG d   1       3.674  -5.324 -11.099  0.00  0.00     0.142 HD
ENDBRANCH   6  27
TORSDOF 2
ENDMDL
