MODEL 1
REMARK VINA RESULT:      -6.8      0.000      0.000
REMARK  3 active torsions:
REMARK  status: ('A' for Active; 'I' for Inactive)
REMARK    1  A    between atoms: C_4  and  C_7 
REMARK    2  A    between atoms: C_7  and  C_9 
REMARK    3  A    between atoms: C_9  and  C_11 
ROOT
ATOM      1  C   LIG d   1       3.778  -0.697  -7.454  0.00  0.00     0.027 A 
ATOM      2  C   LIG d   1       3.344   0.606  -7.683  0.00  0.00    -0.051 A 
ATOM      3  C   LIG d   1       2.543   0.899  -8.777  0.00  0.00    -0.060 A 
ATOM      4  C   LIG d   1       2.145  -0.062  -9.655  0.00  0.00    -0.054 A 
ATOM      5  C   LIG d   1       2.540  -1.400  -9.484  0.00  0.00    -0.017 A 
ATOM      6  C   LIG d   1       3.362  -1.747  -8.384  0.00  0.00    -0.007 A 
ATOM      7  C   LIG d   1       3.757  -3.078  -8.209  0.00  0.00    -0.053 A 
ATOM      8  C   LIG d   1       3.347  -4.026  -9.100  0.00  0.00    -0.061 A 
ATOM      9  C   LIG d   1       2.539  -3.687 -10.182  0.00  0.00    -0.061 A 
ATOM     10  C   LIG d   1       2.136  -2.402 -10.382  0.00  0.00    -0.054 A 
ATOM     11  H   LIG d   1       3.635   1.395  -7.006  0.00  0.00     0.062 H 
ATOM     12  H   LIG d   1       2.223   1.919  -8.934  0.00  0.00     0.062 H 
ATOM     13  H   LIG d   1       1.518   0.206 -10.493  0.00  0.00     0.062 H 
ATOM     14  H   LIG d   1       4.384  -3.352  -7.373  0.00  0.00     0.062 H 
ATOM     15  H   LIG d   1       3.653  -5.052  -8.963  0.00  0.00     0.062 H 
ATOM     16  H   LIG d   1       2.226  -4.457 -10.872  0.00  0.00     0.062 H 
ATOM     17  H   LIG d   1       1.509  -2.154 -11.225  0.00  0.00     0.062 H 
ENDROOT
BRANCH   1  18
ATOM     18  C   LIG d   1       4.629  -1.011  -6.302  0.00  0.00     0.181 C 
ATOM     19  O   LIG d   1       5.811  -0.740  -6.329  0.00  0.00    -0.290 OA
BRANCH  18  20
ATOM     20  C   LIG d   1       4.035  -1.672  -5.084  0.00  0.00     0.102 C 
ATOM     21  H   LIG d   1       3.087  -1.929  -5.273  0.00  0.00     0.055 H 
ATOM     22 BR   LIG d   1       5.073  -3.281  -4.640  0.00  0.00    -0.074 Br
BRANCH  20  23
ATOM     23  C   LIG d   1       4.074  -0.712  -3.923  0.00  0.00    -0.026 A 
ATOM     24  C   LIG d   1       3.495   0.538  -4.040  0.00  0.00    -0.057 A 
ATOM     25  C   LIG d   1       3.531   1.419  -2.975  0.00  0.00    -0.061 A 
ATOM     26  H   LIG d   1       3.015   0.826  -4.964  0.00  0.00     0.062 H 
ATOM     27  C   LIG d   1       4.145   1.049  -1.794  0.00  0.00    -0.062 A 
ATOM     28  H   LIG d   1       3.080   2.396  -3.067  0.00  0.00     0.062 H 
ATOM     29  C   LIG d   1       4.722  -0.200  -1.676  0.00  0.00    -0.061 A 
ATOM     30  H   LIG d   1       4.173   1.738  -0.962  0.00  0.00     0.062 H 
ATOM     31  C   LIG d   1       4.683  -1.083  -2.740  0.00  0.00    -0.057 A 
ATOM     32  H   LIG d   1       5.203  -0.489  -0.752  0.00  0.00     0.062 H 
ATOM     33  H   LIG d   1       5.131  -2.061  -2.646  0.00  0.00     0.062 H 
ENDBRANCH  20  23
ENDBRANCH  18  20
ENDBRANCH   1  18
TORSDOF 3
ENDMDL
MODEL 2
REMARK VINA RESULT:      -6.7      1.670      2.178
REMARK  3 active torsions:
REMARK  status: ('A' for Active; 'I' for Inactive)
REMARK    1  A    between atoms: C_4  and  C_7 
REMARK    2  A    between atoms: C_7  and  C_9 
REMARK    3  A    between atoms: C_9  and  C_11 
ROOT
ATOM      1  C   LIG d   1       3.381   0.526  -7.944  0.00  0.00     0.027 A 
ATOM      2  C   LIG d   1       3.703   1.859  -8.180  0.00  0.00    -0.051 A 
ATOM      3  C   LIG d   1       3.775   2.348  -9.476  0.00  0.00    -0.060 A 
ATOM      4  C   LIG d   1       3.527   1.558 -10.557  0.00  0.00    -0.054 A 
ATOM      5  C   LIG d   1       3.190   0.203 -10.394  0.00  0.00    -0.017 A 
ATOM      6  C   LIG d   1       3.109  -0.342  -9.089  0.00  0.00    -0.007 A 
ATOM      7  C   LIG d   1       2.774  -1.690  -8.922  0.00  0.00    -0.053 A 
ATOM      8  C   LIG d   1       2.529  -2.465 -10.018  0.00  0.00    -0.061 A 
ATOM      9  C   LIG d   1       2.607  -1.932 -11.302  0.00  0.00    -0.061 A 
ATOM     10  C   LIG d   1       2.931  -0.625 -11.500  0.00  0.00    -0.054 A 
ATOM     11  H   LIG d   1       3.903   2.519  -7.348  0.00  0.00     0.062 H 
ATOM     12  H   LIG d   1       4.031   3.385  -9.632  0.00  0.00     0.062 H 
ATOM     13  H   LIG d   1       3.589   1.976 -11.551  0.00  0.00     0.062 H 
ATOM     14  H   LIG d   1       2.710  -2.115  -7.931  0.00  0.00     0.062 H 
ATOM     15  H   LIG d   1       2.269  -3.505  -9.887  0.00  0.00     0.062 H 
ATOM     16  H   LIG d   1       2.407  -2.566 -12.153  0.00  0.00     0.062 H 
ATOM     17  H   LIG d   1       2.988  -0.225 -12.501  0.00  0.00     0.062 H 
ENDROOT
BRANCH   1  18
ATOM     18  C   LIG d   1       3.309   0.004  -6.575  0.00  0.00     0.181 C 
ATOM     19  O   LIG d   1       2.374   0.300  -5.861  0.00  0.00    -0.290 OA
BRANCH  18  20
ATOM     20  C   LIG d   1       4.398  -0.900  -6.054  0.00  0.00     0.102 C 
ATOM     21  H   LIG d   1       4.237  -1.834  -6.374  0.00  0.00     0.055 H 
ATOM     22 BR   LIG d   1       6.140  -0.274  -6.716  0.00  0.00    -0.074 Br
BRANCH  20  23
ATOM     23  C   LIG d   1       4.394  -0.875  -4.548  0.00  0.00    -0.026 A 
ATOM     24  C   LIG d   1       3.942  -1.973  -3.840  0.00  0.00    -0.057 A 
ATOM     25  C   LIG d   1       3.938  -1.951  -2.458  0.00  0.00    -0.061 A 
ATOM     26  H   LIG d   1       3.592  -2.849  -4.367  0.00  0.00     0.062 H 
ATOM     27  C   LIG d   1       4.386  -0.830  -1.784  0.00  0.00    -0.062 A 
ATOM     28  H   LIG d   1       3.584  -2.808  -1.905  0.00  0.00     0.062 H 
ATOM     29  C   LIG d   1       4.838   0.267  -2.491  0.00  0.00    -0.061 A 
ATOM     30  H   LIG d   1       4.382  -0.812  -0.704  0.00  0.00     0.062 H 
ATOM     31  C   LIG d   1       4.847   0.243  -3.874  0.00  0.00    -0.057 A 
ATOM     32  H   LIG d   1       5.189   1.144  -1.964  0.00  0.00     0.062 H 
ATOM     33  H   LIG d   1       5.204   1.099  -4.427  0.00  0.00     0.062 H 
ENDBRANCH  20  23
ENDBRANCH  18  20
ENDBRANCH   1  18
TORSDOF 3
ENDMDL
MODEL 3
REMARK VINA RESULT:      -6.7      2.266      5.940
REMARK  3 active torsions:
REMARK  status: ('A' for Active; 'I' for Inactive)
REMARK    1  A    between atoms: C_4  and  C_7 
REMARK    2  A    between atoms: C_7  and  C_9 
REMARK    3  A    between atoms: C_9  and  C_11 
ROOT
ATOM      1  C   LIG d   1       5.866  -0.759  -5.408  0.00  0.00     0.027 A 
ATOM      2  C   LIG d   1       7.224  -0.450  -5.445  0.00  0.00    -0.051 A 
ATOM      3  C   LIG d   1       7.778   0.401  -4.501  0.00  0.00    -0.060 A 
ATOM      4  C   LIG d   1       7.032   0.955  -3.506  0.00  0.00    -0.054 A 
ATOM      5  C   LIG d   1       5.657   0.683  -3.403  0.00  0.00    -0.017 A 
ATOM      6  C   LIG d   1       5.045  -0.177  -4.347  0.00  0.00    -0.007 A 
ATOM      7  C   LIG d   1       3.676  -0.451  -4.248  0.00  0.00    -0.053 A 
ATOM      8  C   LIG d   1       2.947   0.114  -3.244  0.00  0.00    -0.061 A 
ATOM      9  C   LIG d   1       3.545   0.960  -2.313  0.00  0.00    -0.061 A 
ATOM     10  C   LIG d   1       4.874   1.247  -2.381  0.00  0.00    -0.054 A 
ATOM     11  H   LIG d   1       7.849  -0.873  -6.217  0.00  0.00     0.062 H 
ATOM     12  H   LIG d   1       8.833   0.628  -4.554  0.00  0.00     0.062 H 
ATOM     13  H   LIG d   1       7.502   1.610  -2.787  0.00  0.00     0.062 H 
ATOM     14  H   LIG d   1       3.201  -1.105  -4.964  0.00  0.00     0.062 H 
ATOM     15  H   LIG d   1       1.891  -0.099  -3.169  0.00  0.00     0.062 H 
ATOM     16  H   LIG d   1       2.946   1.393  -1.527  0.00  0.00     0.062 H 
ATOM     17  H   LIG d   1       5.325   1.905  -1.653  0.00  0.00     0.062 H 
ENDROOT
BRANCH   1  18
ATOM     18  C   LIG d   1       5.275  -1.655  -6.408  0.00  0.00     0.181 C 
ATOM     19  O   LIG d   1       4.649  -2.631  -6.052  0.00  0.00    -0.290 OA
BRANCH  18  20
ATOM     20  C   LIG d   1       5.445  -1.362  -7.876  0.00  0.00     0.102 C 
ATOM     21  H   LIG d   1       6.419  -1.295  -8.093  0.00  0.00     0.055 H 
ATOM     22 BR   LIG d   1       4.640  -2.813  -8.931  0.00  0.00    -0.074 Br
BRANCH  20  23
ATOM     23  C   LIG d   1       4.764  -0.060  -8.211  0.00  0.00    -0.026 A 
ATOM     24  C   LIG d   1       5.487   0.970  -8.784  0.00  0.00    -0.057 A 
ATOM     25  C   LIG d   1       4.863   2.165  -9.091  0.00  0.00    -0.061 A 
ATOM     26  H   LIG d   1       6.539   0.842  -8.990  0.00  0.00     0.062 H 
ATOM     27  C   LIG d   1       3.516   2.328  -8.826  0.00  0.00    -0.062 A 
ATOM     28  H   LIG d   1       5.427   2.970  -9.537  0.00  0.00     0.062 H 
ATOM     29  C   LIG d   1       2.793   1.298  -8.255  0.00  0.00    -0.061 A 
ATOM     30  H   LIG d   1       3.028   3.262  -9.066  0.00  0.00     0.062 H 
ATOM     31  C   LIG d   1       3.417   0.102  -7.952  0.00  0.00    -0.057 A 
ATOM     32  H   LIG d   1       1.740   1.426  -8.048  0.00  0.00     0.062 H 
ATOM     33  H   LIG d   1       2.851  -0.705  -7.509  0.00  0.00     0.062 H 
ENDBRANCH  20  23
ENDBRANCH  18  20
ENDBRANCH   1  18
TORSDOF 3
ENDMDL
MODEL 4
REMARK VINA RESULT:      -6.6      2.006      6.419
REMARK  3 active torsions:
REMARK  status: ('A' for Active; 'I' for Inactive)
REMARK    1  A    between atoms: C_4  and  C_7 
REMARK    2  A    between atoms: C_7  and  C_9 
REMARK    3  A    between atoms: C_9  and  C_11 
ROOT
ATOM      1  C   LIG d   1       4.491  -1.220  -6.431  0.00  0.00     0.027 A 
ATOM      2  C   LIG d   1       4.982  -2.445  -6.875  0.00  0.00    -0.051 A 
ATOM      3  C   LIG d   1       5.146  -3.501  -5.991  0.00  0.00    -0.060 A 
ATOM      4  C   LIG d   1       4.830  -3.389  -4.672  0.00  0.00    -0.054 A 
ATOM      5  C   LIG d   1       4.325  -2.185  -4.154  0.00  0.00    -0.017 A 
ATOM      6  C   LIG d   1       4.143  -1.077  -5.017  0.00  0.00    -0.007 A 
ATOM      7  C   LIG d   1       3.639   0.124  -4.506  0.00  0.00    -0.053 A 
ATOM      8  C   LIG d   1       3.328   0.214  -3.181  0.00  0.00    -0.061 A 
ATOM      9  C   LIG d   1       3.505  -0.873  -2.329  0.00  0.00    -0.061 A 
ATOM     10  C   LIG d   1       3.993  -2.056  -2.794  0.00  0.00    -0.054 A 
ATOM     11  H   LIG d   1       5.240  -2.573  -7.916  0.00  0.00     0.062 H 
ATOM     12  H   LIG d   1       5.533  -4.439  -6.361  0.00  0.00     0.062 H 
ATOM     13  H   LIG d   1       4.969  -4.236  -4.015  0.00  0.00     0.062 H 
ATOM     14  H   LIG d   1       3.497   0.974  -5.157  0.00  0.00     0.062 H 
ATOM     15  H   LIG d   1       2.939   1.142  -2.788  0.00  0.00     0.062 H 
ATOM     16  H   LIG d   1       3.249  -0.776  -1.284  0.00  0.00     0.062 H 
ATOM     17  H   LIG d   1       4.125  -2.890  -2.122  0.00  0.00     0.062 H 
ENDROOT
BRANCH   1  18
ATOM     18  C   LIG d   1       4.320  -0.100  -7.362  0.00  0.00     0.181 C 
ATOM     19  O   LIG d   1       5.266   0.605  -7.643  0.00  0.00    -0.290 OA
BRANCH  18  20
ATOM     20  C   LIG d   1       2.968   0.177  -7.968  0.00  0.00     0.102 C 
ATOM     21  H   LIG d   1       2.252  -0.135  -7.343  0.00  0.00     0.055 H 
ATOM     22 BR   LIG d   1       2.771   2.109  -8.275  0.00  0.00    -0.074 Br
BRANCH  20  23
ATOM     23  C   LIG d   1       2.846  -0.556  -9.279  0.00  0.00    -0.026 A 
ATOM     24  C   LIG d   1       2.362  -1.851  -9.305  0.00  0.00    -0.057 A 
ATOM     25  C   LIG d   1       2.251  -2.523 -10.507  0.00  0.00    -0.061 A 
ATOM     26  H   LIG d   1       2.072  -2.337  -8.385  0.00  0.00     0.062 H 
ATOM     27  C   LIG d   1       2.623  -1.900 -11.684  0.00  0.00    -0.062 A 
ATOM     28  H   LIG d   1       1.874  -3.535 -10.527  0.00  0.00     0.062 H 
ATOM     29  C   LIG d   1       3.105  -0.606 -11.658  0.00  0.00    -0.061 A 
ATOM     30  H   LIG d   1       2.536  -2.426 -12.624  0.00  0.00     0.062 H 
ATOM     31  C   LIG d   1       3.212   0.069 -10.456  0.00  0.00    -0.057 A 
ATOM     32  H   LIG d   1       3.395  -0.119 -12.579  0.00  0.00     0.062 H 
ATOM     33  H   LIG d   1       3.586   1.082 -10.437  0.00  0.00     0.062 H 
ENDBRANCH  20  23
ENDBRANCH  18  20
ENDBRANCH   1  18
TORSDOF 3
ENDMDL
MODEL 5
REMARK VINA RESULT:      -6.6      2.729      4.866
REMARK  3 active torsions:
REMARK  status: ('A' for Active; 'I' for Inactive)
REMARK    1  A    between atoms: C_4  and  C_7 
REMARK    2  A    between atoms: C_7  and  C_9 
REMARK    3  A    between atoms: C_9  and  C_11 
ROOT
ATOM      1  C   LIG d   1       5.093  -1.727  -3.795  0.00  0.00     0.027 A 
ATOM      2  C   LIG d   1       4.758  -1.607  -2.449  0.00  0.00    -0.051 A 
ATOM      3  C   LIG d   1       3.694  -0.809  -2.057  0.00  0.00    -0.060 A 
ATOM      4  C   LIG d   1       2.936  -0.127  -2.959  0.00  0.00    -0.054 A 
ATOM      5  C   LIG d   1       3.213  -0.205  -4.335  0.00  0.00    -0.017 A 
ATOM      6  C   LIG d   1       4.292  -1.004  -4.783  0.00  0.00    -0.007 A 
ATOM      7  C   LIG d   1       4.571  -1.086  -6.152  0.00  0.00    -0.053 A 
ATOM      8  C   LIG d   1       3.799  -0.395  -7.039  0.00  0.00    -0.061 A 
ATOM      9  C   LIG d   1       2.737   0.392  -6.602  0.00  0.00    -0.061 A 
ATOM     10  C   LIG d   1       2.438   0.493  -5.277  0.00  0.00    -0.054 A 
ATOM     11  H   LIG d   1       5.333  -2.137  -1.704  0.00  0.00     0.062 H 
ATOM     12  H   LIG d   1       3.457  -0.729  -1.006  0.00  0.00     0.062 H 
ATOM     13  H   LIG d   1       2.112   0.482  -2.614  0.00  0.00     0.062 H 
ATOM     14  H   LIG d   1       5.392  -1.693  -6.503  0.00  0.00     0.062 H 
ATOM     15  H   LIG d   1       4.016  -0.460  -8.095  0.00  0.00     0.062 H 
ATOM     16  H   LIG d   1       2.140   0.928  -7.325  0.00  0.00     0.062 H 
ATOM     17  H   LIG d   1       1.611   1.107  -4.952  0.00  0.00     0.062 H 
ENDROOT
BRANCH   1  18
ATOM     18  C   LIG d   1       6.220  -2.566  -4.214  0.00  0.00     0.181 C 
ATOM     19  O   LIG d   1       6.015  -3.642  -4.736  0.00  0.00    -0.290 OA
BRANCH  18  20
ATOM     20  C   LIG d   1       7.635  -2.092  -3.996  0.00  0.00     0.102 C 
ATOM     21  H   LIG d   1       7.810  -2.007  -3.015  0.00  0.00     0.055 H 
ATOM     22 BR   LIG d   1       8.888  -3.391  -4.774  0.00  0.00    -0.074 Br
BRANCH  20  23
ATOM     23  C   LIG d   1       7.823  -0.752  -4.659  0.00  0.00    -0.026 A 
ATOM     24  C   LIG d   1       8.145  -0.686  -6.002  0.00  0.00    -0.057 A 
ATOM     25  C   LIG d   1       8.318   0.543  -6.611  0.00  0.00    -0.061 A 
ATOM     26  H   LIG d   1       8.261  -1.594  -6.575  0.00  0.00     0.062 H 
ATOM     27  C   LIG d   1       8.169   1.705  -5.877  0.00  0.00    -0.062 A 
ATOM     28  H   LIG d   1       8.571   0.595  -7.659  0.00  0.00     0.062 H 
ATOM     29  C   LIG d   1       7.847   1.638  -4.535  0.00  0.00    -0.061 A 
ATOM     30  H   LIG d   1       8.305   2.665  -6.352  0.00  0.00     0.062 H 
ATOM     31  C   LIG d   1       7.669   0.409  -3.927  0.00  0.00    -0.057 A 
ATOM     32  H   LIG d   1       7.730   2.547  -3.961  0.00  0.00     0.062 H 
ATOM     33  H   LIG d   1       7.413   0.357  -2.879  0.00  0.00     0.062 H 
ENDBRANCH  20  23
ENDBRANCH  18  20
ENDBRANCH   1  18
TORSDOF 3
ENDMDL
MODEL 6
REMARK VINA RESULT:      -6.5      2.072      3.288
REMARK  3 active torsions:
REMARK  status: ('A' for Active; 'I' for Inactive)
REMARK    1  A    between atoms: C_4  and  C_7 
REMARK    2  A    between atoms: C_7  and  C_9 
REMARK    3  A    between atoms: C_9  and  C_11 
ROOT
ATOM      1  C   LIG d   1       5.152  -2.582  -6.330  0.00  0.00     0.027 A 
ATOM      2  C   LIG d   1       5.886  -3.259  -7.301  0.00  0.00    -0.051 A 
ATOM      3  C   LIG d   1       5.866  -2.835  -8.621  0.00  0.00    -0.060 A 
ATOM      4  C   LIG d   1       5.147  -1.750  -9.017  0.00  0.00    -0.054 A 
ATOM      5  C   LIG d   1       4.387  -1.015  -8.091  0.00  0.00    -0.017 A 
ATOM      6  C   LIG d   1       4.372  -1.411  -6.732  0.00  0.00    -0.007 A 
ATOM      7  C   LIG d   1       3.618  -0.682  -5.807  0.00  0.00    -0.053 A 
ATOM      8  C   LIG d   1       2.904   0.403  -6.224  0.00  0.00    -0.061 A 
ATOM      9  C   LIG d   1       2.917   0.796  -7.560  0.00  0.00    -0.061 A 
ATOM     10  C   LIG d   1       3.640   0.109  -8.486  0.00  0.00    -0.054 A 
ATOM     11  H   LIG d   1       6.473  -4.122  -7.024  0.00  0.00     0.062 H 
ATOM     12  H   LIG d   1       6.441  -3.381  -9.355  0.00  0.00     0.062 H 
ATOM     13  H   LIG d   1       5.160  -1.449 -10.055  0.00  0.00     0.062 H 
ATOM     14  H   LIG d   1       3.600  -0.977  -4.768  0.00  0.00     0.062 H 
ATOM     15  H   LIG d   1       2.323   0.964  -5.508  0.00  0.00     0.062 H 
ATOM     16  H   LIG d   1       2.345   1.660  -7.865  0.00  0.00     0.062 H 
ATOM     17  H   LIG d   1       3.641   0.425  -9.519  0.00  0.00     0.062 H 
ENDROOT
BRANCH   1  18
ATOM     18  C   LIG d   1       5.166  -3.029  -4.934  0.00  0.00     0.181 C 
ATOM     19  O   LIG d   1       4.329  -3.814  -4.539  0.00  0.00    -0.290 OA
BRANCH  18  20
ATOM     20  C   LIG d   1       6.220  -2.514  -3.988  0.00  0.00     0.102 C 
ATOM     21  H   LIG d   1       6.431  -3.217  -3.308  0.00  0.00     0.055 H 
ATOM     22 BR   LIG d   1       7.848  -2.074  -4.998  0.00  0.00    -0.074 Br
BRANCH  20  23
ATOM     23  C   LIG d   1       5.711  -1.278  -3.293  0.00  0.00    -0.026 A 
ATOM     24  C   LIG d   1       4.705  -1.381  -2.350  0.00  0.00    -0.057 A 
ATOM     25  C   LIG d   1       4.237  -0.246  -1.712  0.00  0.00    -0.061 A 
ATOM     26  H   LIG d   1       4.284  -2.346  -2.112  0.00  0.00     0.062 H 
ATOM     27  C   LIG d   1       4.776   0.989  -2.018  0.00  0.00    -0.062 A 
ATOM     28  H   LIG d   1       3.451  -0.326  -0.977  0.00  0.00     0.062 H 
ATOM     29  C   LIG d   1       5.782   1.092  -2.959  0.00  0.00    -0.061 A 
ATOM     30  H   LIG d   1       4.410   1.876  -1.520  0.00  0.00     0.062 H 
ATOM     31  C   LIG d   1       6.253  -0.043  -3.594  0.00  0.00    -0.057 A 
ATOM     32  H   LIG d   1       6.203   2.058  -3.197  0.00  0.00     0.062 H 
ATOM     33  H   LIG d   1       7.042   0.036  -4.327  0.00  0.00     0.062 H 
ENDBRANCH  20  23
ENDBRANCH  18  20
ENDBRANCH   1  18
TORSDOF 3
ENDMDL
MODEL 7
REMARK VINA RESULT:      -6.4      4.057      6.388
REMARK  3 active torsions:
REMARK  status: ('A' for Active; 'I' for Inactive)
REMARK    1  A    between atoms: C_4  and  C_7 
REMARK    2  A    between atoms: C_7  and  C_9 
REMARK    3  A    between atoms: C_9  and  C_11 
ROOT
ATOM      1  C   LIG d   1       6.471  -0.813  -5.117  0.00  0.00     0.027 A 
ATOM      2  C   LIG d   1       6.393  -2.120  -5.593  0.00  0.00    -0.051 A 
ATOM      3  C   LIG d   1       5.653  -3.075  -4.912  0.00  0.00    -0.060 A 
ATOM      4  C   LIG d   1       4.973  -2.777  -3.770  0.00  0.00    -0.054 A 
ATOM      5  C   LIG d   1       5.002  -1.478  -3.235  0.00  0.00    -0.017 A 
ATOM      6  C   LIG d   1       5.747  -0.470  -3.893  0.00  0.00    -0.007 A 
ATOM      7  C   LIG d   1       5.778   0.825  -3.364  0.00  0.00    -0.053 A 
ATOM      8  C   LIG d   1       5.090   1.102  -2.220  0.00  0.00    -0.061 A 
ATOM      9  C   LIG d   1       4.355   0.113  -1.570  0.00  0.00    -0.061 A 
ATOM     10  C   LIG d   1       4.304  -1.157  -2.057  0.00  0.00    -0.054 A 
ATOM     11  H   LIG d   1       6.915  -2.393  -6.498  0.00  0.00     0.062 H 
ATOM     12  H   LIG d   1       5.613  -4.082  -5.299  0.00  0.00     0.062 H 
ATOM     13  H   LIG d   1       4.406  -3.549  -3.270  0.00  0.00     0.062 H 
ATOM     14  H   LIG d   1       6.344   1.600  -3.859  0.00  0.00     0.062 H 
ATOM     15  H   LIG d   1       5.114   2.102  -1.813  0.00  0.00     0.062 H 
ATOM     16  H   LIG d   1       3.818   0.358  -0.666  0.00  0.00     0.062 H 
ATOM     17  H   LIG d   1       3.731  -1.914  -1.543  0.00  0.00     0.062 H 
ENDROOT
BRANCH   1  18
ATOM     18  C   LIG d   1       7.255   0.198  -5.832  0.00  0.00     0.181 C 
ATOM     19  O   LIG d   1       6.712   0.940  -6.624  0.00  0.00    -0.290 OA
BRANCH  18  20
ATOM     20  C   LIG d   1       8.738   0.317  -5.585  0.00  0.00     0.102 C 
ATOM     21  H   LIG d   1       9.011  -0.337  -4.878  0.00  0.00     0.055 H 
ATOM     22 BR   LIG d   1       9.712  -0.072  -7.247  0.00  0.00    -0.074 Br
BRANCH  20  23
ATOM     23  C   LIG d   1       9.061   1.716  -5.128  0.00  0.00    -0.026 A 
ATOM     24  C   LIG d   1       9.110   2.008  -3.778  0.00  0.00    -0.057 A 
ATOM     25  C   LIG d   1       9.406   3.292  -3.359  0.00  0.00    -0.061 A 
ATOM     26  H   LIG d   1       8.916   1.233  -3.050  0.00  0.00     0.062 H 
ATOM     27  C   LIG d   1       9.653   4.282  -4.290  0.00  0.00    -0.062 A 
ATOM     28  H   LIG d   1       9.443   3.520  -2.304  0.00  0.00     0.062 H 
ATOM     29  C   LIG d   1       9.605   3.990  -5.640  0.00  0.00    -0.061 A 
ATOM     30  H   LIG d   1       9.884   5.285  -3.963  0.00  0.00     0.062 H 
ATOM     31  C   LIG d   1       9.313   2.705  -6.059  0.00  0.00    -0.057 A 
ATOM     32  H   LIG d   1       9.799   4.765  -6.368  0.00  0.00     0.062 H 
ATOM     33  H   LIG d   1       9.280   2.476  -7.114  0.00  0.00     0.062 H 
ENDBRANCH  20  23
ENDBRANCH  18  20
ENDBRANCH   1  18
TORSDOF 3
ENDMDL
MODEL 8
REMARK VINA RESULT:      -6.3      4.256      6.133
REMARK  3 active torsions:
REMARK  status: ('A' for Active; 'I' for Inactive)
REMARK    1  A    between atoms: C_4  and  C_7 
REMARK    2  A    between atoms: C_7  and  C_9 
REMARK    3  A    between atoms: C_9  and  C_11 
ROOT
ATOM      1  C   LIG d   1       6.204   0.408  -3.869  0.00  0.00     0.027 A 
ATOM      2  C   LIG d   1       5.828   1.371  -2.935  0.00  0.00    -0.051 A 
ATOM      3  C   LIG d   1       4.867   1.085  -1.977  0.00  0.00    -0.060 A 
ATOM      4  C   LIG d   1       4.265  -0.133  -1.904  0.00  0.00    -0.054 A 
ATOM      5  C   LIG d   1       4.598  -1.155  -2.810  0.00  0.00    -0.017 A 
ATOM      6  C   LIG d   1       5.572  -0.909  -3.809  0.00  0.00    -0.007 A 
ATOM      7  C   LIG d   1       5.907  -1.923  -4.712  0.00  0.00    -0.053 A 
ATOM      8  C   LIG d   1       5.292  -3.138  -4.621  0.00  0.00    -0.061 A 
ATOM      9  C   LIG d   1       4.335  -3.383  -3.640  0.00  0.00    -0.061 A 
ATOM     10  C   LIG d   1       3.985  -2.418  -2.745  0.00  0.00    -0.054 A 
ATOM     11  H   LIG d   1       6.287   2.348  -2.959  0.00  0.00     0.062 H 
ATOM     12  H   LIG d   1       4.591   1.851  -1.267  0.00  0.00     0.062 H 
ATOM     13  H   LIG d   1       3.523  -0.318  -1.141  0.00  0.00     0.062 H 
ATOM     14  H   LIG d   1       6.648  -1.745  -5.478  0.00  0.00     0.062 H 
ATOM     15  H   LIG d   1       5.552  -3.919  -5.320  0.00  0.00     0.062 H 
ATOM     16  H   LIG d   1       3.864  -4.353  -3.589  0.00  0.00     0.062 H 
ATOM     17  H   LIG d   1       3.241  -2.622  -1.990  0.00  0.00     0.062 H 
ENDROOT
BRANCH   1  18
ATOM     18  C   LIG d   1       7.217   0.707  -4.886  0.00  0.00     0.181 C 
ATOM     19  O   LIG d   1       6.877   1.092  -5.986  0.00  0.00    -0.290 OA
BRANCH  18  20
ATOM     20  C   LIG d   1       8.680   0.536  -4.567  0.00  0.00     0.102 C 
ATOM     21  H   LIG d   1       8.777   0.099  -3.673  0.00  0.00     0.055 H 
ATOM     22 BR   LIG d   1       9.523  -0.590  -5.940  0.00  0.00    -0.074 Br
BRANCH  20  23
ATOM     23  C   LIG d   1       9.350   1.886  -4.543  0.00  0.00    -0.026 A 
ATOM     24  C   LIG d   1      10.145   2.281  -5.602  0.00  0.00    -0.057 A 
ATOM     25  C   LIG d   1      10.760   3.519  -5.580  0.00  0.00    -0.061 A 
ATOM     26  H   LIG d   1      10.287   1.622  -6.447  0.00  0.00     0.062 H 
ATOM     27  C   LIG d   1      10.579   4.361  -4.500  0.00  0.00    -0.062 A 
ATOM     28  H   LIG d   1      11.383   3.827  -6.407  0.00  0.00     0.062 H 
ATOM     29  C   LIG d   1       9.783   3.967  -3.441  0.00  0.00    -0.061 A 
ATOM     30  H   LIG d   1      11.060   5.328  -4.482  0.00  0.00     0.062 H 
ATOM     31  C   LIG d   1       9.164   2.730  -3.465  0.00  0.00    -0.057 A 
ATOM     32  H   LIG d   1       9.641   4.626  -2.596  0.00  0.00     0.062 H 
ATOM     33  H   LIG d   1       8.539   2.424  -2.640  0.00  0.00     0.062 H 
ENDBRANCH  20  23
ENDBRANCH  18  20
ENDBRANCH   1  18
TORSDOF 3
ENDMDL
MODEL 9
REMARK VINA RESULT:      -6.3      1.814      6.122
REMARK  3 active torsions:
REMARK  status: ('A' for Active; 'I' for Inactive)
REMARK    1  A    between atoms: C_4  and  C_7 
REMARK    2  A    between atoms: C_7  and  C_9 
REMARK    3  A    between atoms: C_9  and  C_11 
ROOT
ATOM      1  C   LIG d   1       5.902  -0.926  -5.631  0.00  0.00     0.027 A 
ATOM      2  C   LIG d   1       7.116  -1.461  -5.211  0.00  0.00    -0.051 A 
ATOM      3  C   LIG d   1       7.298  -1.845  -3.891  0.00  0.00    -0.060 A 
ATOM      4  C   LIG d   1       6.307  -1.726  -2.965  0.00  0.00    -0.054 A 
ATOM      5  C   LIG d   1       5.053  -1.199  -3.319  0.00  0.00    -0.017 A 
ATOM      6  C   LIG d   1       4.821  -0.790  -4.655  0.00  0.00    -0.007 A 
ATOM      7  C   LIG d   1       3.574  -0.266  -5.012  0.00  0.00    -0.053 A 
ATOM      8  C   LIG d   1       2.595  -0.156  -4.069  0.00  0.00    -0.061 A 
ATOM      9  C   LIG d   1       2.818  -0.558  -2.755  0.00  0.00    -0.061 A 
ATOM     10  C   LIG d   1       4.020  -1.072  -2.374  0.00  0.00    -0.054 A 
ATOM     11  H   LIG d   1       7.925  -1.575  -5.917  0.00  0.00     0.062 H 
ATOM     12  H   LIG d   1       8.251  -2.253  -3.589  0.00  0.00     0.062 H 
ATOM     13  H   LIG d   1       6.486  -2.040  -1.946  0.00  0.00     0.062 H 
ATOM     14  H   LIG d   1       3.389   0.049  -6.028  0.00  0.00     0.062 H 
ATOM     15  H   LIG d   1       1.632   0.248  -4.347  0.00  0.00     0.062 H 
ATOM     16  H   LIG d   1       2.025  -0.462  -2.028  0.00  0.00     0.062 H 
ATOM     17  H   LIG d   1       4.179  -1.380  -1.351  0.00  0.00     0.062 H 
ENDROOT
BRANCH   1  18
ATOM     18  C   LIG d   1       5.707  -0.514  -7.025  0.00  0.00     0.181 C 
ATOM     19  O   LIG d   1       5.788   0.658  -7.329  0.00  0.00    -0.290 OA
BRANCH  18  20
ATOM     20  C   LIG d   1       5.407  -1.547  -8.082  0.00  0.00     0.102 C 
ATOM     21  H   LIG d   1       6.220  -1.692  -8.646  0.00  0.00     0.055 H 
ATOM     22 BR   LIG d   1       4.901  -3.239  -7.218  0.00  0.00    -0.074 Br
BRANCH  20  23
ATOM     23  C   LIG d   1       4.272  -1.065  -8.947  0.00  0.00    -0.026 A 
ATOM     24  C   LIG d   1       2.978  -1.078  -8.460  0.00  0.00    -0.057 A 
ATOM     25  C   LIG d   1       1.936  -0.636  -9.254  0.00  0.00    -0.061 A 
ATOM     26  H   LIG d   1       2.781  -1.434  -7.459  0.00  0.00     0.062 H 
ATOM     27  C   LIG d   1       2.189  -0.181 -10.534  0.00  0.00    -0.062 A 
ATOM     28  H   LIG d   1       0.926  -0.648  -8.874  0.00  0.00     0.062 H 
ATOM     29  C   LIG d   1       3.482  -0.167 -11.021  0.00  0.00    -0.061 A 
ATOM     30  H   LIG d   1       1.375   0.164 -11.155  0.00  0.00     0.062 H 
ATOM     31  C   LIG d   1       4.525  -0.605 -10.225  0.00  0.00    -0.057 A 
ATOM     32  H   LIG d   1       3.679   0.190 -12.022  0.00  0.00     0.062 H 
ATOM     33  H   LIG d   1       5.536  -0.590 -10.604  0.00  0.00     0.062 H 
ENDBRANCH  20  23
ENDBRANCH  18  20
ENDBRANCH   1  18
TORSDOF 3
ENDMDL
MODEL 10
REMARK VINA RESULT:      -6.1      2.458      5.451
REMARK  3 active torsions:
REMARK  status: ('A' for Active; 'I' for Inactive)
REMARK    1  A    between atoms: C_4  and  C_7 
REMARK    2  A    between atoms: C_7  and  C_9 
REMARK    3  A    between atoms: C_9  and  C_11 
ROOT
ATOM      1  C   LIG d   1       4.439  -0.837  -6.244  0.00  0.00     0.027 A 
ATOM      2  C   LIG d   1       3.465  -0.043  -6.845  0.00  0.00    -0.051 A 
ATOM      3  C   LIG d   1       2.470   0.549  -6.083  0.00  0.00    -0.060 A 
ATOM      4  C   LIG d   1       2.408   0.390  -4.732  0.00  0.00    -0.054 A 
ATOM      5  C   LIG d   1       3.360  -0.393  -4.057  0.00  0.00    -0.017 A 
ATOM      6  C   LIG d   1       4.394  -1.022  -4.794  0.00  0.00    -0.007 A 
ATOM      7  C   LIG d   1       5.344  -1.801  -4.126  0.00  0.00    -0.053 A 
ATOM      8  C   LIG d   1       5.265  -1.947  -2.772  0.00  0.00    -0.061 A 
ATOM      9  C   LIG d   1       4.250  -1.331  -2.044  0.00  0.00    -0.061 A 
ATOM     10  C   LIG d   1       3.309  -0.565  -2.663  0.00  0.00    -0.054 A 
ATOM     11  H   LIG d   1       3.484   0.110  -7.915  0.00  0.00     0.062 H 
ATOM     12  H   LIG d   1       1.724   1.156  -6.574  0.00  0.00     0.062 H 
ATOM     13  H   LIG d   1       1.619   0.871  -4.173  0.00  0.00     0.062 H 
ATOM     14  H   LIG d   1       6.136  -2.285  -4.679  0.00  0.00     0.062 H 
ATOM     15  H   LIG d   1       5.999  -2.549  -2.258  0.00  0.00     0.062 H 
ATOM     16  H   LIG d   1       4.210  -1.461  -0.973  0.00  0.00     0.062 H 
ATOM     17  H   LIG d   1       2.528  -0.093  -2.086  0.00  0.00     0.062 H 
ENDROOT
BRANCH   1  18
ATOM     18  C   LIG d   1       5.490  -1.469  -7.047  0.00  0.00     0.181 C 
ATOM     19  O   LIG d   1       6.615  -1.013  -7.043  0.00  0.00    -0.290 OA
BRANCH  18  20
ATOM     20  C   LIG d   1       5.175  -2.686  -7.879  0.00  0.00     0.102 C 
ATOM     21  H   LIG d   1       4.224  -2.643  -8.186  0.00  0.00     0.055 H 
ATOM     22 BR   LIG d   1       6.366  -2.737  -9.443  0.00  0.00    -0.074 Br
BRANCH  20  23
ATOM     23  C   LIG d   1       5.381  -3.928  -7.051  0.00  0.00    -0.026 A 
ATOM     24  C   LIG d   1       4.299  -4.543  -6.448  0.00  0.00    -0.057 A 
ATOM     25  C   LIG d   1       4.487  -5.682  -5.688  0.00  0.00    -0.061 A 
ATOM     26  H   LIG d   1       3.307  -4.133  -6.571  0.00  0.00     0.062 H 
ATOM     27  C   LIG d   1       5.756  -6.206  -5.531  0.00  0.00    -0.062 A 
ATOM     28  H   LIG d   1       3.642  -6.161  -5.216  0.00  0.00     0.062 H 
ATOM     29  C   LIG d   1       6.837  -5.592  -6.135  0.00  0.00    -0.061 A 
ATOM     30  H   LIG d   1       5.903  -7.096  -4.937  0.00  0.00     0.062 H 
ATOM     31  C   LIG d   1       6.648  -4.455  -6.899  0.00  0.00    -0.057 A 
ATOM     32  H   LIG d   1       7.830  -6.002  -6.012  0.00  0.00     0.062 H 
ATOM     33  H   LIG d   1       7.493  -3.978  -7.374  0.00  0.00     0.062 H 
ENDBRANCH  20  23
ENDBRANCH  18  20
ENDBRANCH   1  18
TORSDOF 3
ENDMDL
