MODEL 1
REMARK VINA RESULT:      -7.3      0.000      0.000
REMARK  13 active torsions:
REMARK  status: ('A' for Active; 'I' for Inactive)
REMARK    1  A    between atoms: C_1  and  C_2 
REMARK    2  A    between atoms: C_3  and  C_10 
REMARK    3  A    between atoms: C_4  and  C_8 
REMARK    4  A    between atoms: C_4  and  C_9 
REMARK    5  A    between atoms: C_10  and  C_11 
REMARK    6  A    between atoms: C_11  and  C_12 
REMARK    7  A    between atoms: C_12  and  C_33 
REMARK    8  A    between atoms: C_13  and  C_14 
REMARK    9  A    between atoms: C_14  and  C_15 
REMARK   10  A    between atoms: C_15  and  C_16 
REMARK   11  A    between atoms: C_19  and  C_25 
REMARK   12  A    between atoms: C_22  and  O_24 
REMARK   13  A    between atoms: C_30  and  O_32 
ROOT
ATOM      1  C   LIG d   1       7.270   0.793  -6.782  0.00  0.00    -0.076 C 
ATOM      2  C   LIG d   1       8.127   1.766  -6.596  0.00  0.00    -0.085 C 
ATOM      3  H   LIG d   1       8.614   2.226  -7.443  0.00  0.00     0.057 H 
ENDROOT
BRANCH   1   4
ATOM      4  C   LIG d   1       6.691   0.062  -5.598  0.00  0.00    -0.028 C 
ATOM      5  H   LIG d   1       6.604   0.748  -4.755  0.00  0.00     0.031 H 
ATOM      6  H   LIG d   1       7.345  -0.766  -5.327  0.00  0.00     0.031 H 
BRANCH   4   7
ATOM      7  C   LIG d   1       5.306  -0.479  -5.962  0.00  0.00    -0.027 C 
ATOM      8  H   LIG d   1       5.410  -1.290  -6.682  0.00  0.00     0.031 H 
ATOM      9  H   LIG d   1       4.707   0.320  -6.398  0.00  0.00     0.031 H 
BRANCH   7  10
ATOM     10  C   LIG d   1       4.627  -0.994  -4.719  0.00  0.00    -0.065 C 
ATOM     11  C   LIG d   1       4.918  -2.191  -4.321  0.00  0.00    -0.073 C 
ATOM     12  C   LIG d   1       4.319  -2.845  -3.110  0.00  0.00    -0.032 C 
ATOM     13  C   LIG d   1       3.678  -1.790  -2.206  0.00  0.00    -0.049 C 
ATOM     14  H   LIG d   1       3.559  -3.561  -3.424  0.00  0.00     0.031 H 
ATOM     15  H   LIG d   1       5.100  -3.367  -2.557  0.00  0.00     0.031 H 
ATOM     16  C   LIG d   1       2.775  -0.897  -3.066  0.00  0.00    -0.044 C 
ATOM     17  H   LIG d   1       3.082  -2.280  -1.435  0.00  0.00     0.027 H 
ATOM     18  H   LIG d   1       4.456  -1.184  -1.741  0.00  0.00     0.027 H 
ATOM     19  C   LIG d   1       3.658  -0.088  -4.018  0.00  0.00    -0.014 C 
ATOM     20  H   LIG d   1       2.087  -1.517  -3.641  0.00  0.00     0.027 H 
ATOM     21  H   LIG d   1       2.208  -0.222  -2.424  0.00  0.00     0.027 H 
BRANCH  11  22
ATOM     22  C   LIG d   1       5.926  -2.976  -5.121  0.00  0.00    -0.043 C 
ATOM     23  H   LIG d   1       5.650  -4.032  -5.118  0.00  0.00     0.027 H 
ATOM     24  H   LIG d   1       5.941  -2.609  -6.147  0.00  0.00     0.027 H 
ATOM     25  H   LIG d   1       6.914  -2.857  -4.678  0.00  0.00     0.027 H 
ENDBRANCH  11  22
BRANCH  19  26
ATOM     26  C   LIG d   1       2.778   0.611  -5.056  0.00  0.00    -0.056 C 
ATOM     27  H   LIG d   1       1.728   0.439  -4.817  0.00  0.00     0.024 H 
ATOM     28  H   LIG d   1       2.982   1.681  -5.043  0.00  0.00     0.024 H 
ATOM     29  H   LIG d   1       2.994   0.211  -6.045  0.00  0.00     0.024 H 
ENDBRANCH  19  26
BRANCH  19  30
ATOM     30  C   LIG d   1       4.432   0.964  -3.221  0.00  0.00    -0.056 C 
ATOM     31  H   LIG d   1       4.508   1.880  -3.808  0.00  0.00     0.024 H 
ATOM     32  H   LIG d   1       3.908   1.172  -2.289  0.00  0.00     0.024 H 
ATOM     33  H   LIG d   1       5.432   0.590  -3.002  0.00  0.00     0.024 H 
ENDBRANCH  19  30
ENDBRANCH   7  10
ENDBRANCH   4   7
ENDBRANCH   1   4
BRANCH   1  34
ATOM     34  C   LIG d   1       6.862   0.405  -8.181  0.00  0.00    -0.044 C 
ATOM     35  H   LIG d   1       7.121   1.208  -8.870  0.00  0.00     0.027 H 
ATOM     36  H   LIG d   1       7.384  -0.507  -8.470  0.00  0.00     0.027 H 
ATOM     37  H   LIG d   1       5.787   0.233  -8.211  0.00  0.00     0.027 H 
ENDBRANCH   1  34
BRANCH   2  38
ATOM     38  C   LIG d   1       8.435   2.242  -5.200  0.00  0.00    -0.031 C 
ATOM     39  H   LIG d   1       7.728   3.022  -4.919  0.00  0.00     0.031 H 
ATOM     40  H   LIG d   1       8.351   1.408  -4.505  0.00  0.00     0.031 H 
BRANCH  38  41
ATOM     41  C   LIG d   1       9.858   2.803  -5.155  0.00  0.00    -0.024 C 
ATOM     42  H   LIG d   1      10.557   2.002  -4.916  0.00  0.00     0.032 H 
ATOM     43  H   LIG d   1      10.112   3.230  -6.126  0.00  0.00     0.032 H 
BRANCH  41  44
ATOM     44  C   LIG d   1       9.942   3.874  -4.097  0.00  0.00    -0.018 C 
ATOM     45  C   LIG d   1      10.319   3.474  -2.699  0.00  0.00     0.179 C 
ATOM     46  O   LIG d   1      10.696   4.626  -1.943  0.00  0.00    -0.340 OA
ATOM     47  H   LIG d   1       9.468   2.990  -2.220  0.00  0.00     0.096 H 
ATOM     48  C   LIG d   1       9.738   5.689  -2.026  0.00  0.00     0.093 C 
ATOM     49  C   LIG d   1       9.752   6.241  -3.453  0.00  0.00    -0.004 C 
ATOM     50  H   LIG d   1       8.746   5.307  -1.788  0.00  0.00     0.065 H 
ATOM     51  C   LIG d   1       9.690   5.103  -4.435  0.00  0.00    -0.077 C 
ATOM     52  H   LIG d   1       8.891   6.895  -3.598  0.00  0.00     0.034 H 
ATOM     53  H   LIG d   1      10.669   6.807  -3.616  0.00  0.00     0.034 H 
ATOM     54  H   LIG d   1       9.424   5.316  -5.461  0.00  0.00     0.057 H 
BRANCH  45  55
ATOM     55  O   LIG d   1      11.416   2.559  -2.747  0.00  0.00    -0.363 OA
ATOM     56  H   LIG d   1      11.295   1.834  -3.376  0.00  0.00     0.213 HD
ENDBRANCH  45  55
BRANCH  48  57
ATOM     57  C   LIG d   1      10.108   6.782  -1.055  0.00  0.00     0.033 A 
ATOM     58  C   LIG d   1       9.564   8.191  -1.039  0.00  0.00     0.228 A 
ATOM     59  O   LIG d   1      10.217   8.860   0.076  0.00  0.00    -0.428 OA
ATOM     60  H   LIG d   1       9.803   8.697  -1.975  0.00  0.00     0.111 H 
ATOM     61  C   LIG d   1      11.050   7.974   0.650  0.00  0.00     0.335 A 
ATOM     62  C   LIG d   1      10.979   6.691  -0.054  0.00  0.00     0.030 A 
ATOM     63  O   LIG d   1      11.759   8.203   1.612  0.00  0.00    -0.245 OA
ATOM     64  H   LIG d   1      11.544   5.807   0.201  0.00  0.00     0.069 H 
BRANCH  58  65
ATOM     65  O   LIG d   1       8.149   8.171  -0.837  0.00  0.00    -0.354 OA
ATOM     66  H   LIG d   1       7.802   8.963  -0.404  0.00  0.00     0.214 HD
ENDBRANCH  58  65
ENDBRANCH  48  57
ENDBRANCH  41  44
ENDBRANCH  38  41
ENDBRANCH   2  38
TORSDOF 13
ENDMDL
MODEL 2
REMARK VINA RESULT:      -7.2      5.661      8.956
REMARK  13 active torsions:
REMARK  status: ('A' for Active; 'I' for Inactive)
REMARK    1  A    between atoms: C_1  and  C_2 
REMARK    2  A    between atoms: C_3  and  C_10 
REMARK    3  A    between atoms: C_4  and  C_8 
REMARK    4  A    between atoms: C_4  and  C_9 
REMARK    5  A    between atoms: C_10  and  C_11 
REMARK    6  A    between atoms: C_11  and  C_12 
REMARK    7  A    between atoms: C_12  and  C_33 
REMARK    8  A    between atoms: C_13  and  C_14 
REMARK    9  A    between atoms: C_14  and  C_15 
REMARK   10  A    between atoms: C_15  and  C_16 
REMARK   11  A    between atoms: C_19  and  C_25 
REMARK   12  A    between atoms: C_22  and  O_24 
REMARK   13  A    between atoms: C_30  and  O_32 
ROOT
ATOM      1  C   LIG d   1       6.584  -0.461  -3.252  0.00  0.00    -0.076 C 
ATOM      2  C   LIG d   1       5.458  -0.006  -2.761  0.00  0.00    -0.085 C 
ATOM      3  H   LIG d   1       5.311   1.058  -2.643  0.00  0.00     0.057 H 
ENDROOT
BRANCH   1   4
ATOM      4  C   LIG d   1       6.843  -1.944  -3.293  0.00  0.00    -0.028 C 
ATOM      5  H   LIG d   1       5.940  -2.462  -3.616  0.00  0.00     0.031 H 
ATOM      6  H   LIG d   1       7.126  -2.292  -2.300  0.00  0.00     0.031 H 
BRANCH   4   7
ATOM      7  C   LIG d   1       7.978  -2.236  -4.278  0.00  0.00    -0.027 C 
ATOM      8  H   LIG d   1       8.935  -2.029  -3.801  0.00  0.00     0.031 H 
ATOM      9  H   LIG d   1       7.867  -1.603  -5.159  0.00  0.00     0.031 H 
BRANCH   7  10
ATOM     10  C   LIG d   1       7.924  -3.684  -4.691  0.00  0.00    -0.065 C 
ATOM     11  C   LIG d   1       8.704  -4.518  -4.081  0.00  0.00    -0.073 C 
ATOM     12  C   LIG d   1       8.771  -5.986  -4.386  0.00  0.00    -0.032 C 
ATOM     13  C   LIG d   1       7.534  -6.416  -5.177  0.00  0.00    -0.049 C 
ATOM     14  H   LIG d   1       9.665  -6.193  -4.974  0.00  0.00     0.031 H 
ATOM     15  H   LIG d   1       8.814  -6.548  -3.453  0.00  0.00     0.031 H 
ATOM     16  C   LIG d   1       7.343  -5.443  -6.347  0.00  0.00    -0.044 C 
ATOM     17  H   LIG d   1       7.676  -7.427  -5.560  0.00  0.00     0.027 H 
ATOM     18  H   LIG d   1       6.657  -6.386  -4.530  0.00  0.00     0.027 H 
ATOM     19  C   LIG d   1       6.969  -4.071  -5.781  0.00  0.00    -0.014 C 
ATOM     20  H   LIG d   1       8.272  -5.365  -6.913  0.00  0.00     0.027 H 
ATOM     21  H   LIG d   1       6.548  -5.804  -6.999  0.00  0.00     0.027 H 
BRANCH  11  22
ATOM     22  C   LIG d   1       9.598  -3.982  -2.992  0.00  0.00    -0.043 C 
ATOM     23  H   LIG d   1       9.391  -4.509  -2.059  0.00  0.00     0.027 H 
ATOM     24  H   LIG d   1      10.640  -4.133  -3.270  0.00  0.00     0.027 H 
ATOM     25  H   LIG d   1       9.408  -2.917  -2.857  0.00  0.00     0.027 H 
ENDBRANCH  11  22
BRANCH  19  26
ATOM     26  C   LIG d   1       7.028  -3.028  -6.899  0.00  0.00    -0.056 C 
ATOM     27  H   LIG d   1       7.848  -2.336  -6.708  0.00  0.00     0.024 H 
ATOM     28  H   LIG d   1       7.190  -3.528  -7.854  0.00  0.00     0.024 H 
ATOM     29  H   LIG d   1       6.089  -2.477  -6.932  0.00  0.00     0.024 H 
ENDBRANCH  19  26
BRANCH  19  30
ATOM     30  C   LIG d   1       5.549  -4.126  -5.216  0.00  0.00    -0.056 C 
ATOM     31  H   LIG d   1       5.257  -3.133  -4.871  0.00  0.00     0.024 H 
ATOM     32  H   LIG d   1       4.861  -4.456  -5.994  0.00  0.00     0.024 H 
ATOM     33  H   LIG d   1       5.517  -4.825  -4.381  0.00  0.00     0.024 H 
ENDBRANCH  19  30
ENDBRANCH   7  10
ENDBRANCH   4   7
ENDBRANCH   1   4
BRANCH   1  34
ATOM     34  C   LIG d   1       7.621   0.500  -3.775  0.00  0.00    -0.044 C 
ATOM     35  H   LIG d   1       8.568  -0.023  -3.905  0.00  0.00     0.027 H 
ATOM     36  H   LIG d   1       7.292   0.903  -4.733  0.00  0.00     0.027 H 
ATOM     37  H   LIG d   1       7.752   1.316  -3.064  0.00  0.00     0.027 H 
ENDBRANCH   1  34
BRANCH   2  38
ATOM     38  C   LIG d   1       4.368  -0.966  -2.360  0.00  0.00    -0.031 C 
ATOM     39  H   LIG d   1       4.574  -1.947  -2.787  0.00  0.00     0.031 H 
ATOM     40  H   LIG d   1       4.333  -1.043  -1.273  0.00  0.00     0.031 H 
BRANCH  38  41
ATOM     41  C   LIG d   1       3.023  -0.456  -2.879  0.00  0.00    -0.024 C 
ATOM     42  H   LIG d   1       2.247  -1.191  -2.661  0.00  0.00     0.032 H 
ATOM     43  H   LIG d   1       2.778   0.487  -2.389  0.00  0.00     0.032 H 
BRANCH  41  44
ATOM     44  C   LIG d   1       3.107  -0.243  -4.368  0.00  0.00    -0.018 C 
ATOM     45  C   LIG d   1       2.508   1.007  -4.950  0.00  0.00     0.179 C 
ATOM     46  O   LIG d   1       2.989   1.210  -6.279  0.00  0.00    -0.340 OA
ATOM     47  H   LIG d   1       1.422   0.911  -4.969  0.00  0.00     0.096 H 
ATOM     48  C   LIG d   1       2.865   0.045  -7.104  0.00  0.00     0.093 C 
ATOM     49  C   LIG d   1       3.836  -1.019  -6.586  0.00  0.00    -0.004 C 
ATOM     50  H   LIG d   1       1.845  -0.333  -7.054  0.00  0.00     0.065 H 
ATOM     51  C   LIG d   1       3.699  -1.144  -5.093  0.00  0.00    -0.077 C 
ATOM     52  H   LIG d   1       3.609  -1.977  -7.054  0.00  0.00     0.034 H 
ATOM     53  H   LIG d   1       4.858  -0.729  -6.829  0.00  0.00     0.034 H 
ATOM     54  H   LIG d   1       4.105  -2.018  -4.605  0.00  0.00     0.057 H 
BRANCH  45  55
ATOM     55  O   LIG d   1       2.868   2.127  -4.138  0.00  0.00    -0.363 OA
ATOM     56  H   LIG d   1       2.901   2.966  -4.619  0.00  0.00     0.213 HD
ENDBRANCH  45  55
BRANCH  48  57
ATOM     57  C   LIG d   1       3.208   0.393  -8.530  0.00  0.00     0.033 A 
ATOM     58  C   LIG d   1       3.862   1.668  -9.011  0.00  0.00     0.228 A 
ATOM     59  O   LIG d   1       3.986   1.534 -10.455  0.00  0.00    -0.428 OA
ATOM     60  H   LIG d   1       3.238   2.527  -8.764  0.00  0.00     0.111 H 
ATOM     61  C   LIG d   1       3.467   0.342 -10.799  0.00  0.00     0.335 A 
ATOM     62  C   LIG d   1       2.988  -0.359  -9.605  0.00  0.00     0.030 A 
ATOM     63  O   LIG d   1       3.405  -0.092 -11.934  0.00  0.00    -0.245 OA
ATOM     64  H   LIG d   1       2.528  -1.336  -9.597  0.00  0.00     0.069 H 
BRANCH  58  65
ATOM     65  O   LIG d   1       5.155   1.812  -8.421  0.00  0.00    -0.354 OA
ATOM     66  H   LIG d   1       5.137   2.098  -7.498  0.00  0.00     0.214 HD
ENDBRANCH  58  65
ENDBRANCH  48  57
ENDBRANCH  41  44
ENDBRANCH  38  41
ENDBRANCH   2  38
TORSDOF 13
ENDMDL
MODEL 3
REMARK VINA RESULT:      -7.1      1.972      2.815
REMARK  13 active torsions:
REMARK  status: ('A' for Active; 'I' for Inactive)
REMARK    1  A    between atoms: C_1  and  C_2 
REMARK    2  A    between atoms: C_3  and  C_10 
REMARK    3  A    between atoms: C_4  and  C_8 
REMARK    4  A    between atoms: C_4  and  C_9 
REMARK    5  A    between atoms: C_10  and  C_11 
REMARK    6  A    between atoms: C_11  and  C_12 
REMARK    7  A    between atoms: C_12  and  C_33 
REMARK    8  A    between atoms: C_13  and  C_14 
REMARK    9  A    between atoms: C_14  and  C_15 
REMARK   10  A    between atoms: C_15  and  C_16 
REMARK   11  A    between atoms: C_19  and  C_25 
REMARK   12  A    between atoms: C_22  and  O_24 
REMARK   13  A    between atoms: C_30  and  O_32 
ROOT
ATOM      1  C   LIG d   1       8.747   1.099  -4.384  0.00  0.00    -0.076 C 
ATOM      2  C   LIG d   1       9.626   2.035  -4.126  0.00  0.00    -0.085 C 
ATOM      3  H   LIG d   1      10.658   1.901  -4.414  0.00  0.00     0.057 H 
ENDROOT
BRANCH   1   4
ATOM      4  C   LIG d   1       7.337   1.225  -3.867  0.00  0.00    -0.028 C 
ATOM      5  H   LIG d   1       6.718   1.719  -4.615  0.00  0.00     0.031 H 
ATOM      6  H   LIG d   1       7.338   1.813  -2.949  0.00  0.00     0.031 H 
BRANCH   4   7
ATOM      7  C   LIG d   1       6.774  -0.169  -3.579  0.00  0.00    -0.027 C 
ATOM      8  H   LIG d   1       7.009  -0.451  -2.553  0.00  0.00     0.031 H 
ATOM      9  H   LIG d   1       7.218  -0.890  -4.265  0.00  0.00     0.031 H 
BRANCH   7  10
ATOM     10  C   LIG d   1       5.279  -0.154  -3.765  0.00  0.00    -0.065 C 
ATOM     11  C   LIG d   1       4.817  -0.253  -4.970  0.00  0.00    -0.073 C 
ATOM     12  C   LIG d   1       3.356  -0.244  -5.315  0.00  0.00    -0.032 C 
ATOM     13  C   LIG d   1       2.518  -0.529  -4.066  0.00  0.00    -0.049 C 
ATOM     14  H   LIG d   1       3.085   0.734  -5.715  0.00  0.00     0.031 H 
ATOM     15  H   LIG d   1       3.156  -1.009  -6.064  0.00  0.00     0.031 H 
ATOM     16  C   LIG d   1       3.000   0.392  -2.938  0.00  0.00    -0.044 C 
ATOM     17  H   LIG d   1       1.467  -0.332  -4.276  0.00  0.00     0.027 H 
ATOM     18  H   LIG d   1       2.647  -1.570  -3.769  0.00  0.00     0.027 H 
ATOM     19  C   LIG d   1       4.418  -0.027  -2.543  0.00  0.00    -0.014 C 
ATOM     20  H   LIG d   1       3.006   1.425  -3.286  0.00  0.00     0.027 H 
ATOM     21  H   LIG d   1       2.334   0.299  -2.080  0.00  0.00     0.027 H 
BRANCH  11  22
ATOM     22  C   LIG d   1       5.807  -0.392  -6.098  0.00  0.00    -0.043 C 
ATOM     23  H   LIG d   1       5.295  -0.762  -6.987  0.00  0.00     0.027 H 
ATOM     24  H   LIG d   1       6.252   0.579  -6.312  0.00  0.00     0.027 H 
ATOM     25  H   LIG d   1       6.589  -1.094  -5.809  0.00  0.00     0.027 H 
ENDBRANCH  11  22
BRANCH  19  26
ATOM     26  C   LIG d   1       5.016   1.028  -1.609  0.00  0.00    -0.056 C 
ATOM     27  H   LIG d   1       4.854   0.730  -0.573  0.00  0.00     0.024 H 
ATOM     28  H   LIG d   1       6.086   1.114  -1.798  0.00  0.00     0.024 H 
ATOM     29  H   LIG d   1       4.536   1.988  -1.790  0.00  0.00     0.024 H 
ENDBRANCH  19  26
BRANCH  19  30
ATOM     30  C   LIG d   1       4.366  -1.373  -1.816  0.00  0.00    -0.056 C 
ATOM     31  H   LIG d   1       4.323  -1.203  -0.740  0.00  0.00     0.024 H 
ATOM     32  H   LIG d   1       3.480  -1.922  -2.133  0.00  0.00     0.024 H 
ATOM     33  H   LIG d   1       5.258  -1.950  -2.058  0.00  0.00     0.024 H 
ENDBRANCH  19  30
ENDBRANCH   7  10
ENDBRANCH   4   7
ENDBRANCH   1   4
BRANCH   1  34
ATOM     34  C   LIG d   1       9.146  -0.106  -5.198  0.00  0.00    -0.044 C 
ATOM     35  H   LIG d   1       8.405  -0.894  -5.067  0.00  0.00     0.027 H 
ATOM     36  H   LIG d   1       9.201   0.170  -6.251  0.00  0.00     0.027 H 
ATOM     37  H   LIG d   1      10.120  -0.463  -4.864  0.00  0.00     0.027 H 
ENDBRANCH   1  34
BRANCH   2  38
ATOM     38  C   LIG d   1       9.197   3.299  -3.426  0.00  0.00    -0.031 C 
ATOM     39  H   LIG d   1       8.117   3.284  -3.280  0.00  0.00     0.031 H 
ATOM     40  H   LIG d   1       9.693   3.365  -2.459  0.00  0.00     0.031 H 
BRANCH  38  41
ATOM     41  C   LIG d   1       9.579   4.509  -4.280  0.00  0.00    -0.024 C 
ATOM     42  H   LIG d   1      10.498   4.294  -4.826  0.00  0.00     0.032 H 
ATOM     43  H   LIG d   1       8.777   4.722  -4.989  0.00  0.00     0.032 H 
BRANCH  41  44
ATOM     44  C   LIG d   1       9.792   5.705  -3.389  0.00  0.00    -0.018 C 
ATOM     45  C   LIG d   1       9.850   7.069  -4.019  0.00  0.00     0.179 C 
ATOM     46  O   LIG d   1       9.694   8.078  -3.020  0.00  0.00    -0.340 OA
ATOM     47  H   LIG d   1      10.812   7.197  -4.515  0.00  0.00     0.096 H 
ATOM     48  C   LIG d   1      10.568   7.897  -1.899  0.00  0.00     0.093 C 
ATOM     49  C   LIG d   1      10.126   6.644  -1.140  0.00  0.00    -0.004 C 
ATOM     50  H   LIG d   1      11.592   7.774  -2.249  0.00  0.00     0.065 H 
ATOM     51  C   LIG d   1       9.914   5.514  -2.110  0.00  0.00    -0.077 C 
ATOM     52  H   LIG d   1      10.895   6.366  -0.419  0.00  0.00     0.034 H 
ATOM     53  H   LIG d   1       9.193   6.846  -0.614  0.00  0.00     0.034 H 
ATOM     54  H   LIG d   1       9.864   4.504  -1.729  0.00  0.00     0.057 H 
BRANCH  45  55
ATOM     55  O   LIG d   1       8.802   7.190  -4.983  0.00  0.00    -0.363 OA
ATOM     56  H   LIG d   1       8.660   8.093  -5.298  0.00  0.00     0.213 HD
ENDBRANCH  45  55
BRANCH  48  57
ATOM     57  C   LIG d   1      10.483   9.098  -0.990  0.00  0.00     0.033 A 
ATOM     58  C   LIG d   1       9.595  10.305  -1.177  0.00  0.00     0.228 A 
ATOM     59  O   LIG d   1       9.869  11.182  -0.048  0.00  0.00    -0.428 OA
ATOM     60  H   LIG d   1       9.836  10.808  -2.113  0.00  0.00     0.111 H 
ATOM     61  C   LIG d   1      10.805  10.587   0.712  0.00  0.00     0.335 A 
ATOM     62  C   LIG d   1      11.181   9.298   0.124  0.00  0.00     0.030 A 
ATOM     63  O   LIG d   1      11.270  11.048   1.736  0.00  0.00    -0.245 OA
ATOM     64  H   LIG d   1      11.911   8.616   0.533  0.00  0.00     0.069 H 
BRANCH  58  65
ATOM     65  O   LIG d   1       8.221   9.912  -1.168  0.00  0.00    -0.354 OA
ATOM     66  H   LIG d   1       8.078   8.987  -0.927  0.00  0.00     0.214 HD
ENDBRANCH  58  65
ENDBRANCH  48  57
ENDBRANCH  41  44
ENDBRANCH  38  41
ENDBRANCH   2  38
TORSDOF 13
ENDMDL
MODEL 4
REMARK VINA RESULT:      -7.0      3.532      6.248
REMARK  13 active torsions:
REMARK  status: ('A' for Active; 'I' for Inactive)
REMARK    1  A    between atoms: C_1  and  C_2 
REMARK    2  A    between atoms: C_3  and  C_10 
REMARK    3  A    between atoms: C_4  and  C_8 
REMARK    4  A    between atoms: C_4  and  C_9 
REMARK    5  A    between atoms: C_10  and  C_11 
REMARK    6  A    between atoms: C_11  and  C_12 
REMARK    7  A    between atoms: C_12  and  C_33 
REMARK    8  A    between atoms: C_13  and  C_14 
REMARK    9  A    between atoms: C_14  and  C_15 
REMARK   10  A    between atoms: C_15  and  C_16 
REMARK   11  A    between atoms: C_19  and  C_25 
REMARK   12  A    between atoms: C_22  and  O_24 
REMARK   13  A    between atoms: C_30  and  O_32 
ROOT
ATOM      1  C   LIG d   1       2.831  -0.365  -4.800  0.00  0.00    -0.076 C 
ATOM      2  C   LIG d   1       2.828  -0.786  -3.559  0.00  0.00    -0.085 C 
ATOM      3  H   LIG d   1       2.174  -0.324  -2.835  0.00  0.00     0.057 H 
ENDROOT
BRANCH   1   4
ATOM      4  C   LIG d   1       3.834  -0.916  -5.780  0.00  0.00    -0.028 C 
ATOM      5  H   LIG d   1       3.331  -1.587  -6.476  0.00  0.00     0.031 H 
ATOM      6  H   LIG d   1       4.606  -1.464  -5.241  0.00  0.00     0.031 H 
BRANCH   4   7
ATOM      7  C   LIG d   1       4.474   0.237  -6.557  0.00  0.00    -0.027 C 
ATOM      8  H   LIG d   1       5.487   0.403  -6.191  0.00  0.00     0.031 H 
ATOM      9  H   LIG d   1       3.884   1.143  -6.415  0.00  0.00     0.031 H 
BRANCH   7  10
ATOM     10  C   LIG d   1       4.519  -0.109  -8.022  0.00  0.00    -0.065 C 
ATOM     11  C   LIG d   1       5.521  -0.808  -8.450  0.00  0.00    -0.073 C 
ATOM     12  C   LIG d   1       5.709  -1.222  -9.880  0.00  0.00    -0.032 C 
ATOM     13  C   LIG d   1       4.391  -1.085 -10.646  0.00  0.00    -0.049 C 
ATOM     14  H   LIG d   1       6.463  -0.587 -10.345  0.00  0.00     0.031 H 
ATOM     15  H   LIG d   1       6.039  -2.260  -9.916  0.00  0.00     0.031 H 
ATOM     16  C   LIG d   1       3.810   0.308 -10.367  0.00  0.00    -0.044 C 
ATOM     17  H   LIG d   1       4.573  -1.198 -11.715  0.00  0.00     0.027 H 
ATOM     18  H   LIG d   1       3.689  -1.847 -10.308  0.00  0.00     0.027 H 
ATOM     19  C   LIG d   1       3.398   0.376  -8.895  0.00  0.00    -0.014 C 
ATOM     20  H   LIG d   1       4.566   1.067 -10.572  0.00  0.00     0.027 H 
ATOM     21  H   LIG d   1       2.941   0.477 -11.003  0.00  0.00     0.027 H 
BRANCH  11  22
ATOM     22  C   LIG d   1       6.562  -1.237  -7.448  0.00  0.00    -0.043 C 
ATOM     23  H   LIG d   1       6.481  -0.620  -6.553  0.00  0.00     0.027 H 
ATOM     24  H   LIG d   1       6.402  -2.282  -7.184  0.00  0.00     0.027 H 
ATOM     25  H   LIG d   1       7.554  -1.120  -7.883  0.00  0.00     0.027 H 
ENDBRANCH  11  22
BRANCH  19  26
ATOM     26  C   LIG d   1       3.061   1.822  -8.529  0.00  0.00    -0.056 C 
ATOM     27  H   LIG d   1       2.856   2.389  -9.438  0.00  0.00     0.024 H 
ATOM     28  H   LIG d   1       2.182   1.839  -7.885  0.00  0.00     0.024 H 
ATOM     29  H   LIG d   1       3.904   2.271  -8.005  0.00  0.00     0.024 H 
ENDBRANCH  19  26
BRANCH  19  30
ATOM     30  C   LIG d   1       2.165  -0.502  -8.672  0.00  0.00    -0.056 C 
ATOM     31  H   LIG d   1       2.435  -1.549  -8.813  0.00  0.00     0.024 H 
ATOM     32  H   LIG d   1       1.794  -0.356  -7.659  0.00  0.00     0.024 H 
ATOM     33  H   LIG d   1       1.391  -0.227  -9.387  0.00  0.00     0.024 H 
ENDBRANCH  19  30
ENDBRANCH   7  10
ENDBRANCH   4   7
ENDBRANCH   1   4
BRANCH   1  34
ATOM     34  C   LIG d   1       1.831   0.671  -5.247  0.00  0.00    -0.044 C 
ATOM     35  H   LIG d   1       1.972   1.584  -4.669  0.00  0.00     0.027 H 
ATOM     36  H   LIG d   1       1.978   0.884  -6.305  0.00  0.00     0.027 H 
ATOM     37  H   LIG d   1       0.821   0.293  -5.089  0.00  0.00     0.027 H 
ENDBRANCH   1  34
BRANCH   2  38
ATOM     38  C   LIG d   1       3.736  -1.914  -3.144  0.00  0.00    -0.031 C 
ATOM     39  H   LIG d   1       3.147  -2.701  -2.675  0.00  0.00     0.031 H 
ATOM     40  H   LIG d   1       4.243  -2.314  -4.022  0.00  0.00     0.031 H 
BRANCH  38  41
ATOM     41  C   LIG d   1       4.775  -1.392  -2.149  0.00  0.00    -0.024 C 
ATOM     42  H   LIG d   1       4.273  -0.826  -1.363  0.00  0.00     0.032 H 
ATOM     43  H   LIG d   1       5.308  -2.233  -1.705  0.00  0.00     0.032 H 
BRANCH  41  44
ATOM     44  C   LIG d   1       5.753  -0.498  -2.866  0.00  0.00    -0.018 C 
ATOM     45  C   LIG d   1       5.509   0.985  -2.859  0.00  0.00     0.179 C 
ATOM     46  O   LIG d   1       6.692   1.680  -3.257  0.00  0.00    -0.340 OA
ATOM     47  H   LIG d   1       4.701   1.221  -3.550  0.00  0.00     0.096 H 
ATOM     48  C   LIG d   1       7.259   1.170  -4.471  0.00  0.00     0.093 C 
ATOM     49  C   LIG d   1       7.805  -0.233  -4.197  0.00  0.00    -0.004 C 
ATOM     50  H   LIG d   1       6.491   1.123  -5.242  0.00  0.00     0.065 H 
ATOM     51  C   LIG d   1       6.773  -1.041  -3.459  0.00  0.00    -0.077 C 
ATOM     52  H   LIG d   1       8.043  -0.721  -5.143  0.00  0.00     0.034 H 
ATOM     53  H   LIG d   1       8.707  -0.161  -3.589  0.00  0.00     0.034 H 
ATOM     54  H   LIG d   1       6.883  -2.116  -3.424  0.00  0.00     0.057 H 
BRANCH  45  55
ATOM     55  O   LIG d   1       5.138   1.397  -1.541  0.00  0.00    -0.363 OA
ATOM     56  H   LIG d   1       5.405   0.780  -0.847  0.00  0.00     0.213 HD
ENDBRANCH  45  55
BRANCH  48  57
ATOM     57  C   LIG d   1       8.379   2.071  -4.925  0.00  0.00     0.033 A 
ATOM     58  C   LIG d   1       9.212   2.980  -4.052  0.00  0.00     0.228 A 
ATOM     59  O   LIG d   1      10.157   3.637  -4.942  0.00  0.00    -0.428 OA
ATOM     60  H   LIG d   1       8.576   3.719  -3.564  0.00  0.00     0.111 H 
ATOM     61  C   LIG d   1       9.919   3.190  -6.189  0.00  0.00     0.335 A 
ATOM     62  C   LIG d   1       8.818   2.223  -6.172  0.00  0.00     0.030 A 
ATOM     63  O   LIG d   1      10.526   3.537  -7.183  0.00  0.00    -0.245 OA
ATOM     64  H   LIG d   1       8.425   1.711  -7.037  0.00  0.00     0.069 H 
BRANCH  58  65
ATOM     65  O   LIG d   1       9.916   2.213  -3.072  0.00  0.00    -0.354 OA
ATOM     66  H   LIG d   1      10.177   2.717  -2.290  0.00  0.00     0.214 HD
ENDBRANCH  58  65
ENDBRANCH  48  57
ENDBRANCH  41  44
ENDBRANCH  38  41
ENDBRANCH   2  38
TORSDOF 13
ENDMDL
MODEL 5
REMARK VINA RESULT:      -7.0      1.043      1.812
REMARK  13 active torsions:
REMARK  status: ('A' for Active; 'I' for Inactive)
REMARK    1  A    between atoms: C_1  and  C_2 
REMARK    2  A    between atoms: C_3  and  C_10 
REMARK    3  A    between atoms: C_4  and  C_8 
REMARK    4  A    between atoms: C_4  and  C_9 
REMARK    5  A    between atoms: C_10  and  C_11 
REMARK    6  A    between atoms: C_11  and  C_12 
REMARK    7  A    between atoms: C_12  and  C_33 
REMARK    8  A    between atoms: C_13  and  C_14 
REMARK    9  A    between atoms: C_14  and  C_15 
REMARK   10  A    between atoms: C_15  and  C_16 
REMARK   11  A    between atoms: C_19  and  C_25 
REMARK   12  A    between atoms: C_22  and  O_24 
REMARK   13  A    between atoms: C_30  and  O_32 
ROOT
ATOM      1  C   LIG d   1       7.799   0.068  -7.064  0.00  0.00    -0.076 C 
ATOM      2  C   LIG d   1       8.872   0.805  -6.921  0.00  0.00    -0.085 C 
ATOM      3  H   LIG d   1       9.766   0.570  -7.478  0.00  0.00     0.057 H 
ENDROOT
BRANCH   1   4
ATOM      4  C   LIG d   1       6.594   0.312  -6.192  0.00  0.00    -0.028 C 
ATOM      5  H   LIG d   1       5.687   0.189  -6.783  0.00  0.00     0.031 H 
ATOM      6  H   LIG d   1       6.633   1.325  -5.794  0.00  0.00     0.031 H 
BRANCH   4   7
ATOM      7  C   LIG d   1       6.590  -0.692  -5.036  0.00  0.00    -0.027 C 
ATOM      8  H   LIG d   1       7.562  -0.680  -4.543  0.00  0.00     0.031 H 
ATOM      9  H   LIG d   1       6.391  -1.691  -5.423  0.00  0.00     0.031 H 
BRANCH   7  10
ATOM     10  C   LIG d   1       5.519  -0.312  -4.046  0.00  0.00    -0.065 C 
ATOM     11  C   LIG d   1       5.786   0.623  -3.193  0.00  0.00    -0.073 C 
ATOM     12  C   LIG d   1       4.828   1.103  -2.143  0.00  0.00    -0.032 C 
ATOM     13  C   LIG d   1       3.404   0.659  -2.487  0.00  0.00    -0.049 C 
ATOM     14  H   LIG d   1       5.111   0.686  -1.176  0.00  0.00     0.031 H 
ATOM     15  H   LIG d   1       4.862   2.191  -2.091  0.00  0.00     0.031 H 
ATOM     16  C   LIG d   1       3.428  -0.840  -2.812  0.00  0.00    -0.044 C 
ATOM     17  H   LIG d   1       2.747   0.839  -1.635  0.00  0.00     0.027 H 
ATOM     18  H   LIG d   1       3.046   1.215  -3.353  0.00  0.00     0.027 H 
ATOM     19  C   LIG d   1       4.209  -1.041  -4.113  0.00  0.00    -0.014 C 
ATOM     20  H   LIG d   1       3.918  -1.382  -2.003  0.00  0.00     0.027 H 
ATOM     21  H   LIG d   1       2.409  -1.205  -2.933  0.00  0.00     0.027 H 
BRANCH  11  22
ATOM     22  C   LIG d   1       7.143   1.276  -3.261  0.00  0.00    -0.043 C 
ATOM     23  H   LIG d   1       7.146   2.175  -2.643  0.00  0.00     0.027 H 
ATOM     24  H   LIG d   1       7.899   0.582  -2.896  0.00  0.00     0.027 H 
ATOM     25  H   LIG d   1       7.366   1.545  -4.294  0.00  0.00     0.027 H 
ENDBRANCH  11  22
BRANCH  19  26
ATOM     26  C   LIG d   1       4.470  -2.534  -4.321  0.00  0.00    -0.056 C 
ATOM     27  H   LIG d   1       5.321  -2.842  -3.713  0.00  0.00     0.024 H 
ATOM     28  H   LIG d   1       3.588  -3.102  -4.027  0.00  0.00     0.024 H 
ATOM     29  H   LIG d   1       4.690  -2.722  -5.372  0.00  0.00     0.024 H 
ENDBRANCH  19  26
BRANCH  19  30
ATOM     30  C   LIG d   1       3.388  -0.503  -5.286  0.00  0.00    -0.056 C 
ATOM     31  H   LIG d   1       2.588   0.134  -4.907  0.00  0.00     0.024 H 
ATOM     32  H   LIG d   1       4.033   0.077  -5.945  0.00  0.00     0.024 H 
ATOM     33  H   LIG d   1       2.958  -1.337  -5.840  0.00  0.00     0.024 H 
ENDBRANCH  19  30
ENDBRANCH   7  10
ENDBRANCH   4   7
ENDBRANCH   1   4
BRANCH   1  34
ATOM     34  C   LIG d   1       7.769  -1.026  -8.101  0.00  0.00    -0.044 C 
ATOM     35  H   LIG d   1       7.848  -1.995  -7.608  0.00  0.00     0.027 H 
ATOM     36  H   LIG d   1       6.832  -0.976  -8.655  0.00  0.00     0.027 H 
ATOM     37  H   LIG d   1       8.605  -0.899  -8.788  0.00  0.00     0.027 H 
ENDBRANCH   1  34
BRANCH   2  38
ATOM     38  C   LIG d   1       8.857   1.981  -5.980  0.00  0.00    -0.031 C 
ATOM     39  H   LIG d   1       8.332   2.814  -6.447  0.00  0.00     0.031 H 
ATOM     40  H   LIG d   1       8.348   1.702  -5.058  0.00  0.00     0.031 H 
BRANCH  38  41
ATOM     41  C   LIG d   1      10.294   2.398  -5.662  0.00  0.00    -0.024 C 
ATOM     42  H   LIG d   1      10.872   1.520  -5.371  0.00  0.00     0.032 H 
ATOM     43  H   LIG d   1      10.745   2.853  -6.545  0.00  0.00     0.032 H 
BRANCH  41  44
ATOM     44  C   LIG d   1      10.291   3.394  -4.531  0.00  0.00    -0.018 C 
ATOM     45  C   LIG d   1      10.390   2.881  -3.122  0.00  0.00     0.179 C 
ATOM     46  O   LIG d   1      10.732   3.946  -2.234  0.00  0.00    -0.340 OA
ATOM     47  H   LIG d   1       9.432   2.455  -2.825  0.00  0.00     0.096 H 
ATOM     48  C   LIG d   1       9.896   5.100  -2.395  0.00  0.00     0.093 C 
ATOM     49  C   LIG d   1      10.198   5.728  -3.758  0.00  0.00    -0.004 C 
ATOM     50  H   LIG d   1       8.849   4.803  -2.350  0.00  0.00     0.065 H 
ATOM     51  C   LIG d   1      10.206   4.659  -4.816  0.00  0.00    -0.077 C 
ATOM     52  H   LIG d   1       9.434   6.469  -3.993  0.00  0.00     0.034 H 
ATOM     53  H   LIG d   1      11.175   6.211  -3.728  0.00  0.00     0.034 H 
ATOM     54  H   LIG d   1      10.136   4.954  -5.853  0.00  0.00     0.057 H 
BRANCH  45  55
ATOM     55  O   LIG d   1      11.397   1.868  -3.057  0.00  0.00    -0.363 OA
ATOM     56  H   LIG d   1      11.054   0.967  -3.139  0.00  0.00     0.213 HD
ENDBRANCH  45  55
BRANCH  48  57
ATOM     57  C   LIG d   1      10.189   6.095  -1.301  0.00  0.00     0.033 A 
ATOM     58  C   LIG d   1       9.756   7.542  -1.263  0.00  0.00     0.228 A 
ATOM     59  O   LIG d   1      10.274   8.082  -0.015  0.00  0.00    -0.428 OA
ATOM     60  H   LIG d   1      10.176   8.082  -2.111  0.00  0.00     0.111 H 
ATOM     61  C   LIG d   1      10.939   7.095   0.612  0.00  0.00     0.335 A 
ATOM     62  C   LIG d   1      10.883   5.868  -0.189  0.00  0.00     0.030 A 
ATOM     63  O   LIG d   1      11.502   7.202   1.684  0.00  0.00    -0.245 OA
ATOM     64  H   LIG d   1      11.334   4.926   0.082  0.00  0.00     0.069 H 
BRANCH  58  65
ATOM     65  O   LIG d   1       8.329   7.630  -1.279  0.00  0.00    -0.354 OA
ATOM     66  H   LIG d   1       7.917   7.506  -0.414  0.00  0.00     0.214 HD
ENDBRANCH  58  65
ENDBRANCH  48  57
ENDBRANCH  41  44
ENDBRANCH  38  41
ENDBRANCH   2  38
TORSDOF 13
ENDMDL
MODEL 6
REMARK VINA RESULT:      -6.9      8.557     13.149
REMARK  13 active torsions:
REMARK  status: ('A' for Active; 'I' for Inactive)
REMARK    1  A    between atoms: C_1  and  C_2 
REMARK    2  A    between atoms: C_3  and  C_10 
REMARK    3  A    between atoms: C_4  and  C_8 
REMARK    4  A    between atoms: C_4  and  C_9 
REMARK    5  A    between atoms: C_10  and  C_11 
REMARK    6  A    between atoms: C_11  and  C_12 
REMARK    7  A    between atoms: C_12  and  C_33 
REMARK    8  A    between atoms: C_13  and  C_14 
REMARK    9  A    between atoms: C_14  and  C_15 
REMARK   10  A    between atoms: C_15  and  C_16 
REMARK   11  A    between atoms: C_19  and  C_25 
REMARK   12  A    between atoms: C_22  and  O_24 
REMARK   13  A    between atoms: C_30  and  O_32 
ROOT
ATOM      1  C   LIG d   1       5.664  -1.588  -8.182  0.00  0.00    -0.076 C 
ATOM      2  C   LIG d   1       5.379  -1.976  -9.400  0.00  0.00    -0.085 C 
ATOM      3  H   LIG d   1       6.141  -1.958 -10.165  0.00  0.00     0.057 H 
ENDROOT
BRANCH   1   4
ATOM      4  C   LIG d   1       4.573  -1.487  -7.148  0.00  0.00    -0.028 C 
ATOM      5  H   LIG d   1       4.476  -2.440  -6.628  0.00  0.00     0.031 H 
ATOM      6  H   LIG d   1       3.630  -1.243  -7.636  0.00  0.00     0.031 H 
BRANCH   4   7
ATOM      7  C   LIG d   1       4.926  -0.390  -6.140  0.00  0.00    -0.027 C 
ATOM      8  H   LIG d   1       4.400   0.528  -6.404  0.00  0.00     0.031 H 
ATOM      9  H   LIG d   1       6.001  -0.211  -6.159  0.00  0.00     0.031 H 
BRANCH   7  10
ATOM     10  C   LIG d   1       4.512  -0.826  -4.758  0.00  0.00    -0.065 C 
ATOM     11  C   LIG d   1       3.363  -0.429  -4.315  0.00  0.00    -0.073 C 
ATOM     12  C   LIG d   1       2.819  -0.772  -2.959  0.00  0.00    -0.032 C 
ATOM     13  C   LIG d   1       3.581  -1.962  -2.372  0.00  0.00    -0.049 C 
ATOM     14  H   LIG d   1       2.927   0.087  -2.297  0.00  0.00     0.031 H 
ATOM     15  H   LIG d   1       1.764  -1.030  -3.048  0.00  0.00     0.031 H 
ATOM     16  C   LIG d   1       5.085  -1.685  -2.498  0.00  0.00    -0.044 C 
ATOM     17  H   LIG d   1       3.318  -2.085  -1.321  0.00  0.00     0.027 H 
ATOM     18  H   LIG d   1       3.329  -2.868  -2.924  0.00  0.00     0.027 H 
ATOM     19  C   LIG d   1       5.457  -1.696  -3.982  0.00  0.00    -0.014 C 
ATOM     20  H   LIG d   1       5.315  -0.709  -2.070  0.00  0.00     0.027 H 
ATOM     21  H   LIG d   1       5.645  -2.457  -1.971  0.00  0.00     0.027 H 
BRANCH  11  22
ATOM     22  C   LIG d   1       2.515   0.429  -5.219  0.00  0.00    -0.043 C 
ATOM     23  H   LIG d   1       3.157   1.101  -5.790  0.00  0.00     0.027 H 
ATOM     24  H   LIG d   1       1.956  -0.208  -5.904  0.00  0.00     0.027 H 
ATOM     25  H   LIG d   1       1.820   1.014  -4.618  0.00  0.00     0.027 H 
ENDBRANCH  11  22
BRANCH  19  26
ATOM     26  C   LIG d   1       6.884  -1.170  -4.151  0.00  0.00    -0.056 C 
ATOM     27  H   LIG d   1       6.868  -0.081  -4.187  0.00  0.00     0.024 H 
ATOM     28  H   LIG d   1       7.493  -1.497  -3.309  0.00  0.00     0.024 H 
ATOM     29  H   LIG d   1       7.307  -1.557  -5.078  0.00  0.00     0.024 H 
ENDBRANCH  19  26
BRANCH  19  30
ATOM     30  C   LIG d   1       5.381  -3.129  -4.514  0.00  0.00    -0.056 C 
ATOM     31  H   LIG d   1       6.192  -3.296  -5.223  0.00  0.00     0.024 H 
ATOM     32  H   LIG d   1       5.473  -3.829  -3.685  0.00  0.00     0.024 H 
ATOM     33  H   LIG d   1       4.425  -3.280  -5.013  0.00  0.00     0.024 H 
ENDBRANCH  19  30
ENDBRANCH   7  10
ENDBRANCH   4   7
ENDBRANCH   1   4
BRANCH   1  34
ATOM     34  C   LIG d   1       7.085  -1.240  -7.815  0.00  0.00    -0.044 C 
ATOM     35  H   LIG d   1       7.760  -1.609  -8.587  0.00  0.00     0.027 H 
ATOM     36  H   LIG d   1       7.183  -0.159  -7.731  0.00  0.00     0.027 H 
ATOM     37  H   LIG d   1       7.337  -1.703  -6.861  0.00  0.00     0.027 H 
ENDBRANCH   1  34
BRANCH   2  38
ATOM     38  C   LIG d   1       3.988  -2.449  -9.733  0.00  0.00    -0.031 C 
ATOM     39  H   LIG d   1       3.326  -2.254  -8.890  0.00  0.00     0.031 H 
ATOM     40  H   LIG d   1       3.623  -1.917 -10.611  0.00  0.00     0.031 H 
BRANCH  38  41
ATOM     41  C   LIG d   1       4.015  -3.951 -10.023  0.00  0.00    -0.024 C 
ATOM     42  H   LIG d   1       4.540  -4.131 -10.961  0.00  0.00     0.032 H 
ATOM     43  H   LIG d   1       4.531  -4.468  -9.213  0.00  0.00     0.032 H 
BRANCH  41  44
ATOM     44  C   LIG d   1       2.604  -4.468 -10.131  0.00  0.00    -0.018 C 
ATOM     45  C   LIG d   1       2.344  -5.917  -9.828  0.00  0.00     0.179 C 
ATOM     46  O   LIG d   1       0.946  -6.135  -9.630  0.00  0.00    -0.340 OA
ATOM     47  H   LIG d   1       2.690  -6.527 -10.662  0.00  0.00     0.096 H 
ATOM     48  C   LIG d   1       0.139  -5.587 -10.679  0.00  0.00     0.093 C 
ATOM     49  C   LIG d   1       0.225  -4.060 -10.607  0.00  0.00    -0.004 C 
ATOM     50  H   LIG d   1       0.509  -5.931 -11.645  0.00  0.00     0.065 H 
ATOM     51  C   LIG d   1       1.663  -3.640 -10.476  0.00  0.00    -0.077 C 
ATOM     52  H   LIG d   1      -0.200  -3.629 -11.514  0.00  0.00     0.034 H 
ATOM     53  H   LIG d   1      -0.334  -3.705  -9.741  0.00  0.00     0.034 H 
ATOM     54  H   LIG d   1       1.925  -2.612 -10.680  0.00  0.00     0.057 H 
BRANCH  45  55
ATOM     55  O   LIG d   1       3.055  -6.288  -8.645  0.00  0.00    -0.363 OA
ATOM     56  H   LIG d   1       2.592  -6.071  -7.824  0.00  0.00     0.213 HD
ENDBRANCH  45  55
BRANCH  48  57
ATOM     57  C   LIG d   1      -1.293  -6.024 -10.500  0.00  0.00     0.033 A 
ATOM     58  C   LIG d   1      -1.822  -6.952  -9.431  0.00  0.00     0.228 A 
ATOM     59  O   LIG d   1      -3.253  -7.065  -9.671  0.00  0.00    -0.428 OA
ATOM     60  H   LIG d   1      -1.347  -7.929  -9.513  0.00  0.00     0.111 H 
ATOM     61  C   LIG d   1      -3.545  -6.313 -10.748  0.00  0.00     0.335 A 
ATOM     62  C   LIG d   1      -2.329  -5.672 -11.256  0.00  0.00     0.030 A 
ATOM     63  O   LIG d   1      -4.654  -6.183 -11.228  0.00  0.00    -0.245 OA
ATOM     64  H   LIG d   1      -2.282  -5.014 -12.111  0.00  0.00     0.069 H 
BRANCH  58  65
ATOM     65  O   LIG d   1      -1.586  -6.396  -8.136  0.00  0.00    -0.354 OA
ATOM     66  H   LIG d   1      -0.727  -5.962  -8.044  0.00  0.00     0.214 HD
ENDBRANCH  58  65
ENDBRANCH  48  57
ENDBRANCH  41  44
ENDBRANCH  38  41
ENDBRANCH   2  38
TORSDOF 13
ENDMDL
MODEL 7
REMARK VINA RESULT:      -6.9      6.273     10.232
REMARK  13 active torsions:
REMARK  status: ('A' for Active; 'I' for Inactive)
REMARK    1  A    between atoms: C_1  and  C_2 
REMARK    2  A    between atoms: C_3  and  C_10 
REMARK    3  A    between atoms: C_4  and  C_8 
REMARK    4  A    between atoms: C_4  and  C_9 
REMARK    5  A    between atoms: C_10  and  C_11 
REMARK    6  A    between atoms: C_11  and  C_12 
REMARK    7  A    between atoms: C_12  and  C_33 
REMARK    8  A    between atoms: C_13  and  C_14 
REMARK    9  A    between atoms: C_14  and  C_15 
REMARK   10  A    between atoms: C_15  and  C_16 
REMARK   11  A    between atoms: C_19  and  C_25 
REMARK   12  A    between atoms: C_22  and  O_24 
REMARK   13  A    between atoms: C_30  and  O_32 
ROOT
ATOM      1  C   LIG d   1       4.045  -0.030  -2.683  0.00  0.00    -0.076 C 
ATOM      2  C   LIG d   1       3.204   0.609  -3.458  0.00  0.00    -0.085 C 
ATOM      3  H   LIG d   1       2.839   1.583  -3.170  0.00  0.00     0.057 H 
ENDROOT
BRANCH   1   4
ATOM      4  C   LIG d   1       4.452  -1.443  -3.016  0.00  0.00    -0.028 C 
ATOM      5  H   LIG d   1       4.024  -1.727  -3.977  0.00  0.00     0.031 H 
ATOM      6  H   LIG d   1       4.088  -2.118  -2.242  0.00  0.00     0.031 H 
BRANCH   4   7
ATOM      7  C   LIG d   1       5.978  -1.528  -3.092  0.00  0.00    -0.027 C 
ATOM      8  H   LIG d   1       6.324  -2.375  -2.500  0.00  0.00     0.031 H 
ATOM      9  H   LIG d   1       6.414  -0.609  -2.700  0.00  0.00     0.031 H 
BRANCH   7  10
ATOM     10  C   LIG d   1       6.399  -1.712  -4.527  0.00  0.00    -0.065 C 
ATOM     11  C   LIG d   1       6.818  -0.673  -5.174  0.00  0.00    -0.073 C 
ATOM     12  C   LIG d   1       7.262  -0.696  -6.608  0.00  0.00    -0.032 C 
ATOM     13  C   LIG d   1       7.552  -2.134  -7.046  0.00  0.00    -0.049 C 
ATOM     14  H   LIG d   1       6.475  -0.280  -7.237  0.00  0.00     0.031 H 
ATOM     15  H   LIG d   1       8.166  -0.098  -6.717  0.00  0.00     0.031 H 
ATOM     16  C   LIG d   1       6.361  -3.014  -6.643  0.00  0.00    -0.044 C 
ATOM     17  H   LIG d   1       7.684  -2.169  -8.127  0.00  0.00     0.027 H 
ATOM     18  H   LIG d   1       8.455  -2.492  -6.551  0.00  0.00     0.027 H 
ATOM     19  C   LIG d   1       6.309  -3.090  -5.116  0.00  0.00    -0.014 C 
ATOM     20  H   LIG d   1       5.438  -2.574  -7.020  0.00  0.00     0.027 H 
ATOM     21  H   LIG d   1       6.487  -4.013  -7.059  0.00  0.00     0.027 H 
BRANCH  11  22
ATOM     22  C   LIG d   1       6.869   0.643  -4.441  0.00  0.00    -0.043 C 
ATOM     23  H   LIG d   1       7.909   0.936  -4.291  0.00  0.00     0.027 H 
ATOM     24  H   LIG d   1       6.358   1.406  -5.028  0.00  0.00     0.027 H 
ATOM     25  H   LIG d   1       6.377   0.540  -3.474  0.00  0.00     0.027 H 
ENDBRANCH  11  22
BRANCH  19  26
ATOM     26  C   LIG d   1       4.993  -3.739  -4.685  0.00  0.00    -0.056 C 
ATOM     27  H   LIG d   1       5.008  -3.914  -3.609  0.00  0.00     0.024 H 
ATOM     28  H   LIG d   1       4.163  -3.078  -4.933  0.00  0.00     0.024 H 
ATOM     29  H   LIG d   1       4.869  -4.689  -5.204  0.00  0.00     0.024 H 
ENDBRANCH  19  26
BRANCH  19  30
ATOM     30  C   LIG d   1       7.479  -3.936  -4.610  0.00  0.00    -0.056 C 
ATOM     31  H   LIG d   1       7.879  -4.531  -5.431  0.00  0.00     0.024 H 
ATOM     32  H   LIG d   1       8.259  -3.282  -4.222  0.00  0.00     0.024 H 
ATOM     33  H   LIG d   1       7.131  -4.597  -3.817  0.00  0.00     0.024 H 
ENDBRANCH  19  30
ENDBRANCH   7  10
ENDBRANCH   4   7
ENDBRANCH   1   4
BRANCH   1  34
ATOM     34  C   LIG d   1       4.605   0.646  -1.458  0.00  0.00    -0.044 C 
ATOM     35  H   LIG d   1       3.887   0.570  -0.641  0.00  0.00     0.027 H 
ATOM     36  H   LIG d   1       5.537   0.162  -1.170  0.00  0.00     0.027 H 
ATOM     37  H   LIG d   1       4.793   1.697  -1.678  0.00  0.00     0.027 H 
ENDBRANCH   1  34
BRANCH   2  38
ATOM     38  C   LIG d   1       2.746  -0.016  -4.750  0.00  0.00    -0.031 C 
ATOM     39  H   LIG d   1       3.409  -0.841  -5.009  0.00  0.00     0.031 H 
ATOM     40  H   LIG d   1       1.729  -0.389  -4.633  0.00  0.00     0.031 H 
BRANCH  38  41
ATOM     41  C   LIG d   1       2.779   1.033  -5.863  0.00  0.00    -0.024 C 
ATOM     42  H   LIG d   1       1.824   1.557  -5.898  0.00  0.00     0.032 H 
ATOM     43  H   LIG d   1       3.579   1.748  -5.666  0.00  0.00     0.032 H 
BRANCH  41  44
ATOM     44  C   LIG d   1       3.027   0.354  -7.186  0.00  0.00    -0.018 C 
ATOM     45  C   LIG d   1       2.757   1.123  -8.449  0.00  0.00     0.179 C 
ATOM     46  O   LIG d   1       3.376   0.473  -9.561  0.00  0.00    -0.340 OA
ATOM     47  H   LIG d   1       1.681   1.177  -8.615  0.00  0.00     0.096 H 
ATOM     48  C   LIG d   1       3.073  -0.926  -9.633  0.00  0.00     0.093 C 
ATOM     49  C   LIG d   1       3.749  -1.628  -8.452  0.00  0.00    -0.004 C 
ATOM     50  H   LIG d   1       1.994  -1.070  -9.578  0.00  0.00     0.065 H 
ATOM     51  C   LIG d   1       3.468  -0.868  -7.185  0.00  0.00    -0.077 C 
ATOM     52  H   LIG d   1       3.361  -2.642  -8.362  0.00  0.00     0.034 H 
ATOM     53  H   LIG d   1       4.826  -1.664  -8.618  0.00  0.00     0.034 H 
ATOM     54  H   LIG d   1       3.638  -1.358  -6.237  0.00  0.00     0.057 H 
BRANCH  45  55
ATOM     55  O   LIG d   1       3.282   2.445  -8.320  0.00  0.00    -0.363 OA
ATOM     56  H   LIG d   1       4.243   2.499  -8.424  0.00  0.00     0.213 HD
ENDBRANCH  45  55
BRANCH  48  57
ATOM     57  C   LIG d   1       3.596  -1.493 -10.928  0.00  0.00     0.033 A 
ATOM     58  C   LIG d   1       3.587  -0.811 -12.276  0.00  0.00     0.228 A 
ATOM     59  O   LIG d   1       4.197  -1.751 -13.205  0.00  0.00    -0.428 OA
ATOM     60  H   LIG d   1       2.563  -0.592 -12.580  0.00  0.00     0.111 H 
ATOM     61  C   LIG d   1       4.522  -2.856 -12.510  0.00  0.00     0.335 A 
ATOM     62  C   LIG d   1       4.148  -2.690 -11.103  0.00  0.00     0.030 A 
ATOM     63  O   LIG d   1       5.050  -3.846 -12.979  0.00  0.00    -0.245 OA
ATOM     64  H   LIG d   1       4.298  -3.426 -10.327  0.00  0.00     0.069 H 
BRANCH  58  65
ATOM     65  O   LIG d   1       4.354   0.394 -12.225  0.00  0.00    -0.354 OA
ATOM     66  H   LIG d   1       3.982   1.120 -12.744  0.00  0.00     0.214 HD
ENDBRANCH  58  65
ENDBRANCH  48  57
ENDBRANCH  41  44
ENDBRANCH  38  41
ENDBRANCH   2  38
TORSDOF 13
ENDMDL
MODEL 8
REMARK VINA RESULT:      -6.8      3.335      5.317
REMARK  13 active torsions:
REMARK  status: ('A' for Active; 'I' for Inactive)
REMARK    1  A    between atoms: C_1  and  C_2 
REMARK    2  A    between atoms: C_3  and  C_10 
REMARK    3  A    between atoms: C_4  and  C_8 
REMARK    4  A    between atoms: C_4  and  C_9 
REMARK    5  A    between atoms: C_10  and  C_11 
REMARK    6  A    between atoms: C_11  and  C_12 
REMARK    7  A    between atoms: C_12  and  C_33 
REMARK    8  A    between atoms: C_13  and  C_14 
REMARK    9  A    between atoms: C_14  and  C_15 
REMARK   10  A    between atoms: C_15  and  C_16 
REMARK   11  A    between atoms: C_19  and  C_25 
REMARK   12  A    between atoms: C_22  and  O_24 
REMARK   13  A    between atoms: C_30  and  O_32 
ROOT
ATOM      1  C   LIG d   1       3.635  -0.400  -8.609  0.00  0.00    -0.076 C 
ATOM      2  C   LIG d   1       4.347  -0.492  -9.704  0.00  0.00    -0.085 C 
ATOM      3  H   LIG d   1       4.031   0.026 -10.598  0.00  0.00     0.057 H 
ENDROOT
BRANCH   1   4
ATOM      4  C   LIG d   1       4.000  -1.225  -7.402  0.00  0.00    -0.028 C 
ATOM      5  H   LIG d   1       4.763  -1.953  -7.676  0.00  0.00     0.031 H 
ATOM      6  H   LIG d   1       3.115  -1.746  -7.037  0.00  0.00     0.031 H 
BRANCH   4   7
ATOM      7  C   LIG d   1       4.542  -0.308  -6.302  0.00  0.00    -0.027 C 
ATOM      8  H   LIG d   1       4.090   0.679  -6.397  0.00  0.00     0.031 H 
ATOM      9  H   LIG d   1       5.624  -0.223  -6.401  0.00  0.00     0.031 H 
BRANCH   7  10
ATOM     10  C   LIG d   1       4.204  -0.888  -4.953  0.00  0.00    -0.065 C 
ATOM     11  C   LIG d   1       4.779  -1.995  -4.608  0.00  0.00    -0.073 C 
ATOM     12  C   LIG d   1       4.538  -2.698  -3.304  0.00  0.00    -0.032 C 
ATOM     13  C   LIG d   1       3.884  -1.742  -2.304  0.00  0.00    -0.049 C 
ATOM     14  H   LIG d   1       3.880  -3.552  -3.469  0.00  0.00     0.031 H 
ATOM     15  H   LIG d   1       5.488  -3.046  -2.899  0.00  0.00     0.031 H 
ATOM     16  C   LIG d   1       2.691  -1.063  -2.990  0.00  0.00    -0.044 C 
ATOM     17  H   LIG d   1       3.537  -2.300  -1.434  0.00  0.00     0.027 H 
ATOM     18  H   LIG d   1       4.605  -0.986  -1.993  0.00  0.00     0.027 H 
ATOM     19  C   LIG d   1       3.225  -0.146  -4.093  0.00  0.00    -0.014 C 
ATOM     20  H   LIG d   1       2.040  -1.820  -3.426  0.00  0.00     0.027 H 
ATOM     21  H   LIG d   1       2.133  -0.477  -2.260  0.00  0.00     0.027 H 
BRANCH  11  22
ATOM     22  C   LIG d   1       5.756  -2.616  -5.574  0.00  0.00    -0.043 C 
ATOM     23  H   LIG d   1       6.068  -3.591  -5.198  0.00  0.00     0.027 H 
ATOM     24  H   LIG d   1       5.279  -2.736  -6.546  0.00  0.00     0.027 H 
ATOM     25  H   LIG d   1       6.628  -1.969  -5.674  0.00  0.00     0.027 H 
ENDBRANCH  11  22
BRANCH  19  26
ATOM     26  C   LIG d   1       2.059   0.340  -4.957  0.00  0.00    -0.056 C 
ATOM     27  H   LIG d   1       1.289   0.773  -4.318  0.00  0.00     0.024 H 
ATOM     28  H   LIG d   1       2.415   1.094  -5.658  0.00  0.00     0.024 H 
ATOM     29  H   LIG d   1       1.640  -0.501  -5.508  0.00  0.00     0.024 H 
ENDBRANCH  19  26
BRANCH  19  30
ATOM     30  C   LIG d   1       3.919   1.061  -3.458  0.00  0.00    -0.056 C 
ATOM     31  H   LIG d   1       4.988   0.863  -3.377  0.00  0.00     0.024 H 
ATOM     32  H   LIG d   1       3.759   1.941  -4.080  0.00  0.00     0.024 H 
ATOM     33  H   LIG d   1       3.505   1.236  -2.466  0.00  0.00     0.024 H 
ENDBRANCH  19  30
ENDBRANCH   7  10
ENDBRANCH   4   7
ENDBRANCH   1   4
BRANCH   1  34
ATOM     34  C   LIG d   1       2.451   0.531  -8.555  0.00  0.00    -0.044 C 
ATOM     35  H   LIG d   1       1.897   0.361  -7.632  0.00  0.00     0.027 H 
ATOM     36  H   LIG d   1       2.798   1.563  -8.587  0.00  0.00     0.027 H 
ATOM     37  H   LIG d   1       1.800   0.340  -9.409  0.00  0.00     0.027 H 
ENDBRANCH   1  34
BRANCH   2  38
ATOM     38  C   LIG d   1       5.606  -1.320  -9.718  0.00  0.00    -0.031 C 
ATOM     39  H   LIG d   1       5.764  -1.756  -8.732  0.00  0.00     0.031 H 
ATOM     40  H   LIG d   1       5.510  -2.116 -10.456  0.00  0.00     0.031 H 
BRANCH  38  41
ATOM     41  C   LIG d   1       6.797  -0.431 -10.079  0.00  0.00    -0.024 C 
ATOM     42  H   LIG d   1       7.550  -1.024 -10.599  0.00  0.00     0.032 H 
ATOM     43  H   LIG d   1       6.463   0.380 -10.727  0.00  0.00     0.032 H 
BRANCH  41  44
ATOM     44  C   LIG d   1       7.394   0.145  -8.821  0.00  0.00    -0.018 C 
ATOM     45  C   LIG d   1       7.448   1.639  -8.669  0.00  0.00     0.179 C 
ATOM     46  O   LIG d   1       7.698   1.987  -7.306  0.00  0.00    -0.340 OA
ATOM     47  H   LIG d   1       8.246   2.037  -9.296  0.00  0.00     0.096 H 
ATOM     48  C   LIG d   1       8.815   1.286  -6.745  0.00  0.00     0.093 C 
ATOM     49  C   LIG d   1       8.444  -0.194  -6.621  0.00  0.00    -0.004 C 
ATOM     50  H   LIG d   1       9.681   1.395  -7.397  0.00  0.00     0.065 H 
ATOM     51  C   LIG d   1       7.835  -0.672  -7.911  0.00  0.00    -0.077 C 
ATOM     52  H   LIG d   1       9.340  -0.776  -6.403  0.00  0.00     0.034 H 
ATOM     53  H   LIG d   1       7.722  -0.322  -5.814  0.00  0.00     0.034 H 
ATOM     54  H   LIG d   1       7.765  -1.735  -8.090  0.00  0.00     0.057 H 
BRANCH  45  55
ATOM     55  O   LIG d   1       6.200   2.202  -9.081  0.00  0.00    -0.363 OA
ATOM     56  H   LIG d   1       6.181   2.480 -10.007  0.00  0.00     0.213 HD
ENDBRANCH  45  55
BRANCH  48  57
ATOM     57  C   LIG d   1       9.132   1.846  -5.382  0.00  0.00     0.033 A 
ATOM     58  C   LIG d   1       8.197   2.633  -4.493  0.00  0.00     0.228 A 
ATOM     59  O   LIG d   1       8.956   2.947  -3.292  0.00  0.00    -0.428 OA
ATOM     60  H   LIG d   1       7.887   3.551  -4.994  0.00  0.00     0.111 H 
ATOM     61  C   LIG d   1      10.187   2.425  -3.440  0.00  0.00     0.335 A 
ATOM     62  C   LIG d   1      10.290   1.746  -4.734  0.00  0.00     0.030 A 
ATOM     63  O   LIG d   1      11.083   2.505  -2.621  0.00  0.00    -0.245 OA
ATOM     64  H   LIG d   1      11.169   1.242  -5.105  0.00  0.00     0.069 H 
BRANCH  58  65
ATOM     65  O   LIG d   1       7.054   1.844  -4.159  0.00  0.00    -0.354 OA
ATOM     66  H   LIG d   1       6.256   2.077  -4.652  0.00  0.00     0.214 HD
ENDBRANCH  58  65
ENDBRANCH  48  57
ENDBRANCH  41  44
ENDBRANCH  38  41
ENDBRANCH   2  38
TORSDOF 13
ENDMDL
MODEL 9
REMARK VINA RESULT:      -6.8      1.990      3.278
REMARK  13 active torsions:
REMARK  status: ('A' for Active; 'I' for Inactive)
REMARK    1  A    between atoms: C_1  and  C_2 
REMARK    2  A    between atoms: C_3  and  C_10 
REMARK    3  A    between atoms: C_4  and  C_8 
REMARK    4  A    between atoms: C_4  and  C_9 
REMARK    5  A    between atoms: C_10  and  C_11 
REMARK    6  A    between atoms: C_11  and  C_12 
REMARK    7  A    between atoms: C_12  and  C_33 
REMARK    8  A    between atoms: C_13  and  C_14 
REMARK    9  A    between atoms: C_14  and  C_15 
REMARK   10  A    between atoms: C_15  and  C_16 
REMARK   11  A    between atoms: C_19  and  C_25 
REMARK   12  A    between atoms: C_22  and  O_24 
REMARK   13  A    between atoms: C_30  and  O_32 
ROOT
ATOM      1  C   LIG d   1       6.205  -1.788  -7.360  0.00  0.00    -0.076 C 
ATOM      2  C   LIG d   1       6.678  -0.654  -7.813  0.00  0.00    -0.085 C 
ATOM      3  H   LIG d   1       6.835  -0.519  -8.872  0.00  0.00     0.057 H 
ENDROOT
BRANCH   1   4
ATOM      4  C   LIG d   1       6.110  -2.027  -5.876  0.00  0.00    -0.028 C 
ATOM      5  H   LIG d   1       6.575  -1.198  -5.344  0.00  0.00     0.031 H 
ATOM      6  H   LIG d   1       6.623  -2.955  -5.623  0.00  0.00     0.031 H 
BRANCH   4   7
ATOM      7  C   LIG d   1       4.637  -2.131  -5.469  0.00  0.00    -0.027 C 
ATOM      8  H   LIG d   1       4.451  -3.109  -5.026  0.00  0.00     0.031 H 
ATOM      9  H   LIG d   1       4.008  -2.005  -6.350  0.00  0.00     0.031 H 
BRANCH   7  10
ATOM     10  C   LIG d   1       4.317  -1.055  -4.464  0.00  0.00    -0.065 C 
ATOM     11  C   LIG d   1       3.627  -0.036  -4.866  0.00  0.00    -0.073 C 
ATOM     12  C   LIG d   1       3.239   1.116  -3.986  0.00  0.00    -0.032 C 
ATOM     13  C   LIG d   1       3.389   0.729  -2.513  0.00  0.00    -0.049 C 
ATOM     14  H   LIG d   1       3.882   1.970  -4.203  0.00  0.00     0.031 H 
ATOM     15  H   LIG d   1       2.201   1.388  -4.182  0.00  0.00     0.031 H 
ATOM     16  C   LIG d   1       4.776   0.104  -2.315  0.00  0.00    -0.044 C 
ATOM     17  H   LIG d   1       3.294   1.618  -1.889  0.00  0.00     0.027 H 
ATOM     18  H   LIG d   1       2.620   0.005  -2.245  0.00  0.00     0.027 H 
ATOM     19  C   LIG d   1       4.817  -1.231  -3.060  0.00  0.00    -0.014 C 
ATOM     20  H   LIG d   1       5.539   0.772  -2.716  0.00  0.00     0.027 H 
ATOM     21  H   LIG d   1       4.956  -0.059  -1.253  0.00  0.00     0.027 H 
BRANCH  11  22
ATOM     22  C   LIG d   1       3.180  -0.008  -6.305  0.00  0.00    -0.043 C 
ATOM     23  H   LIG d   1       4.016   0.291  -6.939  0.00  0.00     0.027 H 
ATOM     24  H   LIG d   1       2.838  -1.000  -6.599  0.00  0.00     0.027 H 
ATOM     25  H   LIG d   1       2.364   0.706  -6.418  0.00  0.00     0.027 H 
ENDBRANCH  11  22
BRANCH  19  26
ATOM     26  C   LIG d   1       6.257  -1.747  -3.097  0.00  0.00    -0.056 C 
ATOM     27  H   LIG d   1       6.251  -2.833  -3.199  0.00  0.00     0.024 H 
ATOM     28  H   LIG d   1       6.780  -1.306  -3.945  0.00  0.00     0.024 H 
ATOM     29  H   LIG d   1       6.765  -1.474  -2.173  0.00  0.00     0.024 H 
ENDBRANCH  19  26
BRANCH  19  30
ATOM     30  C   LIG d   1       3.935  -2.247  -2.332  0.00  0.00    -0.056 C 
ATOM     31  H   LIG d   1       4.254  -3.257  -2.591  0.00  0.00     0.024 H 
ATOM     32  H   LIG d   1       4.027  -2.102  -1.256  0.00  0.00     0.024 H 
ATOM     33  H   LIG d   1       2.897  -2.105  -2.630  0.00  0.00     0.024 H 
ENDBRANCH  19  30
ENDBRANCH   7  10
ENDBRANCH   4   7
ENDBRANCH   1   4
BRANCH   1  34
ATOM     34  C   LIG d   1       5.755  -2.855  -8.326  0.00  0.00    -0.044 C 
ATOM     35  H   LIG d   1       4.707  -3.094  -8.141  0.00  0.00     0.027 H 
ATOM     36  H   LIG d   1       5.871  -2.494  -9.347  0.00  0.00     0.027 H 
ATOM     37  H   LIG d   1       6.361  -3.750  -8.185  0.00  0.00     0.027 H 
ENDBRANCH   1  34
BRANCH   2  38
ATOM     38  C   LIG d   1       7.004   0.462  -6.854  0.00  0.00    -0.031 C 
ATOM     39  H   LIG d   1       6.238   1.234  -6.921  0.00  0.00     0.031 H 
ATOM     40  H   LIG d   1       7.037   0.070  -5.838  0.00  0.00     0.031 H 
BRANCH  38  41
ATOM     41  C   LIG d   1       8.365   1.062  -7.213  0.00  0.00    -0.024 C 
ATOM     42  H   LIG d   1       9.122   0.277  -7.206  0.00  0.00     0.032 H 
ATOM     43  H   LIG d   1       8.315   1.508  -8.207  0.00  0.00     0.032 H 
BRANCH  41  44
ATOM     44  C   LIG d   1       8.730   2.120  -6.204  0.00  0.00    -0.018 C 
ATOM     45  C   LIG d   1       9.552   3.293  -6.658  0.00  0.00     0.179 C 
ATOM     46  O   LIG d   1       9.491   4.341  -5.689  0.00  0.00    -0.340 OA
ATOM     47  H   LIG d   1      10.588   2.979  -6.787  0.00  0.00     0.096 H 
ATOM     48  C   LIG d   1       9.772   3.890  -4.358  0.00  0.00     0.093 C 
ATOM     49  C   LIG d   1       8.626   2.984  -3.903  0.00  0.00    -0.004 C 
ATOM     50  H   LIG d   1      10.708   3.332  -4.350  0.00  0.00     0.065 H 
ATOM     51  C   LIG d   1       8.316   1.981  -4.980  0.00  0.00    -0.077 C 
ATOM     52  H   LIG d   1       8.915   2.462  -2.991  0.00  0.00     0.034 H 
ATOM     53  H   LIG d   1       7.739   3.588  -3.709  0.00  0.00     0.034 H 
ATOM     54  H   LIG d   1       7.730   1.109  -4.725  0.00  0.00     0.057 H 
BRANCH  45  55
ATOM     55  O   LIG d   1       9.046   3.770  -7.907  0.00  0.00    -0.363 OA
ATOM     56  H   LIG d   1       8.878   4.723  -7.924  0.00  0.00     0.213 HD
ENDBRANCH  45  55
BRANCH  48  57
ATOM     57  C   LIG d   1       9.880   5.076  -3.433  0.00  0.00     0.033 A 
ATOM     58  C   LIG d   1       9.867   6.533  -3.835  0.00  0.00     0.228 A 
ATOM     59  O   LIG d   1       9.995   7.290  -2.598  0.00  0.00    -0.428 OA
ATOM     60  H   LIG d   1      10.706   6.748  -4.497  0.00  0.00     0.111 H 
ATOM     61  C   LIG d   1      10.083   6.407  -1.588  0.00  0.00     0.335 A 
ATOM     62  C   LIG d   1      10.011   5.039  -2.110  0.00  0.00     0.030 A 
ATOM     63  O   LIG d   1      10.203   6.698  -0.413  0.00  0.00    -0.245 OA
ATOM     64  H   LIG d   1      10.057   4.141  -1.514  0.00  0.00     0.069 H 
BRANCH  58  65
ATOM     65  O   LIG d   1       8.634   6.855  -4.481  0.00  0.00    -0.354 OA
ATOM     66  H   LIG d   1       7.982   7.271  -3.900  0.00  0.00     0.214 HD
ENDBRANCH  58  65
ENDBRANCH  48  57
ENDBRANCH  41  44
ENDBRANCH  38  41
ENDBRANCH   2  38
TORSDOF 13
ENDMDL
