MODEL 1
REMARK VINA RESULT:      -5.3      0.000      0.000
REMARK  2 active torsions:
REMARK  status: ('A' for Active; 'I' for Inactive)
REMARK    1  A    between atoms: C_5  and  C_7 
REMARK    2  A    between atoms: C_7  and  C_8 
REMARK       I    between atoms: C_8  and  N_10 
ROOT
ATOM      1  C   LIG d   1       4.408   0.595  -1.858  0.00  0.00    -0.059 A 
ATOM      2  C   LIG d   1       4.524  -0.765  -1.606  0.00  0.00    -0.044 A 
ATOM      3  C   LIG d   1       3.880  -1.660  -2.438  0.00  0.00     0.028 A 
ATOM      4  N   LIG d   1       3.163  -1.236  -3.461  0.00  0.00    -0.259 NA
ATOM      5  C   LIG d   1       3.031   0.048  -3.730  0.00  0.00     0.050 A 
ATOM      6  C   LIG d   1       3.645   1.002  -2.941  0.00  0.00    -0.040 A 
ATOM      7  H   LIG d   1       4.896   1.318  -1.223  0.00  0.00     0.062 H 
ATOM      8  H   LIG d   1       5.111  -1.118  -0.772  0.00  0.00     0.063 H 
ATOM      9  H   LIG d   1       3.966  -2.720  -2.250  0.00  0.00     0.083 H 
ATOM     10  H   LIG d   1       3.532   2.053  -3.167  0.00  0.00     0.064 H 
ENDROOT
BRANCH   5  11
ATOM     11  C   LIG d   1       2.199   0.480  -4.911  0.00  0.00     0.066 C 
ATOM     12  H   LIG d   1       1.280  -0.105  -4.940  0.00  0.00     0.042 H 
ATOM     13  H   LIG d   1       1.955   1.537  -4.816  0.00  0.00     0.042 H 
BRANCH  11  14
ATOM     14  C   LIG d   1       2.979   0.256  -6.181  0.00  0.00     0.216 C 
ATOM     15  O   LIG d   1       3.110   1.160  -6.979  0.00  0.00    -0.276 OA
ATOM     16  N   LIG d   1       3.531  -0.949  -6.429  0.00  0.00    -0.329 N 
ATOM     17  H   LIG d   1       3.426  -1.671  -5.790  0.00  0.00     0.145 HD
ATOM     18  H   LIG d   1       4.032  -1.092  -7.247  0.00  0.00     0.145 HD
ENDBRANCH  11  14
ENDBRANCH   5  11
TORSDOF 2
ENDMDL
MODEL 2
REMARK VINA RESULT:      -5.2      2.268      3.163
REMARK  2 active torsions:
REMARK  status: ('A' for Active; 'I' for Inactive)
REMARK    1  A    between atoms: C_5  and  C_7 
REMARK    2  A    between atoms: C_7  and  C_8 
REMARK       I    between atoms: C_8  and  N_10 
ROOT
ATOM      1  C   LIG d   1       4.345   1.021  -1.768  0.00  0.00    -0.059 A 
ATOM      2  C   LIG d   1       3.646   1.623  -2.805  0.00  0.00    -0.044 A 
ATOM      3  C   LIG d   1       3.141   0.836  -3.822  0.00  0.00     0.028 A 
ATOM      4  N   LIG d   1       3.317  -0.472  -3.814  0.00  0.00    -0.259 NA
ATOM      5  C   LIG d   1       3.976  -1.077  -2.846  0.00  0.00     0.050 A 
ATOM      6  C   LIG d   1       4.510  -0.355  -1.796  0.00  0.00    -0.040 A 
ATOM      7  H   LIG d   1       4.755   1.612  -0.962  0.00  0.00     0.062 H 
ATOM      8  H   LIG d   1       3.497   2.692  -2.816  0.00  0.00     0.063 H 
ATOM      9  H   LIG d   1       2.595   1.296  -4.632  0.00  0.00     0.083 H 
ATOM     10  H   LIG d   1       5.050  -0.857  -1.005  0.00  0.00     0.064 H 
ENDROOT
BRANCH   5  11
ATOM     11  C   LIG d   1       4.150  -2.574  -2.885  0.00  0.00     0.066 C 
ATOM     12  H   LIG d   1       4.763  -2.890  -2.041  0.00  0.00     0.042 H 
ATOM     13  H   LIG d   1       3.174  -3.055  -2.826  0.00  0.00     0.042 H 
BRANCH  11  14
ATOM     14  C   LIG d   1       4.826  -2.966  -4.173  0.00  0.00     0.216 C 
ATOM     15  O   LIG d   1       6.037  -3.022  -4.230  0.00  0.00    -0.276 OA
ATOM     16  N   LIG d   1       4.085  -3.257  -5.261  0.00  0.00    -0.329 N 
ATOM     17  H   LIG d   1       3.118  -3.213  -5.216  0.00  0.00     0.145 HD
ATOM     18  H   LIG d   1       4.521  -3.509  -6.091  0.00  0.00     0.145 HD
ENDBRANCH  11  14
ENDBRANCH   5  11
TORSDOF 2
ENDMDL
MODEL 3
REMARK VINA RESULT:      -5.1      1.025      1.578
REMARK  2 active torsions:
REMARK  status: ('A' for Active; 'I' for Inactive)
REMARK    1  A    between atoms: C_5  and  C_7 
REMARK    2  A    between atoms: C_7  and  C_8 
REMARK       I    between atoms: C_8  and  N_10 
ROOT
ATOM      1  C   LIG d   1       3.997  -0.822  -2.043  0.00  0.00    -0.059 A 
ATOM      2  C   LIG d   1       4.680   0.346  -1.738  0.00  0.00    -0.044 A 
ATOM      3  C   LIG d   1       4.497   1.460  -2.535  0.00  0.00     0.028 A 
ATOM      4  N   LIG d   1       3.684   1.422  -3.573  0.00  0.00    -0.259 NA
ATOM      5  C   LIG d   1       3.019   0.329  -3.892  0.00  0.00     0.050 A 
ATOM      6  C   LIG d   1       3.152  -0.824  -3.143  0.00  0.00    -0.040 A 
ATOM      7  H   LIG d   1       4.123  -1.709  -1.441  0.00  0.00     0.062 H 
ATOM      8  H   LIG d   1       5.345   0.385  -0.889  0.00  0.00     0.063 H 
ATOM      9  H   LIG d   1       5.024   2.374  -2.304  0.00  0.00     0.083 H 
ATOM     10  H   LIG d   1       2.604  -1.717  -3.410  0.00  0.00     0.064 H 
ENDROOT
BRANCH   5  11
ATOM     11  C   LIG d   1       2.103   0.337  -5.090  0.00  0.00     0.066 C 
ATOM     12  H   LIG d   1       1.438  -0.526  -5.044  0.00  0.00     0.042 H 
ATOM     13  H   LIG d   1       1.511   1.252  -5.089  0.00  0.00     0.042 H 
BRANCH  11  14
ATOM     14  C   LIG d   1       2.925   0.272  -6.350  0.00  0.00     0.216 C 
ATOM     15  O   LIG d   1       3.074   1.266  -7.030  0.00  0.00    -0.276 OA
ATOM     16  N   LIG d   1       3.497  -0.891  -6.722  0.00  0.00    -0.329 N 
ATOM     17  H   LIG d   1       3.379  -1.685  -6.178  0.00  0.00     0.145 HD
ATOM     18  H   LIG d   1       4.027  -0.933  -7.534  0.00  0.00     0.145 HD
ENDBRANCH  11  14
ENDBRANCH   5  11
TORSDOF 2
ENDMDL
MODEL 4
REMARK VINA RESULT:      -4.6      2.736      3.749
REMARK  2 active torsions:
REMARK  status: ('A' for Active; 'I' for Inactive)
REMARK    1  A    between atoms: C_5  and  C_7 
REMARK    2  A    between atoms: C_7  and  C_8 
REMARK       I    between atoms: C_8  and  N_10 
ROOT
ATOM      1  C   LIG d   1       4.792  -3.154  -4.133  0.00  0.00    -0.059 A 
ATOM      2  C   LIG d   1       4.961  -2.685  -5.428  0.00  0.00    -0.044 A 
ATOM      3  C   LIG d   1       4.532  -1.410  -5.743  0.00  0.00     0.028 A 
ATOM      4  N   LIG d   1       3.968  -0.643  -4.831  0.00  0.00    -0.259 NA
ATOM      5  C   LIG d   1       3.792  -1.055  -3.591  0.00  0.00     0.050 A 
ATOM      6  C   LIG d   1       4.195  -2.319  -3.202  0.00  0.00    -0.040 A 
ATOM      7  H   LIG d   1       5.114  -4.147  -3.858  0.00  0.00     0.062 H 
ATOM      8  H   LIG d   1       5.423  -3.308  -6.179  0.00  0.00     0.063 H 
ATOM      9  H   LIG d   1       4.660  -1.037  -6.749  0.00  0.00     0.083 H 
ATOM     10  H   LIG d   1       4.047  -2.651  -2.184  0.00  0.00     0.064 H 
ENDROOT
BRANCH   5  11
ATOM     11  C   LIG d   1       3.142  -0.139  -2.586  0.00  0.00     0.066 C 
ATOM     12  H   LIG d   1       2.156   0.155  -2.947  0.00  0.00     0.042 H 
ATOM     13  H   LIG d   1       3.040  -0.657  -1.633  0.00  0.00     0.042 H 
BRANCH  11  14
ATOM     14  C   LIG d   1       3.996   1.089  -2.401  0.00  0.00     0.216 C 
ATOM     15  O   LIG d   1       4.747   1.169  -1.452  0.00  0.00    -0.276 OA
ATOM     16  N   LIG d   1       3.926   2.098  -3.293  0.00  0.00    -0.329 N 
ATOM     17  H   LIG d   1       3.326   2.034  -4.052  0.00  0.00     0.145 HD
ATOM     18  H   LIG d   1       4.475   2.889  -3.173  0.00  0.00     0.145 HD
ENDBRANCH  11  14
ENDBRANCH   5  11
TORSDOF 2
ENDMDL
MODEL 5
REMARK VINA RESULT:      -4.5      2.764      3.663
REMARK  2 active torsions:
REMARK  status: ('A' for Active; 'I' for Inactive)
REMARK    1  A    between atoms: C_5  and  C_7 
REMARK    2  A    between atoms: C_7  and  C_8 
REMARK       I    between atoms: C_8  and  N_10 
ROOT
ATOM      1  C   LIG d   1       6.906  -2.366  -3.947  0.00  0.00    -0.059 A 
ATOM      2  C   LIG d   1       6.532  -3.313  -4.889  0.00  0.00    -0.044 A 
ATOM      3  C   LIG d   1       5.211  -3.714  -4.951  0.00  0.00     0.028 A 
ATOM      4  N   LIG d   1       4.312  -3.207  -4.130  0.00  0.00    -0.259 NA
ATOM      5  C   LIG d   1       4.632  -2.305  -3.223  0.00  0.00     0.050 A 
ATOM      6  C   LIG d   1       5.934  -1.856  -3.101  0.00  0.00    -0.040 A 
ATOM      7  H   LIG d   1       7.932  -2.036  -3.872  0.00  0.00     0.062 H 
ATOM      8  H   LIG d   1       7.262  -3.731  -5.564  0.00  0.00     0.063 H 
ATOM      9  H   LIG d   1       4.911  -4.451  -5.681  0.00  0.00     0.083 H 
ATOM     10  H   LIG d   1       6.190  -1.117  -2.355  0.00  0.00     0.064 H 
ENDROOT
BRANCH   5  11
ATOM     11  C   LIG d   1       3.567  -1.757  -2.308  0.00  0.00     0.066 C 
ATOM     12  H   LIG d   1       2.783  -2.504  -2.176  0.00  0.00     0.042 H 
ATOM     13  H   LIG d   1       4.007  -1.515  -1.341  0.00  0.00     0.042 H 
BRANCH  11  14
ATOM     14  C   LIG d   1       2.976  -0.511  -2.917  0.00  0.00     0.216 C 
ATOM     15  O   LIG d   1       3.085   0.553  -2.346  0.00  0.00    -0.276 OA
ATOM     16  N   LIG d   1       2.327  -0.581  -4.096  0.00  0.00    -0.329 N 
ATOM     17  H   LIG d   1       2.240  -1.432  -4.553  0.00  0.00     0.145 HD
ATOM     18  H   LIG d   1       1.946   0.221  -4.488  0.00  0.00     0.145 HD
ENDBRANCH  11  14
ENDBRANCH   5  11
TORSDOF 2
ENDMDL
MODEL 6
REMARK VINA RESULT:      -4.5      2.743      3.492
REMARK  2 active torsions:
REMARK  status: ('A' for Active; 'I' for Inactive)
REMARK    1  A    between atoms: C_5  and  C_7 
REMARK    2  A    between atoms: C_7  and  C_8 
REMARK       I    between atoms: C_8  and  N_10 
ROOT
ATOM      1  C   LIG d   1       3.637  -1.755  -2.463  0.00  0.00    -0.059 A 
ATOM      2  C   LIG d   1       2.740  -0.878  -3.055  0.00  0.00    -0.044 A 
ATOM      3  C   LIG d   1       3.224   0.233  -3.720  0.00  0.00     0.028 A 
ATOM      4  N   LIG d   1       4.521   0.462  -3.796  0.00  0.00    -0.259 NA
ATOM      5  C   LIG d   1       5.402  -0.350  -3.245  0.00  0.00     0.050 A 
ATOM      6  C   LIG d   1       4.992  -1.480  -2.563  0.00  0.00    -0.040 A 
ATOM      7  H   LIG d   1       3.288  -2.628  -1.933  0.00  0.00     0.062 H 
ATOM      8  H   LIG d   1       1.678  -1.061  -2.998  0.00  0.00     0.063 H 
ATOM      9  H   LIG d   1       2.533   0.920  -4.185  0.00  0.00     0.083 H 
ATOM     10  H   LIG d   1       5.719  -2.141  -2.114  0.00  0.00     0.064 H 
ENDROOT
BRANCH   5  11
ATOM     11  C   LIG d   1       6.873  -0.042  -3.360  0.00  0.00     0.066 C 
ATOM     12  H   LIG d   1       7.221   0.415  -2.434  0.00  0.00     0.042 H 
ATOM     13  H   LIG d   1       7.424  -0.964  -3.541  0.00  0.00     0.042 H 
BRANCH  11  14
ATOM     14  C   LIG d   1       7.097   0.911  -4.506  0.00  0.00     0.216 C 
ATOM     15  O   LIG d   1       7.501   2.034  -4.292  0.00  0.00    -0.276 OA
ATOM     16  N   LIG d   1       6.850   0.513  -5.771  0.00  0.00    -0.329 N 
ATOM     17  H   LIG d   1       6.528  -0.386  -5.943  0.00  0.00     0.145 HD
ATOM     18  H   LIG d   1       6.995   1.126  -6.509  0.00  0.00     0.145 HD
ENDBRANCH  11  14
ENDBRANCH   5  11
TORSDOF 2
ENDMDL
MODEL 7
REMARK VINA RESULT:      -4.4      3.117      3.824
REMARK  2 active torsions:
REMARK  status: ('A' for Active; 'I' for Inactive)
REMARK    1  A    between atoms: C_5  and  C_7 
REMARK    2  A    between atoms: C_7  and  C_8 
REMARK       I    between atoms: C_8  and  N_10 
ROOT
ATOM      1  C   LIG d   1       7.387  -0.837  -3.927  0.00  0.00    -0.059 A 
ATOM      2  C   LIG d   1       7.985   0.380  -4.219  0.00  0.00    -0.044 A 
ATOM      3  C   LIG d   1       7.367   1.548  -3.814  0.00  0.00     0.028 A 
ATOM      4  N   LIG d   1       6.224   1.514  -3.156  0.00  0.00    -0.259 NA
ATOM      5  C   LIG d   1       5.628   0.376  -2.861  0.00  0.00     0.050 A 
ATOM      6  C   LIG d   1       6.186  -0.832  -3.234  0.00  0.00    -0.040 A 
ATOM      7  H   LIG d   1       7.844  -1.765  -4.234  0.00  0.00     0.062 H 
ATOM      8  H   LIG d   1       8.920   0.415  -4.756  0.00  0.00     0.063 H 
ATOM      9  H   LIG d   1       7.826   2.500  -4.037  0.00  0.00     0.083 H 
ATOM     10  H   LIG d   1       5.692  -1.762  -2.990  0.00  0.00     0.064 H 
ENDROOT
BRANCH   5  11
ATOM     11  C   LIG d   1       4.322   0.392  -2.108  0.00  0.00     0.066 C 
ATOM     12  H   LIG d   1       4.299  -0.440  -1.403  0.00  0.00     0.042 H 
ATOM     13  H   LIG d   1       4.227   1.332  -1.565  0.00  0.00     0.042 H 
BRANCH  11  14
ATOM     14  C   LIG d   1       3.180   0.257  -3.081  0.00  0.00     0.216 C 
ATOM     15  O   LIG d   1       2.368  -0.634  -2.945  0.00  0.00    -0.276 OA
ATOM     16  N   LIG d   1       3.061   1.127  -4.104  0.00  0.00    -0.329 N 
ATOM     17  H   LIG d   1       3.710   1.840  -4.213  0.00  0.00     0.145 HD
ATOM     18  H   LIG d   1       2.325   1.040  -4.731  0.00  0.00     0.145 HD
ENDBRANCH  11  14
ENDBRANCH   5  11
TORSDOF 2
ENDMDL
MODEL 8
REMARK VINA RESULT:      -4.3      2.249      3.974
REMARK  2 active torsions:
REMARK  status: ('A' for Active; 'I' for Inactive)
REMARK    1  A    between atoms: C_5  and  C_7 
REMARK    2  A    between atoms: C_7  and  C_8 
REMARK       I    between atoms: C_8  and  N_10 
ROOT
ATOM      1  C   LIG d   1       2.826   0.280  -6.520  0.00  0.00    -0.059 A 
ATOM      2  C   LIG d   1       4.002  -0.397  -6.808  0.00  0.00    -0.044 A 
ATOM      3  C   LIG d   1       4.820  -0.797  -5.769  0.00  0.00     0.028 A 
ATOM      4  N   LIG d   1       4.492  -0.545  -4.516  0.00  0.00    -0.259 NA
ATOM      5  C   LIG d   1       3.382   0.096  -4.206  0.00  0.00     0.050 A 
ATOM      6  C   LIG d   1       2.516   0.528  -5.192  0.00  0.00    -0.040 A 
ATOM      7  H   LIG d   1       2.169   0.609  -7.312  0.00  0.00     0.062 H 
ATOM      8  H   LIG d   1       4.275  -0.608  -7.831  0.00  0.00     0.063 H 
ATOM      9  H   LIG d   1       5.737  -1.325  -5.984  0.00  0.00     0.083 H 
ATOM     10  H   LIG d   1       1.608   1.053  -4.931  0.00  0.00     0.064 H 
ENDROOT
BRANCH   5  11
ATOM     11  C   LIG d   1       3.054   0.360  -2.758  0.00  0.00     0.066 C 
ATOM     12  H   LIG d   1       2.751   1.400  -2.639  0.00  0.00     0.042 H 
ATOM     13  H   LIG d   1       2.242  -0.294  -2.444  0.00  0.00     0.042 H 
BRANCH  11  14
ATOM     14  C   LIG d   1       4.272   0.091  -1.912  0.00  0.00     0.216 C 
ATOM     15  O   LIG d   1       4.939   1.016  -1.497  0.00  0.00    -0.276 OA
ATOM     16  N   LIG d   1       4.618  -1.177  -1.614  0.00  0.00    -0.329 N 
ATOM     17  H   LIG d   1       4.085  -1.917  -1.945  0.00  0.00     0.145 HD
ATOM     18  H   LIG d   1       5.402  -1.350  -1.069  0.00  0.00     0.145 HD
ENDBRANCH  11  14
ENDBRANCH   5  11
TORSDOF 2
ENDMDL
MODEL 9
REMARK VINA RESULT:      -4.1      2.512      2.882
REMARK  2 active torsions:
REMARK  status: ('A' for Active; 'I' for Inactive)
REMARK    1  A    between atoms: C_5  and  C_7 
REMARK    2  A    between atoms: C_7  and  C_8 
REMARK       I    between atoms: C_8  and  N_10 
ROOT
ATOM      1  C   LIG d   1       4.140  -0.734  -1.836  0.00  0.00    -0.059 A 
ATOM      2  C   LIG d   1       4.691   0.534  -1.717  0.00  0.00    -0.044 A 
ATOM      3  C   LIG d   1       5.110   1.195  -2.855  0.00  0.00     0.028 A 
ATOM      4  N   LIG d   1       4.990   0.636  -4.044  0.00  0.00    -0.259 NA
ATOM      5  C   LIG d   1       4.472  -0.567  -4.195  0.00  0.00     0.050 A 
ATOM      6  C   LIG d   1       4.032  -1.290  -3.102  0.00  0.00    -0.040 A 
ATOM      7  H   LIG d   1       3.808  -1.277  -0.964  0.00  0.00     0.062 H 
ATOM      8  H   LIG d   1       4.790   0.997  -0.747  0.00  0.00     0.063 H 
ATOM      9  H   LIG d   1       5.539   2.183  -2.771  0.00  0.00     0.083 H 
ATOM     10  H   LIG d   1       3.608  -2.275  -3.232  0.00  0.00     0.064 H 
ENDROOT
BRANCH   5  11
ATOM     11  C   LIG d   1       4.358  -1.162  -5.575  0.00  0.00     0.066 C 
ATOM     12  H   LIG d   1       3.308  -1.209  -5.865  0.00  0.00     0.042 H 
ATOM     13  H   LIG d   1       4.904  -0.540  -6.285  0.00  0.00     0.042 H 
BRANCH  11  14
ATOM     14  C   LIG d   1       4.942  -2.551  -5.572  0.00  0.00     0.216 C 
ATOM     15  O   LIG d   1       6.142  -2.705  -5.486  0.00  0.00    -0.276 OA
ATOM     16  N   LIG d   1       4.129  -3.623  -5.664  0.00  0.00    -0.329 N 
ATOM     17  H   LIG d   1       3.169  -3.500  -5.732  0.00  0.00     0.145 HD
ATOM     18  H   LIG d   1       4.505  -4.518  -5.662  0.00  0.00     0.145 HD
ENDBRANCH  11  14
ENDBRANCH   5  11
TORSDOF 2
ENDMDL
MODEL 10
REMARK VINA RESULT:      -4.1      3.552      4.398
REMARK  2 active torsions:
REMARK  status: ('A' for Active; 'I' for Inactive)
REMARK    1  A    between atoms: C_5  and  C_7 
REMARK    2  A    between atoms: C_7  and  C_8 
REMARK       I    between atoms: C_8  and  N_10 
ROOT
ATOM      1  C   LIG d   1       3.711  -1.500  -2.280  0.00  0.00    -0.059 A 
ATOM      2  C   LIG d   1       4.270  -0.252  -2.042  0.00  0.00    -0.044 A 
ATOM      3  C   LIG d   1       5.492   0.057  -2.608  0.00  0.00     0.028 A 
ATOM      4  N   LIG d   1       6.125  -0.817  -3.367  0.00  0.00    -0.259 NA
ATOM      5  C   LIG d   1       5.624  -2.011  -3.614  0.00  0.00     0.050 A 
ATOM      6  C   LIG d   1       4.406  -2.392  -3.082  0.00  0.00    -0.040 A 
ATOM      7  H   LIG d   1       2.760  -1.771  -1.848  0.00  0.00     0.062 H 
ATOM      8  H   LIG d   1       3.756   0.467  -1.423  0.00  0.00     0.063 H 
ATOM      9  H   LIG d   1       5.934   1.026  -2.428  0.00  0.00     0.083 H 
ATOM     10  H   LIG d   1       4.002  -3.372  -3.289  0.00  0.00     0.064 H 
ENDROOT
BRANCH   5  11
ATOM     11  C   LIG d   1       6.388  -2.973  -4.488  0.00  0.00     0.066 C 
ATOM     12  H   LIG d   1       6.144  -3.996  -4.201  0.00  0.00     0.042 H 
ATOM     13  H   LIG d   1       6.115  -2.813  -5.531  0.00  0.00     0.042 H 
BRANCH  11  14
ATOM     14  C   LIG d   1       7.867  -2.741  -4.315  0.00  0.00     0.216 C 
ATOM     15  O   LIG d   1       8.550  -2.438  -5.270  0.00  0.00    -0.276 OA
ATOM     16  N   LIG d   1       8.431  -2.870  -3.097  0.00  0.00    -0.329 N 
ATOM     17  H   LIG d   1       7.885  -3.112  -2.333  0.00  0.00     0.145 HD
ATOM     18  H   LIG d   1       9.383  -2.721  -2.986  0.00  0.00     0.145 HD
ENDBRANCH  11  14
ENDBRANCH   5  11
TORSDOF 2
ENDMDL
