MODEL 1
REMARK VINA RESULT:      -6.1      0.000      0.000
REMARK  7 active torsions:
REMARK  status: ('A' for Active; 'I' for Inactive)
REMARK    1  A    between atoms: C_1  and  C_2 
REMARK    2  A    between atoms: C_2  and  O_3 
REMARK    3  A    between atoms: O_3  and  C_4 
REMARK    4  A    between atoms: C_4  and  C_6 
REMARK    5  A    between atoms: C_7  and  C_24 
REMARK    6  A    between atoms: C_11  and  N_15 
REMARK       I    between atoms: N_15  and  C_16 
REMARK    7  A    between atoms: C_16  and  C_18 
ROOT
ATOM      1  C   LIG d   1      11.227   5.829  -3.274  0.00  0.00     0.215 A 
ATOM      2  C   LIG d   1      10.790   5.704  -4.554  0.00  0.00     0.010 A 
ATOM      3  C   LIG d   1      10.071   4.484  -4.627  0.00  0.00     0.024 A 
ATOM      4  C   LIG d   1       9.400   3.817  -5.659  0.00  0.00    -0.049 A 
ATOM      5  C   LIG d   1       8.787   2.624  -5.411  0.00  0.00    -0.040 A 
ATOM      6  C   LIG d   1       8.824   2.063  -4.134  0.00  0.00     0.037 A 
ATOM      7  C   LIG d   1       9.484   2.709  -3.102  0.00  0.00     0.003 A 
ATOM      8  C   LIG d   1      10.112   3.923  -3.336  0.00  0.00     0.138 A 
ATOM      9  O   LIG d   1      10.815   4.765  -2.551  0.00  0.00    -0.448 OA
ATOM     10  H   LIG d   1       9.368   4.247  -6.650  0.00  0.00     0.062 H 
ATOM     11  H   LIG d   1       8.270   2.111  -6.208  0.00  0.00     0.064 H 
ATOM     12  H   LIG d   1       9.509   2.268  -2.115  0.00  0.00     0.067 H 
ENDROOT
BRANCH   6  13
ATOM     13  N   LIG d   1       8.192   0.841  -3.896  0.00  0.00    -0.285 N 
ATOM     14  C   LIG d   1       6.916   0.816  -3.460  0.00  0.00     0.220 C 
ATOM     15  O   LIG d   1       6.287   1.848  -3.364  0.00  0.00    -0.275 OA
ATOM     16  H   LIG d   1       8.669   0.011  -4.044  0.00  0.00     0.155 HD
BRANCH  14  17
ATOM     17  C   LIG d   1       6.273  -0.495  -3.089  0.00  0.00     0.036 C 
ATOM     18  C   LIG d   1       5.007  -0.230  -2.271  0.00  0.00    -0.042 C 
ATOM     19  C   LIG d   1       4.354  -1.561  -1.894  0.00  0.00    -0.052 C 
ATOM     20  H   LIG d   1       5.269   0.316  -1.364  0.00  0.00     0.027 H 
ATOM     21  H   LIG d   1       4.310   0.363  -2.863  0.00  0.00     0.027 H 
ATOM     22  C   LIG d   1       3.987  -2.327  -3.167  0.00  0.00    -0.053 C 
ATOM     23  H   LIG d   1       5.052  -2.153  -1.302  0.00  0.00     0.026 H 
ATOM     24  H   LIG d   1       3.452  -1.371  -1.312  0.00  0.00     0.026 H 
ATOM     25  C   LIG d   1       5.253  -2.593  -3.985  0.00  0.00    -0.052 C 
ATOM     26  H   LIG d   1       3.522  -3.276  -2.899  0.00  0.00     0.026 H 
ATOM     27  H   LIG d   1       3.290  -1.734  -3.760  0.00  0.00     0.026 H 
ATOM     28  C   LIG d   1       5.907  -1.262  -4.361  0.00  0.00    -0.042 C 
ATOM     29  H   LIG d   1       5.950  -3.185  -3.393  0.00  0.00     0.026 H 
ATOM     30  H   LIG d   1       4.992  -3.139  -4.892  0.00  0.00     0.026 H 
ATOM     31  H   LIG d   1       5.209  -0.669  -4.954  0.00  0.00     0.027 H 
ATOM     32  H   LIG d   1       6.808  -1.451  -4.944  0.00  0.00     0.027 H 
ATOM     33  H   LIG d   1       6.970  -1.088  -2.497  0.00  0.00     0.039 H 
ENDBRANCH  14  17
ENDBRANCH   6  13
BRANCH   2  34
ATOM     34  C   LIG d   1      11.028   6.674  -5.684  0.00  0.00    -0.035 C 
ATOM     35  H   LIG d   1      10.599   6.275  -6.602  0.00  0.00     0.028 H 
ATOM     36  H   LIG d   1      12.100   6.819  -5.818  0.00  0.00     0.028 H 
ATOM     37  H   LIG d   1      10.558   7.628  -5.447  0.00  0.00     0.028 H 
ENDBRANCH   2  34
BRANCH   1  38
ATOM     38  C   LIG d   1      12.021   6.949  -2.757  0.00  0.00     0.375 C 
ATOM     39  O   LIG d   1      13.234   6.879  -2.742  0.00  0.00    -0.241 OA
BRANCH  38  40
ATOM     40  O   LIG d   1      11.403   8.057  -2.297  0.00  0.00    -0.459 OA
BRANCH  40  41
ATOM     41  C   LIG d   1      10.775   7.967  -0.992  0.00  0.00     0.090 C 
ATOM     42  H   LIG d   1      11.038   7.017  -0.526  0.00  0.00     0.070 H 
ATOM     43  H   LIG d   1      11.123   8.787  -0.363  0.00  0.00     0.070 H 
BRANCH  41  44
ATOM     44  C   LIG d   1       9.255   8.054  -1.149  0.00  0.00    -0.031 C 
ATOM     45  H   LIG d   1       9.011   8.280  -2.186  0.00  0.00     0.026 H 
ATOM     46  H   LIG d   1       8.806   7.102  -0.867  0.00  0.00     0.026 H 
ATOM     47  H   LIG d   1       8.869   8.844  -0.504  0.00  0.00     0.026 H 
ENDBRANCH  41  44
ENDBRANCH  40  41
ENDBRANCH  38  40
ENDBRANCH   1  38
TORSDOF 7
ENDMDL
MODEL 2
REMARK VINA RESULT:      -6.0      6.345     12.496
REMARK  7 active torsions:
REMARK  status: ('A' for Active; 'I' for Inactive)
REMARK    1  A    between atoms: C_1  and  C_2 
REMARK    2  A    between atoms: C_2  and  O_3 
REMARK    3  A    between atoms: O_3  and  C_4 
REMARK    4  A    between atoms: C_4  and  C_6 
REMARK    5  A    between atoms: C_7  and  C_24 
REMARK    6  A    between atoms: C_11  and  N_15 
REMARK       I    between atoms: N_15  and  C_16 
REMARK    7  A    between atoms: C_16  and  C_18 
ROOT
ATOM      1  C   LIG d   1       4.619  -8.669  -6.547  0.00  0.00     0.215 A 
ATOM      2  C   LIG d   1       4.408  -7.855  -7.614  0.00  0.00     0.010 A 
ATOM      3  C   LIG d   1       4.397  -6.525  -7.122  0.00  0.00     0.024 A 
ATOM      4  C   LIG d   1       4.222  -5.273  -7.723  0.00  0.00    -0.049 A 
ATOM      5  C   LIG d   1       4.265  -4.142  -6.962  0.00  0.00    -0.040 A 
ATOM      6  C   LIG d   1       4.481  -4.224  -5.586  0.00  0.00     0.037 A 
ATOM      7  C   LIG d   1       4.653  -5.454  -4.975  0.00  0.00     0.003 A 
ATOM      8  C   LIG d   1       4.615  -6.615  -5.734  0.00  0.00     0.138 A 
ATOM      9  O   LIG d   1       4.746  -7.922  -5.428  0.00  0.00    -0.448 OA
ATOM     10  H   LIG d   1       4.055  -5.203  -8.789  0.00  0.00     0.062 H 
ATOM     11  H   LIG d   1       4.131  -3.177  -7.428  0.00  0.00     0.064 H 
ATOM     12  H   LIG d   1       4.820  -5.510  -3.908  0.00  0.00     0.067 H 
ENDROOT
BRANCH   6  13
ATOM     13  N   LIG d   1       4.521  -3.057  -4.821  0.00  0.00    -0.285 N 
ATOM     14  C   LIG d   1       5.676  -2.668  -4.245  0.00  0.00     0.220 C 
ATOM     15  O   LIG d   1       6.700  -3.278  -4.468  0.00  0.00    -0.275 OA
ATOM     16  H   LIG d   1       3.718  -2.526  -4.703  0.00  0.00     0.155 HD
BRANCH  14  17
ATOM     17  C   LIG d   1       5.694  -1.477  -3.323  0.00  0.00     0.036 C 
ATOM     18  C   LIG d   1       5.948  -0.206  -4.136  0.00  0.00    -0.042 C 
ATOM     19  C   LIG d   1       5.966   1.005  -3.201  0.00  0.00    -0.052 C 
ATOM     20  H   LIG d   1       6.909  -0.286  -4.645  0.00  0.00     0.027 H 
ATOM     21  H   LIG d   1       5.155  -0.083  -4.875  0.00  0.00     0.027 H 
ATOM     22  C   LIG d   1       4.618   1.117  -2.487  0.00  0.00    -0.053 C 
ATOM     23  H   LIG d   1       6.759   0.881  -2.463  0.00  0.00     0.026 H 
ATOM     24  H   LIG d   1       6.146   1.909  -3.781  0.00  0.00     0.026 H 
ATOM     25  C   LIG d   1       4.364  -0.153  -1.672  0.00  0.00    -0.052 C 
ATOM     26  H   LIG d   1       4.630   1.979  -1.820  0.00  0.00     0.026 H 
ATOM     27  H   LIG d   1       3.825   1.240  -3.225  0.00  0.00     0.026 H 
ATOM     28  C   LIG d   1       4.346  -1.364  -2.608  0.00  0.00    -0.042 C 
ATOM     29  H   LIG d   1       5.157  -0.277  -0.935  0.00  0.00     0.026 H 
ATOM     30  H   LIG d   1       3.404  -0.074  -1.163  0.00  0.00     0.026 H 
ATOM     31  H   LIG d   1       3.553  -1.241  -3.346  0.00  0.00     0.027 H 
ATOM     32  H   LIG d   1       4.165  -2.269  -2.029  0.00  0.00     0.027 H 
ATOM     33  H   LIG d   1       6.487  -1.599  -2.585  0.00  0.00     0.039 H 
ENDBRANCH  14  17
ENDBRANCH   6  13
BRANCH   2  34
ATOM     34  C   LIG d   1       4.217  -8.284  -9.047  0.00  0.00    -0.035 C 
ATOM     35  H   LIG d   1       3.966  -9.343  -9.078  0.00  0.00     0.028 H 
ATOM     36  H   LIG d   1       5.139  -8.112  -9.602  0.00  0.00     0.028 H 
ATOM     37  H   LIG d   1       3.409  -7.705  -9.493  0.00  0.00     0.028 H 
ENDBRANCH   2  34
BRANCH   1  38
ATOM     38  C   LIG d   1       4.699 -10.132  -6.602  0.00  0.00     0.375 C 
ATOM     39  O   LIG d   1       5.563 -10.669  -7.268  0.00  0.00    -0.241 OA
BRANCH  38  40
ATOM     40  O   LIG d   1       3.814 -10.882  -5.914  0.00  0.00    -0.459 OA
BRANCH  40  41
ATOM     41  C   LIG d   1       4.240 -11.384  -4.620  0.00  0.00     0.090 C 
ATOM     42  H   LIG d   1       4.117 -12.466  -4.590  0.00  0.00     0.070 H 
ATOM     43  H   LIG d   1       5.290 -11.134  -4.461  0.00  0.00     0.070 H 
BRANCH  41  44
ATOM     44  C   LIG d   1       3.392 -10.743  -3.519  0.00  0.00    -0.031 C 
ATOM     45  H   LIG d   1       3.774  -9.746  -3.301  0.00  0.00     0.026 H 
ATOM     46  H   LIG d   1       2.357 -10.671  -3.854  0.00  0.00     0.026 H 
ATOM     47  H   LIG d   1       3.441 -11.357  -2.619  0.00  0.00     0.026 H 
ENDBRANCH  41  44
ENDBRANCH  40  41
ENDBRANCH  38  40
ENDBRANCH   1  38
TORSDOF 7
ENDMDL
MODEL 3
REMARK VINA RESULT:      -6.0      2.488      3.237
REMARK  7 active torsions:
REMARK  status: ('A' for Active; 'I' for Inactive)
REMARK    1  A    between atoms: C_1  and  C_2 
REMARK    2  A    between atoms: C_2  and  O_3 
REMARK    3  A    between atoms: O_3  and  C_4 
REMARK    4  A    between atoms: C_4  and  C_6 
REMARK    5  A    between atoms: C_7  and  C_24 
REMARK    6  A    between atoms: C_11  and  N_15 
REMARK       I    between atoms: N_15  and  C_16 
REMARK    7  A    between atoms: C_16  and  C_18 
ROOT
ATOM      1  C   LIG d   1      10.285   5.386  -6.922  0.00  0.00     0.215 A 
ATOM      2  C   LIG d   1      10.643   5.445  -5.613  0.00  0.00     0.010 A 
ATOM      3  C   LIG d   1      10.095   4.298  -4.984  0.00  0.00     0.024 A 
ATOM      4  C   LIG d   1      10.116   3.812  -3.671  0.00  0.00    -0.049 A 
ATOM      5  C   LIG d   1       9.478   2.646  -3.368  0.00  0.00    -0.040 A 
ATOM      6  C   LIG d   1       8.804   1.931  -4.359  0.00  0.00     0.037 A 
ATOM      7  C   LIG d   1       8.773   2.397  -5.663  0.00  0.00     0.003 A 
ATOM      8  C   LIG d   1       9.417   3.581  -5.988  0.00  0.00     0.138 A 
ATOM      9  O   LIG d   1       9.557   4.268  -7.141  0.00  0.00    -0.448 OA
ATOM     10  H   LIG d   1      10.636   4.362  -2.899  0.00  0.00     0.062 H 
ATOM     11  H   LIG d   1       9.495   2.273  -2.354  0.00  0.00     0.064 H 
ATOM     12  H   LIG d   1       8.248   1.838  -6.425  0.00  0.00     0.067 H 
ENDROOT
BRANCH   6  13
ATOM     13  N   LIG d   1       8.155   0.738  -4.033  0.00  0.00    -0.285 N 
ATOM     14  C   LIG d   1       6.909   0.767  -3.519  0.00  0.00     0.220 C 
ATOM     15  O   LIG d   1       6.315   1.820  -3.428  0.00  0.00    -0.275 OA
ATOM     16  H   LIG d   1       8.601  -0.111  -4.176  0.00  0.00     0.155 HD
BRANCH  14  17
ATOM     17  C   LIG d   1       6.256  -0.510  -3.057  0.00  0.00     0.036 C 
ATOM     18  C   LIG d   1       4.988  -0.177  -2.266  0.00  0.00    -0.042 C 
ATOM     19  C   LIG d   1       4.325  -1.473  -1.796  0.00  0.00    -0.052 C 
ATOM     20  H   LIG d   1       5.250   0.432  -1.400  0.00  0.00     0.027 H 
ATOM     21  H   LIG d   1       4.297   0.375  -2.903  0.00  0.00     0.027 H 
ATOM     22  C   LIG d   1       3.958  -2.327  -3.011  0.00  0.00    -0.053 C 
ATOM     23  H   LIG d   1       5.016  -2.024  -1.158  0.00  0.00     0.026 H 
ATOM     24  H   LIG d   1       3.422  -1.235  -1.233  0.00  0.00     0.026 H 
ATOM     25  C   LIG d   1       5.225  -2.661  -3.801  0.00  0.00    -0.052 C 
ATOM     26  H   LIG d   1       3.486  -3.251  -2.676  0.00  0.00     0.026 H 
ATOM     27  H   LIG d   1       3.267  -1.775  -3.648  0.00  0.00     0.026 H 
ATOM     28  C   LIG d   1       5.890  -1.365  -4.271  0.00  0.00    -0.042 C 
ATOM     29  H   LIG d   1       5.916  -3.212  -3.164  0.00  0.00     0.026 H 
ATOM     30  H   LIG d   1       4.965  -3.270  -4.667  0.00  0.00     0.026 H 
ATOM     31  H   LIG d   1       5.199  -0.813  -4.908  0.00  0.00     0.027 H 
ATOM     32  H   LIG d   1       6.792  -1.602  -4.834  0.00  0.00     0.027 H 
ATOM     33  H   LIG d   1       6.947  -1.062  -2.419  0.00  0.00     0.039 H 
ENDBRANCH  14  17
ENDBRANCH   6  13
BRANCH   2  34
ATOM     34  C   LIG d   1      11.460   6.526  -4.953  0.00  0.00    -0.035 C 
ATOM     35  H   LIG d   1      12.388   6.669  -5.507  0.00  0.00     0.028 H 
ATOM     36  H   LIG d   1      11.691   6.232  -3.929  0.00  0.00     0.028 H 
ATOM     37  H   LIG d   1      10.893   7.456  -4.946  0.00  0.00     0.028 H 
ENDBRANCH   2  34
BRANCH   1  38
ATOM     38  C   LIG d   1      10.638   6.380  -7.941  0.00  0.00     0.375 C 
ATOM     39  O   LIG d   1      11.765   6.415  -8.392  0.00  0.00    -0.241 OA
BRANCH  38  40
ATOM     40  O   LIG d   1       9.709   7.257  -8.376  0.00  0.00    -0.459 OA
BRANCH  40  41
ATOM     41  C   LIG d   1       9.958   8.663  -8.117  0.00  0.00     0.090 C 
ATOM     42  H   LIG d   1      11.031   8.854  -8.145  0.00  0.00     0.070 H 
ATOM     43  H   LIG d   1       9.462   9.267  -8.877  0.00  0.00     0.070 H 
BRANCH  41  44
ATOM     44  C   LIG d   1       9.411   9.032  -6.736  0.00  0.00    -0.031 C 
ATOM     45  H   LIG d   1      10.175   8.846  -5.982  0.00  0.00     0.026 H 
ATOM     46  H   LIG d   1       9.137  10.087  -6.724  0.00  0.00     0.026 H 
ATOM     47  H   LIG d   1       8.532   8.425  -6.519  0.00  0.00     0.026 H 
ENDBRANCH  41  44
ENDBRANCH  40  41
ENDBRANCH  38  40
ENDBRANCH   1  38
TORSDOF 7
ENDMDL
MODEL 4
REMARK VINA RESULT:      -5.9      7.175     11.270
REMARK  7 active torsions:
REMARK  status: ('A' for Active; 'I' for Inactive)
REMARK    1  A    between atoms: C_1  and  C_2 
REMARK    2  A    between atoms: C_2  and  O_3 
REMARK    3  A    between atoms: O_3  and  C_4 
REMARK    4  A    between atoms: C_4  and  C_6 
REMARK    5  A    between atoms: C_7  and  C_24 
REMARK    6  A    between atoms: C_11  and  N_15 
REMARK       I    between atoms: N_15  and  C_16 
REMARK    7  A    between atoms: C_16  and  C_18 
ROOT
ATOM      1  C   LIG d   1       2.299  -1.705 -11.932  0.00  0.00     0.215 A 
ATOM      2  C   LIG d   1       3.294  -0.781 -11.951  0.00  0.00     0.010 A 
ATOM      3  C   LIG d   1       3.450  -0.316 -10.621  0.00  0.00     0.024 A 
ATOM      4  C   LIG d   1       4.294   0.624 -10.017  0.00  0.00    -0.049 A 
ATOM      5  C   LIG d   1       4.201   0.858  -8.677  0.00  0.00    -0.040 A 
ATOM      6  C   LIG d   1       3.270   0.167  -7.901  0.00  0.00     0.037 A 
ATOM      7  C   LIG d   1       2.426  -0.765  -8.482  0.00  0.00     0.003 A 
ATOM      8  C   LIG d   1       2.507  -1.016  -9.844  0.00  0.00     0.138 A 
ATOM      9  O   LIG d   1       1.837  -1.844 -10.670  0.00  0.00    -0.448 OA
ATOM     10  H   LIG d   1       5.018   1.162 -10.612  0.00  0.00     0.062 H 
ATOM     11  H   LIG d   1       4.854   1.584  -8.212  0.00  0.00     0.064 H 
ATOM     12  H   LIG d   1       1.706  -1.296  -7.876  0.00  0.00     0.067 H 
ENDROOT
BRANCH   6  13
ATOM     13  N   LIG d   1       3.187   0.419  -6.530  0.00  0.00    -0.285 N 
ATOM     14  C   LIG d   1       3.734  -0.446  -5.652  0.00  0.00     0.220 C 
ATOM     15  O   LIG d   1       4.380  -1.390  -6.053  0.00  0.00    -0.275 OA
ATOM     16  H   LIG d   1       2.736   1.215  -6.209  0.00  0.00     0.155 HD
BRANCH  14  17
ATOM     17  C   LIG d   1       3.543  -0.238  -4.172  0.00  0.00     0.036 C 
ATOM     18  C   LIG d   1       4.554  -1.090  -3.402  0.00  0.00    -0.042 C 
ATOM     19  C   LIG d   1       4.359  -0.879  -1.899  0.00  0.00    -0.052 C 
ATOM     20  H   LIG d   1       4.402  -2.142  -3.644  0.00  0.00     0.027 H 
ATOM     21  H   LIG d   1       5.565  -0.795  -3.683  0.00  0.00     0.027 H 
ATOM     22  C   LIG d   1       4.573   0.598  -1.560  0.00  0.00    -0.053 C 
ATOM     23  H   LIG d   1       3.348  -1.174  -1.619  0.00  0.00     0.026 H 
ATOM     24  H   LIG d   1       5.081  -1.486  -1.351  0.00  0.00     0.026 H 
ATOM     25  C   LIG d   1       3.562   1.450  -2.329  0.00  0.00    -0.052 C 
ATOM     26  H   LIG d   1       4.435   0.748  -0.489  0.00  0.00     0.026 H 
ATOM     27  H   LIG d   1       5.585   0.892  -1.841  0.00  0.00     0.026 H 
ATOM     28  C   LIG d   1       3.755   1.239  -3.832  0.00  0.00    -0.042 C 
ATOM     29  H   LIG d   1       2.551   1.155  -2.049  0.00  0.00     0.026 H 
ATOM     30  H   LIG d   1       3.713   2.501  -2.087  0.00  0.00     0.026 H 
ATOM     31  H   LIG d   1       4.767   1.533  -4.113  0.00  0.00     0.027 H 
ATOM     32  H   LIG d   1       3.035   1.846  -4.380  0.00  0.00     0.027 H 
ATOM     33  H   LIG d   1       2.531  -0.532  -3.891  0.00  0.00     0.039 H 
ENDBRANCH  14  17
ENDBRANCH   6  13
BRANCH   2  34
ATOM     34  C   LIG d   1       4.080  -0.331 -13.156  0.00  0.00    -0.035 C 
ATOM     35  H   LIG d   1       5.045  -0.837 -13.171  0.00  0.00     0.028 H 
ATOM     36  H   LIG d   1       4.237   0.747 -13.106  0.00  0.00     0.028 H 
ATOM     37  H   LIG d   1       3.526  -0.576 -14.062  0.00  0.00     0.028 H 
ENDBRANCH   2  34
BRANCH   1  38
ATOM     38  C   LIG d   1       1.806  -2.441 -13.102  0.00  0.00     0.375 C 
ATOM     39  O   LIG d   1       2.339  -3.481 -13.435  0.00  0.00    -0.241 OA
BRANCH  38  40
ATOM     40  O   LIG d   1       0.761  -1.961 -13.807  0.00  0.00    -0.459 OA
BRANCH  40  41
ATOM     41  C   LIG d   1      -0.546  -2.029 -13.178  0.00  0.00     0.090 C 
ATOM     42  H   LIG d   1      -0.428  -2.025 -12.095  0.00  0.00     0.070 H 
ATOM     43  H   LIG d   1      -1.141  -1.167 -13.481  0.00  0.00     0.070 H 
BRANCH  41  44
ATOM     44  C   LIG d   1      -1.254  -3.315 -13.610  0.00  0.00    -0.031 C 
ATOM     45  H   LIG d   1      -0.637  -3.842 -14.337  0.00  0.00     0.026 H 
ATOM     46  H   LIG d   1      -1.415  -3.951 -12.739  0.00  0.00     0.026 H 
ATOM     47  H   LIG d   1      -2.215  -3.066 -14.061  0.00  0.00     0.026 H 
ENDBRANCH  41  44
ENDBRANCH  40  41
ENDBRANCH  38  40
ENDBRANCH   1  38
TORSDOF 7
ENDMDL
MODEL 5
REMARK VINA RESULT:      -5.8      6.876     10.110
REMARK  7 active torsions:
REMARK  status: ('A' for Active; 'I' for Inactive)
REMARK    1  A    between atoms: C_1  and  C_2 
REMARK    2  A    between atoms: C_2  and  O_3 
REMARK    3  A    between atoms: O_3  and  C_4 
REMARK    4  A    between atoms: C_4  and  C_6 
REMARK    5  A    between atoms: C_7  and  C_24 
REMARK    6  A    between atoms: C_11  and  N_15 
REMARK       I    between atoms: N_15  and  C_16 
REMARK    7  A    between atoms: C_16  and  C_18 
ROOT
ATOM      1  C   LIG d   1       4.219  -0.998  -5.504  0.00  0.00     0.215 A 
ATOM      2  C   LIG d   1       3.316  -0.022  -5.784  0.00  0.00     0.010 A 
ATOM      3  C   LIG d   1       3.441   0.269  -7.166  0.00  0.00     0.024 A 
ATOM      4  C   LIG d   1       2.799   1.169  -8.026  0.00  0.00    -0.049 A 
ATOM      5  C   LIG d   1       3.149   1.216  -9.344  0.00  0.00    -0.040 A 
ATOM      6  C   LIG d   1       4.143   0.373  -9.841  0.00  0.00     0.037 A 
ATOM      7  C   LIG d   1       4.789  -0.521  -9.004  0.00  0.00     0.003 A 
ATOM      8  C   LIG d   1       4.445  -0.583  -7.662  0.00  0.00     0.138 A 
ATOM      9  O   LIG d   1       4.886  -1.332  -6.630  0.00  0.00    -0.448 OA
ATOM     10  H   LIG d   1       2.028   1.824  -7.647  0.00  0.00     0.062 H 
ATOM     11  H   LIG d   1       2.652   1.910 -10.006  0.00  0.00     0.064 H 
ATOM     12  H   LIG d   1       5.559  -1.171  -9.396  0.00  0.00     0.067 H 
ENDROOT
BRANCH   6  13
ATOM     13  N   LIG d   1       4.490   0.433 -11.192  0.00  0.00    -0.285 N 
ATOM     14  C   LIG d   1       3.910  -0.404 -12.075  0.00  0.00     0.220 C 
ATOM     15  O   LIG d   1       3.019  -1.143 -11.715  0.00  0.00    -0.275 OA
ATOM     16  H   LIG d   1       5.149   1.077 -11.496  0.00  0.00     0.155 HD
BRANCH  14  17
ATOM     17  C   LIG d   1       4.369  -0.421 -13.510  0.00  0.00     0.036 C 
ATOM     18  C   LIG d   1       5.808  -0.937 -13.579  0.00  0.00    -0.042 C 
ATOM     19  C   LIG d   1       6.276  -0.954 -15.036  0.00  0.00    -0.052 C 
ATOM     20  H   LIG d   1       6.457  -0.282 -12.997  0.00  0.00     0.027 H 
ATOM     21  H   LIG d   1       5.852  -1.947 -13.171  0.00  0.00     0.027 H 
ATOM     22  C   LIG d   1       5.365  -1.873 -15.852  0.00  0.00    -0.053 C 
ATOM     23  H   LIG d   1       6.232   0.056 -15.443  0.00  0.00     0.026 H 
ATOM     24  H   LIG d   1       7.300  -1.322 -15.084  0.00  0.00     0.026 H 
ATOM     25  C   LIG d   1       3.926  -1.357 -15.784  0.00  0.00    -0.052 C 
ATOM     26  H   LIG d   1       5.697  -1.885 -16.890  0.00  0.00     0.026 H 
ATOM     27  H   LIG d   1       5.408  -2.883 -15.444  0.00  0.00     0.026 H 
ATOM     28  C   LIG d   1       3.458  -1.339 -14.327  0.00  0.00    -0.042 C 
ATOM     29  H   LIG d   1       3.882  -0.347 -16.191  0.00  0.00     0.026 H 
ATOM     30  H   LIG d   1       3.277  -2.011 -16.366  0.00  0.00     0.026 H 
ATOM     31  H   LIG d   1       3.502  -2.349 -13.919  0.00  0.00     0.027 H 
ATOM     32  H   LIG d   1       2.434  -0.972 -14.278  0.00  0.00     0.027 H 
ATOM     33  H   LIG d   1       4.326   0.590 -13.918  0.00  0.00     0.039 H 
ENDBRANCH  14  17
ENDBRANCH   6  13
BRANCH   2  34
ATOM     34  C   LIG d   1       2.368   0.631  -4.811  0.00  0.00    -0.035 C 
ATOM     35  H   LIG d   1       2.920   1.324  -4.175  0.00  0.00     0.028 H 
ATOM     36  H   LIG d   1       1.899  -0.134  -4.192  0.00  0.00     0.028 H 
ATOM     37  H   LIG d   1       1.601   1.175  -5.362  0.00  0.00     0.028 H 
ENDBRANCH   2  34
BRANCH   1  38
ATOM     38  C   LIG d   1       4.432  -1.599  -4.182  0.00  0.00     0.375 C 
ATOM     39  O   LIG d   1       3.975  -2.696  -3.932  0.00  0.00    -0.241 OA
BRANCH  38  40
ATOM     40  O   LIG d   1       5.136  -0.931  -3.245  0.00  0.00    -0.459 OA
BRANCH  40  41
ATOM     41  C   LIG d   1       4.455  -0.630  -1.999  0.00  0.00     0.090 C 
ATOM     42  H   LIG d   1       3.413  -0.941  -2.071  0.00  0.00     0.070 H 
ATOM     43  H   LIG d   1       4.937  -1.167  -1.182  0.00  0.00     0.070 H 
BRANCH  41  44
ATOM     44  C   LIG d   1       4.522   0.875  -1.731  0.00  0.00    -0.031 C 
ATOM     45  H   LIG d   1       5.256   1.072  -0.951  0.00  0.00     0.026 H 
ATOM     46  H   LIG d   1       4.813   1.394  -2.645  0.00  0.00     0.026 H 
ATOM     47  H   LIG d   1       3.543   1.230  -1.407  0.00  0.00     0.026 H 
ENDBRANCH  41  44
ENDBRANCH  40  41
ENDBRANCH  38  40
ENDBRANCH   1  38
TORSDOF 7
ENDMDL
MODEL 6
REMARK VINA RESULT:      -5.6      3.005      3.858
REMARK  7 active torsions:
REMARK  status: ('A' for Active; 'I' for Inactive)
REMARK    1  A    between atoms: C_1  and  C_2 
REMARK    2  A    between atoms: C_2  and  O_3 
REMARK    3  A    between atoms: O_3  and  C_4 
REMARK    4  A    between atoms: C_4  and  C_6 
REMARK    5  A    between atoms: C_7  and  C_24 
REMARK    6  A    between atoms: C_11  and  N_15 
REMARK       I    between atoms: N_15  and  C_16 
REMARK    7  A    between atoms: C_16  and  C_18 
ROOT
ATOM      1  C   LIG d   1      10.835   5.292  -7.227  0.00  0.00     0.215 A 
ATOM      2  C   LIG d   1      11.467   4.108  -7.437  0.00  0.00     0.010 A 
ATOM      3  C   LIG d   1      10.851   3.156  -6.587  0.00  0.00     0.024 A 
ATOM      4  C   LIG d   1      11.060   1.792  -6.351  0.00  0.00    -0.049 A 
ATOM      5  C   LIG d   1      10.282   1.132  -5.446  0.00  0.00    -0.040 A 
ATOM      6  C   LIG d   1       9.278   1.807  -4.752  0.00  0.00     0.037 A 
ATOM      7  C   LIG d   1       9.058   3.157  -4.971  0.00  0.00     0.003 A 
ATOM      8  C   LIG d   1       9.839   3.843  -5.889  0.00  0.00     0.138 A 
ATOM      9  O   LIG d   1       9.861   5.126  -6.306  0.00  0.00    -0.448 OA
ATOM     10  H   LIG d   1      11.837   1.263  -6.885  0.00  0.00     0.062 H 
ATOM     11  H   LIG d   1      10.445   0.079  -5.265  0.00  0.00     0.064 H 
ATOM     12  H   LIG d   1       8.279   3.674  -4.430  0.00  0.00     0.067 H 
ENDROOT
BRANCH   6  13
ATOM     13  N   LIG d   1       8.490   1.118  -3.828  0.00  0.00    -0.285 N 
ATOM     14  C   LIG d   1       7.284   0.639  -4.195  0.00  0.00     0.220 C 
ATOM     15  O   LIG d   1       6.924   0.723  -5.350  0.00  0.00    -0.275 OA
ATOM     16  H   LIG d   1       8.810   0.983  -2.923  0.00  0.00     0.155 HD
BRANCH  14  17
ATOM     17  C   LIG d   1       6.384   0.000  -3.169  0.00  0.00     0.036 C 
ATOM     18  C   LIG d   1       5.325   1.010  -2.720  0.00  0.00    -0.042 C 
ATOM     19  C   LIG d   1       4.411   0.362  -1.679  0.00  0.00    -0.052 C 
ATOM     20  H   LIG d   1       5.815   1.880  -2.283  0.00  0.00     0.027 H 
ATOM     21  H   LIG d   1       4.733   1.321  -3.581  0.00  0.00     0.027 H 
ATOM     22  C   LIG d   1       3.723  -0.859  -2.293  0.00  0.00    -0.053 C 
ATOM     23  H   LIG d   1       5.004   0.051  -0.819  0.00  0.00     0.026 H 
ATOM     24  H   LIG d   1       3.657   1.082  -1.360  0.00  0.00     0.026 H 
ATOM     25  C   LIG d   1       4.782  -1.869  -2.742  0.00  0.00    -0.052 C 
ATOM     26  H   LIG d   1       3.072  -1.321  -1.551  0.00  0.00     0.026 H 
ATOM     27  H   LIG d   1       3.131  -0.547  -3.154  0.00  0.00     0.026 H 
ATOM     28  C   LIG d   1       5.697  -1.221  -3.783  0.00  0.00    -0.042 C 
ATOM     29  H   LIG d   1       5.374  -2.180  -1.881  0.00  0.00     0.026 H 
ATOM     30  H   LIG d   1       4.292  -2.739  -3.179  0.00  0.00     0.026 H 
ATOM     31  H   LIG d   1       5.104  -0.910  -4.644  0.00  0.00     0.027 H 
ATOM     32  H   LIG d   1       6.450  -1.940  -4.102  0.00  0.00     0.027 H 
ATOM     33  H   LIG d   1       6.976  -0.311  -2.309  0.00  0.00     0.039 H 
ENDBRANCH  14  17
ENDBRANCH   6  13
BRANCH   2  34
ATOM     34  C   LIG d   1      12.610   3.857  -8.387  0.00  0.00    -0.035 C 
ATOM     35  H   LIG d   1      12.485   2.881  -8.856  0.00  0.00     0.028 H 
ATOM     36  H   LIG d   1      13.551   3.877  -7.837  0.00  0.00     0.028 H 
ATOM     37  H   LIG d   1      12.620   4.630  -9.155  0.00  0.00     0.028 H 
ENDBRANCH   2  34
BRANCH   1  38
ATOM     38  C   LIG d   1      11.158   6.555  -7.901  0.00  0.00     0.375 C 
ATOM     39  O   LIG d   1      11.915   7.348  -7.376  0.00  0.00    -0.241 OA
BRANCH  38  40
ATOM     40  O   LIG d   1      10.613   6.835  -9.103  0.00  0.00    -0.459 OA
BRANCH  40  41
ATOM     41  C   LIG d   1       9.184   7.086  -9.136  0.00  0.00     0.090 C 
ATOM     42  H   LIG d   1       8.804   7.163  -8.117  0.00  0.00     0.070 H 
ATOM     43  H   LIG d   1       8.990   8.019  -9.666  0.00  0.00     0.070 H 
BRANCH  41  44
ATOM     44  C   LIG d   1       8.480   5.934  -9.857  0.00  0.00    -0.031 C 
ATOM     45  H   LIG d   1       7.751   6.337 -10.559  0.00  0.00     0.026 H 
ATOM     46  H   LIG d   1       9.217   5.340 -10.397  0.00  0.00     0.026 H 
ATOM     47  H   LIG d   1       7.971   5.305  -9.126  0.00  0.00     0.026 H 
ENDBRANCH  41  44
ENDBRANCH  40  41
ENDBRANCH  38  40
ENDBRANCH   1  38
TORSDOF 7
ENDMDL
MODEL 7
REMARK VINA RESULT:      -5.4      7.257     10.784
REMARK  7 active torsions:
REMARK  status: ('A' for Active; 'I' for Inactive)
REMARK    1  A    between atoms: C_1  and  C_2 
REMARK    2  A    between atoms: C_2  and  O_3 
REMARK    3  A    between atoms: O_3  and  C_4 
REMARK    4  A    between atoms: C_4  and  C_6 
REMARK    5  A    between atoms: C_7  and  C_24 
REMARK    6  A    between atoms: C_11  and  N_15 
REMARK       I    between atoms: N_15  and  C_16 
REMARK    7  A    between atoms: C_16  and  C_18 
ROOT
ATOM      1  C   LIG d   1       4.332  -0.840 -12.564  0.00  0.00     0.215 A 
ATOM      2  C   LIG d   1       3.046  -1.059 -12.185  0.00  0.00     0.010 A 
ATOM      3  C   LIG d   1       2.980  -0.811 -10.790  0.00  0.00     0.024 A 
ATOM      4  C   LIG d   1       1.949  -0.871  -9.845  0.00  0.00    -0.049 A 
ATOM      5  C   LIG d   1       2.204  -0.567  -8.541  0.00  0.00    -0.040 A 
ATOM      6  C   LIG d   1       3.488  -0.196  -8.140  0.00  0.00     0.037 A 
ATOM      7  C   LIG d   1       4.520  -0.132  -9.061  0.00  0.00     0.003 A 
ATOM      8  C   LIG d   1       4.278  -0.438 -10.392  0.00  0.00     0.138 A 
ATOM      9  O   LIG d   1       5.061  -0.465 -11.490  0.00  0.00    -0.448 OA
ATOM     10  H   LIG d   1       0.952  -1.158 -10.150  0.00  0.00     0.062 H 
ATOM     11  H   LIG d   1       1.407  -0.613  -7.813  0.00  0.00     0.064 H 
ATOM     12  H   LIG d   1       5.512   0.155  -8.744  0.00  0.00     0.067 H 
ENDROOT
BRANCH   6  13
ATOM     13  N   LIG d   1       3.734   0.113  -6.801  0.00  0.00    -0.285 N 
ATOM     14  C   LIG d   1       4.166  -0.845  -5.957  0.00  0.00     0.220 C 
ATOM     15  O   LIG d   1       4.432  -1.950  -6.379  0.00  0.00    -0.275 OA
ATOM     16  H   LIG d   1       3.594   1.016  -6.477  0.00  0.00     0.155 HD
BRANCH  14  17
ATOM     17  C   LIG d   1       4.317  -0.543  -4.488  0.00  0.00     0.036 C 
ATOM     18  C   LIG d   1       5.687   0.090  -4.236  0.00  0.00    -0.042 C 
ATOM     19  C   LIG d   1       5.841   0.397  -2.745  0.00  0.00    -0.052 C 
ATOM     20  H   LIG d   1       6.470  -0.602  -4.546  0.00  0.00     0.027 H 
ATOM     21  H   LIG d   1       5.771   1.014  -4.808  0.00  0.00     0.027 H 
ATOM     22  C   LIG d   1       4.743   1.370  -2.309  0.00  0.00    -0.053 C 
ATOM     23  H   LIG d   1       5.757  -0.527  -2.173  0.00  0.00     0.026 H 
ATOM     24  H   LIG d   1       6.817   0.849  -2.566  0.00  0.00     0.026 H 
ATOM     25  C   LIG d   1       3.372   0.737  -2.560  0.00  0.00    -0.052 C 
ATOM     26  H   LIG d   1       4.852   1.588  -1.247  0.00  0.00     0.026 H 
ATOM     27  H   LIG d   1       4.827   2.294  -2.882  0.00  0.00     0.026 H 
ATOM     28  C   LIG d   1       3.218   0.428  -4.051  0.00  0.00    -0.042 C 
ATOM     29  H   LIG d   1       3.288  -0.187  -1.989  0.00  0.00     0.026 H 
ATOM     30  H   LIG d   1       2.589   1.428  -2.250  0.00  0.00     0.026 H 
ATOM     31  H   LIG d   1       3.303   1.352  -4.624  0.00  0.00     0.027 H 
ATOM     32  H   LIG d   1       2.243  -0.022  -4.231  0.00  0.00     0.027 H 
ATOM     33  H   LIG d   1       4.233  -1.467  -3.915  0.00  0.00     0.039 H 
ENDBRANCH  14  17
ENDBRANCH   6  13
BRANCH   2  34
ATOM     34  C   LIG d   1       1.908  -1.489 -13.075  0.00  0.00    -0.035 C 
ATOM     35  H   LIG d   1       0.997  -0.972 -12.775  0.00  0.00     0.028 H 
ATOM     36  H   LIG d   1       1.762  -2.565 -12.983  0.00  0.00     0.028 H 
ATOM     37  H   LIG d   1       2.143  -1.239 -14.109  0.00  0.00     0.028 H 
ENDBRANCH   2  34
BRANCH   1  38
ATOM     38  C   LIG d   1       4.848  -0.985 -13.929  0.00  0.00     0.375 C 
ATOM     39  O   LIG d   1       5.516  -1.956 -14.227  0.00  0.00    -0.241 OA
BRANCH  38  40
ATOM     40  O   LIG d   1       4.581  -0.040 -14.854  0.00  0.00    -0.459 OA
BRANCH  40  41
ATOM     41  C   LIG d   1       4.497  -0.476 -16.236  0.00  0.00     0.090 C 
ATOM     42  H   LIG d   1       4.802   0.338 -16.893  0.00  0.00     0.070 H 
ATOM     43  H   LIG d   1       5.156  -1.331 -16.389  0.00  0.00     0.070 H 
BRANCH  41  44
ATOM     44  C   LIG d   1       3.056  -0.879 -16.558  0.00  0.00    -0.031 C 
ATOM     45  H   LIG d   1       2.994  -1.203 -17.597  0.00  0.00     0.026 H 
ATOM     46  H   LIG d   1       2.753  -1.696 -15.903  0.00  0.00     0.026 H 
ATOM     47  H   LIG d   1       2.397  -0.025 -16.403  0.00  0.00     0.026 H 
ENDBRANCH  41  44
ENDBRANCH  40  41
ENDBRANCH  38  40
ENDBRANCH   1  38
TORSDOF 7
ENDMDL
MODEL 8
REMARK VINA RESULT:      -5.4      8.039     12.711
REMARK  7 active torsions:
REMARK  status: ('A' for Active; 'I' for Inactive)
REMARK    1  A    between atoms: C_1  and  C_2 
REMARK    2  A    between atoms: C_2  and  O_3 
REMARK    3  A    between atoms: O_3  and  C_4 
REMARK    4  A    between atoms: C_4  and  C_6 
REMARK    5  A    between atoms: C_7  and  C_24 
REMARK    6  A    between atoms: C_11  and  N_15 
REMARK       I    between atoms: N_15  and  C_16 
REMARK    7  A    between atoms: C_16  and  C_18 
ROOT
ATOM      1  C   LIG d   1       4.622  -7.889  -6.334  0.00  0.00     0.215 A 
ATOM      2  C   LIG d   1       4.379  -7.850  -7.670  0.00  0.00     0.010 A 
ATOM      3  C   LIG d   1       4.141  -6.493  -8.006  0.00  0.00     0.024 A 
ATOM      4  C   LIG d   1       3.836  -5.832  -9.202  0.00  0.00    -0.049 A 
ATOM      5  C   LIG d   1       3.659  -4.480  -9.205  0.00  0.00    -0.040 A 
ATOM      6  C   LIG d   1       3.779  -3.749  -8.022  0.00  0.00     0.037 A 
ATOM      7  C   LIG d   1       4.079  -4.387  -6.830  0.00  0.00     0.003 A 
ATOM      8  C   LIG d   1       4.263  -5.762  -6.809  0.00  0.00     0.138 A 
ATOM      9  O   LIG d   1       4.556  -6.638  -5.827  0.00  0.00    -0.448 OA
ATOM     10  H   LIG d   1       3.742  -6.393 -10.121  0.00  0.00     0.062 H 
ATOM     11  H   LIG d   1       3.424  -3.971 -10.128  0.00  0.00     0.064 H 
ATOM     12  H   LIG d   1       4.170  -3.815  -5.918  0.00  0.00     0.067 H 
ENDROOT
BRANCH   6  13
ATOM     13  N   LIG d   1       3.594  -2.365  -8.041  0.00  0.00    -0.285 N 
ATOM     14  C   LIG d   1       4.633  -1.550  -8.315  0.00  0.00     0.220 C 
ATOM     15  O   LIG d   1       5.703  -2.020  -8.637  0.00  0.00    -0.275 OA
ATOM     16  H   LIG d   1       2.719  -1.990  -7.858  0.00  0.00     0.155 HD
BRANCH  14  17
ATOM     17  C   LIG d   1       4.463  -0.056  -8.219  0.00  0.00     0.036 C 
ATOM     18  C   LIG d   1       5.398   0.629  -9.218  0.00  0.00    -0.042 C 
ATOM     19  C   LIG d   1       5.226   2.146  -9.121  0.00  0.00    -0.052 C 
ATOM     20  H   LIG d   1       6.431   0.365  -8.989  0.00  0.00     0.027 H 
ATOM     21  H   LIG d   1       5.154   0.299 -10.228  0.00  0.00     0.027 H 
ATOM     22  C   LIG d   1       3.776   2.516  -9.442  0.00  0.00    -0.053 C 
ATOM     23  H   LIG d   1       5.470   2.475  -8.111  0.00  0.00     0.026 H 
ATOM     24  H   LIG d   1       5.892   2.633  -9.833  0.00  0.00     0.026 H 
ATOM     25  C   LIG d   1       2.841   1.832  -8.443  0.00  0.00    -0.052 C 
ATOM     26  H   LIG d   1       3.654   3.597  -9.373  0.00  0.00     0.026 H 
ATOM     27  H   LIG d   1       3.533   2.186 -10.453  0.00  0.00     0.026 H 
ATOM     28  C   LIG d   1       3.014   0.315  -8.539  0.00  0.00    -0.042 C 
ATOM     29  H   LIG d   1       3.085   2.161  -7.433  0.00  0.00     0.026 H 
ATOM     30  H   LIG d   1       1.809   2.096  -8.671  0.00  0.00     0.026 H 
ATOM     31  H   LIG d   1       2.770  -0.015  -9.550  0.00  0.00     0.027 H 
ATOM     32  H   LIG d   1       2.348  -0.173  -7.828  0.00  0.00     0.027 H 
ATOM     33  H   LIG d   1       4.707   0.274  -7.209  0.00  0.00     0.039 H 
ENDBRANCH  14  17
ENDBRANCH   6  13
BRANCH   2  34
ATOM     34  C   LIG d   1       4.361  -9.025  -8.614  0.00  0.00    -0.035 C 
ATOM     35  H   LIG d   1       4.060  -8.689  -9.607  0.00  0.00     0.028 H 
ATOM     36  H   LIG d   1       3.651  -9.770  -8.253  0.00  0.00     0.028 H 
ATOM     37  H   LIG d   1       5.356  -9.465  -8.665  0.00  0.00     0.028 H 
ENDBRANCH   2  34
BRANCH   1  38
ATOM     38  C   LIG d   1       4.914  -9.102  -5.562  0.00  0.00     0.375 C 
ATOM     39  O   LIG d   1       6.015  -9.260  -5.072  0.00  0.00    -0.241 OA
BRANCH  38  40
ATOM     40  O   LIG d   1       3.961 -10.042  -5.398  0.00  0.00    -0.459 OA
BRANCH  40  41
ATOM     41  C   LIG d   1       4.042 -10.861  -4.203  0.00  0.00     0.090 C 
ATOM     42  H   LIG d   1       3.663 -11.859  -4.419  0.00  0.00     0.070 H 
ATOM     43  H   LIG d   1       5.081 -10.930  -3.879  0.00  0.00     0.070 H 
BRANCH  41  44
ATOM     44  C   LIG d   1       3.203 -10.227  -3.091  0.00  0.00    -0.031 C 
ATOM     45  H   LIG d   1       3.351  -9.147  -3.097  0.00  0.00     0.026 H 
ATOM     46  H   LIG d   1       2.150 -10.451  -3.259  0.00  0.00     0.026 H 
ATOM     47  H   LIG d   1       3.512 -10.631  -2.127  0.00  0.00     0.026 H 
ENDBRANCH  41  44
ENDBRANCH  40  41
ENDBRANCH  38  40
ENDBRANCH   1  38
TORSDOF 7
ENDMDL
MODEL 9
REMARK VINA RESULT:      -5.3      2.255      2.979
REMARK  7 active torsions:
REMARK  status: ('A' for Active; 'I' for Inactive)
REMARK    1  A    between atoms: C_1  and  C_2 
REMARK    2  A    between atoms: C_2  and  O_3 
REMARK    3  A    between atoms: O_3  and  C_4 
REMARK    4  A    between atoms: C_4  and  C_6 
REMARK    5  A    between atoms: C_7  and  C_24 
REMARK    6  A    between atoms: C_11  and  N_15 
REMARK       I    between atoms: N_15  and  C_16 
REMARK    7  A    between atoms: C_16  and  C_18 
ROOT
ATOM      1  C   LIG d   1      12.508   4.031  -3.748  0.00  0.00     0.215 A 
ATOM      2  C   LIG d   1      12.091   3.981  -5.040  0.00  0.00     0.010 A 
ATOM      3  C   LIG d   1      10.798   3.399  -5.033  0.00  0.00     0.024 A 
ATOM      4  C   LIG d   1       9.874   3.085  -6.037  0.00  0.00    -0.049 A 
ATOM      5  C   LIG d   1       8.680   2.515  -5.706  0.00  0.00    -0.040 A 
ATOM      6  C   LIG d   1       8.372   2.243  -4.373  0.00  0.00     0.037 A 
ATOM      7  C   LIG d   1       9.275   2.546  -3.368  0.00  0.00     0.003 A 
ATOM      8  C   LIG d   1      10.494   3.127  -3.686  0.00  0.00     0.138 A 
ATOM      9  O   LIG d   1      11.547   3.524  -2.944  0.00  0.00    -0.448 OA
ATOM     10  H   LIG d   1      10.107   3.294  -7.071  0.00  0.00     0.062 H 
ATOM     11  H   LIG d   1       7.968   2.274  -6.482  0.00  0.00     0.064 H 
ATOM     12  H   LIG d   1       9.030   2.331  -2.337  0.00  0.00     0.067 H 
ENDROOT
BRANCH   6  13
ATOM     13  N   LIG d   1       7.145   1.659  -4.051  0.00  0.00    -0.285 N 
ATOM     14  C   LIG d   1       7.014   0.317  -4.061  0.00  0.00     0.220 C 
ATOM     15  O   LIG d   1       7.982  -0.386  -4.258  0.00  0.00    -0.275 OA
ATOM     16  H   LIG d   1       6.388   2.218  -3.819  0.00  0.00     0.155 HD
BRANCH  14  17
ATOM     17  C   LIG d   1       5.663  -0.309  -3.831  0.00  0.00     0.036 C 
ATOM     18  C   LIG d   1       5.804  -1.833  -3.807  0.00  0.00    -0.042 C 
ATOM     19  C   LIG d   1       4.432  -2.469  -3.573  0.00  0.00    -0.052 C 
ATOM     20  H   LIG d   1       6.205  -2.176  -4.761  0.00  0.00     0.027 H 
ATOM     21  H   LIG d   1       6.481  -2.122  -3.003  0.00  0.00     0.027 H 
ATOM     22  C   LIG d   1       3.869  -1.988  -2.234  0.00  0.00    -0.053 C 
ATOM     23  H   LIG d   1       3.756  -2.180  -4.377  0.00  0.00     0.026 H 
ATOM     24  H   LIG d   1       4.533  -3.554  -3.555  0.00  0.00     0.026 H 
ATOM     25  C   LIG d   1       3.727  -0.464  -2.258  0.00  0.00    -0.052 C 
ATOM     26  H   LIG d   1       2.891  -2.440  -2.067  0.00  0.00     0.026 H 
ATOM     27  H   LIG d   1       4.546  -2.277  -1.430  0.00  0.00     0.026 H 
ATOM     28  C   LIG d   1       5.098   0.172  -2.493  0.00  0.00    -0.042 C 
ATOM     29  H   LIG d   1       3.051  -0.175  -3.063  0.00  0.00     0.026 H 
ATOM     30  H   LIG d   1       3.325  -0.121  -1.305  0.00  0.00     0.026 H 
ATOM     31  H   LIG d   1       5.776  -0.117  -1.689  0.00  0.00     0.027 H 
ATOM     32  H   LIG d   1       4.998   1.257  -2.510  0.00  0.00     0.027 H 
ATOM     33  H   LIG d   1       4.986  -0.020  -4.635  0.00  0.00     0.039 H 
ENDBRANCH  14  17
ENDBRANCH   6  13
BRANCH   2  34
ATOM     34  C   LIG d   1      12.859   4.448  -6.250  0.00  0.00    -0.035 C 
ATOM     35  H   LIG d   1      12.832   5.536  -6.300  0.00  0.00     0.028 H 
ATOM     36  H   LIG d   1      12.406   4.032  -7.150  0.00  0.00     0.028 H 
ATOM     37  H   LIG d   1      13.893   4.113  -6.175  0.00  0.00     0.028 H 
ENDBRANCH   2  34
BRANCH   1  38
ATOM     38  C   LIG d   1      13.800   4.559  -3.296  0.00  0.00     0.375 C 
ATOM     39  O   LIG d   1      13.974   5.759  -3.222  0.00  0.00    -0.241 OA
BRANCH  38  40
ATOM     40  O   LIG d   1      14.794   3.711  -2.963  0.00  0.00    -0.459 OA
BRANCH  40  41
ATOM     41  C   LIG d   1      16.007   4.297  -2.422  0.00  0.00     0.090 C 
ATOM     42  H   LIG d   1      16.869   3.929  -2.978  0.00  0.00     0.070 H 
ATOM     43  H   LIG d   1      15.957   5.383  -2.509  0.00  0.00     0.070 H 
BRANCH  41  44
ATOM     44  C   LIG d   1      16.148   3.910  -0.948  0.00  0.00    -0.031 C 
ATOM     45  H   LIG d   1      16.074   2.828  -0.848  0.00  0.00     0.026 H 
ATOM     46  H   LIG d   1      17.116   4.245  -0.576  0.00  0.00     0.026 H 
ATOM     47  H   LIG d   1      15.353   4.384  -0.371  0.00  0.00     0.026 H 
ENDBRANCH  41  44
ENDBRANCH  40  41
ENDBRANCH  38  40
ENDBRANCH   1  38
TORSDOF 7
ENDMDL
