MODEL 1
REMARK VINA RESULT:      -6.2      0.000      0.000
REMARK  10 active torsions:
REMARK  status: ('A' for Active; 'I' for Inactive)
REMARK    1  A    between atoms: C_1  and  C_2 
REMARK    2  A    between atoms: C_6  and  C_29 
REMARK    3  A    between atoms: C_10  and  C_28 
REMARK    4  A    between atoms: C_15  and  C_16 
REMARK    5  A    between atoms: C_16  and  C_17 
REMARK    6  A    between atoms: C_17  and  C_18 
REMARK       I    between atoms: C_18  and  N_20 
REMARK    7  A    between atoms: C_23  and  C_26 
REMARK    8  A    between atoms: C_29  and  C_30 
REMARK    9  A    between atoms: C_29  and  C_31 
REMARK   10  A    between atoms: C_29  and  C_32 
ROOT
ATOM      1  C   LIG d   1       5.260  -3.279  -7.478  0.00  0.00    -0.030 A 
ATOM      2  C   LIG d   1       5.884  -2.190  -6.719  0.00  0.00     0.022 A 
ATOM      3  C   LIG d   1       5.305  -1.717  -5.542  0.00  0.00    -0.040 A 
ATOM      4  C   LIG d   1       5.920  -0.685  -4.848  0.00  0.00     0.025 A 
ATOM      5  C   LIG d   1       5.609   0.044  -3.611  0.00  0.00     0.004 A 
ATOM      6  C   LIG d   1       6.587   0.943  -3.451  0.00  0.00     0.097 A 
ATOM      7  O   LIG d   1       7.475   0.850  -4.457  0.00  0.00    -0.462 OA
ATOM      8  C   LIG d   1       7.119  -0.117  -5.327  0.00  0.00     0.141 A 
ATOM      9  C   LIG d   1       7.688  -0.592  -6.499  0.00  0.00     0.035 A 
ATOM     10  C   LIG d   1       7.083  -1.621  -7.198  0.00  0.00     0.146 A 
ATOM     11  O   LIG d   1       7.634  -2.087  -8.342  0.00  0.00    -0.422 OA
ATOM     12  C   LIG d   1       7.066  -3.083  -9.039  0.00  0.00     0.341 A 
ATOM     13  O   LIG d   1       7.600  -3.469 -10.064  0.00  0.00    -0.245 OA
ATOM     14  C   LIG d   1       5.867  -3.697  -8.617  0.00  0.00     0.041 A 
ATOM     15  H   LIG d   1       4.386  -2.151  -5.172  0.00  0.00     0.063 H 
ATOM     16  H   LIG d   1       6.655   1.643  -2.632  0.00  0.00     0.103 H 
ENDROOT
BRANCH  14  17
ATOM     17  C   LIG d   1       5.260  -4.808  -9.433  0.00  0.00    -0.012 C 
ATOM     18  H   LIG d   1       6.035  -5.526  -9.702  0.00  0.00     0.032 H 
ATOM     19  H   LIG d   1       4.488  -5.308  -8.849  0.00  0.00     0.032 H 
BRANCH  17  20
ATOM     20  C   LIG d   1       4.640  -4.226 -10.705  0.00  0.00     0.028 C 
ATOM     21  H   LIG d   1       5.293  -3.451 -11.105  0.00  0.00     0.036 H 
ATOM     22  H   LIG d   1       4.520  -5.018 -11.445  0.00  0.00     0.036 H 
BRANCH  20  23
ATOM     23  C   LIG d   1       3.293  -3.633 -10.382  0.00  0.00     0.216 C 
ATOM     24  O   LIG d   1       2.360  -4.358 -10.109  0.00  0.00    -0.276 OA
ATOM     25  N   LIG d   1       3.125  -2.295 -10.396  0.00  0.00    -0.301 N 
ATOM     26  C   LIG d   1       1.818  -1.702 -10.082  0.00  0.00     0.015 C 
ATOM     27  C   LIG d   1       4.246  -1.404 -10.718  0.00  0.00     0.015 C 
ATOM     28  C   LIG d   1       2.001  -0.669  -8.966  0.00  0.00    -0.029 C 
ATOM     29  H   LIG d   1       1.416  -1.214 -10.970  0.00  0.00     0.046 H 
ATOM     30  H   LIG d   1       1.133  -2.482  -9.749  0.00  0.00     0.046 H 
ATOM     31  C   LIG d   1       3.067   0.346  -9.385  0.00  0.00     0.001 C 
ATOM     32  H   LIG d   1       1.057  -0.153  -8.790  0.00  0.00     0.029 H 
ATOM     33  H   LIG d   1       2.317  -1.172  -8.052  0.00  0.00     0.029 H 
ATOM     34  C   LIG d   1       4.401  -0.374  -9.600  0.00  0.00    -0.029 C 
ATOM     35  H   LIG d   1       2.763   0.831 -10.313  0.00  0.00     0.036 H 
ATOM     36  H   LIG d   1       5.166   0.353  -9.876  0.00  0.00     0.029 H 
ATOM     37  H   LIG d   1       4.694  -0.879  -8.680  0.00  0.00     0.029 H 
ATOM     38  H   LIG d   1       5.164  -1.986 -10.806  0.00  0.00     0.046 H 
ATOM     39  H   LIG d   1       4.046  -0.890 -11.659  0.00  0.00     0.046 H 
BRANCH  31  40
ATOM     40  C   LIG d   1       3.226   1.384  -8.304  0.00  0.00     0.045 C 
ATOM     41  O   LIG d   1       3.466   2.531  -8.600  0.00  0.00    -0.549 OA
ATOM     42  O   LIG d   1       3.103   1.035  -7.014  0.00  0.00    -0.549 OA
ENDBRANCH  31  40
ENDBRANCH  20  23
ENDBRANCH  17  20
ENDBRANCH  14  17
BRANCH   1  43
ATOM     43  C   LIG d   1       3.980  -3.917  -7.004  0.00  0.00    -0.039 C 
ATOM     44  H   LIG d   1       3.370  -4.190  -7.864  0.00  0.00     0.028 H 
ATOM     45  H   LIG d   1       4.213  -4.810  -6.424  0.00  0.00     0.028 H 
ATOM     46  H   LIG d   1       3.432  -3.211  -6.380  0.00  0.00     0.028 H 
ENDBRANCH   1  43
BRANCH   9  47
ATOM     47  C   LIG d   1       8.969   0.014  -7.012  0.00  0.00    -0.033 C 
ATOM     48  H   LIG d   1       9.009   1.067  -6.734  0.00  0.00     0.028 H 
ATOM     49  H   LIG d   1       9.819  -0.510  -6.575  0.00  0.00     0.028 H 
ATOM     50  H   LIG d   1       9.005  -0.076  -8.097  0.00  0.00     0.028 H 
ENDBRANCH   9  47
BRANCH   5  51
ATOM     51  C   LIG d   1       4.424  -0.176  -2.705  0.00  0.00    -0.009 C 
BRANCH  51  52
ATOM     52  C   LIG d   1       3.132  -0.018  -3.508  0.00  0.00    -0.056 C 
ATOM     53  H   LIG d   1       2.684  -0.997  -3.673  0.00  0.00     0.024 H 
ATOM     54  H   LIG d   1       2.435   0.613  -2.955  0.00  0.00     0.024 H 
ATOM     55  H   LIG d   1       3.355   0.446  -4.470  0.00  0.00     0.024 H 
ENDBRANCH  51  52
BRANCH  51  56
ATOM     56  C   LIG d   1       4.488  -1.585  -2.115  0.00  0.00    -0.056 C 
ATOM     57  H   LIG d   1       3.934  -2.272  -2.754  0.00  0.00     0.024 H 
ATOM     58  H   LIG d   1       5.528  -1.907  -2.052  0.00  0.00     0.024 H 
ATOM     59  H   LIG d   1       4.048  -1.582  -1.117  0.00  0.00     0.024 H 
ENDBRANCH  51  56
BRANCH  51  60
ATOM     60  C   LIG d   1       4.450   0.853  -1.572  0.00  0.00    -0.056 C 
ATOM     61  H   LIG d   1       3.765   1.668  -1.806  0.00  0.00     0.024 H 
ATOM     62  H   LIG d   1       4.143   0.377  -0.642  0.00  0.00     0.024 H 
ATOM     63  H   LIG d   1       5.460   1.247  -1.462  0.00  0.00     0.024 H 
ENDBRANCH  51  60
ENDBRANCH   5  51
TORSDOF 10
ENDMDL
MODEL 2
REMARK VINA RESULT:      -5.9      5.737      7.600
REMARK  10 active torsions:
REMARK  status: ('A' for Active; 'I' for Inactive)
REMARK    1  A    between atoms: C_1  and  C_2 
REMARK    2  A    between atoms: C_6  and  C_29 
REMARK    3  A    between atoms: C_10  and  C_28 
REMARK    4  A    between atoms: C_15  and  C_16 
REMARK    5  A    between atoms: C_16  and  C_17 
REMARK    6  A    between atoms: C_17  and  C_18 
REMARK       I    between atoms: C_18  and  N_20 
REMARK    7  A    between atoms: C_23  and  C_26 
REMARK    8  A    between atoms: C_29  and  C_30 
REMARK    9  A    between atoms: C_29  and  C_31 
REMARK   10  A    between atoms: C_29  and  C_32 
ROOT
ATOM      1  C   LIG d   1       5.203  -5.219  -6.110  0.00  0.00    -0.030 A 
ATOM      2  C   LIG d   1       5.782  -4.135  -5.311  0.00  0.00     0.022 A 
ATOM      3  C   LIG d   1       5.012  -3.034  -4.938  0.00  0.00    -0.040 A 
ATOM      4  C   LIG d   1       5.591  -2.024  -4.182  0.00  0.00     0.025 A 
ATOM      5  C   LIG d   1       5.102  -0.756  -3.624  0.00  0.00     0.004 A 
ATOM      6  C   LIG d   1       6.139  -0.206  -2.982  0.00  0.00     0.097 A 
ATOM      7  O   LIG d   1       7.222  -0.997  -3.081  0.00  0.00    -0.462 OA
ATOM      8  C   LIG d   1       6.944  -2.107  -3.796  0.00  0.00     0.141 A 
ATOM      9  C   LIG d   1       7.704  -3.205  -4.172  0.00  0.00     0.035 A 
ATOM     10  C   LIG d   1       7.136  -4.218  -4.924  0.00  0.00     0.146 A 
ATOM     11  O   LIG d   1       7.873  -5.290  -5.294  0.00  0.00    -0.422 OA
ATOM     12  C   LIG d   1       7.346  -6.285  -6.024  0.00  0.00     0.341 A 
ATOM     13  O   LIG d   1       8.050  -7.230  -6.333  0.00  0.00    -0.245 OA
ATOM     14  C   LIG d   1       6.000  -6.265  -6.445  0.00  0.00     0.041 A 
ATOM     15  H   LIG d   1       3.974  -2.967  -5.233  0.00  0.00     0.063 H 
ATOM     16  H   LIG d   1       6.111   0.739  -2.459  0.00  0.00     0.103 H 
ENDROOT
BRANCH  14  17
ATOM     17  C   LIG d   1       5.450  -7.400  -7.270  0.00  0.00    -0.012 C 
ATOM     18  H   LIG d   1       4.770  -7.005  -8.025  0.00  0.00     0.032 H 
ATOM     19  H   LIG d   1       6.270  -7.925  -7.759  0.00  0.00     0.032 H 
BRANCH  17  20
ATOM     20  C   LIG d   1       4.694  -8.372  -6.362  0.00  0.00     0.028 C 
ATOM     21  H   LIG d   1       4.534  -7.909  -5.388  0.00  0.00     0.036 H 
ATOM     22  H   LIG d   1       3.731  -8.614  -6.811  0.00  0.00     0.036 H 
BRANCH  20  23
ATOM     23  C   LIG d   1       5.501  -9.633  -6.192  0.00  0.00     0.216 C 
ATOM     24  O   LIG d   1       6.342  -9.930  -7.014  0.00  0.00    -0.276 OA
ATOM     25  N   LIG d   1       5.288 -10.432  -5.128  0.00  0.00    -0.301 N 
ATOM     26  C   LIG d   1       6.067 -11.664  -4.949  0.00  0.00     0.015 C 
ATOM     27  C   LIG d   1       4.277 -10.083  -4.121  0.00  0.00     0.015 C 
ATOM     28  C   LIG d   1       6.703 -11.648  -3.555  0.00  0.00    -0.029 C 
ATOM     29  H   LIG d   1       5.410 -12.529  -5.040  0.00  0.00     0.046 H 
ATOM     30  H   LIG d   1       6.850 -11.715  -5.706  0.00  0.00     0.046 H 
ATOM     31  C   LIG d   1       5.612 -11.436  -2.503  0.00  0.00     0.001 C 
ATOM     32  H   LIG d   1       7.205 -12.599  -3.372  0.00  0.00     0.029 H 
ATOM     33  H   LIG d   1       7.428 -10.836  -3.495  0.00  0.00     0.029 H 
ATOM     34  C   LIG d   1       4.929 -10.087  -2.739  0.00  0.00    -0.029 C 
ATOM     35  H   LIG d   1       4.873 -12.234  -2.580  0.00  0.00     0.036 H 
ATOM     36  H   LIG d   1       4.167  -9.926  -1.975  0.00  0.00     0.029 H 
ATOM     37  H   LIG d   1       5.671  -9.290  -2.686  0.00  0.00     0.029 H 
ATOM     38  H   LIG d   1       3.878  -9.090  -4.331  0.00  0.00     0.046 H 
ATOM     39  H   LIG d   1       3.471 -10.816  -4.143  0.00  0.00     0.046 H 
BRANCH  31  40
ATOM     40  C   LIG d   1       6.228 -11.453  -1.128  0.00  0.00     0.045 C 
ATOM     41  O   LIG d   1       6.139 -12.442  -0.439  0.00  0.00    -0.549 OA
ATOM     42  O   LIG d   1       6.874 -10.370  -0.668  0.00  0.00    -0.549 OA
ENDBRANCH  31  40
ENDBRANCH  20  23
ENDBRANCH  17  20
ENDBRANCH  14  17
BRANCH   1  43
ATOM     43  C   LIG d   1       3.760  -5.174  -6.545  0.00  0.00    -0.039 C 
ATOM     44  H   LIG d   1       3.157  -4.728  -5.756  0.00  0.00     0.028 H 
ATOM     45  H   LIG d   1       3.674  -4.575  -7.452  0.00  0.00     0.028 H 
ATOM     46  H   LIG d   1       3.410  -6.187  -6.744  0.00  0.00     0.028 H 
ENDBRANCH   1  43
BRANCH   9  47
ATOM     47  C   LIG d   1       9.151  -3.296  -3.759  0.00  0.00    -0.033 C 
ATOM     48  H   LIG d   1       9.685  -2.414  -4.114  0.00  0.00     0.028 H 
ATOM     49  H   LIG d   1       9.215  -3.346  -2.672  0.00  0.00     0.028 H 
ATOM     50  H   LIG d   1       9.597  -4.190  -4.191  0.00  0.00     0.028 H 
ENDBRANCH   9  47
BRANCH   5  51
ATOM     51  C   LIG d   1       3.711  -0.188  -3.750  0.00  0.00    -0.009 C 
BRANCH  51  52
ATOM     52  C   LIG d   1       3.342  -0.066  -5.230  0.00  0.00    -0.056 C 
ATOM     53  H   LIG d   1       3.918  -0.788  -5.809  0.00  0.00     0.024 H 
ATOM     54  H   LIG d   1       2.278  -0.265  -5.357  0.00  0.00     0.024 H 
ATOM     55  H   LIG d   1       3.568   0.942  -5.579  0.00  0.00     0.024 H 
ENDBRANCH  51  52
BRANCH  51  56
ATOM     56  C   LIG d   1       2.716  -1.117  -3.052  0.00  0.00    -0.056 C 
ATOM     57  H   LIG d   1       1.963  -0.521  -2.537  0.00  0.00     0.024 H 
ATOM     58  H   LIG d   1       2.232  -1.753  -3.793  0.00  0.00     0.024 H 
ATOM     59  H   LIG d   1       3.245  -1.738  -2.329  0.00  0.00     0.024 H 
ENDBRANCH  51  56
BRANCH  51  60
ATOM     60  C   LIG d   1       3.663   1.195  -3.096  0.00  0.00    -0.056 C 
ATOM     61  H   LIG d   1       4.606   1.713  -3.272  0.00  0.00     0.024 H 
ATOM     62  H   LIG d   1       2.846   1.772  -3.528  0.00  0.00     0.024 H 
ATOM     63  H   LIG d   1       3.503   1.084  -2.024  0.00  0.00     0.024 H 
ENDBRANCH  51  60
ENDBRANCH   5  51
TORSDOF 10
ENDMDL
MODEL 3
REMARK VINA RESULT:      -5.8      6.679      8.693
REMARK  10 active torsions:
REMARK  status: ('A' for Active; 'I' for Inactive)
REMARK    1  A    between atoms: C_1  and  C_2 
REMARK    2  A    between atoms: C_6  and  C_29 
REMARK    3  A    between atoms: C_10  and  C_28 
REMARK    4  A    between atoms: C_15  and  C_16 
REMARK    5  A    between atoms: C_16  and  C_17 
REMARK    6  A    between atoms: C_17  and  C_18 
REMARK       I    between atoms: C_18  and  N_20 
REMARK    7  A    between atoms: C_23  and  C_26 
REMARK    8  A    between atoms: C_29  and  C_30 
REMARK    9  A    between atoms: C_29  and  C_31 
REMARK   10  A    between atoms: C_29  and  C_32 
ROOT
ATOM      1  C   LIG d   1       7.091  -7.621  -5.044  0.00  0.00    -0.030 A 
ATOM      2  C   LIG d   1       6.665  -8.710  -4.161  0.00  0.00     0.022 A 
ATOM      3  C   LIG d   1       7.570  -9.323  -3.295  0.00  0.00    -0.040 A 
ATOM      4  C   LIG d   1       7.135 -10.353  -2.473  0.00  0.00     0.025 A 
ATOM      5  C   LIG d   1       7.787 -11.203  -1.467  0.00  0.00     0.004 A 
ATOM      6  C   LIG d   1       6.839 -12.027  -1.004  0.00  0.00     0.097 A 
ATOM      7  O   LIG d   1       5.666 -11.779  -1.615  0.00  0.00    -0.462 OA
ATOM      8  C   LIG d   1       5.791 -10.778  -2.510  0.00  0.00     0.141 A 
ATOM      9  C   LIG d   1       4.896 -10.164  -3.375  0.00  0.00     0.035 A 
ATOM     10  C   LIG d   1       5.320  -9.136  -4.198  0.00  0.00     0.146 A 
ATOM     11  O   LIG d   1       4.452  -8.536  -5.043  0.00  0.00    -0.422 OA
ATOM     12  C   LIG d   1       4.837  -7.538  -5.853  0.00  0.00     0.341 A 
ATOM     13  O   LIG d   1       4.018  -7.028  -6.596  0.00  0.00    -0.245 OA
ATOM     14  C   LIG d   1       6.166  -7.063  -5.866  0.00  0.00     0.041 A 
ATOM     15  H   LIG d   1       8.601  -9.000  -3.265  0.00  0.00     0.063 H 
ATOM     16  H   LIG d   1       6.993 -12.782  -0.248  0.00  0.00     0.103 H 
ENDROOT
BRANCH  14  17
ATOM     17  C   LIG d   1       6.559  -5.944  -6.796  0.00  0.00    -0.012 C 
ATOM     18  H   LIG d   1       7.642  -5.823  -6.782  0.00  0.00     0.032 H 
ATOM     19  H   LIG d   1       6.232  -6.181  -7.808  0.00  0.00     0.032 H 
BRANCH  17  20
ATOM     20  C   LIG d   1       5.895  -4.644  -6.338  0.00  0.00     0.028 C 
ATOM     21  H   LIG d   1       5.600  -4.060  -7.210  0.00  0.00     0.036 H 
ATOM     22  H   LIG d   1       5.013  -4.877  -5.742  0.00  0.00     0.036 H 
BRANCH  20  23
ATOM     23  C   LIG d   1       6.868  -3.849  -5.506  0.00  0.00     0.216 C 
ATOM     24  O   LIG d   1       8.052  -3.876  -5.766  0.00  0.00    -0.276 OA
ATOM     25  N   LIG d   1       6.422  -3.109  -4.471  0.00  0.00    -0.301 N 
ATOM     26  C   LIG d   1       7.359  -2.329  -3.651  0.00  0.00     0.015 C 
ATOM     27  C   LIG d   1       4.991  -3.062  -4.147  0.00  0.00     0.015 C 
ATOM     28  C   LIG d   1       6.881  -0.874  -3.607  0.00  0.00    -0.029 C 
ATOM     29  H   LIG d   1       7.385  -2.735  -2.640  0.00  0.00     0.046 H 
ATOM     30  H   LIG d   1       8.355  -2.373  -4.091  0.00  0.00     0.046 H 
ATOM     31  C   LIG d   1       5.431  -0.831  -3.118  0.00  0.00     0.001 C 
ATOM     32  H   LIG d   1       7.512  -0.304  -2.924  0.00  0.00     0.029 H 
ATOM     33  H   LIG d   1       6.941  -0.440  -4.606  0.00  0.00     0.029 H 
ATOM     34  C   LIG d   1       4.540  -1.603  -4.094  0.00  0.00    -0.029 C 
ATOM     35  H   LIG d   1       5.367  -1.287  -2.130  0.00  0.00     0.036 H 
ATOM     36  H   LIG d   1       3.504  -1.553  -3.758  0.00  0.00     0.029 H 
ATOM     37  H   LIG d   1       4.622  -1.162  -5.088  0.00  0.00     0.029 H 
ATOM     38  H   LIG d   1       4.424  -3.590  -4.914  0.00  0.00     0.046 H 
ATOM     39  H   LIG d   1       4.820  -3.529  -3.177  0.00  0.00     0.046 H 
BRANCH  31  40
ATOM     40  C   LIG d   1       4.968   0.601  -3.041  0.00  0.00     0.045 C 
ATOM     41  O   LIG d   1       5.504   1.368  -2.277  0.00  0.00    -0.549 OA
ATOM     42  O   LIG d   1       3.960   1.024  -3.820  0.00  0.00    -0.549 OA
ENDBRANCH  31  40
ENDBRANCH  20  23
ENDBRANCH  17  20
ENDBRANCH  14  17
BRANCH   1  43
ATOM     43  C   LIG d   1       8.516  -7.132  -5.038  0.00  0.00    -0.039 C 
ATOM     44  H   LIG d   1       8.993  -7.416  -4.101  0.00  0.00     0.028 H 
ATOM     45  H   LIG d   1       9.057  -7.581  -5.872  0.00  0.00     0.028 H 
ATOM     46  H   LIG d   1       8.528  -6.047  -5.139  0.00  0.00     0.028 H 
ENDBRANCH   1  43
BRANCH   9  47
ATOM     47  C   LIG d   1       3.459 -10.617  -3.416  0.00  0.00    -0.033 C 
ATOM     48  H   LIG d   1       3.389 -11.548  -3.980  0.00  0.00     0.028 H 
ATOM     49  H   LIG d   1       3.101 -10.781  -2.399  0.00  0.00     0.028 H 
ATOM     50  H   LIG d   1       2.851  -9.853  -3.897  0.00  0.00     0.028 H 
ENDBRANCH   9  47
BRANCH   5  51
ATOM     51  C   LIG d   1       9.232 -11.157  -1.042  0.00  0.00    -0.009 C 
BRANCH  51  52
ATOM     52  C   LIG d   1       9.489 -12.237   0.011  0.00  0.00    -0.056 C 
ATOM     53  H   LIG d   1      10.441 -12.726  -0.195  0.00  0.00     0.024 H 
ATOM     54  H   LIG d   1       9.521 -11.779   1.000  0.00  0.00     0.024 H 
ATOM     55  H   LIG d   1       8.687 -12.975  -0.022  0.00  0.00     0.024 H 
ENDBRANCH  51  52
BRANCH  51  56
ATOM     56  C   LIG d   1      10.129 -11.405  -2.256  0.00  0.00    -0.056 C 
ATOM     57  H   LIG d   1      11.096 -10.929  -2.096  0.00  0.00     0.024 H 
ATOM     58  H   LIG d   1      10.270 -12.478  -2.390  0.00  0.00     0.024 H 
ATOM     59  H   LIG d   1       9.659 -10.986  -3.146  0.00  0.00     0.024 H 
ENDBRANCH  51  56
BRANCH  51  60
ATOM     60  C   LIG d   1       9.546  -9.781  -0.449  0.00  0.00    -0.056 C 
ATOM     61  H   LIG d   1       9.703  -9.065  -1.256  0.00  0.00     0.024 H 
ATOM     62  H   LIG d   1       8.712  -9.453   0.170  0.00  0.00     0.024 H 
ATOM     63  H   LIG d   1      10.447  -9.846   0.160  0.00  0.00     0.024 H 
ENDBRANCH  51  60
ENDBRANCH   5  51
TORSDOF 10
ENDMDL
MODEL 4
REMARK VINA RESULT:      -5.7      6.879      9.706
REMARK  10 active torsions:
REMARK  status: ('A' for Active; 'I' for Inactive)
REMARK    1  A    between atoms: C_1  and  C_2 
REMARK    2  A    between atoms: C_6  and  C_29 
REMARK    3  A    between atoms: C_10  and  C_28 
REMARK    4  A    between atoms: C_15  and  C_16 
REMARK    5  A    between atoms: C_16  and  C_17 
REMARK    6  A    between atoms: C_17  and  C_18 
REMARK       I    between atoms: C_18  and  N_20 
REMARK    7  A    between atoms: C_23  and  C_26 
REMARK    8  A    between atoms: C_29  and  C_30 
REMARK    9  A    between atoms: C_29  and  C_31 
REMARK   10  A    between atoms: C_29  and  C_32 
ROOT
ATOM      1  C   LIG d   1      10.298   5.344  -3.724  0.00  0.00    -0.030 A 
ATOM      2  C   LIG d   1      10.049   6.697  -4.230  0.00  0.00     0.022 A 
ATOM      3  C   LIG d   1      10.154   7.804  -3.389  0.00  0.00    -0.040 A 
ATOM      4  C   LIG d   1       9.911   9.072  -3.899  0.00  0.00     0.025 A 
ATOM      5  C   LIG d   1       9.928  10.425  -3.326  0.00  0.00     0.004 A 
ATOM      6  C   LIG d   1       9.604  11.256  -4.324  0.00  0.00     0.097 A 
ATOM      7  O   LIG d   1       9.388  10.564  -5.457  0.00  0.00    -0.462 OA
ATOM      8  C   LIG d   1       9.561   9.242  -5.254  0.00  0.00     0.141 A 
ATOM      9  C   LIG d   1       9.457   8.136  -6.085  0.00  0.00     0.035 A 
ATOM     10  C   LIG d   1       9.698   6.868  -5.586  0.00  0.00     0.146 A 
ATOM     11  O   LIG d   1       9.598   5.786  -6.392  0.00  0.00    -0.422 OA
ATOM     12  C   LIG d   1       9.825   4.546  -5.933  0.00  0.00     0.341 A 
ATOM     13  O   LIG d   1       9.722   3.603  -6.697  0.00  0.00    -0.245 OA
ATOM     14  C   LIG d   1      10.180   4.304  -4.589  0.00  0.00     0.041 A 
ATOM     15  H   LIG d   1      10.423   7.677  -2.350  0.00  0.00     0.063 H 
ATOM     16  H   LIG d   1       9.527  12.330  -4.233  0.00  0.00     0.103 H 
ENDROOT
BRANCH  14  17
ATOM     17  C   LIG d   1      10.419   2.895  -4.113  0.00  0.00    -0.012 C 
ATOM     18  H   LIG d   1      10.788   2.289  -4.941  0.00  0.00     0.032 H 
ATOM     19  H   LIG d   1      11.158   2.902  -3.312  0.00  0.00     0.032 H 
BRANCH  17  20
ATOM     20  C   LIG d   1       9.108   2.303  -3.592  0.00  0.00     0.028 C 
ATOM     21  H   LIG d   1       9.238   1.987  -2.558  0.00  0.00     0.036 H 
ATOM     22  H   LIG d   1       8.323   3.056  -3.647  0.00  0.00     0.036 H 
BRANCH  20  23
ATOM     23  C   LIG d   1       8.724   1.115  -4.436  0.00  0.00     0.216 C 
ATOM     24  O   LIG d   1       9.560   0.555  -5.113  0.00  0.00    -0.276 OA
ATOM     25  N   LIG d   1       7.450   0.674  -4.439  0.00  0.00    -0.301 N 
ATOM     26  C   LIG d   1       7.060  -0.483  -5.256  0.00  0.00     0.015 C 
ATOM     27  C   LIG d   1       6.427   1.337  -3.620  0.00  0.00     0.015 C 
ATOM     28  C   LIG d   1       6.365  -1.510  -4.356  0.00  0.00    -0.029 C 
ATOM     29  H   LIG d   1       6.375  -0.162  -6.040  0.00  0.00     0.046 H 
ATOM     30  H   LIG d   1       7.948  -0.931  -5.703  0.00  0.00     0.046 H 
ATOM     31  C   LIG d   1       5.201  -0.837  -3.624  0.00  0.00     0.001 C 
ATOM     32  H   LIG d   1       5.985  -2.330  -4.966  0.00  0.00     0.029 H 
ATOM     33  H   LIG d   1       7.077  -1.897  -3.628  0.00  0.00     0.029 H 
ATOM     34  C   LIG d   1       5.738   0.293  -2.742  0.00  0.00    -0.029 C 
ATOM     35  H   LIG d   1       4.502  -0.428  -4.353  0.00  0.00     0.036 H 
ATOM     36  H   LIG d   1       4.912   0.757  -2.203  0.00  0.00     0.029 H 
ATOM     37  H   LIG d   1       6.456  -0.112  -2.029  0.00  0.00     0.029 H 
ATOM     38  H   LIG d   1       6.896   2.091  -2.987  0.00  0.00     0.046 H 
ATOM     39  H   LIG d   1       5.689   1.810  -4.268  0.00  0.00     0.046 H 
BRANCH  31  40
ATOM     40  C   LIG d   1       4.494  -1.852  -2.764  0.00  0.00     0.045 C 
ATOM     41  O   LIG d   1       4.313  -1.627  -1.590  0.00  0.00    -0.549 OA
ATOM     42  O   LIG d   1       4.066  -3.006  -3.299  0.00  0.00    -0.549 OA
ENDBRANCH  31  40
ENDBRANCH  20  23
ENDBRANCH  17  20
ENDBRANCH  14  17
BRANCH   1  43
ATOM     43  C   LIG d   1      10.676   5.114  -2.284  0.00  0.00    -0.039 C 
ATOM     44  H   LIG d   1      10.266   4.162  -1.948  0.00  0.00     0.028 H 
ATOM     45  H   LIG d   1      11.762   5.094  -2.193  0.00  0.00     0.028 H 
ATOM     46  H   LIG d   1      10.274   5.920  -1.671  0.00  0.00     0.028 H 
ENDBRANCH   1  43
BRANCH   9  47
ATOM     47  C   LIG d   1       9.083   8.316  -7.534  0.00  0.00    -0.033 C 
ATOM     48  H   LIG d   1       8.271   7.634  -7.786  0.00  0.00     0.028 H 
ATOM     49  H   LIG d   1       8.760   9.343  -7.700  0.00  0.00     0.028 H 
ATOM     50  H   LIG d   1       9.946   8.100  -8.161  0.00  0.00     0.028 H 
ENDBRANCH   9  47
BRANCH   5  51
ATOM     51  C   LIG d   1      10.245  10.801  -1.902  0.00  0.00    -0.009 C 
BRANCH  51  52
ATOM     52  C   LIG d   1      11.671  10.359  -1.563  0.00  0.00    -0.056 C 
ATOM     53  H   LIG d   1      11.832   9.344  -1.925  0.00  0.00     0.024 H 
ATOM     54  H   LIG d   1      12.383  11.033  -2.040  0.00  0.00     0.024 H 
ATOM     55  H   LIG d   1      11.813  10.386  -0.482  0.00  0.00     0.024 H 
ENDBRANCH  51  52
BRANCH  51  56
ATOM     56  C   LIG d   1      10.129  12.317  -1.736  0.00  0.00    -0.056 C 
ATOM     57  H   LIG d   1      11.069  12.787  -2.026  0.00  0.00     0.024 H 
ATOM     58  H   LIG d   1       9.325  12.692  -2.370  0.00  0.00     0.024 H 
ATOM     59  H   LIG d   1       9.911  12.553  -0.694  0.00  0.00     0.024 H 
ENDBRANCH  51  56
BRANCH  51  60
ATOM     60  C   LIG d   1       9.259  10.108  -0.959  0.00  0.00    -0.056 C 
ATOM     61  H   LIG d   1       9.459  10.418   0.067  0.00  0.00     0.024 H 
ATOM     62  H   LIG d   1       8.241  10.386  -1.230  0.00  0.00     0.024 H 
ATOM     63  H   LIG d   1       9.375   9.028  -1.042  0.00  0.00     0.024 H 
ENDBRANCH  51  60
ENDBRANCH   5  51
TORSDOF 10
ENDMDL
MODEL 5
REMARK VINA RESULT:      -5.7      2.157      2.705
REMARK  10 active torsions:
REMARK  status: ('A' for Active; 'I' for Inactive)
REMARK    1  A    between atoms: C_1  and  C_2 
REMARK    2  A    between atoms: C_6  and  C_29 
REMARK    3  A    between atoms: C_10  and  C_28 
REMARK    4  A    between atoms: C_15  and  C_16 
REMARK    5  A    between atoms: C_16  and  C_17 
REMARK    6  A    between atoms: C_17  and  C_18 
REMARK       I    between atoms: C_18  and  N_20 
REMARK    7  A    between atoms: C_23  and  C_26 
REMARK    8  A    between atoms: C_29  and  C_30 
REMARK    9  A    between atoms: C_29  and  C_31 
REMARK   10  A    between atoms: C_29  and  C_32 
ROOT
ATOM      1  C   LIG d   1       5.947  -5.022  -5.710  0.00  0.00    -0.030 A 
ATOM      2  C   LIG d   1       6.484  -3.716  -5.317  0.00  0.00     0.022 A 
ATOM      3  C   LIG d   1       5.734  -2.843  -4.530  0.00  0.00    -0.040 A 
ATOM      4  C   LIG d   1       6.271  -1.613  -4.176  0.00  0.00     0.025 A 
ATOM      5  C   LIG d   1       5.786  -0.475  -3.384  0.00  0.00     0.004 A 
ATOM      6  C   LIG d   1       6.766   0.436  -3.399  0.00  0.00     0.097 A 
ATOM      7  O   LIG d   1       7.811  -0.016  -4.117  0.00  0.00    -0.462 OA
ATOM      8  C   LIG d   1       7.562  -1.247  -4.608  0.00  0.00     0.141 A 
ATOM      9  C   LIG d   1       8.303  -2.120  -5.391  0.00  0.00     0.035 A 
ATOM     10  C   LIG d   1       7.777  -3.349  -5.748  0.00  0.00     0.146 A 
ATOM     11  O   LIG d   1       8.494  -4.204  -6.512  0.00  0.00    -0.422 OA
ATOM     12  C   LIG d   1       8.007  -5.400  -6.874  0.00  0.00     0.341 A 
ATOM     13  O   LIG d   1       8.691  -6.136  -7.563  0.00  0.00    -0.245 OA
ATOM     14  C   LIG d   1       6.722  -5.830  -6.477  0.00  0.00     0.041 A 
ATOM     15  H   LIG d   1       4.743  -3.121  -4.199  0.00  0.00     0.063 H 
ATOM     16  H   LIG d   1       6.726   1.395  -2.906  0.00  0.00     0.103 H 
ENDROOT
BRANCH  14  17
ATOM     17  C   LIG d   1       6.210  -7.179  -6.911  0.00  0.00    -0.012 C 
ATOM     18  H   LIG d   1       6.978  -7.933  -6.736  0.00  0.00     0.032 H 
ATOM     19  H   LIG d   1       5.318  -7.431  -6.339  0.00  0.00     0.032 H 
BRANCH  17  20
ATOM     20  C   LIG d   1       5.866  -7.139  -8.401  0.00  0.00     0.028 C 
ATOM     21  H   LIG d   1       6.651  -6.610  -8.941  0.00  0.00     0.036 H 
ATOM     22  H   LIG d   1       5.784  -8.157  -8.782  0.00  0.00     0.036 H 
BRANCH  20  23
ATOM     23  C   LIG d   1       4.554  -6.424  -8.594  0.00  0.00     0.216 C 
ATOM     24  O   LIG d   1       3.519  -6.947  -8.238  0.00  0.00    -0.276 OA
ATOM     25  N   LIG d   1       4.529  -5.202  -9.164  0.00  0.00    -0.301 N 
ATOM     26  C   LIG d   1       3.258  -4.492  -9.359  0.00  0.00     0.015 C 
ATOM     27  C   LIG d   1       5.774  -4.553  -9.596  0.00  0.00     0.015 C 
ATOM     28  C   LIG d   1       3.368  -3.101  -8.726  0.00  0.00    -0.029 C 
ATOM     29  H   LIG d   1       3.054  -4.393 -10.425  0.00  0.00     0.046 H 
ATOM     30  H   LIG d   1       2.451  -5.049  -8.880  0.00  0.00     0.046 H 
ATOM     31  C   LIG d   1       4.586  -2.377  -9.303  0.00  0.00     0.001 C 
ATOM     32  H   LIG d   1       2.466  -2.529  -8.946  0.00  0.00     0.029 H 
ATOM     33  H   LIG d   1       3.481  -3.201  -7.646  0.00  0.00     0.029 H 
ATOM     34  C   LIG d   1       5.855  -3.163  -8.965  0.00  0.00    -0.029 C 
ATOM     35  H   LIG d   1       4.485  -2.301 -10.385  0.00  0.00     0.036 H 
ATOM     36  H   LIG d   1       6.725  -2.635  -9.356  0.00  0.00     0.029 H 
ATOM     37  H   LIG d   1       5.945  -3.261  -7.883  0.00  0.00     0.029 H 
ATOM     38  H   LIG d   1       6.628  -5.149  -9.274  0.00  0.00     0.046 H 
ATOM     39  H   LIG d   1       5.780  -4.459 -10.681  0.00  0.00     0.046 H 
BRANCH  31  40
ATOM     40  C   LIG d   1       4.679  -0.996  -8.708  0.00  0.00     0.045 C 
ATOM     41  O   LIG d   1       4.060  -0.083  -9.202  0.00  0.00    -0.549 OA
ATOM     42  O   LIG d   1       5.449  -0.779  -7.630  0.00  0.00    -0.549 OA
ENDBRANCH  31  40
ENDBRANCH  20  23
ENDBRANCH  17  20
ENDBRANCH  14  17
BRANCH   1  43
ATOM     43  C   LIG d   1       4.572  -5.457  -5.272  0.00  0.00    -0.039 C 
ATOM     44  H   LIG d   1       4.390  -5.115  -4.254  0.00  0.00     0.028 H 
ATOM     45  H   LIG d   1       3.826  -5.026  -5.940  0.00  0.00     0.028 H 
ATOM     46  H   LIG d   1       4.508  -6.544  -5.307  0.00  0.00     0.028 H 
ENDBRANCH   1  43
BRANCH   9  47
ATOM     47  C   LIG d   1       9.684  -1.731  -5.852  0.00  0.00    -0.033 C 
ATOM     48  H   LIG d   1      10.274  -1.405  -4.995  0.00  0.00     0.028 H 
ATOM     49  H   LIG d   1      10.166  -2.589  -6.320  0.00  0.00     0.028 H 
ATOM     50  H   LIG d   1       9.611  -0.918  -6.573  0.00  0.00     0.028 H 
ENDBRANCH   9  47
BRANCH   5  51
ATOM     51  C   LIG d   1       4.451  -0.357  -2.693  0.00  0.00    -0.009 C 
BRANCH  51  52
ATOM     52  C   LIG d   1       4.468   0.853  -1.756  0.00  0.00    -0.056 C 
ATOM     53  H   LIG d   1       4.941   1.696  -2.259  0.00  0.00     0.024 H 
ATOM     54  H   LIG d   1       3.445   1.118  -1.486  0.00  0.00     0.024 H 
ATOM     55  H   LIG d   1       5.029   0.606  -0.854  0.00  0.00     0.024 H 
ENDBRANCH  51  52
BRANCH  51  56
ATOM     56  C   LIG d   1       3.350  -0.176  -3.739  0.00  0.00    -0.056 C 
ATOM     57  H   LIG d   1       3.778  -0.268  -4.737  0.00  0.00     0.024 H 
ATOM     58  H   LIG d   1       2.586  -0.942  -3.598  0.00  0.00     0.024 H 
ATOM     59  H   LIG d   1       2.900   0.810  -3.626  0.00  0.00     0.024 H 
ENDBRANCH  51  56
BRANCH  51  60
ATOM     60  C   LIG d   1       4.182  -1.626  -1.883  0.00  0.00    -0.056 C 
ATOM     61  H   LIG d   1       4.769  -2.450  -2.292  0.00  0.00     0.024 H 
ATOM     62  H   LIG d   1       4.464  -1.461  -0.843  0.00  0.00     0.024 H 
ATOM     63  H   LIG d   1       3.122  -1.873  -1.936  0.00  0.00     0.024 H 
ENDBRANCH  51  60
ENDBRANCH   5  51
TORSDOF 10
ENDMDL
MODEL 6
REMARK VINA RESULT:      -5.7      2.301      4.694
REMARK  10 active torsions:
REMARK  status: ('A' for Active; 'I' for Inactive)
REMARK    1  A    between atoms: C_1  and  C_2 
REMARK    2  A    between atoms: C_6  and  C_29 
REMARK    3  A    between atoms: C_10  and  C_28 
REMARK    4  A    between atoms: C_15  and  C_16 
REMARK    5  A    between atoms: C_16  and  C_17 
REMARK    6  A    between atoms: C_17  and  C_18 
REMARK       I    between atoms: C_18  and  N_20 
REMARK    7  A    between atoms: C_23  and  C_26 
REMARK    8  A    between atoms: C_29  and  C_30 
REMARK    9  A    between atoms: C_29  and  C_31 
REMARK   10  A    between atoms: C_29  and  C_32 
ROOT
ATOM      1  C   LIG d   1       7.246  -1.118  -7.794  0.00  0.00    -0.030 A 
ATOM      2  C   LIG d   1       5.936  -0.768  -7.236  0.00  0.00     0.022 A 
ATOM      3  C   LIG d   1       5.757  -0.644  -5.858  0.00  0.00    -0.040 A 
ATOM      4  C   LIG d   1       4.504  -0.312  -5.362  0.00  0.00     0.025 A 
ATOM      5  C   LIG d   1       3.961  -0.101  -4.014  0.00  0.00     0.004 A 
ATOM      6  C   LIG d   1       2.667   0.201  -4.175  0.00  0.00     0.097 A 
ATOM      7  O   LIG d   1       2.348   0.201  -5.482  0.00  0.00    -0.462 OA
ATOM      8  C   LIG d   1       3.421  -0.102  -6.241  0.00  0.00     0.141 A 
ATOM      9  C   LIG d   1       3.606  -0.228  -7.610  0.00  0.00     0.035 A 
ATOM     10  C   LIG d   1       4.852  -0.557  -8.114  0.00  0.00     0.146 A 
ATOM     11  O   LIG d   1       5.038  -0.682  -9.448  0.00  0.00    -0.422 OA
ATOM     12  C   LIG d   1       6.235  -1.002  -9.962  0.00  0.00     0.341 A 
ATOM     13  O   LIG d   1       6.353  -1.102 -11.171  0.00  0.00    -0.245 OA
ATOM     14  C   LIG d   1       7.361  -1.225  -9.142  0.00  0.00     0.041 A 
ATOM     15  H   LIG d   1       6.585  -0.805  -5.183  0.00  0.00     0.063 H 
ATOM     16  H   LIG d   1       1.978   0.414  -3.372  0.00  0.00     0.103 H 
ENDROOT
BRANCH  14  17
ATOM     17  C   LIG d   1       8.686  -1.589  -9.760  0.00  0.00    -0.012 C 
ATOM     18  H   LIG d   1       8.870  -0.953 -10.626  0.00  0.00     0.032 H 
ATOM     19  H   LIG d   1       9.480  -1.447  -9.029  0.00  0.00     0.032 H 
BRANCH  17  20
ATOM     20  C   LIG d   1       8.656  -3.054 -10.203  0.00  0.00     0.028 C 
ATOM     21  H   LIG d   1       7.694  -3.275 -10.663  0.00  0.00     0.036 H 
ATOM     22  H   LIG d   1       9.454  -3.231 -10.924  0.00  0.00     0.036 H 
BRANCH  20  23
ATOM     23  C   LIG d   1       8.858  -3.945  -9.004  0.00  0.00     0.216 C 
ATOM     24  O   LIG d   1       9.943  -4.003  -8.466  0.00  0.00    -0.276 OA
ATOM     25  N   LIG d   1       7.831  -4.678  -8.529  0.00  0.00    -0.301 N 
ATOM     26  C   LIG d   1       8.011  -5.551  -7.361  0.00  0.00     0.015 C 
ATOM     27  C   LIG d   1       6.509  -4.614  -9.165  0.00  0.00     0.015 C 
ATOM     28  C   LIG d   1       6.946  -5.203  -6.317  0.00  0.00    -0.029 C 
ATOM     29  H   LIG d   1       7.901  -6.592  -7.663  0.00  0.00     0.046 H 
ATOM     30  H   LIG d   1       9.003  -5.393  -6.937  0.00  0.00     0.046 H 
ATOM     31  C   LIG d   1       5.559  -5.292  -6.959  0.00  0.00     0.001 C 
ATOM     32  H   LIG d   1       7.008  -5.907  -5.486  0.00  0.00     0.029 H 
ATOM     33  H   LIG d   1       7.112  -4.191  -5.949  0.00  0.00     0.029 H 
ATOM     34  C   LIG d   1       5.461  -4.281  -8.104  0.00  0.00    -0.029 C 
ATOM     35  H   LIG d   1       5.403  -6.298  -7.348  0.00  0.00     0.036 H 
ATOM     36  H   LIG d   1       4.465  -4.328  -8.546  0.00  0.00     0.029 H 
ATOM     37  H   LIG d   1       5.641  -3.277  -7.719  0.00  0.00     0.029 H 
ATOM     38  H   LIG d   1       6.508  -3.839  -9.932  0.00  0.00     0.046 H 
ATOM     39  H   LIG d   1       6.274  -5.578  -9.617  0.00  0.00     0.046 H 
BRANCH  31  40
ATOM     40  C   LIG d   1       4.506  -4.984  -5.926  0.00  0.00     0.045 C 
ATOM     41  O   LIG d   1       4.794  -4.342  -4.944  0.00  0.00    -0.549 OA
ATOM     42  O   LIG d   1       3.249  -5.423  -6.097  0.00  0.00    -0.549 OA
ENDBRANCH  31  40
ENDBRANCH  20  23
ENDBRANCH  17  20
ENDBRANCH  14  17
BRANCH   1  43
ATOM     43  C   LIG d   1       8.433  -1.351  -6.894  0.00  0.00    -0.039 C 
ATOM     44  H   LIG d   1       9.351  -1.242  -7.470  0.00  0.00     0.028 H 
ATOM     45  H   LIG d   1       8.422  -0.621  -6.084  0.00  0.00     0.028 H 
ATOM     46  H   LIG d   1       8.381  -2.357  -6.479  0.00  0.00     0.028 H 
ENDBRANCH   1  43
BRANCH   9  47
ATOM     47  C   LIG d   1       2.450  -0.003  -8.549  0.00  0.00    -0.033 C 
ATOM     48  H   LIG d   1       1.658  -0.720  -8.328  0.00  0.00     0.028 H 
ATOM     49  H   LIG d   1       2.069   1.010  -8.420  0.00  0.00     0.028 H 
ATOM     50  H   LIG d   1       2.785  -0.137  -9.577  0.00  0.00     0.028 H 
ENDBRANCH   9  47
BRANCH   5  51
ATOM     51  C   LIG d   1       4.710  -0.206  -2.710  0.00  0.00    -0.009 C 
BRANCH  51  52
ATOM     52  C   LIG d   1       4.300   0.947  -1.792  0.00  0.00    -0.056 C 
ATOM     53  H   LIG d   1       4.054   1.822  -2.394  0.00  0.00     0.024 H 
ATOM     54  H   LIG d   1       3.428   0.653  -1.206  0.00  0.00     0.024 H 
ATOM     55  H   LIG d   1       5.124   1.189  -1.120  0.00  0.00     0.024 H 
ENDBRANCH  51  52
BRANCH  51  56
ATOM     56  C   LIG d   1       4.377  -1.537  -2.035  0.00  0.00    -0.056 C 
ATOM     57  H   LIG d   1       3.510  -1.409  -1.386  0.00  0.00     0.024 H 
ATOM     58  H   LIG d   1       4.153  -2.285  -2.797  0.00  0.00     0.024 H 
ATOM     59  H   LIG d   1       5.229  -1.867  -1.442  0.00  0.00     0.024 H 
ENDBRANCH  51  56
BRANCH  51  60
ATOM     60  C   LIG d   1       6.215  -0.133  -2.979  0.00  0.00    -0.056 C 
ATOM     61  H   LIG d   1       6.408   0.599  -3.763  0.00  0.00     0.024 H 
ATOM     62  H   LIG d   1       6.733   0.165  -2.068  0.00  0.00     0.024 H 
ATOM     63  H   LIG d   1       6.574  -1.112  -3.298  0.00  0.00     0.024 H 
ENDBRANCH  51  60
ENDBRANCH   5  51
TORSDOF 10
ENDMDL
MODEL 7
REMARK VINA RESULT:      -5.6      3.361      5.699
REMARK  10 active torsions:
REMARK  status: ('A' for Active; 'I' for Inactive)
REMARK    1  A    between atoms: C_1  and  C_2 
REMARK    2  A    between atoms: C_6  and  C_29 
REMARK    3  A    between atoms: C_10  and  C_28 
REMARK    4  A    between atoms: C_15  and  C_16 
REMARK    5  A    between atoms: C_16  and  C_17 
REMARK    6  A    between atoms: C_17  and  C_18 
REMARK       I    between atoms: C_18  and  N_20 
REMARK    7  A    between atoms: C_23  and  C_26 
REMARK    8  A    between atoms: C_29  and  C_30 
REMARK    9  A    between atoms: C_29  and  C_31 
REMARK   10  A    between atoms: C_29  and  C_32 
ROOT
ATOM      1  C   LIG d   1       5.692  -3.239  -7.907  0.00  0.00    -0.030 A 
ATOM      2  C   LIG d   1       4.895  -2.149  -7.335  0.00  0.00     0.022 A 
ATOM      3  C   LIG d   1       4.907  -1.900  -5.963  0.00  0.00    -0.040 A 
ATOM      4  C   LIG d   1       4.141  -0.861  -5.453  0.00  0.00     0.025 A 
ATOM      5  C   LIG d   1       3.915  -0.323  -4.105  0.00  0.00     0.004 A 
ATOM      6  C   LIG d   1       3.061   0.697  -4.248  0.00  0.00     0.097 A 
ATOM      7  O   LIG d   1       2.732   0.851  -5.544  0.00  0.00    -0.462 OA
ATOM      8  C   LIG d   1       3.357  -0.064  -6.312  0.00  0.00     0.141 A 
ATOM      9  C   LIG d   1       3.349  -0.318  -7.676  0.00  0.00     0.035 A 
ATOM     10  C   LIG d   1       4.110  -1.351  -8.194  0.00  0.00     0.146 A 
ATOM     11  O   LIG d   1       4.105  -1.604  -9.523  0.00  0.00    -0.422 OA
ATOM     12  C   LIG d   1       4.833  -2.600 -10.050  0.00  0.00     0.341 A 
ATOM     13  O   LIG d   1       4.796  -2.788 -11.253  0.00  0.00    -0.245 OA
ATOM     14  C   LIG d   1       5.640  -3.435  -9.249  0.00  0.00     0.041 A 
ATOM     15  H   LIG d   1       5.508  -2.510  -5.303  0.00  0.00     0.063 H 
ATOM     16  H   LIG d   1       2.689   1.309  -3.440  0.00  0.00     0.103 H 
ENDROOT
BRANCH  14  17
ATOM     17  C   LIG d   1       6.436  -4.547  -9.881  0.00  0.00    -0.012 C 
ATOM     18  H   LIG d   1       6.855  -4.202 -10.826  0.00  0.00     0.032 H 
ATOM     19  H   LIG d   1       7.244  -4.842  -9.212  0.00  0.00     0.032 H 
BRANCH  17  20
ATOM     20  C   LIG d   1       5.523  -5.748 -10.137  0.00  0.00     0.028 C 
ATOM     21  H   LIG d   1       4.608  -5.638  -9.555  0.00  0.00     0.036 H 
ATOM     22  H   LIG d   1       5.275  -5.796 -11.197  0.00  0.00     0.036 H 
BRANCH  20  23
ATOM     23  C   LIG d   1       6.230  -7.014  -9.728  0.00  0.00     0.216 C 
ATOM     24  O   LIG d   1       7.328  -7.268 -10.177  0.00  0.00    -0.276 OA
ATOM     25  N   LIG d   1       5.643  -7.865  -8.862  0.00  0.00    -0.301 N 
ATOM     26  C   LIG d   1       6.321  -9.103  -8.454  0.00  0.00     0.015 C 
ATOM     27  C   LIG d   1       4.318  -7.568  -8.305  0.00  0.00     0.015 C 
ATOM     28  C   LIG d   1       6.375  -9.153  -6.924  0.00  0.00    -0.029 C 
ATOM     29  H   LIG d   1       5.767  -9.963  -8.829  0.00  0.00     0.046 H 
ATOM     30  H   LIG d   1       7.334  -9.114  -8.856  0.00  0.00     0.046 H 
ATOM     31  C   LIG d   1       4.960  -8.996  -6.361  0.00  0.00     0.001 C 
ATOM     32  H   LIG d   1       6.789 -10.111  -6.606  0.00  0.00     0.029 H 
ATOM     33  H   LIG d   1       7.005  -8.344  -6.555  0.00  0.00     0.029 H 
ATOM     34  C   LIG d   1       4.392  -7.639  -6.780  0.00  0.00    -0.029 C 
ATOM     35  H   LIG d   1       4.325  -9.792  -6.751  0.00  0.00     0.036 H 
ATOM     36  H   LIG d   1       3.393  -7.517  -6.360  0.00  0.00     0.029 H 
ATOM     37  H   LIG d   1       5.040  -6.844  -6.412  0.00  0.00     0.029 H 
ATOM     38  H   LIG d   1       4.008  -6.568  -8.608  0.00  0.00     0.046 H 
ATOM     39  H   LIG d   1       3.597  -8.301  -8.667  0.00  0.00     0.046 H 
BRANCH  31  40
ATOM     40  C   LIG d   1       5.004  -9.080  -4.858  0.00  0.00     0.045 C 
ATOM     41  O   LIG d   1       3.976  -9.135  -4.226  0.00  0.00    -0.549 OA
ATOM     42  O   LIG d   1       6.185  -9.091  -4.220  0.00  0.00    -0.549 OA
ENDBRANCH  31  40
ENDBRANCH  20  23
ENDBRANCH  17  20
ENDBRANCH  14  17
BRANCH   1  43
ATOM     43  C   LIG d   1       6.546  -4.116  -7.028  0.00  0.00    -0.039 C 
ATOM     44  H   LIG d   1       6.792  -3.583  -6.111  0.00  0.00     0.028 H 
ATOM     45  H   LIG d   1       5.999  -5.027  -6.784  0.00  0.00     0.028 H 
ATOM     46  H   LIG d   1       7.464  -4.374  -7.556  0.00  0.00     0.028 H 
ENDBRANCH   1  43
BRANCH   9  47
ATOM     47  C   LIG d   1       2.511   0.533  -8.595  0.00  0.00    -0.033 C 
ATOM     48  H   LIG d   1       1.841  -0.106  -9.171  0.00  0.00     0.028 H 
ATOM     49  H   LIG d   1       1.925   1.236  -8.004  0.00  0.00     0.028 H 
ATOM     50  H   LIG d   1       3.161   1.083  -9.274  0.00  0.00     0.028 H 
ENDBRANCH   9  47
BRANCH   5  51
ATOM     51  C   LIG d   1       4.523  -0.821  -2.819  0.00  0.00    -0.009 C 
BRANCH  51  52
ATOM     52  C   LIG d   1       6.004  -1.134  -3.042  0.00  0.00    -0.056 C 
ATOM     53  H   LIG d   1       6.098  -2.003  -3.692  0.00  0.00     0.024 H 
ATOM     54  H   LIG d   1       6.490  -0.276  -3.509  0.00  0.00     0.024 H 
ATOM     55  H   LIG d   1       6.480  -1.343  -2.083  0.00  0.00     0.024 H 
ENDBRANCH  51  52
BRANCH  51  56
ATOM     56  C   LIG d   1       4.387   0.255  -1.740  0.00  0.00    -0.056 C 
ATOM     57  H   LIG d   1       4.037  -0.201  -0.814  0.00  0.00     0.024 H 
ATOM     58  H   LIG d   1       5.356   0.725  -1.570  0.00  0.00     0.024 H 
ATOM     59  H   LIG d   1       3.670   1.009  -2.067  0.00  0.00     0.024 H 
ENDBRANCH  51  56
BRANCH  51  60
ATOM     60  C   LIG d   1       3.796  -2.089  -2.368  0.00  0.00    -0.056 C 
ATOM     61  H   LIG d   1       3.648  -2.059  -1.288  0.00  0.00     0.024 H 
ATOM     62  H   LIG d   1       2.828  -2.150  -2.865  0.00  0.00     0.024 H 
ATOM     63  H   LIG d   1       4.394  -2.963  -2.628  0.00  0.00     0.024 H 
ENDBRANCH  51  60
ENDBRANCH   5  51
TORSDOF 10
ENDMDL
MODEL 8
REMARK VINA RESULT:      -5.5      5.311      8.855
REMARK  10 active torsions:
REMARK  status: ('A' for Active; 'I' for Inactive)
REMARK    1  A    between atoms: C_1  and  C_2 
REMARK    2  A    between atoms: C_6  and  C_29 
REMARK    3  A    between atoms: C_10  and  C_28 
REMARK    4  A    between atoms: C_15  and  C_16 
REMARK    5  A    between atoms: C_16  and  C_17 
REMARK    6  A    between atoms: C_17  and  C_18 
REMARK       I    between atoms: C_18  and  N_20 
REMARK    7  A    between atoms: C_23  and  C_26 
REMARK    8  A    between atoms: C_29  and  C_30 
REMARK    9  A    between atoms: C_29  and  C_31 
REMARK   10  A    between atoms: C_29  and  C_32 
ROOT
ATOM      1  C   LIG d   1       9.000   1.653  -4.617  0.00  0.00    -0.030 A 
ATOM      2  C   LIG d   1       8.196   0.430  -4.528  0.00  0.00     0.022 A 
ATOM      3  C   LIG d   1       6.874   0.476  -4.086  0.00  0.00    -0.040 A 
ATOM      4  C   LIG d   1       6.140  -0.699  -4.013  0.00  0.00     0.025 A 
ATOM      5  C   LIG d   1       4.765  -1.023  -3.608  0.00  0.00     0.004 A 
ATOM      6  C   LIG d   1       4.635  -2.347  -3.753  0.00  0.00     0.097 A 
ATOM      7  O   LIG d   1       5.783  -2.882  -4.208  0.00  0.00    -0.462 OA
ATOM      8  C   LIG d   1       6.723  -1.930  -4.381  0.00  0.00     0.141 A 
ATOM      9  C   LIG d   1       8.038  -1.968  -4.819  0.00  0.00     0.035 A 
ATOM     10  C   LIG d   1       8.778  -0.801  -4.896  0.00  0.00     0.146 A 
ATOM     11  O   LIG d   1      10.062  -0.833  -5.322  0.00  0.00    -0.422 OA
ATOM     12  C   LIG d   1      10.801   0.283  -5.404  0.00  0.00     0.341 A 
ATOM     13  O   LIG d   1      11.953   0.204  -5.794  0.00  0.00    -0.245 OA
ATOM     14  C   LIG d   1      10.281   1.547  -5.053  0.00  0.00     0.041 A 
ATOM     15  H   LIG d   1       6.425   1.418  -3.804  0.00  0.00     0.063 H 
ATOM     16  H   LIG d   1       3.737  -2.907  -3.538  0.00  0.00     0.103 H 
ENDROOT
BRANCH  14  17
ATOM     17  C   LIG d   1      11.148   2.775  -5.154  0.00  0.00    -0.012 C 
ATOM     18  H   LIG d   1      11.886   2.635  -5.945  0.00  0.00     0.032 H 
ATOM     19  H   LIG d   1      10.528   3.641  -5.385  0.00  0.00     0.032 H 
BRANCH  17  20
ATOM     20  C   LIG d   1      11.867   3.004  -3.823  0.00  0.00     0.028 C 
ATOM     21  H   LIG d   1      11.162   2.872  -3.003  0.00  0.00     0.036 H 
ATOM     22  H   LIG d   1      12.681   2.286  -3.722  0.00  0.00     0.036 H 
BRANCH  20  23
ATOM     23  C   LIG d   1      12.424   4.403  -3.786  0.00  0.00     0.216 C 
ATOM     24  O   LIG d   1      13.163   4.785  -4.669  0.00  0.00    -0.276 OA
ATOM     25  N   LIG d   1      12.102   5.231  -2.772  0.00  0.00    -0.301 N 
ATOM     26  C   LIG d   1      12.637   6.598  -2.723  0.00  0.00     0.015 C 
ATOM     27  C   LIG d   1      11.204   4.785  -1.699  0.00  0.00     0.015 C 
ATOM     28  C   LIG d   1      11.470   7.579  -2.578  0.00  0.00    -0.029 C 
ATOM     29  H   LIG d   1      13.307   6.698  -1.869  0.00  0.00     0.046 H 
ATOM     30  H   LIG d   1      13.181   6.811  -3.644  0.00  0.00     0.046 H 
ATOM     31  C   LIG d   1      10.629   7.190  -1.360  0.00  0.00     0.001 C 
ATOM     32  H   LIG d   1      11.858   8.590  -2.444  0.00  0.00     0.029 H 
ATOM     33  H   LIG d   1      10.850   7.544  -3.474  0.00  0.00     0.029 H 
ATOM     34  C   LIG d   1      10.057   5.785  -1.562  0.00  0.00    -0.029 C 
ATOM     35  H   LIG d   1      11.255   7.201  -0.467  0.00  0.00     0.036 H 
ATOM     36  H   LIG d   1       9.439   5.517  -0.705  0.00  0.00     0.029 H 
ATOM     37  H   LIG d   1       9.450   5.766  -2.467  0.00  0.00     0.029 H 
ATOM     38  H   LIG d   1      10.802   3.801  -1.943  0.00  0.00     0.046 H 
ATOM     39  H   LIG d   1      11.755   4.734  -0.759  0.00  0.00     0.046 H 
BRANCH  31  40
ATOM     40  C   LIG d   1       9.499   8.173  -1.193  0.00  0.00     0.045 C 
ATOM     41  O   LIG d   1       8.418   7.790  -0.812  0.00  0.00    -0.549 OA
ATOM     42  O   LIG d   1       9.692   9.472  -1.468  0.00  0.00    -0.549 OA
ENDBRANCH  31  40
ENDBRANCH  20  23
ENDBRANCH  17  20
ENDBRANCH  14  17
BRANCH   1  43
ATOM     43  C   LIG d   1       8.420   2.990  -4.236  0.00  0.00    -0.039 C 
ATOM     44  H   LIG d   1       8.136   3.533  -5.136  0.00  0.00     0.028 H 
ATOM     45  H   LIG d   1       7.540   2.838  -3.610  0.00  0.00     0.028 H 
ATOM     46  H   LIG d   1       9.164   3.564  -3.684  0.00  0.00     0.028 H 
ENDBRANCH   1  43
BRANCH   9  47
ATOM     47  C   LIG d   1       8.663  -3.282  -5.213  0.00  0.00    -0.033 C 
ATOM     48  H   LIG d   1       8.073  -3.740  -6.007  0.00  0.00     0.028 H 
ATOM     49  H   LIG d   1       9.679  -3.109  -5.568  0.00  0.00     0.028 H 
ATOM     50  H   LIG d   1       8.687  -3.946  -4.350  0.00  0.00     0.028 H 
ENDBRANCH   9  47
BRANCH   5  51
ATOM     51  C   LIG d   1       3.714  -0.058  -3.124  0.00  0.00    -0.009 C 
BRANCH  51  52
ATOM     52  C   LIG d   1       4.260   0.738  -1.937  0.00  0.00    -0.056 C 
ATOM     53  H   LIG d   1       4.598   0.051  -1.162  0.00  0.00     0.024 H 
ATOM     54  H   LIG d   1       5.097   1.354  -2.267  0.00  0.00     0.024 H 
ATOM     55  H   LIG d   1       3.474   1.379  -1.536  0.00  0.00     0.024 H 
ENDBRANCH  51  52
BRANCH  51  56
ATOM     56  C   LIG d   1       3.343   0.903  -4.255  0.00  0.00    -0.056 C 
ATOM     57  H   LIG d   1       3.603   1.921  -3.966  0.00  0.00     0.024 H 
ATOM     58  H   LIG d   1       3.891   0.630  -5.157  0.00  0.00     0.024 H 
ATOM     59  H   LIG d   1       2.272   0.841  -4.447  0.00  0.00     0.024 H 
ENDBRANCH  51  56
BRANCH  51  60
ATOM     60  C   LIG d   1       2.470  -0.835  -2.687  0.00  0.00    -0.056 C 
ATOM     61  H   LIG d   1       1.590  -0.200  -2.791  0.00  0.00     0.024 H 
ATOM     62  H   LIG d   1       2.355  -1.719  -3.313  0.00  0.00     0.024 H 
ATOM     63  H   LIG d   1       2.578  -1.139  -1.646  0.00  0.00     0.024 H 
ENDBRANCH  51  60
ENDBRANCH   5  51
TORSDOF 10
ENDMDL
MODEL 9
REMARK VINA RESULT:      -5.5      2.137      4.756
REMARK  10 active torsions:
REMARK  status: ('A' for Active; 'I' for Inactive)
REMARK    1  A    between atoms: C_1  and  C_2 
REMARK    2  A    between atoms: C_6  and  C_29 
REMARK    3  A    between atoms: C_10  and  C_28 
REMARK    4  A    between atoms: C_15  and  C_16 
REMARK    5  A    between atoms: C_16  and  C_17 
REMARK    6  A    between atoms: C_17  and  C_18 
REMARK       I    between atoms: C_18  and  N_20 
REMARK    7  A    between atoms: C_23  and  C_26 
REMARK    8  A    between atoms: C_29  and  C_30 
REMARK    9  A    between atoms: C_29  and  C_31 
REMARK   10  A    between atoms: C_29  and  C_32 
ROOT
ATOM      1  C   LIG d   1       5.289  -0.038  -8.628  0.00  0.00    -0.030 A 
ATOM      2  C   LIG d   1       5.178  -0.382  -7.207  0.00  0.00     0.022 A 
ATOM      3  C   LIG d   1       6.154  -1.159  -6.583  0.00  0.00    -0.040 A 
ATOM      4  C   LIG d   1       6.019  -1.468  -5.236  0.00  0.00     0.025 A 
ATOM      5  C   LIG d   1       6.824  -2.238  -4.278  0.00  0.00     0.004 A 
ATOM      6  C   LIG d   1       6.171  -2.180  -3.111  0.00  0.00     0.097 A 
ATOM      7  O   LIG d   1       5.045  -1.455  -3.242  0.00  0.00    -0.462 OA
ATOM      8  C   LIG d   1       4.907  -1.003  -4.505  0.00  0.00     0.141 A 
ATOM      9  C   LIG d   1       3.940  -0.232  -5.133  0.00  0.00     0.035 A 
ATOM     10  C   LIG d   1       4.066   0.082  -6.474  0.00  0.00     0.146 A 
ATOM     11  O   LIG d   1       3.125   0.834  -7.092  0.00  0.00    -0.422 OA
ATOM     12  C   LIG d   1       3.223   1.151  -8.391  0.00  0.00     0.341 A 
ATOM     13  O   LIG d   1       2.351   1.830  -8.903  0.00  0.00    -0.245 OA
ATOM     14  C   LIG d   1       4.309   0.720  -9.182  0.00  0.00     0.041 A 
ATOM     15  H   LIG d   1       7.007  -1.517  -7.141  0.00  0.00     0.063 H 
ATOM     16  H   LIG d   1       6.501  -2.648  -2.195  0.00  0.00     0.103 H 
ENDROOT
BRANCH  14  17
ATOM     17  C   LIG d   1       4.376   1.093 -10.640  0.00  0.00    -0.012 C 
ATOM     18  H   LIG d   1       4.098   2.141 -10.760  0.00  0.00     0.032 H 
ATOM     19  H   LIG d   1       5.391   0.943 -11.008  0.00  0.00     0.032 H 
BRANCH  17  20
ATOM     20  C   LIG d   1       3.410   0.215 -11.437  0.00  0.00     0.028 C 
ATOM     21  H   LIG d   1       2.539  -0.014 -10.825  0.00  0.00     0.036 H 
ATOM     22  H   LIG d   1       3.093   0.746 -12.335  0.00  0.00     0.036 H 
BRANCH  20  23
ATOM     23  C   LIG d   1       4.101  -1.066 -11.828  0.00  0.00     0.216 C 
ATOM     24  O   LIG d   1       4.986  -1.049 -12.658  0.00  0.00    -0.276 OA
ATOM     25  N   LIG d   1       3.736  -2.231 -11.256  0.00  0.00    -0.301 N 
ATOM     26  C   LIG d   1       4.401  -3.487 -11.627  0.00  0.00     0.015 C 
ATOM     27  C   LIG d   1       2.671  -2.267 -10.246  0.00  0.00     0.015 C 
ATOM     28  C   LIG d   1       4.911  -4.169 -10.353  0.00  0.00    -0.029 C 
ATOM     29  H   LIG d   1       3.690  -4.142 -12.131  0.00  0.00     0.046 H 
ATOM     30  H   LIG d   1       5.240  -3.275 -12.290  0.00  0.00     0.046 H 
ATOM     31  C   LIG d   1       3.752  -4.338  -9.369  0.00  0.00     0.001 C 
ATOM     32  H   LIG d   1       5.322  -5.148 -10.604  0.00  0.00     0.029 H 
ATOM     33  H   LIG d   1       5.688  -3.554  -9.898  0.00  0.00     0.029 H 
ATOM     34  C   LIG d   1       3.197  -2.963  -8.992  0.00  0.00    -0.029 C 
ATOM     35  H   LIG d   1       2.965  -4.932  -9.834  0.00  0.00     0.036 H 
ATOM     36  H   LIG d   1       2.386  -3.082  -8.273  0.00  0.00     0.029 H 
ATOM     37  H   LIG d   1       3.990  -2.360  -8.549  0.00  0.00     0.029 H 
ATOM     38  H   LIG d   1       2.368  -1.249  -9.997  0.00  0.00     0.046 H 
ATOM     39  H   LIG d   1       1.816  -2.819 -10.635  0.00  0.00     0.046 H 
BRANCH  31  40
ATOM     40  C   LIG d   1       4.243  -5.039  -8.129  0.00  0.00     0.045 C 
ATOM     41  O   LIG d   1       5.424  -5.249  -7.982  0.00  0.00    -0.549 OA
ATOM     42  O   LIG d   1       3.369  -5.429  -7.188  0.00  0.00    -0.549 OA
ENDBRANCH  31  40
ENDBRANCH  20  23
ENDBRANCH  17  20
ENDBRANCH  14  17
BRANCH   1  43
ATOM     43  C   LIG d   1       6.460  -0.512  -9.450  0.00  0.00    -0.039 C 
ATOM     44  H   LIG d   1       6.097  -1.068 -10.313  0.00  0.00     0.028 H 
ATOM     45  H   LIG d   1       7.037   0.349  -9.788  0.00  0.00     0.028 H 
ATOM     46  H   LIG d   1       7.093  -1.157  -8.841  0.00  0.00     0.028 H 
ENDBRANCH   1  43
BRANCH   9  47
ATOM     47  C   LIG d   1       2.751   0.266  -4.352  0.00  0.00    -0.033 C 
ATOM     48  H   LIG d   1       2.854  -0.027  -3.307  0.00  0.00     0.028 H 
ATOM     49  H   LIG d   1       2.700   1.353  -4.421  0.00  0.00     0.028 H 
ATOM     50  H   LIG d   1       1.839  -0.167  -4.762  0.00  0.00     0.028 H 
ENDBRANCH   9  47
BRANCH   5  51
ATOM     51  C   LIG d   1       8.124  -2.949  -4.554  0.00  0.00    -0.009 C 
BRANCH  51  52
ATOM     52  C   LIG d   1       7.882  -4.083  -5.553  0.00  0.00    -0.056 C 
ATOM     53  H   LIG d   1       6.929  -3.926  -6.058  0.00  0.00     0.024 H 
ATOM     54  H   LIG d   1       8.686  -4.097  -6.289  0.00  0.00     0.024 H 
ATOM     55  H   LIG d   1       7.858  -5.036  -5.023  0.00  0.00     0.024 H 
ENDBRANCH  51  52
BRANCH  51  56
ATOM     56  C   LIG d   1       9.132  -1.960  -5.141  0.00  0.00    -0.056 C 
ATOM     57  H   LIG d   1      10.026  -2.498  -5.458  0.00  0.00     0.024 H 
ATOM     58  H   LIG d   1       8.689  -1.455  -5.999  0.00  0.00     0.024 H 
ATOM     59  H   LIG d   1       9.401  -1.224  -4.384  0.00  0.00     0.024 H 
ENDBRANCH  51  56
BRANCH  51  60
ATOM     60  C   LIG d   1       8.676  -3.528  -3.249  0.00  0.00    -0.056 C 
ATOM     61  H   LIG d   1       8.986  -4.561  -3.413  0.00  0.00     0.024 H 
ATOM     62  H   LIG d   1       9.533  -2.939  -2.925  0.00  0.00     0.024 H 
ATOM     63  H   LIG d   1       7.902  -3.497  -2.482  0.00  0.00     0.024 H 
ENDBRANCH  51  60
ENDBRANCH   5  51
TORSDOF 10
ENDMDL
