MODEL 1
REMARK VINA RESULT:      -5.8      0.000      0.000
REMARK  8 active torsions:
REMARK  status: ('A' for Active; 'I' for Inactive)
REMARK    1  A    between atoms: C_1  and  C_2 
REMARK    2  A    between atoms: C_3  and  C_12 
REMARK    3  A    between atoms: C_14  and  C_19 
REMARK    4  A    between atoms: C_16  and  C_17 
REMARK    5  A    between atoms: C_16  and  C_18 
REMARK    6  A    between atoms: C_19  and  C_20 
REMARK    7  A    between atoms: C_20  and  N_21 
REMARK       I    between atoms: N_21  and  C_22 
REMARK    8  A    between atoms: C_22  and  C_24 
ROOT
ATOM      1  C   LIG d   1       5.248  -3.178  -5.403  0.00  0.00    -0.005 A 
ATOM      2  H   LIG d   1       4.884  -4.127  -5.011  0.00  0.00     0.036 H 
ATOM      3  C   LIG d   1       4.603  -2.648  -6.686  0.00  0.00    -0.026 A 
ATOM      4  H   LIG d   1       3.814  -3.249  -7.138  0.00  0.00     0.031 H 
ATOM      5  C   LIG d   1       6.027  -3.210  -6.720  0.00  0.00    -0.024 A 
ENDROOT
BRANCH   1   6
ATOM      6  C   LIG d   1       5.673  -2.167  -4.370  0.00  0.00    -0.015 A 
ATOM      7  C   LIG d   1       6.893  -2.050  -3.822  0.00  0.00     0.017 A 
ATOM      8  N   LIG d   1       6.903  -1.018  -2.924  0.00  0.00    -0.358 N 
ATOM      9  C   LIG d   1       5.658  -0.436  -2.864  0.00  0.00     0.047 A 
ATOM     10  H   LIG d   1       7.675  -0.739  -2.404  0.00  0.00     0.166 HD
ATOM     11  C   LIG d   1       4.832  -1.131  -3.767  0.00  0.00     0.003 A 
ATOM     12  C   LIG d   1       5.128   0.622  -2.130  0.00  0.00    -0.038 A 
ATOM     13  C   LIG d   1       3.495  -0.755  -3.918  0.00  0.00    -0.052 A 
ATOM     14  C   LIG d   1       2.996   0.286  -3.188  0.00  0.00    -0.061 A 
ATOM     15  H   LIG d   1       2.858  -1.286  -4.611  0.00  0.00     0.062 H 
ATOM     16  C   LIG d   1       3.806   0.975  -2.296  0.00  0.00    -0.060 A 
ATOM     17  H   LIG d   1       1.962   0.575  -3.306  0.00  0.00     0.062 H 
ATOM     18  H   LIG d   1       3.398   1.796  -1.726  0.00  0.00     0.062 H 
ATOM     19  H   LIG d   1       5.750   1.164  -1.434  0.00  0.00     0.064 H 
BRANCH   7  20
ATOM     20  C   LIG d   1       8.076  -2.925  -4.149  0.00  0.00    -0.024 C 
ATOM     21  H   LIG d   1       8.904  -2.303  -4.487  0.00  0.00     0.029 H 
ATOM     22  H   LIG d   1       8.376  -3.477  -3.259  0.00  0.00     0.029 H 
ATOM     23  H   LIG d   1       7.802  -3.626  -4.937  0.00  0.00     0.029 H 
ENDBRANCH   7  20
ENDBRANCH   1   6
BRANCH   5  24
ATOM     24  C   LIG d   1       7.177  -2.214  -6.887  0.00  0.00    -0.059 C 
ATOM     25  H   LIG d   1       8.119  -2.706  -6.648  0.00  0.00     0.024 H 
ATOM     26  H   LIG d   1       7.203  -1.859  -7.916  0.00  0.00     0.024 H 
ATOM     27  H   LIG d   1       7.025  -1.370  -6.214  0.00  0.00     0.024 H 
ENDBRANCH   5  24
BRANCH   5  28
ATOM     28  C   LIG d   1       6.232  -4.573  -7.386  0.00  0.00    -0.059 C 
ATOM     29  H   LIG d   1       5.418  -4.762  -8.084  0.00  0.00     0.024 H 
ATOM     30  H   LIG d   1       7.181  -4.575  -7.923  0.00  0.00     0.024 H 
ATOM     31  H   LIG d   1       6.245  -5.352  -6.623  0.00  0.00     0.024 H 
ENDBRANCH   5  28
BRANCH   3  32
ATOM     32  C   LIG d   1       4.439  -1.133  -6.821  0.00  0.00    -0.034 C 
ATOM     33  H   LIG d   1       4.198  -0.706  -5.848  0.00  0.00     0.028 H 
ATOM     34  H   LIG d   1       5.367  -0.699  -7.189  0.00  0.00     0.028 H 
BRANCH  32  35
ATOM     35  C   LIG d   1       3.307  -0.829  -7.805  0.00  0.00     0.012 C 
ATOM     36  H   LIG d   1       3.042  -1.737  -8.346  0.00  0.00     0.046 H 
ATOM     37  H   LIG d   1       2.437  -0.466  -7.257  0.00  0.00     0.046 H 
BRANCH  35  38
ATOM     38  N   LIG d   1       3.748   0.195  -8.754  0.00  0.00    -0.316 N 
ATOM     39  C   LIG d   1       3.483   1.495  -8.515  0.00  0.00     0.210 C 
ATOM     40  O   LIG d   1       2.880   1.817  -7.513  0.00  0.00    -0.276 OA
ATOM     41  H   LIG d   1       4.230  -0.062  -9.556  0.00  0.00     0.149 HD
BRANCH  39  42
ATOM     42  C   LIG d   1       3.936   2.549  -9.492  0.00  0.00     0.012 C 
ATOM     43  H   LIG d   1       3.488   2.357 -10.467  0.00  0.00     0.032 H 
ATOM     44  H   LIG d   1       3.627   3.531  -9.136  0.00  0.00     0.032 H 
ATOM     45  H   LIG d   1       5.023   2.519  -9.582  0.00  0.00     0.032 H 
ENDBRANCH  39  42
ENDBRANCH  35  38
ENDBRANCH  32  35
ENDBRANCH   3  32
TORSDOF 8
ENDMDL
MODEL 2
REMARK VINA RESULT:      -5.7      3.034      3.575
REMARK  8 active torsions:
REMARK  status: ('A' for Active; 'I' for Inactive)
REMARK    1  A    between atoms: C_1  and  C_2 
REMARK    2  A    between atoms: C_3  and  C_12 
REMARK    3  A    between atoms: C_14  and  C_19 
REMARK    4  A    between atoms: C_16  and  C_17 
REMARK    5  A    between atoms: C_16  and  C_18 
REMARK    6  A    between atoms: C_19  and  C_20 
REMARK    7  A    between atoms: C_20  and  N_21 
REMARK       I    between atoms: N_21  and  C_22 
REMARK    8  A    between atoms: C_22  and  C_24 
ROOT
ATOM      1  C   LIG d   1       7.994  -2.247  -4.347  0.00  0.00    -0.005 A 
ATOM      2  H   LIG d   1       8.875  -2.489  -3.753  0.00  0.00     0.036 H 
ATOM      3  C   LIG d   1       7.046  -3.393  -4.706  0.00  0.00    -0.026 A 
ATOM      4  H   LIG d   1       7.303  -4.390  -4.348  0.00  0.00     0.031 H 
ATOM      5  C   LIG d   1       7.943  -2.776  -5.783  0.00  0.00    -0.024 A 
ENDROOT
BRANCH   1   6
ATOM      6  C   LIG d   1       7.383  -0.896  -4.082  0.00  0.00    -0.015 A 
ATOM      7  C   LIG d   1       7.824   0.285  -4.546  0.00  0.00     0.017 A 
ATOM      8  N   LIG d   1       7.014   1.293  -4.099  0.00  0.00    -0.358 N 
ATOM      9  C   LIG d   1       6.012   0.775  -3.311  0.00  0.00     0.047 A 
ATOM     10  H   LIG d   1       7.131   2.234  -4.305  0.00  0.00     0.166 HD
ATOM     11  C   LIG d   1       6.199  -0.619  -3.266  0.00  0.00     0.003 A 
ATOM     12  C   LIG d   1       4.947   1.342  -2.617  0.00  0.00    -0.038 A 
ATOM     13  C   LIG d   1       5.320  -1.416  -2.529  0.00  0.00    -0.052 A 
ATOM     14  C   LIG d   1       4.281  -0.838  -1.856  0.00  0.00    -0.061 A 
ATOM     15  H   LIG d   1       5.460  -2.487  -2.493  0.00  0.00     0.062 H 
ATOM     16  C   LIG d   1       4.092   0.537  -1.897  0.00  0.00    -0.060 A 
ATOM     17  H   LIG d   1       3.602  -1.455  -1.287  0.00  0.00     0.062 H 
ATOM     18  H   LIG d   1       3.267   0.980  -1.361  0.00  0.00     0.062 H 
ATOM     19  H   LIG d   1       4.792   2.411  -2.644  0.00  0.00     0.064 H 
BRANCH   7  20
ATOM     20  C   LIG d   1       9.032   0.471  -5.428  0.00  0.00    -0.024 C 
ATOM     21  H   LIG d   1       9.716  -0.367  -5.289  0.00  0.00     0.029 H 
ATOM     22  H   LIG d   1       8.717   0.514  -6.470  0.00  0.00     0.029 H 
ATOM     23  H   LIG d   1       9.536   1.400  -5.162  0.00  0.00     0.029 H 
ENDBRANCH   7  20
ENDBRANCH   1   6
BRANCH   5  24
ATOM     24  C   LIG d   1       7.275  -1.892  -6.838  0.00  0.00    -0.059 C 
ATOM     25  H   LIG d   1       7.189  -2.446  -7.773  0.00  0.00     0.024 H 
ATOM     26  H   LIG d   1       6.283  -1.603  -6.495  0.00  0.00     0.024 H 
ATOM     27  H   LIG d   1       7.880  -0.999  -6.999  0.00  0.00     0.024 H 
ENDBRANCH   5  24
BRANCH   5  28
ATOM     28  C   LIG d   1       9.133  -3.605  -6.272  0.00  0.00    -0.059 C 
ATOM     29  H   LIG d   1       9.308  -3.401  -7.328  0.00  0.00     0.024 H 
ATOM     30  H   LIG d   1      10.020  -3.340  -5.697  0.00  0.00     0.024 H 
ATOM     31  H   LIG d   1       8.916  -4.665  -6.138  0.00  0.00     0.024 H 
ENDBRANCH   5  28
BRANCH   3  32
ATOM     32  C   LIG d   1       5.550  -3.079  -4.769  0.00  0.00    -0.034 C 
ATOM     33  H   LIG d   1       5.209  -2.739  -3.792  0.00  0.00     0.028 H 
ATOM     34  H   LIG d   1       5.373  -2.299  -5.508  0.00  0.00     0.028 H 
BRANCH  32  35
ATOM     35  C   LIG d   1       4.781  -4.341  -5.165  0.00  0.00     0.012 C 
ATOM     36  H   LIG d   1       5.486  -5.127  -5.438  0.00  0.00     0.046 H 
ATOM     37  H   LIG d   1       4.173  -4.676  -4.325  0.00  0.00     0.046 H 
BRANCH  35  38
ATOM     38  N   LIG d   1       3.913  -4.046  -6.307  0.00  0.00    -0.316 N 
ATOM     39  C   LIG d   1       4.326  -4.328  -7.559  0.00  0.00     0.210 C 
ATOM     40  O   LIG d   1       5.418  -4.827  -7.740  0.00  0.00    -0.276 OA
ATOM     41  H   LIG d   1       3.040  -3.648  -6.164  0.00  0.00     0.149 HD
BRANCH  39  42
ATOM     42  C   LIG d   1       3.434  -4.024  -8.734  0.00  0.00     0.012 C 
ATOM     43  H   LIG d   1       2.699  -4.821  -8.849  0.00  0.00     0.032 H 
ATOM     44  H   LIG d   1       2.921  -3.077  -8.566  0.00  0.00     0.032 H 
ATOM     45  H   LIG d   1       4.037  -3.955  -9.641  0.00  0.00     0.032 H 
ENDBRANCH  39  42
ENDBRANCH  35  38
ENDBRANCH  32  35
ENDBRANCH   3  32
TORSDOF 8
ENDMDL
MODEL 3
REMARK VINA RESULT:      -5.6      2.045      3.184
REMARK  8 active torsions:
REMARK  status: ('A' for Active; 'I' for Inactive)
REMARK    1  A    between atoms: C_1  and  C_2 
REMARK    2  A    between atoms: C_3  and  C_12 
REMARK    3  A    between atoms: C_14  and  C_19 
REMARK    4  A    between atoms: C_16  and  C_17 
REMARK    5  A    between atoms: C_16  and  C_18 
REMARK    6  A    between atoms: C_19  and  C_20 
REMARK    7  A    between atoms: C_20  and  N_21 
REMARK       I    between atoms: N_21  and  C_22 
REMARK    8  A    between atoms: C_22  and  C_24 
ROOT
ATOM      1  C   LIG d   1       4.624  -1.725  -7.146  0.00  0.00    -0.005 A 
ATOM      2  H   LIG d   1       3.985  -2.529  -7.508  0.00  0.00     0.036 H 
ATOM      3  C   LIG d   1       5.591  -1.085  -8.144  0.00  0.00    -0.026 A 
ATOM      4  H   LIG d   1       5.588  -1.469  -9.165  0.00  0.00     0.031 H 
ATOM      5  C   LIG d   1       6.125  -2.006  -7.044  0.00  0.00    -0.024 A 
ENDROOT
BRANCH   1   6
ATOM      6  C   LIG d   1       4.013  -0.831  -6.099  0.00  0.00    -0.015 A 
ATOM      7  C   LIG d   1       3.203   0.218  -6.318  0.00  0.00     0.017 A 
ATOM      8  N   LIG d   1       2.844   0.787  -5.127  0.00  0.00    -0.358 N 
ATOM      9  C   LIG d   1       3.435   0.107  -4.086  0.00  0.00     0.047 A 
ATOM     10  H   LIG d   1       2.262   1.557  -5.030  0.00  0.00     0.166 HD
ATOM     11  C   LIG d   1       4.193  -0.936  -4.649  0.00  0.00     0.003 A 
ATOM     12  C   LIG d   1       3.412   0.263  -2.703  0.00  0.00    -0.038 A 
ATOM     13  C   LIG d   1       4.912  -1.800  -3.820  0.00  0.00    -0.052 A 
ATOM     14  C   LIG d   1       4.875  -1.629  -2.466  0.00  0.00    -0.061 A 
ATOM     15  H   LIG d   1       5.495  -2.602  -4.250  0.00  0.00     0.062 H 
ATOM     16  C   LIG d   1       4.128  -0.601  -1.905  0.00  0.00    -0.060 A 
ATOM     17  H   LIG d   1       5.431  -2.298  -1.826  0.00  0.00     0.062 H 
ATOM     18  H   LIG d   1       4.108  -0.478  -0.833  0.00  0.00     0.062 H 
ATOM     19  H   LIG d   1       2.834   1.060  -2.257  0.00  0.00     0.064 H 
BRANCH   7  20
ATOM     20  C   LIG d   1       2.755   0.696  -7.675  0.00  0.00    -0.024 C 
ATOM     21  H   LIG d   1       3.602   0.684  -8.362  0.00  0.00     0.029 H 
ATOM     22  H   LIG d   1       1.973   0.037  -8.052  0.00  0.00     0.029 H 
ATOM     23  H   LIG d   1       2.368   1.711  -7.593  0.00  0.00     0.029 H 
ENDBRANCH   7  20
ENDBRANCH   1   6
BRANCH   5  24
ATOM     24  C   LIG d   1       6.890  -1.358  -5.888  0.00  0.00    -0.059 C 
ATOM     25  H   LIG d   1       7.724  -0.781  -6.284  0.00  0.00     0.024 H 
ATOM     26  H   LIG d   1       6.221  -0.699  -5.336  0.00  0.00     0.024 H 
ATOM     27  H   LIG d   1       7.267  -2.134  -5.223  0.00  0.00     0.024 H 
ENDBRANCH   5  24
BRANCH   5  28
ATOM     28  C   LIG d   1       6.613  -3.396  -7.462  0.00  0.00    -0.059 C 
ATOM     29  H   LIG d   1       7.592  -3.584  -7.024  0.00  0.00     0.024 H 
ATOM     30  H   LIG d   1       5.906  -4.148  -7.112  0.00  0.00     0.024 H 
ATOM     31  H   LIG d   1       6.686  -3.444  -8.548  0.00  0.00     0.024 H 
ENDBRANCH   5  28
BRANCH   3  32
ATOM     32  C   LIG d   1       5.862   0.414  -8.003  0.00  0.00    -0.034 C 
ATOM     33  H   LIG d   1       5.040   0.883  -7.464  0.00  0.00     0.028 H 
ATOM     34  H   LIG d   1       6.791   0.565  -7.454  0.00  0.00     0.028 H 
BRANCH  32  35
ATOM     35  C   LIG d   1       5.984   1.043  -9.393  0.00  0.00     0.012 C 
ATOM     36  H   LIG d   1       5.452   1.994  -9.410  0.00  0.00     0.046 H 
ATOM     37  H   LIG d   1       7.036   1.211  -9.625  0.00  0.00     0.046 H 
BRANCH  35  38
ATOM     38  N   LIG d   1       5.403   0.141 -10.390  0.00  0.00    -0.316 N 
ATOM     39  C   LIG d   1       4.327   0.527 -11.104  0.00  0.00     0.210 C 
ATOM     40  O   LIG d   1       3.840   1.623 -10.921  0.00  0.00    -0.276 OA
ATOM     41  H   LIG d   1       5.793  -0.736 -10.537  0.00  0.00     0.149 HD
BRANCH  39  42
ATOM     42  C   LIG d   1       3.729  -0.401 -12.129  0.00  0.00     0.012 C 
ATOM     43  H   LIG d   1       2.671  -0.549 -11.912  0.00  0.00     0.032 H 
ATOM     44  H   LIG d   1       3.840   0.034 -13.122  0.00  0.00     0.032 H 
ATOM     45  H   LIG d   1       4.244  -1.362 -12.093  0.00  0.00     0.032 H 
ENDBRANCH  39  42
ENDBRANCH  35  38
ENDBRANCH  32  35
ENDBRANCH   3  32
TORSDOF 8
ENDMDL
MODEL 4
REMARK VINA RESULT:      -5.4      2.546      5.143
REMARK  8 active torsions:
REMARK  status: ('A' for Active; 'I' for Inactive)
REMARK    1  A    between atoms: C_1  and  C_2 
REMARK    2  A    between atoms: C_3  and  C_12 
REMARK    3  A    between atoms: C_14  and  C_19 
REMARK    4  A    between atoms: C_16  and  C_17 
REMARK    5  A    between atoms: C_16  and  C_18 
REMARK    6  A    between atoms: C_19  and  C_20 
REMARK    7  A    between atoms: C_20  and  N_21 
REMARK       I    between atoms: N_21  and  C_22 
REMARK    8  A    between atoms: C_22  and  C_24 
ROOT
ATOM      1  C   LIG d   1       3.828  -0.766  -8.251  0.00  0.00    -0.005 A 
ATOM      2  H   LIG d   1       3.858  -1.794  -8.612  0.00  0.00     0.036 H 
ATOM      3  C   LIG d   1       2.776  -0.417  -7.196  0.00  0.00    -0.026 A 
ATOM      4  H   LIG d   1       2.113  -1.216  -6.863  0.00  0.00     0.031 H 
ATOM      5  C   LIG d   1       2.613   0.082  -8.634  0.00  0.00    -0.024 A 
ENDROOT
BRANCH   1   6
ATOM      6  C   LIG d   1       5.161  -0.070  -8.161  0.00  0.00    -0.015 A 
ATOM      7  C   LIG d   1       5.797   0.568  -9.156  0.00  0.00     0.017 A 
ATOM      8  N   LIG d   1       6.982   1.079  -8.700  0.00  0.00    -0.358 N 
ATOM      9  C   LIG d   1       7.145   0.767  -7.369  0.00  0.00     0.047 A 
ATOM     10  H   LIG d   1       7.614   1.584  -9.236  0.00  0.00     0.166 HD
ATOM     11  C   LIG d   1       6.011   0.034  -6.973  0.00  0.00     0.003 A 
ATOM     12  C   LIG d   1       8.147   1.030  -6.439  0.00  0.00    -0.038 A 
ATOM     13  C   LIG d   1       5.903  -0.422  -5.658  0.00  0.00    -0.052 A 
ATOM     14  C   LIG d   1       6.897  -0.153  -4.761  0.00  0.00    -0.061 A 
ATOM     15  H   LIG d   1       5.033  -0.986  -5.350  0.00  0.00     0.062 H 
ATOM     16  C   LIG d   1       8.018   0.570  -5.147  0.00  0.00    -0.060 A 
ATOM     17  H   LIG d   1       6.811  -0.506  -3.744  0.00  0.00     0.062 H 
ATOM     18  H   LIG d   1       8.796   0.776  -4.427  0.00  0.00     0.062 H 
ATOM     19  H   LIG d   1       9.022   1.592  -6.729  0.00  0.00     0.064 H 
BRANCH   7  20
ATOM     20  C   LIG d   1       5.282   0.703 -10.566  0.00  0.00    -0.024 C 
ATOM     21  H   LIG d   1       6.105   0.974 -11.228  0.00  0.00     0.029 H 
ATOM     22  H   LIG d   1       4.854  -0.245 -10.888  0.00  0.00     0.029 H 
ATOM     23  H   LIG d   1       4.517   1.479 -10.601  0.00  0.00     0.029 H 
ENDBRANCH   7  20
ENDBRANCH   1   6
BRANCH   5  24
ATOM     24  C   LIG d   1       2.845   1.572  -8.896  0.00  0.00    -0.059 C 
ATOM     25  H   LIG d   1       3.775   1.883  -8.422  0.00  0.00     0.024 H 
ATOM     26  H   LIG d   1       2.908   1.746  -9.970  0.00  0.00     0.024 H 
ATOM     27  H   LIG d   1       2.016   2.146  -8.482  0.00  0.00     0.024 H 
ENDBRANCH   5  24
BRANCH   5  28
ATOM     28  C   LIG d   1       1.533  -0.580  -9.494  0.00  0.00    -0.059 C 
ATOM     29  H   LIG d   1       1.641  -0.253 -10.528  0.00  0.00     0.024 H 
ATOM     30  H   LIG d   1       1.641  -1.663  -9.440  0.00  0.00     0.024 H 
ATOM     31  H   LIG d   1       0.549  -0.294  -9.124  0.00  0.00     0.024 H 
ENDBRANCH   5  28
BRANCH   3  32
ATOM     32  C   LIG d   1       3.158   0.611  -6.131  0.00  0.00    -0.034 C 
ATOM     33  H   LIG d   1       4.196   0.461  -5.836  0.00  0.00     0.028 H 
ATOM     34  H   LIG d   1       3.036   1.616  -6.535  0.00  0.00     0.028 H 
BRANCH  32  35
ATOM     35  C   LIG d   1       2.252   0.440  -4.909  0.00  0.00     0.012 C 
ATOM     36  H   LIG d   1       1.700   1.363  -4.733  0.00  0.00     0.046 H 
ATOM     37  H   LIG d   1       1.549  -0.374  -5.089  0.00  0.00     0.046 H 
BRANCH  35  38
ATOM     38  N   LIG d   1       3.069   0.128  -3.735  0.00  0.00    -0.316 N 
ATOM     39  C   LIG d   1       3.649   1.122  -3.033  0.00  0.00     0.210 C 
ATOM     40  O   LIG d   1       3.494   2.276  -3.375  0.00  0.00    -0.276 OA
ATOM     41  H   LIG d   1       3.193  -0.794  -3.461  0.00  0.00     0.149 HD
BRANCH  39  42
ATOM     42  C   LIG d   1       4.491   0.801  -1.825  0.00  0.00     0.012 C 
ATOM     43  H   LIG d   1       5.241   1.579  -1.688  0.00  0.00     0.032 H 
ATOM     44  H   LIG d   1       3.854   0.748  -0.942  0.00  0.00     0.032 H 
ATOM     45  H   LIG d   1       4.988  -0.159  -1.973  0.00  0.00     0.032 H 
ENDBRANCH  39  42
ENDBRANCH  35  38
ENDBRANCH  32  35
ENDBRANCH   3  32
TORSDOF 8
ENDMDL
MODEL 5
REMARK VINA RESULT:      -5.4      1.946      2.807
REMARK  8 active torsions:
REMARK  status: ('A' for Active; 'I' for Inactive)
REMARK    1  A    between atoms: C_1  and  C_2 
REMARK    2  A    between atoms: C_3  and  C_12 
REMARK    3  A    between atoms: C_14  and  C_19 
REMARK    4  A    between atoms: C_16  and  C_17 
REMARK    5  A    between atoms: C_16  and  C_18 
REMARK    6  A    between atoms: C_19  and  C_20 
REMARK    7  A    between atoms: C_20  and  N_21 
REMARK       I    between atoms: N_21  and  C_22 
REMARK    8  A    between atoms: C_22  and  C_24 
ROOT
ATOM      1  C   LIG d   1       7.143  -2.051  -5.200  0.00  0.00    -0.005 A 
ATOM      2  H   LIG d   1       7.732  -2.828  -4.714  0.00  0.00     0.036 H 
ATOM      3  C   LIG d   1       7.354  -1.837  -6.700  0.00  0.00    -0.026 A 
ATOM      4  H   LIG d   1       8.083  -2.474  -7.202  0.00  0.00     0.031 H 
ATOM      5  C   LIG d   1       7.886  -0.809  -5.698  0.00  0.00    -0.024 A 
ENDROOT
BRANCH   1   6
ATOM      6  C   LIG d   1       5.750  -1.857  -4.659  0.00  0.00    -0.015 A 
ATOM      7  C   LIG d   1       4.678  -2.622  -4.922  0.00  0.00     0.017 A 
ATOM      8  N   LIG d   1       3.587  -2.141  -4.251  0.00  0.00    -0.358 N 
ATOM      9  C   LIG d   1       3.936  -1.023  -3.528  0.00  0.00     0.047 A 
ATOM     10  H   LIG d   1       2.698  -2.530  -4.282  0.00  0.00     0.166 HD
ATOM     11  C   LIG d   1       5.307  -0.797  -3.753  0.00  0.00     0.003 A 
ATOM     12  C   LIG d   1       3.230  -0.162  -2.693  0.00  0.00    -0.038 A 
ATOM     13  C   LIG d   1       5.942   0.286  -3.139  0.00  0.00    -0.052 A 
ATOM     14  C   LIG d   1       5.230   1.118  -2.324  0.00  0.00    -0.061 A 
ATOM     15  H   LIG d   1       6.995   0.462  -3.309  0.00  0.00     0.062 H 
ATOM     16  C   LIG d   1       3.878   0.899  -2.100  0.00  0.00    -0.060 A 
ATOM     17  H   LIG d   1       5.723   1.954  -1.851  0.00  0.00     0.062 H 
ATOM     18  H   LIG d   1       3.328   1.565  -1.452  0.00  0.00     0.062 H 
ATOM     19  H   LIG d   1       2.178  -0.325  -2.512  0.00  0.00     0.064 H 
BRANCH   7  20
ATOM     20  C   LIG d   1       4.677  -3.831  -5.822  0.00  0.00    -0.024 C 
ATOM     21  H   LIG d   1       4.372  -3.536  -6.826  0.00  0.00     0.029 H 
ATOM     22  H   LIG d   1       5.679  -4.258  -5.857  0.00  0.00     0.029 H 
ATOM     23  H   LIG d   1       3.979  -4.572  -5.434  0.00  0.00     0.029 H 
ENDBRANCH   7  20
ENDBRANCH   1   6
BRANCH   5  24
ATOM     24  C   LIG d   1       7.158   0.534  -5.608  0.00  0.00    -0.059 C 
ATOM     25  H   LIG d   1       7.644   1.255  -6.264  0.00  0.00     0.024 H 
ATOM     26  H   LIG d   1       6.120   0.405  -5.916  0.00  0.00     0.024 H 
ATOM     27  H   LIG d   1       7.190   0.896  -4.581  0.00  0.00     0.024 H 
ENDBRANCH   5  24
BRANCH   5  28
ATOM     28  C   LIG d   1       9.399  -0.756  -5.476  0.00  0.00    -0.059 C 
ATOM     29  H   LIG d   1       9.611  -0.245  -4.538  0.00  0.00     0.024 H 
ATOM     30  H   LIG d   1       9.795  -1.771  -5.436  0.00  0.00     0.024 H 
ATOM     31  H   LIG d   1       9.868  -0.216  -6.298  0.00  0.00     0.024 H 
ENDBRANCH   5  28
BRANCH   3  32
ATOM     32  C   LIG d   1       6.135  -1.443  -7.536  0.00  0.00    -0.034 C 
ATOM     33  H   LIG d   1       5.435  -2.277  -7.573  0.00  0.00     0.028 H 
ATOM     34  H   LIG d   1       5.649  -0.578  -7.085  0.00  0.00     0.028 H 
BRANCH  32  35
ATOM     35  C   LIG d   1       6.584  -1.092  -8.957  0.00  0.00     0.012 C 
ATOM     36  H   LIG d   1       7.326  -0.295  -8.918  0.00  0.00     0.046 H 
ATOM     37  H   LIG d   1       7.021  -1.972  -9.428  0.00  0.00     0.046 H 
BRANCH  35  38
ATOM     38  N   LIG d   1       5.428  -0.645  -9.737  0.00  0.00    -0.316 N 
ATOM     39  C   LIG d   1       5.298   0.656 -10.065  0.00  0.00     0.210 C 
ATOM     40  O   LIG d   1       6.138   1.457  -9.713  0.00  0.00    -0.276 OA
ATOM     41  H   LIG d   1       4.756  -1.285 -10.019  0.00  0.00     0.149 HD
BRANCH  39  42
ATOM     42  C   LIG d   1       4.108   1.117 -10.868  0.00  0.00     0.012 C 
ATOM     43  H   LIG d   1       3.992   0.478 -11.743  0.00  0.00     0.032 H 
ATOM     44  H   LIG d   1       3.211   1.059 -10.253  0.00  0.00     0.032 H 
ATOM     45  H   LIG d   1       4.264   2.147 -11.189  0.00  0.00     0.032 H 
ENDBRANCH  39  42
ENDBRANCH  35  38
ENDBRANCH  32  35
ENDBRANCH   3  32
TORSDOF 8
ENDMDL
MODEL 6
REMARK VINA RESULT:      -5.3      8.739      9.945
REMARK  8 active torsions:
REMARK  status: ('A' for Active; 'I' for Inactive)
REMARK    1  A    between atoms: C_1  and  C_2 
REMARK    2  A    between atoms: C_3  and  C_12 
REMARK    3  A    between atoms: C_14  and  C_19 
REMARK    4  A    between atoms: C_16  and  C_17 
REMARK    5  A    between atoms: C_16  and  C_18 
REMARK    6  A    between atoms: C_19  and  C_20 
REMARK    7  A    between atoms: C_20  and  N_21 
REMARK       I    between atoms: N_21  and  C_22 
REMARK    8  A    between atoms: C_22  and  C_24 
ROOT
ATOM      1  C   LIG d   1       9.313   5.210  -4.199  0.00  0.00    -0.005 A 
ATOM      2  H   LIG d   1       8.331   4.739  -4.235  0.00  0.00     0.036 H 
ATOM      3  C   LIG d   1       9.531   6.457  -5.057  0.00  0.00    -0.026 A 
ATOM      4  H   LIG d   1       8.692   6.807  -5.659  0.00  0.00     0.031 H 
ATOM      5  C   LIG d   1      10.182   5.129  -5.456  0.00  0.00    -0.024 A 
ENDROOT
BRANCH   1   6
ATOM      6  C   LIG d   1      10.012   5.151  -2.866  0.00  0.00    -0.015 A 
ATOM      7  C   LIG d   1      10.674   4.099  -2.357  0.00  0.00     0.017 A 
ATOM      8  N   LIG d   1      11.180   4.419  -1.126  0.00  0.00    -0.358 N 
ATOM      9  C   LIG d   1      10.841   5.712  -0.801  0.00  0.00     0.047 A 
ATOM     10  H   LIG d   1      11.699   3.820  -0.565  0.00  0.00     0.166 HD
ATOM     11  C   LIG d   1      10.095   6.228  -1.877  0.00  0.00     0.003 A 
ATOM     12  C   LIG d   1      11.088   6.519   0.306  0.00  0.00    -0.038 A 
ATOM     13  C   LIG d   1       9.611   7.537  -1.823  0.00  0.00    -0.052 A 
ATOM     14  C   LIG d   1       9.865   8.311  -0.727  0.00  0.00    -0.061 A 
ATOM     15  H   LIG d   1       9.037   7.936  -2.648  0.00  0.00     0.062 H 
ATOM     16  C   LIG d   1      10.601   7.807   0.337  0.00  0.00    -0.060 A 
ATOM     17  H   LIG d   1       9.491   9.323  -0.688  0.00  0.00     0.062 H 
ATOM     18  H   LIG d   1      10.795   8.431   1.196  0.00  0.00     0.062 H 
ATOM     19  H   LIG d   1      11.660   6.136   1.138  0.00  0.00     0.064 H 
BRANCH   7  20
ATOM     20  C   LIG d   1      10.836   2.766  -3.040  0.00  0.00    -0.024 C 
ATOM     21  H   LIG d   1      11.887   2.476  -3.023  0.00  0.00     0.029 H 
ATOM     22  H   LIG d   1      10.244   2.016  -2.518  0.00  0.00     0.029 H 
ATOM     23  H   LIG d   1      10.497   2.844  -4.073  0.00  0.00     0.029 H 
ENDBRANCH   7  20
ENDBRANCH   1   6
BRANCH   5  24
ATOM     24  C   LIG d   1      11.694   4.997  -5.263  0.00  0.00    -0.059 C 
ATOM     25  H   LIG d   1      11.970   3.943  -5.280  0.00  0.00     0.024 H 
ATOM     26  H   LIG d   1      12.209   5.521  -6.067  0.00  0.00     0.024 H 
ATOM     27  H   LIG d   1      11.977   5.432  -4.305  0.00  0.00     0.024 H 
ENDBRANCH   5  24
BRANCH   5  28
ATOM     28  C   LIG d   1       9.603   4.395  -6.668  0.00  0.00    -0.059 C 
ATOM     29  H   LIG d   1      10.240   3.547  -6.917  0.00  0.00     0.024 H 
ATOM     30  H   LIG d   1       8.600   4.040  -6.432  0.00  0.00     0.024 H 
ATOM     31  H   LIG d   1       9.556   5.077  -7.517  0.00  0.00     0.024 H 
ENDBRANCH   5  28
BRANCH   3  32
ATOM     32  C   LIG d   1      10.443   7.550  -4.497  0.00  0.00    -0.034 C 
ATOM     33  H   LIG d   1      10.173   7.752  -3.461  0.00  0.00     0.028 H 
ATOM     34  H   LIG d   1      11.480   7.217  -4.544  0.00  0.00     0.028 H 
BRANCH  32  35
ATOM     35  C   LIG d   1      10.278   8.825  -5.325  0.00  0.00     0.012 C 
ATOM     36  H   LIG d   1      11.220   9.375  -5.340  0.00  0.00     0.046 H 
ATOM     37  H   LIG d   1       9.996   8.563  -6.345  0.00  0.00     0.046 H 
BRANCH  35  38
ATOM     38  N   LIG d   1       9.234   9.662  -4.731  0.00  0.00    -0.316 N 
ATOM     39  C   LIG d   1       9.571  10.713  -3.956  0.00  0.00     0.210 C 
ATOM     40  O   LIG d   1      10.740  10.965  -3.752  0.00  0.00    -0.276 OA
ATOM     41  H   LIG d   1       8.299   9.461  -4.894  0.00  0.00     0.149 HD
BRANCH  39  42
ATOM     42  C   LIG d   1       8.496  11.574  -3.344  0.00  0.00     0.012 C 
ATOM     43  H   LIG d   1       8.897  12.090  -2.472  0.00  0.00     0.032 H 
ATOM     44  H   LIG d   1       8.156  12.306  -4.076  0.00  0.00     0.032 H 
ATOM     45  H   LIG d   1       7.658  10.946  -3.039  0.00  0.00     0.032 H 
ENDBRANCH  39  42
ENDBRANCH  35  38
ENDBRANCH  32  35
ENDBRANCH   3  32
TORSDOF 8
ENDMDL
MODEL 7
REMARK VINA RESULT:      -5.3      1.587      1.965
REMARK  8 active torsions:
REMARK  status: ('A' for Active; 'I' for Inactive)
REMARK    1  A    between atoms: C_1  and  C_2 
REMARK    2  A    between atoms: C_3  and  C_12 
REMARK    3  A    between atoms: C_14  and  C_19 
REMARK    4  A    between atoms: C_16  and  C_17 
REMARK    5  A    between atoms: C_16  and  C_18 
REMARK    6  A    between atoms: C_19  and  C_20 
REMARK    7  A    between atoms: C_20  and  N_21 
REMARK       I    between atoms: N_21  and  C_22 
REMARK    8  A    between atoms: C_22  and  C_24 
ROOT
ATOM      1  C   LIG d   1       5.607  -2.377  -5.949  0.00  0.00    -0.005 A 
ATOM      2  H   LIG d   1       5.573  -3.433  -5.681  0.00  0.00     0.036 H 
ATOM      3  C   LIG d   1       4.618  -1.884  -7.007  0.00  0.00    -0.026 A 
ATOM      4  H   LIG d   1       3.933  -2.615  -7.435  0.00  0.00     0.031 H 
ATOM      5  C   LIG d   1       6.104  -2.020  -7.352  0.00  0.00    -0.024 A 
ENDROOT
BRANCH   1   6
ATOM      6  C   LIG d   1       5.955  -1.433  -4.828  0.00  0.00    -0.015 A 
ATOM      7  C   LIG d   1       7.190  -1.114  -4.407  0.00  0.00     0.017 A 
ATOM      8  N   LIG d   1       7.113  -0.224  -3.370  0.00  0.00    -0.358 N 
ATOM      9  C   LIG d   1       5.795   0.051  -3.085  0.00  0.00     0.047 A 
ATOM     10  H   LIG d   1       7.875   0.154  -2.903  0.00  0.00     0.166 HD
ATOM     11  C   LIG d   1       5.012  -0.694  -3.986  0.00  0.00     0.003 A 
ATOM     12  C   LIG d   1       5.167   0.864  -2.146  0.00  0.00    -0.038 A 
ATOM     13  C   LIG d   1       3.619  -0.613  -3.929  0.00  0.00    -0.052 A 
ATOM     14  C   LIG d   1       3.023   0.192  -2.999  0.00  0.00    -0.061 A 
ATOM     15  H   LIG d   1       3.014  -1.183  -4.619  0.00  0.00     0.062 H 
ATOM     16  C   LIG d   1       3.791   0.929  -2.108  0.00  0.00    -0.060 A 
ATOM     17  H   LIG d   1       1.946   0.254  -2.957  0.00  0.00     0.062 H 
ATOM     18  H   LIG d   1       3.306   1.560  -1.379  0.00  0.00     0.062 H 
ATOM     19  H   LIG d   1       5.756   1.441  -1.449  0.00  0.00     0.064 H 
BRANCH   7  20
ATOM     20  C   LIG d   1       8.470  -1.653  -4.992  0.00  0.00    -0.024 C 
ATOM     21  H   LIG d   1       8.271  -2.607  -5.482  0.00  0.00     0.029 H 
ATOM     22  H   LIG d   1       8.862  -0.945  -5.721  0.00  0.00     0.029 H 
ATOM     23  H   LIG d   1       9.200  -1.799  -4.195  0.00  0.00     0.029 H 
ENDBRANCH   7  20
ENDBRANCH   1   6
BRANCH   5  24
ATOM     24  C   LIG d   1       6.915  -0.733  -7.509  0.00  0.00    -0.059 C 
ATOM     25  H   LIG d   1       6.467   0.054  -6.902  0.00  0.00     0.024 H 
ATOM     26  H   LIG d   1       7.939  -0.906  -7.180  0.00  0.00     0.024 H 
ATOM     27  H   LIG d   1       6.915  -0.429  -8.556  0.00  0.00     0.024 H 
ENDBRANCH   5  24
BRANCH   5  28
ATOM     28  C   LIG d   1       6.512  -3.174  -8.271  0.00  0.00    -0.059 C 
ATOM     29  H   LIG d   1       6.016  -4.089  -7.946  0.00  0.00     0.024 H 
ATOM     30  H   LIG d   1       6.217  -2.944  -9.295  0.00  0.00     0.024 H 
ATOM     31  H   LIG d   1       7.592  -3.310  -8.226  0.00  0.00     0.024 H 
ENDBRANCH   5  28
BRANCH   3  32
ATOM     32  C   LIG d   1       4.058  -0.469  -6.846  0.00  0.00    -0.034 C 
ATOM     33  H   LIG d   1       3.732  -0.323  -5.816  0.00  0.00     0.028 H 
ATOM     34  H   LIG d   1       4.833   0.258  -7.089  0.00  0.00     0.028 H 
BRANCH  32  35
ATOM     35  C   LIG d   1       2.868  -0.282  -7.789  0.00  0.00     0.012 C 
ATOM     36  H   LIG d   1       1.971  -0.075  -7.206  0.00  0.00     0.046 H 
ATOM     37  H   LIG d   1       3.065   0.554  -8.461  0.00  0.00     0.046 H 
BRANCH  35  38
ATOM     38  N   LIG d   1       2.671  -1.502  -8.574  0.00  0.00    -0.316 N 
ATOM     39  C   LIG d   1       1.865  -1.486  -9.655  0.00  0.00     0.210 C 
ATOM     40  O   LIG d   1       1.303  -0.459  -9.977  0.00  0.00    -0.276 OA
ATOM     41  H   LIG d   1       3.120  -2.323  -8.318  0.00  0.00     0.149 HD
BRANCH  39  42
ATOM     42  C   LIG d   1       1.660  -2.741 -10.462  0.00  0.00     0.012 C 
ATOM     43  H   LIG d   1       0.602  -3.001 -10.469  0.00  0.00     0.032 H 
ATOM     44  H   LIG d   1       2.001  -2.576 -11.484  0.00  0.00     0.032 H 
ATOM     45  H   LIG d   1       2.231  -3.557 -10.016  0.00  0.00     0.032 H 
ENDBRANCH  39  42
ENDBRANCH  35  38
ENDBRANCH  32  35
ENDBRANCH   3  32
TORSDOF 8
ENDMDL
MODEL 8
REMARK VINA RESULT:      -5.3      2.927      4.720
REMARK  8 active torsions:
REMARK  status: ('A' for Active; 'I' for Inactive)
REMARK    1  A    between atoms: C_1  and  C_2 
REMARK    2  A    between atoms: C_3  and  C_12 
REMARK    3  A    between atoms: C_14  and  C_19 
REMARK    4  A    between atoms: C_16  and  C_17 
REMARK    5  A    between atoms: C_16  and  C_18 
REMARK    6  A    between atoms: C_19  and  C_20 
REMARK    7  A    between atoms: C_20  and  N_21 
REMARK       I    between atoms: N_21  and  C_22 
REMARK    8  A    between atoms: C_22  and  C_24 
ROOT
ATOM      1  C   LIG d   1       6.730  -2.499  -5.896  0.00  0.00    -0.005 A 
ATOM      2  H   LIG d   1       6.544  -3.341  -6.563  0.00  0.00     0.036 H 
ATOM      3  C   LIG d   1       8.152  -1.938  -5.845  0.00  0.00    -0.026 A 
ATOM      4  H   LIG d   1       8.903  -2.411  -6.478  0.00  0.00     0.031 H 
ATOM      5  C   LIG d   1       7.607  -2.751  -4.667  0.00  0.00    -0.024 A 
ENDROOT
BRANCH   1   6
ATOM      6  C   LIG d   1       5.591  -1.523  -5.749  0.00  0.00    -0.015 A 
ATOM      7  C   LIG d   1       5.249  -0.559  -6.618  0.00  0.00     0.017 A 
ATOM      8  N   LIG d   1       4.162   0.127  -6.148  0.00  0.00    -0.358 N 
ATOM      9  C   LIG d   1       3.773  -0.386  -4.932  0.00  0.00     0.047 A 
ATOM     10  H   LIG d   1       3.730   0.868  -6.604  0.00  0.00     0.166 HD
ATOM     11  C   LIG d   1       4.652  -1.443  -4.628  0.00  0.00     0.003 A 
ATOM     12  C   LIG d   1       2.756  -0.067  -4.037  0.00  0.00    -0.038 A 
ATOM     13  C   LIG d   1       4.496  -2.157  -3.438  0.00  0.00    -0.052 A 
ATOM     14  C   LIG d   1       3.491  -1.826  -2.574  0.00  0.00    -0.061 A 
ATOM     15  H   LIG d   1       5.169  -2.969  -3.202  0.00  0.00     0.062 H 
ATOM     16  C   LIG d   1       2.621  -0.785  -2.869  0.00  0.00    -0.060 A 
ATOM     17  H   LIG d   1       3.372  -2.380  -1.655  0.00  0.00     0.062 H 
ATOM     18  H   LIG d   1       1.831  -0.535  -2.177  0.00  0.00     0.062 H 
ATOM     19  H   LIG d   1       2.074   0.742  -4.258  0.00  0.00     0.064 H 
BRANCH   7  20
ATOM     20  C   LIG d   1       5.956  -0.275  -7.918  0.00  0.00    -0.024 C 
ATOM     21  H   LIG d   1       5.907   0.793  -8.132  0.00  0.00     0.029 H 
ATOM     22  H   LIG d   1       6.998  -0.582  -7.839  0.00  0.00     0.029 H 
ATOM     23  H   LIG d   1       5.472  -0.828  -8.723  0.00  0.00     0.029 H 
ENDBRANCH   7  20
ENDBRANCH   1   6
BRANCH   5  24
ATOM     24  C   LIG d   1       7.261  -1.993  -3.384  0.00  0.00    -0.059 C 
ATOM     25  H   LIG d   1       8.131  -1.972  -2.730  0.00  0.00     0.024 H 
ATOM     26  H   LIG d   1       6.969  -0.973  -3.633  0.00  0.00     0.024 H 
ATOM     27  H   LIG d   1       6.436  -2.494  -2.878  0.00  0.00     0.024 H 
ENDBRANCH   5  24
BRANCH   5  28
ATOM     28  C   LIG d   1       8.157  -4.165  -4.471  0.00  0.00    -0.059 C 
ATOM     29  H   LIG d   1       7.351  -4.888  -4.590  0.00  0.00     0.024 H 
ATOM     30  H   LIG d   1       8.932  -4.359  -5.214  0.00  0.00     0.024 H 
ATOM     31  H   LIG d   1       8.581  -4.255  -3.472  0.00  0.00     0.024 H 
ENDBRANCH   5  28
BRANCH   3  32
ATOM     32  C   LIG d   1       8.309  -0.429  -5.648  0.00  0.00    -0.034 C 
ATOM     33  H   LIG d   1       7.839   0.097  -6.478  0.00  0.00     0.028 H 
ATOM     34  H   LIG d   1       7.834  -0.133  -4.713  0.00  0.00     0.028 H 
BRANCH  32  35
ATOM     35  C   LIG d   1       9.797  -0.074  -5.598  0.00  0.00     0.012 C 
ATOM     36  H   LIG d   1      10.391  -0.986  -5.653  0.00  0.00     0.046 H 
ATOM     37  H   LIG d   1      10.045   0.572  -6.440  0.00  0.00     0.046 H 
BRANCH  35  38
ATOM     38  N   LIG d   1      10.091   0.624  -4.345  0.00  0.00    -0.316 N 
ATOM     39  C   LIG d   1      10.188   1.969  -4.329  0.00  0.00     0.210 C 
ATOM     40  O   LIG d   1      10.033   2.600  -5.353  0.00  0.00    -0.276 OA
ATOM     41  H   LIG d   1      10.215   0.120  -3.525  0.00  0.00     0.149 HD
BRANCH  39  42
ATOM     42  C   LIG d   1      10.491   2.688  -3.040  0.00  0.00     0.012 C 
ATOM     43  H   LIG d   1      11.265   3.436  -3.214  0.00  0.00     0.032 H 
ATOM     44  H   LIG d   1       9.588   3.176  -2.675  0.00  0.00     0.032 H 
ATOM     45  H   LIG d   1      10.842   1.970  -2.297  0.00  0.00     0.032 H 
ENDBRANCH  39  42
ENDBRANCH  35  38
ENDBRANCH  32  35
ENDBRANCH   3  32
TORSDOF 8
ENDMDL
MODEL 9
REMARK VINA RESULT:      -5.3      3.045      5.118
REMARK  8 active torsions:
REMARK  status: ('A' for Active; 'I' for Inactive)
REMARK    1  A    between atoms: C_1  and  C_2 
REMARK    2  A    between atoms: C_3  and  C_12 
REMARK    3  A    between atoms: C_14  and  C_19 
REMARK    4  A    between atoms: C_16  and  C_17 
REMARK    5  A    between atoms: C_16  and  C_18 
REMARK    6  A    between atoms: C_19  and  C_20 
REMARK    7  A    between atoms: C_20  and  N_21 
REMARK       I    between atoms: N_21  and  C_22 
REMARK    8  A    between atoms: C_22  and  C_24 
ROOT
ATOM      1  C   LIG d   1       5.337  -1.068  -7.389  0.00  0.00    -0.005 A 
ATOM      2  H   LIG d   1       6.126  -0.332  -7.542  0.00  0.00     0.036 H 
ATOM      3  C   LIG d   1       5.717  -2.546  -7.505  0.00  0.00    -0.026 A 
ATOM      4  H   LIG d   1       6.756  -2.782  -7.734  0.00  0.00     0.031 H 
ATOM      5  C   LIG d   1       4.884  -1.881  -8.605  0.00  0.00    -0.024 A 
ENDROOT
BRANCH   1   6
ATOM      6  C   LIG d   1       4.289  -0.697  -6.372  0.00  0.00    -0.015 A 
ATOM      7  C   LIG d   1       3.189   0.040  -6.593  0.00  0.00     0.017 A 
ATOM      8  N   LIG d   1       2.472   0.166  -5.434  0.00  0.00    -0.358 N 
ATOM      9  C   LIG d   1       3.114  -0.495  -4.412  0.00  0.00     0.047 A 
ATOM     10  H   LIG d   1       1.637   0.653  -5.346  0.00  0.00     0.166 HD
ATOM     11  C   LIG d   1       4.281  -1.065  -4.955  0.00  0.00     0.003 A 
ATOM     12  C   LIG d   1       2.831  -0.678  -3.061  0.00  0.00    -0.038 A 
ATOM     13  C   LIG d   1       5.140  -1.803  -4.138  0.00  0.00    -0.052 A 
ATOM     14  C   LIG d   1       4.842  -1.970  -2.815  0.00  0.00    -0.061 A 
ATOM     15  H   LIG d   1       6.036  -2.242  -4.552  0.00  0.00     0.062 H 
ATOM     16  C   LIG d   1       3.693  -1.410  -2.275  0.00  0.00    -0.060 A 
ATOM     17  H   LIG d   1       5.507  -2.542  -2.185  0.00  0.00     0.062 H 
ATOM     18  H   LIG d   1       3.471  -1.551  -1.228  0.00  0.00     0.062 H 
ATOM     19  H   LIG d   1       1.939  -0.246  -2.632  0.00  0.00     0.064 H 
BRANCH   7  20
ATOM     20  C   LIG d   1       2.799   0.638  -7.921  0.00  0.00    -0.024 C 
ATOM     21  H   LIG d   1       2.927  -0.108  -8.706  0.00  0.00     0.029 H 
ATOM     22  H   LIG d   1       1.757   0.953  -7.885  0.00  0.00     0.029 H 
ATOM     23  H   LIG d   1       3.433   1.499  -8.131  0.00  0.00     0.029 H 
ENDBRANCH   7  20
ENDBRANCH   1   6
BRANCH   5  24
ATOM     24  C   LIG d   1       3.403  -2.254  -8.694  0.00  0.00    -0.059 C 
ATOM     25  H   LIG d   1       3.088  -2.240  -9.737  0.00  0.00     0.024 H 
ATOM     26  H   LIG d   1       3.255  -3.252  -8.283  0.00  0.00     0.024 H 
ATOM     27  H   LIG d   1       2.813  -1.535  -8.126  0.00  0.00     0.024 H 
ENDBRANCH   5  24
BRANCH   5  28
ATOM     28  C   LIG d   1       5.576  -1.598  -9.940  0.00  0.00    -0.059 C 
ATOM     29  H   LIG d   1       6.125  -2.484 -10.260  0.00  0.00     0.024 H 
ATOM     30  H   LIG d   1       4.827  -1.343 -10.690  0.00  0.00     0.024 H 
ATOM     31  H   LIG d   1       6.269  -0.765  -9.821  0.00  0.00     0.024 H 
ENDBRANCH   5  28
BRANCH   3  32
ATOM     32  C   LIG d   1       5.004  -3.533  -6.579  0.00  0.00    -0.034 C 
ATOM     33  H   LIG d   1       4.750  -3.035  -5.644  0.00  0.00     0.028 H 
ATOM     34  H   LIG d   1       4.094  -3.890  -7.060  0.00  0.00     0.028 H 
BRANCH  32  35
ATOM     35  C   LIG d   1       5.926  -4.719  -6.291  0.00  0.00     0.012 C 
ATOM     36  H   LIG d   1       6.954  -4.447  -6.531  0.00  0.00     0.046 H 
ATOM     37  H   LIG d   1       5.858  -4.985  -5.236  0.00  0.00     0.046 H 
BRANCH  35  38
ATOM     38  N   LIG d   1       5.521  -5.864  -7.109  0.00  0.00    -0.316 N 
ATOM     39  C   LIG d   1       4.811  -6.869  -6.559  0.00  0.00     0.210 C 
ATOM     40  O   LIG d   1       4.508  -6.825  -5.384  0.00  0.00    -0.276 OA
ATOM     41  H   LIG d   1       5.762  -5.899  -8.048  0.00  0.00     0.149 HD
BRANCH  39  42
ATOM     42  C   LIG d   1       4.394  -8.047  -7.400  0.00  0.00     0.012 C 
ATOM     43  H   LIG d   1       4.587  -8.970  -6.854  0.00  0.00     0.032 H 
ATOM     44  H   LIG d   1       3.331  -7.973  -7.628  0.00  0.00     0.032 H 
ATOM     45  H   LIG d   1       4.966  -8.050  -8.329  0.00  0.00     0.032 H 
ENDBRANCH  39  42
ENDBRANCH  35  38
ENDBRANCH  32  35
ENDBRANCH   3  32
TORSDOF 8
ENDMDL
