MODEL 1
REMARK VINA RESULT:      -7.3      0.000      0.000
REMARK  4 active torsions:
REMARK  status: ('A' for Active; 'I' for Inactive)
REMARK    1  A    between atoms: C_1  and  C_2 
REMARK    2  A    between atoms: C_17  and  C_25 
REMARK    3  A    between atoms: C_18  and  O_24 
REMARK    4  A    between atoms: C_21  and  O_23 
ROOT
ATOM      1  C   LIG d   1       4.390  -1.239  -7.402  0.00  0.00    -0.007 C 
ATOM      2  C   LIG d   1       4.806  -2.499  -8.119  0.00  0.00    -0.037 C 
ATOM      3  C   LIG d   1       3.614  -3.246  -8.719  0.00  0.00     0.011 C 
ATOM      4  C   LIG d   1       2.868  -2.277  -9.615  0.00  0.00     0.156 C 
ATOM      5  O   LIG d   1       2.592  -2.548 -10.765  0.00  0.00    -0.293 OA
ATOM      6  C   LIG d   1       2.497  -0.989  -9.009  0.00  0.00    -0.019 C 
ATOM      7  C   LIG d   1       3.200  -0.535  -7.976  0.00  0.00    -0.060 C 
ATOM      8  C   LIG d   1       2.761   0.754  -7.302  0.00  0.00    -0.030 C 
ATOM      9  C   LIG d   1       2.557   0.429  -5.817  0.00  0.00    -0.044 C 
ATOM     10  C   LIG d   1       3.844  -0.152  -5.224  0.00  0.00    -0.008 C 
ATOM     11  H   LIG d   1       4.662   0.548  -5.390  0.00  0.00     0.033 H 
ATOM     12  C   LIG d   1       4.171  -1.480  -5.906  0.00  0.00    -0.026 C 
ATOM     13  H   LIG d   1       3.357  -2.188  -5.750  0.00  0.00     0.031 H 
ATOM     14  C   LIG d   1       5.470  -2.032  -5.307  0.00  0.00    -0.048 C 
ATOM     15  C   LIG d   1       5.236  -2.324  -3.826  0.00  0.00    -0.042 C 
ATOM     16  C   LIG d   1       4.833  -1.075  -3.082  0.00  0.00     0.023 C 
ATOM     17  C   LIG d   1       3.641  -0.342  -3.717  0.00  0.00     0.077 C 
ATOM     18  C   LIG d   1       3.694   1.074  -3.083  0.00  0.00    -0.021 C 
ATOM     19  C   LIG d   1       5.176   1.285  -2.659  0.00  0.00    -0.024 C 
ATOM     20  C   LIG d   1       5.939  -0.004  -3.044  0.00  0.00     0.063 C 
ATOM     21  H   LIG d   1       6.685  -0.249  -2.289  0.00  0.00     0.060 H 
ATOM     22  H   LIG d   1       5.498  -2.238  -8.920  0.00  0.00     0.028 H 
ATOM     23  H   LIG d   1       5.315  -3.155  -7.413  0.00  0.00     0.028 H 
ATOM     24  H   LIG d   1       3.021  -3.573  -7.983  0.00  0.00     0.035 H 
ATOM     25  H   LIG d   1       3.966  -4.095  -9.304  0.00  0.00     0.035 H 
ATOM     26  H   LIG d   1       1.665  -0.422  -9.398  0.00  0.00     0.065 H 
ATOM     27  H   LIG d   1       3.531   1.517  -7.427  0.00  0.00     0.031 H 
ATOM     28  H   LIG d   1       1.824   1.099  -7.737  0.00  0.00     0.031 H 
ATOM     29  H   LIG d   1       1.747  -0.292  -5.697  0.00  0.00     0.027 H 
ATOM     30  H   LIG d   1       2.300   1.348  -5.292  0.00  0.00     0.027 H 
ATOM     31  H   LIG d   1       5.748  -2.952  -5.822  0.00  0.00     0.027 H 
ATOM     32  H   LIG d   1       6.266  -1.294  -5.414  0.00  0.00     0.027 H 
ATOM     33  H   LIG d   1       4.444  -3.068  -3.730  0.00  0.00     0.027 H 
ATOM     34  H   LIG d   1       6.153  -2.720  -3.391  0.00  0.00     0.027 H 
ATOM     35  H   LIG d   1       3.385   1.823  -3.813  0.00  0.00     0.029 H 
ATOM     36  H   LIG d   1       3.049   1.116  -2.206  0.00  0.00     0.029 H 
ATOM     37  H   LIG d   1       5.249   1.455  -1.584  0.00  0.00     0.029 H 
ATOM     38  H   LIG d   1       5.587   2.137  -3.200  0.00  0.00     0.029 H 
ENDROOT
BRANCH   1  39
ATOM     39  C   LIG d   1       5.569  -0.271  -7.519  0.00  0.00    -0.056 C 
ATOM     40  H   LIG d   1       5.263   0.607  -8.089  0.00  0.00     0.024 H 
ATOM     41  H   LIG d   1       5.888   0.035  -6.523  0.00  0.00     0.024 H 
ATOM     42  H   LIG d   1       6.395  -0.766  -8.031  0.00  0.00     0.024 H 
ENDBRANCH   1  39
BRANCH  17  43
ATOM     43  O   LIG d   1       2.406  -1.002  -3.433  0.00  0.00    -0.388 OA
ATOM     44  H   LIG d   1       2.509  -1.870  -3.020  0.00  0.00     0.210 HD
ENDBRANCH  17  43
BRANCH  16  45
ATOM     45  C   LIG d   1       4.478  -1.461  -1.644  0.00  0.00    -0.055 C 
ATOM     46  H   LIG d   1       3.627  -0.869  -1.308  0.00  0.00     0.024 H 
ATOM     47  H   LIG d   1       4.221  -2.521  -1.605  0.00  0.00     0.024 H 
ATOM     48  H   LIG d   1       5.332  -1.271  -0.995  0.00  0.00     0.024 H 
ENDBRANCH  16  45
BRANCH  20  49
ATOM     49  O   LIG d   1       6.549   0.134  -4.329  0.00  0.00    -0.391 OA
ATOM     50  H   LIG d   1       6.915  -0.690  -4.680  0.00  0.00     0.210 HD
ENDBRANCH  20  49
TORSDOF 4
ENDMDL
MODEL 2
REMARK VINA RESULT:      -7.2      1.674      3.252
REMARK  4 active torsions:
REMARK  status: ('A' for Active; 'I' for Inactive)
REMARK    1  A    between atoms: C_1  and  C_2 
REMARK    2  A    between atoms: C_17  and  C_25 
REMARK    3  A    between atoms: C_18  and  O_24 
REMARK    4  A    between atoms: C_21  and  O_23 
ROOT
ATOM      1  C   LIG d   1       3.922  -0.096  -7.501  0.00  0.00    -0.007 C 
ATOM      2  C   LIG d   1       2.710   0.536  -8.139  0.00  0.00    -0.037 C 
ATOM      3  C   LIG d   1       3.058   1.807  -8.914  0.00  0.00     0.011 C 
ATOM      4  C   LIG d   1       4.137   1.452  -9.920  0.00  0.00     0.156 C 
ATOM      5  O   LIG d   1       4.031   1.723 -11.098  0.00  0.00    -0.293 OA
ATOM      6  C   LIG d   1       5.318   0.760  -9.384  0.00  0.00    -0.019 C 
ATOM      7  C   LIG d   1       5.204   0.066  -8.256  0.00  0.00    -0.060 C 
ATOM      8  C   LIG d   1       6.446  -0.578  -7.663  0.00  0.00    -0.030 C 
ATOM      9  C   LIG d   1       6.572  -0.055  -6.226  0.00  0.00    -0.044 C 
ATOM     10  C   LIG d   1       5.298  -0.370  -5.438  0.00  0.00    -0.008 C 
ATOM     11  H   LIG d   1       5.108  -1.443  -5.477  0.00  0.00     0.033 H 
ATOM     12  C   LIG d   1       4.114   0.373  -6.056  0.00  0.00    -0.026 C 
ATOM     13  H   LIG d   1       4.293   1.448  -6.025  0.00  0.00     0.031 H 
ATOM     14  C   LIG d   1       2.849   0.029  -5.260  0.00  0.00    -0.048 C 
ATOM     15  C   LIG d   1       3.018   0.545  -3.833  0.00  0.00    -0.042 C 
ATOM     16  C   LIG d   1       4.216  -0.084  -3.165  0.00  0.00     0.023 C 
ATOM     17  C   LIG d   1       5.512   0.051  -3.980  0.00  0.00     0.077 C 
ATOM     18  C   LIG d   1       6.459  -1.007  -3.351  0.00  0.00    -0.021 C 
ATOM     19  C   LIG d   1       5.525  -2.069  -2.703  0.00  0.00    -0.024 C 
ATOM     20  C   LIG d   1       4.073  -1.603  -2.960  0.00  0.00     0.063 C 
ATOM     21  H   LIG d   1       3.443  -1.816  -2.097  0.00  0.00     0.060 H 
ATOM     22  H   LIG d   1       2.257  -0.181  -8.824  0.00  0.00     0.028 H 
ATOM     23  H   LIG d   1       1.989   0.784  -7.360  0.00  0.00     0.028 H 
ATOM     24  H   LIG d   1       3.386   2.505  -8.278  0.00  0.00     0.035 H 
ATOM     25  H   LIG d   1       2.175   2.178  -9.435  0.00  0.00     0.035 H 
ATOM     26  H   LIG d   1       6.265   0.816  -9.899  0.00  0.00     0.065 H 
ATOM     27  H   LIG d   1       6.339  -1.663  -7.669  0.00  0.00     0.031 H 
ATOM     28  H   LIG d   1       7.324  -0.289  -8.239  0.00  0.00     0.031 H 
ATOM     29  H   LIG d   1       6.736   1.023  -6.231  0.00  0.00     0.027 H 
ATOM     30  H   LIG d   1       7.421  -0.545  -5.751  0.00  0.00     0.027 H 
ATOM     31  H   LIG d   1       1.985   0.507  -5.723  0.00  0.00     0.027 H 
ATOM     32  H   LIG d   1       2.708  -1.052  -5.245  0.00  0.00     0.027 H 
ATOM     33  H   LIG d   1       3.151   1.627  -3.858  0.00  0.00     0.027 H 
ATOM     34  H   LIG d   1       2.123   0.308  -3.258  0.00  0.00     0.027 H 
ATOM     35  H   LIG d   1       7.085  -1.455  -4.123  0.00  0.00     0.029 H 
ATOM     36  H   LIG d   1       7.081  -0.544  -2.585  0.00  0.00     0.029 H 
ATOM     37  H   LIG d   1       5.710  -2.141  -1.631  0.00  0.00     0.029 H 
ATOM     38  H   LIG d   1       5.696  -3.035  -3.177  0.00  0.00     0.029 H 
ENDROOT
BRANCH   1  39
ATOM     39  C   LIG d   1       3.637  -1.597  -7.437  0.00  0.00    -0.056 C 
ATOM     40  H   LIG d   1       3.450  -1.974  -8.443  0.00  0.00     0.024 H 
ATOM     41  H   LIG d   1       4.498  -2.113  -7.011  0.00  0.00     0.024 H 
ATOM     42  H   LIG d   1       2.761  -1.775  -6.814  0.00  0.00     0.024 H 
ENDBRANCH   1  39
BRANCH  17  43
ATOM     43  O   LIG d   1       6.057   1.368  -3.889  0.00  0.00    -0.388 OA
ATOM     44  H   LIG d   1       5.520   1.981  -3.369  0.00  0.00     0.210 HD
ENDBRANCH  17  43
BRANCH  16  45
ATOM     45  C   LIG d   1       4.412   0.578  -1.798  0.00  0.00    -0.055 C 
ATOM     46  H   LIG d   1       3.907   1.544  -1.786  0.00  0.00     0.024 H 
ATOM     47  H   LIG d   1       3.990  -0.062  -1.022  0.00  0.00     0.024 H 
ATOM     48  H   LIG d   1       5.476   0.721  -1.612  0.00  0.00     0.024 H 
ENDBRANCH  16  45
BRANCH  20  49
ATOM     49  O   LIG d   1       3.543  -2.221  -4.134  0.00  0.00    -0.391 OA
ATOM     50  H   LIG d   1       2.641  -1.948  -4.349  0.00  0.00     0.210 HD
ENDBRANCH  20  49
TORSDOF 4
ENDMDL
MODEL 3
REMARK VINA RESULT:      -6.6      1.854      5.715
REMARK  4 active torsions:
REMARK  status: ('A' for Active; 'I' for Inactive)
REMARK    1  A    between atoms: C_1  and  C_2 
REMARK    2  A    between atoms: C_17  and  C_25 
REMARK    3  A    between atoms: C_18  and  O_24 
REMARK    4  A    between atoms: C_21  and  O_23 
ROOT
ATOM      1  C   LIG d   1       4.629  -0.575  -4.544  0.00  0.00    -0.007 C 
ATOM      2  C   LIG d   1       5.917  -0.517  -3.761  0.00  0.00    -0.037 C 
ATOM      3  C   LIG d   1       6.088   0.811  -3.023  0.00  0.00     0.011 C 
ATOM      4  C   LIG d   1       4.861   1.018  -2.156  0.00  0.00     0.156 C 
ATOM      5  O   LIG d   1       4.947   1.269  -0.972  0.00  0.00    -0.293 OA
ATOM      6  C   LIG d   1       3.562   0.896  -2.834  0.00  0.00    -0.019 C 
ATOM      7  C   LIG d   1       3.478   0.172  -3.945  0.00  0.00    -0.060 C 
ATOM      8  C   LIG d   1       2.154   0.118  -4.687  0.00  0.00    -0.030 C 
ATOM      9  C   LIG d   1       2.432   0.575  -6.124  0.00  0.00    -0.044 C 
ATOM     10  C   LIG d   1       3.511  -0.308  -6.757  0.00  0.00    -0.008 C 
ATOM     11  H   LIG d   1       3.197  -1.350  -6.704  0.00  0.00     0.033 H 
ATOM     12  C   LIG d   1       4.826  -0.138  -5.997  0.00  0.00    -0.026 C 
ATOM     13  H   LIG d   1       5.148   0.903  -6.041  0.00  0.00     0.031 H 
ATOM     14  C   LIG d   1       5.884  -1.043  -6.639  0.00  0.00    -0.048 C 
ATOM     15  C   LIG d   1       6.120  -0.573  -8.073  0.00  0.00    -0.042 C 
ATOM     16  C   LIG d   1       4.849  -0.636  -8.884  0.00  0.00     0.023 C 
ATOM     17  C   LIG d   1       3.668   0.096  -8.227  0.00  0.00     0.077 C 
ATOM     18  C   LIG d   1       2.424  -0.460  -8.972  0.00  0.00    -0.021 C 
ATOM     19  C   LIG d   1       2.853  -1.855  -9.512  0.00  0.00    -0.024 C 
ATOM     20  C   LIG d   1       4.323  -2.070  -9.081  0.00  0.00     0.063 C 
ATOM     21  H   LIG d   1       4.883  -2.580  -9.864  0.00  0.00     0.060 H 
ATOM     22  H   LIG d   1       5.925  -1.328  -3.032  0.00  0.00     0.028 H 
ATOM     23  H   LIG d   1       6.754  -0.651  -4.446  0.00  0.00     0.028 H 
ATOM     24  H   LIG d   1       6.178   1.552  -3.689  0.00  0.00     0.035 H 
ATOM     25  H   LIG d   1       6.981   0.776  -2.399  0.00  0.00     0.035 H 
ATOM     26  H   LIG d   1       2.689   1.391  -2.435  0.00  0.00     0.065 H 
ATOM     27  H   LIG d   1       1.764  -0.901  -4.676  0.00  0.00     0.031 H 
ATOM     28  H   LIG d   1       1.439   0.793  -4.217  0.00  0.00     0.031 H 
ATOM     29  H   LIG d   1       2.766   1.614  -6.131  0.00  0.00     0.027 H 
ATOM     30  H   LIG d   1       1.511   0.490  -6.701  0.00  0.00     0.027 H 
ATOM     31  H   LIG d   1       6.814  -0.976  -6.074  0.00  0.00     0.027 H 
ATOM     32  H   LIG d   1       5.530  -2.074  -6.646  0.00  0.00     0.027 H 
ATOM     33  H   LIG d   1       6.481   0.456  -8.056  0.00  0.00     0.027 H 
ATOM     34  H   LIG d   1       6.874  -1.208  -8.538  0.00  0.00     0.027 H 
ATOM     35  H   LIG d   1       1.584  -0.549  -8.284  0.00  0.00     0.029 H 
ATOM     36  H   LIG d   1       2.162   0.193  -9.803  0.00  0.00     0.029 H 
ATOM     37  H   LIG d   1       2.774  -1.889 -10.600  0.00  0.00     0.029 H 
ATOM     38  H   LIG d   1       2.218  -2.623  -9.070  0.00  0.00     0.029 H 
ENDROOT
BRANCH   1  39
ATOM     39  C   LIG d   1       4.220  -2.049  -4.584  0.00  0.00    -0.056 C 
ATOM     40  H   LIG d   1       3.917  -2.314  -5.598  0.00  0.00     0.024 H 
ATOM     41  H   LIG d   1       5.065  -2.669  -4.284  0.00  0.00     0.024 H 
ATOM     42  H   LIG d   1       3.387  -2.214  -3.902  0.00  0.00     0.024 H 
ENDBRANCH   1  39
BRANCH  17  43
ATOM     43  O   LIG d   1       3.780   1.513  -8.373  0.00  0.00    -0.388 OA
ATOM     44  H   LIG d   1       3.240   1.879  -9.087  0.00  0.00     0.210 HD
ENDBRANCH  17  43
BRANCH  16  45
ATOM     45  C   LIG d   1       5.120  -0.021 -10.259  0.00  0.00    -0.055 C 
ATOM     46  H   LIG d   1       4.176   0.132 -10.781  0.00  0.00     0.024 H 
ATOM     47  H   LIG d   1       5.626   0.937 -10.135  0.00  0.00     0.024 H 
ATOM     48  H   LIG d   1       5.753  -0.693 -10.839  0.00  0.00     0.024 H 
ENDBRANCH  16  45
BRANCH  20  49
ATOM     49  O   LIG d   1       4.389  -2.803  -7.856  0.00  0.00    -0.391 OA
ATOM     50  H   LIG d   1       4.838  -2.333  -7.141  0.00  0.00     0.210 HD
ENDBRANCH  20  49
TORSDOF 4
ENDMDL
MODEL 4
REMARK VINA RESULT:      -6.3      2.712      4.554
REMARK  4 active torsions:
REMARK  status: ('A' for Active; 'I' for Inactive)
REMARK    1  A    between atoms: C_1  and  C_2 
REMARK    2  A    between atoms: C_17  and  C_25 
REMARK    3  A    between atoms: C_18  and  O_24 
REMARK    4  A    between atoms: C_21  and  O_23 
ROOT
ATOM      1  C   LIG d   1       7.408   0.220  -5.993  0.00  0.00    -0.007 C 
ATOM      2  C   LIG d   1       7.462   0.136  -7.498  0.00  0.00    -0.037 C 
ATOM      3  C   LIG d   1       7.615   1.509  -8.152  0.00  0.00     0.011 C 
ATOM      4  C   LIG d   1       8.843   2.169  -7.555  0.00  0.00     0.156 C 
ATOM      5  O   LIG d   1       9.726   2.629  -8.248  0.00  0.00    -0.293 OA
ATOM      6  C   LIG d   1       8.901   2.218  -6.086  0.00  0.00    -0.019 C 
ATOM      7  C   LIG d   1       8.217   1.322  -5.382  0.00  0.00    -0.060 C 
ATOM      8  C   LIG d   1       8.213   1.428  -3.867  0.00  0.00    -0.030 C 
ATOM      9  C   LIG d   1       6.744   1.504  -3.432  0.00  0.00    -0.044 C 
ATOM     10  C   LIG d   1       5.978   0.284  -3.951  0.00  0.00    -0.008 C 
ATOM     11  H   LIG d   1       6.472  -0.624  -3.600  0.00  0.00     0.033 H 
ATOM     12  C   LIG d   1       5.968   0.294  -5.478  0.00  0.00    -0.026 C 
ATOM     13  H   LIG d   1       5.480   1.198  -5.840  0.00  0.00     0.031 H 
ATOM     14  C   LIG d   1       5.211  -0.945  -5.972  0.00  0.00    -0.048 C 
ATOM     15  C   LIG d   1       3.760  -0.846  -5.504  0.00  0.00    -0.042 C 
ATOM     16  C   LIG d   1       3.677  -0.775  -3.999  0.00  0.00     0.023 C 
ATOM     17  C   LIG d   1       4.553   0.330  -3.389  0.00  0.00     0.077 C 
ATOM     18  C   LIG d   1       4.656  -0.061  -1.890  0.00  0.00    -0.021 C 
ATOM     19  C   LIG d   1       4.415  -1.597  -1.843  0.00  0.00    -0.024 C 
ATOM     20  C   LIG d   1       4.171  -2.056  -3.300  0.00  0.00     0.063 C 
ATOM     21  H   LIG d   1       3.406  -2.831  -3.336  0.00  0.00     0.060 H 
ATOM     22  H   LIG d   1       8.308  -0.489  -7.787  0.00  0.00     0.028 H 
ATOM     23  H   LIG d   1       6.543  -0.328  -7.860  0.00  0.00     0.028 H 
ATOM     24  H   LIG d   1       6.798   2.056  -7.972  0.00  0.00     0.035 H 
ATOM     25  H   LIG d   1       7.743   1.395  -9.229  0.00  0.00     0.035 H 
ATOM     26  H   LIG d   1       9.490   2.973  -5.588  0.00  0.00     0.065 H 
ATOM     27  H   LIG d   1       8.698   0.552  -3.433  0.00  0.00     0.031 H 
ATOM     28  H   LIG d   1       8.737   2.332  -3.558  0.00  0.00     0.031 H 
ATOM     29  H   LIG d   1       6.282   2.412  -3.822  0.00  0.00     0.027 H 
ATOM     30  H   LIG d   1       6.704   1.520  -2.343  0.00  0.00     0.027 H 
ATOM     31  H   LIG d   1       5.243  -0.983  -7.061  0.00  0.00     0.027 H 
ATOM     32  H   LIG d   1       5.669  -1.845  -5.558  0.00  0.00     0.027 H 
ATOM     33  H   LIG d   1       3.309   0.051  -5.929  0.00  0.00     0.027 H 
ATOM     34  H   LIG d   1       3.212  -1.721  -5.852  0.00  0.00     0.027 H 
ATOM     35  H   LIG d   1       5.644   0.192  -1.504  0.00  0.00     0.029 H 
ATOM     36  H   LIG d   1       3.886   0.452  -1.315  0.00  0.00     0.029 H 
ATOM     37  H   LIG d   1       3.547  -1.833  -1.227  0.00  0.00     0.029 H 
ATOM     38  H   LIG d   1       5.301  -2.088  -1.441  0.00  0.00     0.029 H 
ENDROOT
BRANCH   1  39
ATOM     39  C   LIG d   1       7.991  -1.094  -5.470  0.00  0.00    -0.056 C 
ATOM     40  H   LIG d   1       8.766  -1.444  -6.153  0.00  0.00     0.024 H 
ATOM     41  H   LIG d   1       8.422  -0.933  -4.483  0.00  0.00     0.024 H 
ATOM     42  H   LIG d   1       7.201  -1.842  -5.405  0.00  0.00     0.024 H 
ENDBRANCH   1  39
BRANCH  17  43
ATOM     43  O   LIG d   1       3.965   1.621  -3.559  0.00  0.00    -0.388 OA
ATOM     44  H   LIG d   1       4.267   2.091  -4.348  0.00  0.00     0.210 HD
ENDBRANCH  17  43
BRANCH  16  45
ATOM     45  C   LIG d   1       2.217  -0.535  -3.605  0.00  0.00    -0.055 C 
ATOM     46  H   LIG d   1       1.683  -0.093  -4.446  0.00  0.00     0.024 H 
ATOM     47  H   LIG d   1       1.753  -1.484  -3.338  0.00  0.00     0.024 H 
ATOM     48  H   LIG d   1       2.178   0.142  -2.752  0.00  0.00     0.024 H 
ENDBRANCH  16  45
BRANCH  20  49
ATOM     49  O   LIG d   1       5.384  -2.518  -3.896  0.00  0.00    -0.391 OA
ATOM     50  H   LIG d   1       5.433  -3.479  -3.993  0.00  0.00     0.210 HD
ENDBRANCH  20  49
TORSDOF 4
ENDMDL
MODEL 5
REMARK VINA RESULT:      -6.2      2.727      4.519
REMARK  4 active torsions:
REMARK  status: ('A' for Active; 'I' for Inactive)
REMARK    1  A    between atoms: C_1  and  C_2 
REMARK    2  A    between atoms: C_17  and  C_25 
REMARK    3  A    between atoms: C_18  and  O_24 
REMARK    4  A    between atoms: C_21  and  O_23 
ROOT
ATOM      1  C   LIG d   1       6.925  -2.617  -5.376  0.00  0.00    -0.007 C 
ATOM      2  C   LIG d   1       8.401  -2.379  -5.577  0.00  0.00    -0.037 C 
ATOM      3  C   LIG d   1       9.260  -3.402  -4.835  0.00  0.00     0.011 C 
ATOM      4  C   LIG d   1       8.820  -4.783  -5.281  0.00  0.00     0.156 C 
ATOM      5  O   LIG d   1       9.610  -5.609  -5.689  0.00  0.00    -0.293 OA
ATOM      6  C   LIG d   1       7.380  -5.064  -5.190  0.00  0.00    -0.019 C 
ATOM      7  C   LIG d   1       6.521  -4.050  -5.216  0.00  0.00    -0.060 C 
ATOM      8  C   LIG d   1       5.040  -4.339  -5.038  0.00  0.00    -0.030 C 
ATOM      9  C   LIG d   1       4.562  -3.486  -3.856  0.00  0.00    -0.044 C 
ATOM     10  C   LIG d   1       4.858  -2.008  -4.120  0.00  0.00    -0.008 C 
ATOM     11  H   LIG d   1       4.395  -1.712  -5.062  0.00  0.00     0.033 H 
ATOM     12  C   LIG d   1       6.368  -1.794  -4.212  0.00  0.00    -0.026 C 
ATOM     13  H   LIG d   1       6.843  -2.089  -3.276  0.00  0.00     0.031 H 
ATOM     14  C   LIG d   1       6.638  -0.310  -4.492  0.00  0.00    -0.048 C 
ATOM     15  C   LIG d   1       6.131   0.508  -3.306  0.00  0.00    -0.042 C 
ATOM     16  C   LIG d   1       4.652   0.299  -3.092  0.00  0.00     0.023 C 
ATOM     17  C   LIG d   1       4.253  -1.180  -2.980  0.00  0.00     0.077 C 
ATOM     18  C   LIG d   1       2.717  -1.170  -3.210  0.00  0.00    -0.021 C 
ATOM     19  C   LIG d   1       2.429   0.116  -4.036  0.00  0.00    -0.024 C 
ATOM     20  C   LIG d   1       3.789   0.821  -4.255  0.00  0.00     0.063 C 
ATOM     21  H   LIG d   1       3.675   1.903  -4.194  0.00  0.00     0.060 H 
ATOM     22  H   LIG d   1       8.626  -2.436  -6.642  0.00  0.00     0.028 H 
ATOM     23  H   LIG d   1       8.650  -1.380  -5.217  0.00  0.00     0.028 H 
ATOM     24  H   LIG d   1       9.131  -3.293  -3.849  0.00  0.00     0.035 H 
ATOM     25  H   LIG d   1      10.312  -3.252  -5.081  0.00  0.00     0.035 H 
ATOM     26  H   LIG d   1       7.026  -6.080  -5.101  0.00  0.00     0.065 H 
ATOM     27  H   LIG d   1       4.499  -4.073  -5.947  0.00  0.00     0.031 H 
ATOM     28  H   LIG d   1       4.893  -5.395  -4.815  0.00  0.00     0.031 H 
ATOM     29  H   LIG d   1       5.066  -3.798  -2.940  0.00  0.00     0.027 H 
ATOM     30  H   LIG d   1       3.487  -3.625  -3.739  0.00  0.00     0.027 H 
ATOM     31  H   LIG d   1       7.709  -0.150  -4.617  0.00  0.00     0.027 H 
ATOM     32  H   LIG d   1       6.111  -0.007  -5.398  0.00  0.00     0.027 H 
ATOM     33  H   LIG d   1       6.668   0.203  -2.407  0.00  0.00     0.027 H 
ATOM     34  H   LIG d   1       6.320   1.565  -3.494  0.00  0.00     0.027 H 
ATOM     35  H   LIG d   1       2.415  -2.063  -3.759  0.00  0.00     0.029 H 
ATOM     36  H   LIG d   1       2.196  -1.121  -2.255  0.00  0.00     0.029 H 
ATOM     37  H   LIG d   1       1.749   0.777  -3.496  0.00  0.00     0.029 H 
ATOM     38  H   LIG d   1       1.994  -0.162  -4.996  0.00  0.00     0.029 H 
ENDROOT
BRANCH   1  39
ATOM     39  C   LIG d   1       6.233  -2.105  -6.641  0.00  0.00    -0.056 C 
ATOM     40  H   LIG d   1       6.580  -2.679  -7.501  0.00  0.00     0.024 H 
ATOM     41  H   LIG d   1       5.155  -2.221  -6.538  0.00  0.00     0.024 H 
ATOM     42  H   LIG d   1       6.474  -1.052  -6.786  0.00  0.00     0.024 H 
ENDBRANCH   1  39
BRANCH  17  43
ATOM     43  O   LIG d   1       4.592  -1.722  -1.702  0.00  0.00    -0.388 OA
ATOM     44  H   LIG d   1       4.933  -1.069  -1.076  0.00  0.00     0.210 HD
ENDBRANCH  17  43
BRANCH  16  45
ATOM     45  C   LIG d   1       4.240   1.029  -1.811  0.00  0.00    -0.055 C 
ATOM     46  H   LIG d   1       3.218   0.757  -1.551  0.00  0.00     0.024 H 
ATOM     47  H   LIG d   1       4.910   0.745  -0.999  0.00  0.00     0.024 H 
ATOM     48  H   LIG d   1       4.301   2.106  -1.971  0.00  0.00     0.024 H 
ENDBRANCH  16  45
BRANCH  20  49
ATOM     49  O   LIG d   1       4.356   0.445  -5.511  0.00  0.00    -0.391 OA
ATOM     50  H   LIG d   1       4.170   1.067  -6.228  0.00  0.00     0.210 HD
ENDBRANCH  20  49
TORSDOF 4
ENDMDL
MODEL 6
REMARK VINA RESULT:      -5.8      3.515      6.508
REMARK  4 active torsions:
REMARK  status: ('A' for Active; 'I' for Inactive)
REMARK    1  A    between atoms: C_1  and  C_2 
REMARK    2  A    between atoms: C_17  and  C_25 
REMARK    3  A    between atoms: C_18  and  O_24 
REMARK    4  A    between atoms: C_21  and  O_23 
ROOT
ATOM      1  C   LIG d   1       8.817   1.460  -4.637  0.00  0.00    -0.007 C 
ATOM      2  C   LIG d   1       9.067   2.764  -3.922  0.00  0.00    -0.037 C 
ATOM      3  C   LIG d   1      10.339   2.728  -3.075  0.00  0.00     0.011 C 
ATOM      4  C   LIG d   1      11.485   2.324  -3.983  0.00  0.00     0.156 C 
ATOM      5  O   LIG d   1      12.508   2.972  -4.051  0.00  0.00    -0.293 OA
ATOM      6  C   LIG d   1      11.282   1.103  -4.776  0.00  0.00    -0.019 C 
ATOM      7  C   LIG d   1      10.043   0.709  -5.052  0.00  0.00    -0.060 C 
ATOM      8  C   LIG d   1       9.839  -0.598  -5.799  0.00  0.00    -0.030 C 
ATOM      9  C   LIG d   1       8.918  -1.464  -4.931  0.00  0.00    -0.044 C 
ATOM     10  C   LIG d   1       7.609  -0.722  -4.649  0.00  0.00    -0.008 C 
ATOM     11  H   LIG d   1       7.147  -0.439  -5.596  0.00  0.00     0.033 H 
ATOM     12  C   LIG d   1       7.897   0.537  -3.834  0.00  0.00    -0.026 C 
ATOM     13  H   LIG d   1       8.361   0.267  -2.885  0.00  0.00     0.031 H 
ATOM     14  C   LIG d   1       6.574   1.270  -3.579  0.00  0.00    -0.048 C 
ATOM     15  C   LIG d   1       5.675   0.371  -2.732  0.00  0.00    -0.042 C 
ATOM     16  C   LIG d   1       5.397  -0.936  -3.432  0.00  0.00     0.023 C 
ATOM     17  C   LIG d   1       6.668  -1.666  -3.893  0.00  0.00     0.077 C 
ATOM     18  C   LIG d   1       6.150  -2.697  -4.931  0.00  0.00    -0.021 C 
ATOM     19  C   LIG d   1       4.812  -2.111  -5.467  0.00  0.00    -0.024 C 
ATOM     20  C   LIG d   1       4.583  -0.772  -4.729  0.00  0.00     0.063 C 
ATOM     21  H   LIG d   1       3.526  -0.633  -4.503  0.00  0.00     0.060 H 
ATOM     22  H   LIG d   1       9.158   3.561  -4.660  0.00  0.00     0.028 H 
ATOM     23  H   LIG d   1       8.217   2.981  -3.274  0.00  0.00     0.028 H 
ATOM     24  H   LIG d   1      10.227   2.066  -2.334  0.00  0.00     0.035 H 
ATOM     25  H   LIG d   1      10.531   3.714  -2.652  0.00  0.00     0.035 H 
ATOM     26  H   LIG d   1      12.130   0.533  -5.127  0.00  0.00     0.065 H 
ATOM     27  H   LIG d   1       9.381  -0.401  -6.769  0.00  0.00     0.031 H 
ATOM     28  H   LIG d   1      10.796  -1.099  -5.936  0.00  0.00     0.031 H 
ATOM     29  H   LIG d   1       9.407  -1.704  -3.986  0.00  0.00     0.027 H 
ATOM     30  H   LIG d   1       8.701  -2.388  -5.468  0.00  0.00     0.027 H 
ATOM     31  H   LIG d   1       6.768   2.202  -3.046  0.00  0.00     0.027 H 
ATOM     32  H   LIG d   1       6.084   1.485  -4.530  0.00  0.00     0.027 H 
ATOM     33  H   LIG d   1       6.169   0.168  -1.781  0.00  0.00     0.027 H 
ATOM     34  H   LIG d   1       4.733   0.884  -2.543  0.00  0.00     0.027 H 
ATOM     35  H   LIG d   1       6.875  -2.816  -5.736  0.00  0.00     0.029 H 
ATOM     36  H   LIG d   1       5.965  -3.656  -4.447  0.00  0.00     0.029 H 
ATOM     37  H   LIG d   1       3.985  -2.793  -5.269  0.00  0.00     0.029 H 
ATOM     38  H   LIG d   1       4.900  -1.936  -6.539  0.00  0.00     0.029 H 
ENDROOT
BRANCH   1  39
ATOM     39  C   LIG d   1       8.065   1.814  -5.921  0.00  0.00    -0.056 C 
ATOM     40  H   LIG d   1       8.231   2.865  -6.161  0.00  0.00     0.024 H 
ATOM     41  H   LIG d   1       8.429   1.193  -6.739  0.00  0.00     0.024 H 
ATOM     42  H   LIG d   1       6.998   1.640  -5.778  0.00  0.00     0.024 H 
ENDBRANCH   1  39
BRANCH  17  43
ATOM     43  O   LIG d   1       7.333  -2.305  -2.801  0.00  0.00    -0.388 OA
ATOM     44  H   LIG d   1       7.899  -3.044  -3.063  0.00  0.00     0.210 HD
ENDBRANCH  17  43
BRANCH  16  45
ATOM     45  C   LIG d   1       4.616  -1.841  -2.476  0.00  0.00    -0.055 C 
ATOM     46  H   LIG d   1       4.574  -1.378  -1.490  0.00  0.00     0.024 H 
ATOM     47  H   LIG d   1       3.603  -1.981  -2.855  0.00  0.00     0.024 H 
ATOM     48  H   LIG d   1       5.113  -2.808  -2.403  0.00  0.00     0.024 H 
ENDBRANCH  16  45
BRANCH  20  49
ATOM     49  O   LIG d   1       5.081   0.323  -5.500  0.00  0.00    -0.391 OA
ATOM     50  H   LIG d   1       5.791   0.083  -6.111  0.00  0.00     0.210 HD
ENDBRANCH  20  49
TORSDOF 4
ENDMDL
MODEL 7
REMARK VINA RESULT:      -5.6      2.108      5.780
REMARK  4 active torsions:
REMARK  status: ('A' for Active; 'I' for Inactive)
REMARK    1  A    between atoms: C_1  and  C_2 
REMARK    2  A    between atoms: C_17  and  C_25 
REMARK    3  A    between atoms: C_18  and  O_24 
REMARK    4  A    between atoms: C_21  and  O_23 
ROOT
ATOM      1  C   LIG d   1       4.595  -0.964  -5.341  0.00  0.00    -0.007 C 
ATOM      2  C   LIG d   1       3.802   0.312  -5.479  0.00  0.00    -0.037 C 
ATOM      3  C   LIG d   1       2.718   0.440  -4.409  0.00  0.00     0.011 C 
ATOM      4  C   LIG d   1       3.390   0.307  -3.055  0.00  0.00     0.156 C 
ATOM      5  O   LIG d   1       3.229   1.127  -2.175  0.00  0.00    -0.293 OA
ATOM      6  C   LIG d   1       4.246  -0.874  -2.872  0.00  0.00    -0.019 C 
ATOM      7  C   LIG d   1       4.779  -1.458  -3.940  0.00  0.00    -0.060 C 
ATOM      8  C   LIG d   1       5.594  -2.726  -3.752  0.00  0.00    -0.030 C 
ATOM      9  C   LIG d   1       4.958  -3.798  -4.646  0.00  0.00    -0.044 C 
ATOM     10  C   LIG d   1       4.922  -3.317  -6.099  0.00  0.00    -0.008 C 
ATOM     11  H   LIG d   1       5.932  -3.055  -6.415  0.00  0.00     0.033 H 
ATOM     12  C   LIG d   1       4.024  -2.086  -6.211  0.00  0.00    -0.026 C 
ATOM     13  H   LIG d   1       3.011  -2.335  -5.895  0.00  0.00     0.031 H 
ATOM     14  C   LIG d   1       4.018  -1.615  -7.671  0.00  0.00    -0.048 C 
ATOM     15  C   LIG d   1       3.398  -2.713  -8.533  0.00  0.00    -0.042 C 
ATOM     16  C   LIG d   1       4.182  -3.998  -8.425  0.00  0.00     0.023 C 
ATOM     17  C   LIG d   1       4.401  -4.461  -6.976  0.00  0.00     0.077 C 
ATOM     18  C   LIG d   1       5.556  -5.493  -7.086  0.00  0.00    -0.021 C 
ATOM     19  C   LIG d   1       6.331  -5.115  -8.380  0.00  0.00    -0.024 C 
ATOM     20  C   LIG d   1       5.610  -3.890  -8.991  0.00  0.00     0.063 C 
ATOM     21  H   LIG d   1       5.598  -3.954 -10.079  0.00  0.00     0.060 H 
ATOM     22  H   LIG d   1       4.481   1.161  -5.396  0.00  0.00     0.028 H 
ATOM     23  H   LIG d   1       3.332   0.332  -6.462  0.00  0.00     0.028 H 
ATOM     24  H   LIG d   1       2.037  -0.280  -4.536  0.00  0.00     0.035 H 
ATOM     25  H   LIG d   1       2.234   1.414  -4.487  0.00  0.00     0.035 H 
ATOM     26  H   LIG d   1       4.438  -1.261  -1.882  0.00  0.00     0.065 H 
ATOM     27  H   LIG d   1       6.630  -2.547  -4.043  0.00  0.00     0.031 H 
ATOM     28  H   LIG d   1       5.552  -3.042  -2.710  0.00  0.00     0.031 H 
ATOM     29  H   LIG d   1       3.942  -4.013  -4.312  0.00  0.00     0.027 H 
ATOM     30  H   LIG d   1       5.557  -4.706  -4.580  0.00  0.00     0.027 H 
ATOM     31  H   LIG d   1       3.426  -0.703  -7.758  0.00  0.00     0.027 H 
ATOM     32  H   LIG d   1       5.040  -1.424  -7.999  0.00  0.00     0.027 H 
ATOM     33  H   LIG d   1       2.374  -2.892  -8.202  0.00  0.00     0.027 H 
ATOM     34  H   LIG d   1       3.386  -2.387  -9.573  0.00  0.00     0.027 H 
ATOM     35  H   LIG d   1       6.201  -5.428  -6.209  0.00  0.00     0.029 H 
ATOM     36  H   LIG d   1       5.150  -6.500  -7.179  0.00  0.00     0.029 H 
ATOM     37  H   LIG d   1       6.325  -5.943  -9.090  0.00  0.00     0.029 H 
ATOM     38  H   LIG d   1       7.357  -4.853  -8.122  0.00  0.00     0.029 H 
ENDROOT
BRANCH   1  39
ATOM     39  C   LIG d   1       5.992  -0.659  -5.885  0.00  0.00    -0.056 C 
ATOM     40  H   LIG d   1       6.177   0.414  -5.829  0.00  0.00     0.024 H 
ATOM     41  H   LIG d   1       6.737  -1.188  -5.290  0.00  0.00     0.024 H 
ATOM     42  H   LIG d   1       6.057  -0.985  -6.923  0.00  0.00     0.024 H 
ENDBRANCH   1  39
BRANCH  17  43
ATOM     43  O   LIG d   1       3.220  -5.047  -6.426  0.00  0.00    -0.388 OA
ATOM     44  H   LIG d   1       3.279  -5.239  -5.480  0.00  0.00     0.210 HD
ENDBRANCH  17  43
BRANCH  16  45
ATOM     45  C   LIG d   1       3.433  -5.089  -9.194  0.00  0.00    -0.055 C 
ATOM     46  H   LIG d   1       3.114  -4.699 -10.160  0.00  0.00     0.024 H 
ATOM     47  H   LIG d   1       4.093  -5.944  -9.347  0.00  0.00     0.024 H 
ATOM     48  H   LIG d   1       2.560  -5.402  -8.622  0.00  0.00     0.024 H 
ENDBRANCH  16  45
BRANCH  20  49
ATOM     49  O   LIG d   1       6.229  -2.674  -8.565  0.00  0.00    -0.391 OA
ATOM     50  H   LIG d   1       6.970  -2.803  -7.956  0.00  0.00     0.210 HD
ENDBRANCH  20  49
TORSDOF 4
ENDMDL
MODEL 8
REMARK VINA RESULT:      -5.5      2.236      3.670
REMARK  4 active torsions:
REMARK  status: ('A' for Active; 'I' for Inactive)
REMARK    1  A    between atoms: C_1  and  C_2 
REMARK    2  A    between atoms: C_17  and  C_25 
REMARK    3  A    between atoms: C_18  and  O_24 
REMARK    4  A    between atoms: C_21  and  O_23 
ROOT
ATOM      1  C   LIG d   1       5.444  -2.870  -7.326  0.00  0.00    -0.007 C 
ATOM      2  C   LIG d   1       6.289  -2.395  -8.481  0.00  0.00    -0.037 C 
ATOM      3  C   LIG d   1       7.573  -3.210  -8.635  0.00  0.00     0.011 C 
ATOM      4  C   LIG d   1       7.179  -4.670  -8.755  0.00  0.00     0.156 C 
ATOM      5  O   LIG d   1       7.576  -5.370  -9.663  0.00  0.00    -0.293 OA
ATOM      6  C   LIG d   1       6.289  -5.187  -7.706  0.00  0.00    -0.019 C 
ATOM      7  C   LIG d   1       5.508  -4.339  -7.044  0.00  0.00    -0.060 C 
ATOM      8  C   LIG d   1       4.652  -4.866  -5.906  0.00  0.00    -0.030 C 
ATOM      9  C   LIG d   1       5.010  -4.041  -4.663  0.00  0.00    -0.044 C 
ATOM     10  C   LIG d   1       4.790  -2.552  -4.940  0.00  0.00    -0.008 C 
ATOM     11  H   LIG d   1       3.760  -2.396  -5.263  0.00  0.00     0.033 H 
ATOM     12  C   LIG d   1       5.740  -2.088  -6.044  0.00  0.00    -0.026 C 
ATOM     13  H   LIG d   1       6.773  -2.242  -5.733  0.00  0.00     0.031 H 
ATOM     14  C   LIG d   1       5.489  -0.599  -6.313  0.00  0.00    -0.048 C 
ATOM     15  C   LIG d   1       5.835   0.188  -5.051  0.00  0.00    -0.042 C 
ATOM     16  C   LIG d   1       4.992  -0.258  -3.882  0.00  0.00     0.023 C 
ATOM     17  C   LIG d   1       5.034  -1.775  -3.641  0.00  0.00     0.077 C 
ATOM     18  C   LIG d   1       3.804  -2.042  -2.731  0.00  0.00    -0.021 C 
ATOM     19  C   LIG d   1       2.816  -0.874  -3.014  0.00  0.00    -0.024 C 
ATOM     20  C   LIG d   1       3.492   0.039  -4.064  0.00  0.00     0.063 C 
ATOM     21  H   LIG d   1       3.280   1.087  -3.855  0.00  0.00     0.060 H 
ATOM     22  H   LIG d   1       5.709  -2.474  -9.400  0.00  0.00     0.028 H 
ATOM     23  H   LIG d   1       6.552  -1.349  -8.320  0.00  0.00     0.028 H 
ATOM     24  H   LIG d   1       8.156  -3.067  -7.836  0.00  0.00     0.035 H 
ATOM     25  H   LIG d   1       8.106  -2.896  -9.533  0.00  0.00     0.035 H 
ATOM     26  H   LIG d   1       6.270  -6.242  -7.476  0.00  0.00     0.065 H 
ATOM     27  H   LIG d   1       3.596  -4.751  -6.153  0.00  0.00     0.031 H 
ATOM     28  H   LIG d   1       4.878  -5.917  -5.729  0.00  0.00     0.031 H 
ATOM     29  H   LIG d   1       6.052  -4.207  -4.389  0.00  0.00     0.027 H 
ATOM     30  H   LIG d   1       4.368  -4.355  -3.840  0.00  0.00     0.027 H 
ATOM     31  H   LIG d   1       6.119  -0.265  -7.138  0.00  0.00     0.027 H 
ATOM     32  H   LIG d   1       4.439  -0.443  -6.565  0.00  0.00     0.027 H 
ATOM     33  H   LIG d   1       6.888   0.033  -4.811  0.00  0.00     0.027 H 
ATOM     34  H   LIG d   1       5.663   1.249  -5.232  0.00  0.00     0.027 H 
ATOM     35  H   LIG d   1       3.355  -3.004  -2.980  0.00  0.00     0.029 H 
ATOM     36  H   LIG d   1       4.104  -2.027  -1.684  0.00  0.00     0.029 H 
ATOM     37  H   LIG d   1       2.615  -0.310  -2.103  0.00  0.00     0.029 H 
ATOM     38  H   LIG d   1       1.887  -1.278  -3.414  0.00  0.00     0.029 H 
ENDROOT
BRANCH   1  39
ATOM     39  C   LIG d   1       3.994  -2.559  -7.701  0.00  0.00    -0.056 C 
ATOM     40  H   LIG d   1       3.632  -3.310  -8.404  0.00  0.00     0.024 H 
ATOM     41  H   LIG d   1       3.375  -2.573  -6.804  0.00  0.00     0.024 H 
ATOM     42  H   LIG d   1       3.942  -1.574  -8.164  0.00  0.00     0.024 H 
ENDBRANCH   1  39
BRANCH  17  43
ATOM     43  O   LIG d   1       6.253  -2.175  -3.012  0.00  0.00    -0.388 OA
ATOM     44  H   LIG d   1       6.533  -3.074  -3.234  0.00  0.00     0.210 HD
ENDBRANCH  17  43
BRANCH  16  45
ATOM     45  C   LIG d   1       5.485   0.464  -2.625  0.00  0.00    -0.055 C 
ATOM     46  H   LIG d   1       5.286   1.532  -2.718  0.00  0.00     0.024 H 
ATOM     47  H   LIG d   1       4.962   0.071  -1.753  0.00  0.00     0.024 H 
ATOM     48  H   LIG d   1       6.556   0.302  -2.510  0.00  0.00     0.024 H 
ENDBRANCH  16  45
BRANCH  20  49
ATOM     49  O   LIG d   1       3.067  -0.307  -5.384  0.00  0.00    -0.391 OA
ATOM     50  H   LIG d   1       2.868   0.456  -5.944  0.00  0.00     0.210 HD
ENDBRANCH  20  49
TORSDOF 4
ENDMDL
MODEL 9
REMARK VINA RESULT:      -5.4     11.904     14.512
REMARK  4 active torsions:
REMARK  status: ('A' for Active; 'I' for Inactive)
REMARK    1  A    between atoms: C_1  and  C_2 
REMARK    2  A    between atoms: C_17  and  C_25 
REMARK    3  A    between atoms: C_18  and  O_24 
REMARK    4  A    between atoms: C_21  and  O_23 
ROOT
ATOM      1  C   LIG d   1      10.008   9.064  -0.929  0.00  0.00    -0.007 C 
ATOM      2  C   LIG d   1      10.126   7.632  -1.390  0.00  0.00    -0.037 C 
ATOM      3  C   LIG d   1      11.455   6.998  -0.982  0.00  0.00     0.011 C 
ATOM      4  C   LIG d   1      11.593   7.146   0.522  0.00  0.00     0.156 C 
ATOM      5  O   LIG d   1      11.839   6.200   1.240  0.00  0.00    -0.293 OA
ATOM      6  C   LIG d   1      11.412   8.503   1.057  0.00  0.00    -0.019 C 
ATOM      7  C   LIG d   1      10.692   9.381   0.364  0.00  0.00    -0.060 C 
ATOM      8  C   LIG d   1      10.577  10.805   0.881  0.00  0.00    -0.030 C 
ATOM      9  C   LIG d   1      11.058  11.725  -0.248  0.00  0.00    -0.044 C 
ATOM     10  C   LIG d   1      10.236  11.477  -1.516  0.00  0.00    -0.008 C 
ATOM     11  H   LIG d   1       9.178  11.613  -1.288  0.00  0.00     0.033 H 
ATOM     12  C   LIG d   1      10.466  10.049  -2.007  0.00  0.00    -0.026 C 
ATOM     13  H   LIG d   1      11.521   9.900  -2.236  0.00  0.00     0.031 H 
ATOM     14  C   LIG d   1       9.620   9.821  -3.266  0.00  0.00    -0.048 C 
ATOM     15  C   LIG d   1      10.112  10.767  -4.360  0.00  0.00    -0.042 C 
ATOM     16  C   LIG d   1       9.991  12.208  -3.929  0.00  0.00     0.023 C 
ATOM     17  C   LIG d   1      10.658  12.500  -2.576  0.00  0.00     0.077 C 
ATOM     18  C   LIG d   1      10.045  13.860  -2.145  0.00  0.00    -0.021 C 
ATOM     19  C   LIG d   1       8.678  13.953  -2.881  0.00  0.00    -0.024 C 
ATOM     20  C   LIG d   1       8.535  12.661  -3.721  0.00  0.00     0.063 C 
ATOM     21  H   LIG d   1       8.059  12.877  -4.678  0.00  0.00     0.060 H 
ATOM     22  H   LIG d   1       9.311   7.053  -0.956  0.00  0.00     0.028 H 
ATOM     23  H   LIG d   1      10.039   7.603  -2.477  0.00  0.00     0.028 H 
ATOM     24  H   LIG d   1      12.205   7.464  -1.451  0.00  0.00     0.035 H 
ATOM     25  H   LIG d   1      11.460   5.942  -1.251  0.00  0.00     0.035 H 
ATOM     26  H   LIG d   1      11.858   8.783   1.999  0.00  0.00     0.065 H 
ATOM     27  H   LIG d   1       9.540  11.022   1.139  0.00  0.00     0.031 H 
ATOM     28  H   LIG d   1      11.212  10.933   1.757  0.00  0.00     0.031 H 
ATOM     29  H   LIG d   1      12.113  11.541  -0.461  0.00  0.00     0.027 H 
ATOM     30  H   LIG d   1      10.932  12.760   0.068  0.00  0.00     0.027 H 
ATOM     31  H   LIG d   1       9.729   8.788  -3.598  0.00  0.00     0.027 H 
ATOM     32  H   LIG d   1       8.572  10.029  -3.046  0.00  0.00     0.027 H 
ATOM     33  H   LIG d   1      11.158  10.546  -4.578  0.00  0.00     0.027 H 
ATOM     34  H   LIG d   1       9.519  10.611  -5.261  0.00  0.00     0.027 H 
ATOM     35  H   LIG d   1       9.910  13.884  -1.063  0.00  0.00     0.029 H 
ATOM     36  H   LIG d   1      10.691  14.679  -2.461  0.00  0.00     0.029 H 
ATOM     37  H   LIG d   1       8.649  14.827  -3.533  0.00  0.00     0.029 H 
ATOM     38  H   LIG d   1       7.876  14.010  -2.146  0.00  0.00     0.029 H 
ENDROOT
BRANCH   1  39
ATOM     39  C   LIG d   1       8.516   9.321  -0.710  0.00  0.00    -0.056 C 
ATOM     40  H   LIG d   1       8.291   9.261   0.356  0.00  0.00     0.024 H 
ATOM     41  H   LIG d   1       8.260  10.313  -1.080  0.00  0.00     0.024 H 
ATOM     42  H   LIG d   1       7.935   8.570  -1.246  0.00  0.00     0.024 H 
ENDBRANCH   1  39
BRANCH  17  43
ATOM     43  O   LIG d   1      12.080  12.576  -2.695  0.00  0.00    -0.388 OA
ATOM     44  H   LIG d   1      12.454  13.420  -2.408  0.00  0.00     0.210 HD
ENDBRANCH  17  43
BRANCH  16  45
ATOM     45  C   LIG d   1      10.629  13.090  -5.005  0.00  0.00    -0.055 C 
ATOM     46  H   LIG d   1      11.713  13.077  -4.890  0.00  0.00     0.024 H 
ATOM     47  H   LIG d   1      10.364  12.709  -5.992  0.00  0.00     0.024 H 
ATOM     48  H   LIG d   1      10.264  14.111  -4.901  0.00  0.00     0.024 H 
ENDBRANCH  16  45
BRANCH  20  49
ATOM     49  O   LIG d   1       7.796  11.670  -3.004  0.00  0.00    -0.391 OA
ATOM     50  H   LIG d   1       8.197  10.790  -3.026  0.00  0.00     0.210 HD
ENDBRANCH  20  49
TORSDOF 4
ENDMDL
