MODEL 1
REMARK VINA RESULT:      -6.2      0.000      0.000
REMARK  6 active torsions:
REMARK  status: ('A' for Active; 'I' for Inactive)
REMARK    1  A    between atoms: C_1  and  C_2 
REMARK    2  A    between atoms: C_2  and  C_3 
REMARK    3  A    between atoms: C_3  and  N_4 
REMARK    4  A    between atoms: C_5  and  C_7 
REMARK    5  A    between atoms: C_7  and  C_8 
REMARK    6  A    between atoms: C_7  and  C_12 
ROOT
ATOM      1  N   LIG d   1       3.613  -0.093  -5.672  0.00  0.00    -0.301 NA
ATOM      2  C   LIG d   1       4.553  -0.068  -4.787  0.00  0.00    -0.003 C 
ATOM      3  O   LIG d   1       5.840   0.051  -5.173  0.00  0.00    -0.862 OA
ENDROOT
BRANCH   2   4
ATOM      4  C   LIG d   1       4.211  -0.171  -3.323  0.00  0.00     0.261 C 
ATOM      5 CL   LIG d   1       2.465  -0.583  -3.141  0.00  0.00    -0.094 Cl
BRANCH   4   6
ATOM      6  C   LIG d   1       5.064  -1.263  -2.675  0.00  0.00     0.421 C 
ATOM      7  F   LIG d   1       4.525  -1.598  -1.429  0.00  0.00    -0.168 F 
ATOM      8  F   LIG d   1       5.076  -2.394  -3.498  0.00  0.00    -0.168 F 
ATOM      9  F   LIG d   1       6.371  -0.794  -2.507  0.00  0.00    -0.168 F 
ENDBRANCH   4   6
BRANCH   4  10
ATOM     10  C   LIG d   1       4.493   1.169  -2.639  0.00  0.00     0.421 C 
ATOM     11  F   LIG d   1       5.770   1.616  -2.997  0.00  0.00    -0.168 F 
ATOM     12  F   LIG d   1       3.539   2.109  -3.044  0.00  0.00    -0.168 F 
ATOM     13  F   LIG d   1       4.428   1.007  -1.251  0.00  0.00    -0.168 F 
ENDBRANCH   4  10
ENDBRANCH   2   4
BRANCH   1  14
ATOM     14  C   LIG d   1       3.945   0.008  -7.096  0.00  0.00     0.038 C 
ATOM     15  H   LIG d   1       4.279  -0.964  -7.460  0.00  0.00     0.051 H 
ATOM     16  H   LIG d   1       4.741   0.740  -7.232  0.00  0.00     0.051 H 
BRANCH  14  17
ATOM     17  C   LIG d   1       2.707   0.449  -7.878  0.00  0.00    -0.036 C 
ATOM     18  H   LIG d   1       1.841   0.453  -7.216  0.00  0.00     0.028 H 
ATOM     19  H   LIG d   1       2.531  -0.243  -8.700  0.00  0.00     0.028 H 
BRANCH  17  20
ATOM     20  C   LIG d   1       2.931   1.856  -8.435  0.00  0.00    -0.064 C 
ATOM     21  H   LIG d   1       2.343   1.985  -9.344  0.00  0.00     0.023 H 
ATOM     22  H   LIG d   1       2.621   2.594  -7.694  0.00  0.00     0.023 H 
ATOM     23  H   LIG d   1       3.987   1.992  -8.664  0.00  0.00     0.023 H 
ENDBRANCH  17  20
ENDBRANCH  14  17
ENDBRANCH   1  14
TORSDOF 6
ENDMDL
MODEL 2
REMARK VINA RESULT:      -6.1      1.645      2.924
REMARK  6 active torsions:
REMARK  status: ('A' for Active; 'I' for Inactive)
REMARK    1  A    between atoms: C_1  and  C_2 
REMARK    2  A    between atoms: C_2  and  C_3 
REMARK    3  A    between atoms: C_3  and  N_4 
REMARK    4  A    between atoms: C_5  and  C_7 
REMARK    5  A    between atoms: C_7  and  C_8 
REMARK    6  A    between atoms: C_7  and  C_12 
ROOT
ATOM      1  N   LIG d   1       3.939  -0.114  -5.899  0.00  0.00    -0.301 NA
ATOM      2  C   LIG d   1       3.421   0.046  -4.728  0.00  0.00    -0.003 C 
ATOM      3  O   LIG d   1       2.112   0.348  -4.605  0.00  0.00    -0.862 OA
ENDROOT
BRANCH   2   4
ATOM      4  C   LIG d   1       4.278  -0.106  -3.498  0.00  0.00     0.261 C 
ATOM      5 CL   LIG d   1       6.012  -0.206  -3.982  0.00  0.00    -0.094 Cl
BRANCH   4   6
ATOM      6  C   LIG d   1       4.073   1.101  -2.581  0.00  0.00     0.421 C 
ATOM      7  F   LIG d   1       4.037   2.270  -3.348  0.00  0.00    -0.168 F 
ATOM      8  F   LIG d   1       2.865   0.961  -1.889  0.00  0.00    -0.168 F 
ATOM      9  F   LIG d   1       5.129   1.175  -1.666  0.00  0.00    -0.168 F 
ENDBRANCH   4   6
BRANCH   4  10
ATOM     10  C   LIG d   1       3.881  -1.384  -2.755  0.00  0.00     0.421 C 
ATOM     11  F   LIG d   1       2.489  -1.434  -2.626  0.00  0.00    -0.168 F 
ATOM     12  F   LIG d   1       4.323  -2.498  -3.476  0.00  0.00    -0.168 F 
ATOM     13  F   LIG d   1       4.468  -1.387  -1.486  0.00  0.00    -0.168 F 
ENDBRANCH   4  10
ENDBRANCH   2   4
BRANCH   1  14
ATOM     14  C   LIG d   1       3.106   0.033  -7.096  0.00  0.00     0.038 C 
ATOM     15  H   LIG d   1       2.157   0.496  -6.823  0.00  0.00     0.051 H 
ATOM     16  H   LIG d   1       2.920  -0.949  -7.532  0.00  0.00     0.051 H 
BRANCH  14  17
ATOM     17  C   LIG d   1       3.830   0.915  -8.115  0.00  0.00    -0.036 C 
ATOM     18  H   LIG d   1       4.096   0.319  -8.988  0.00  0.00     0.028 H 
ATOM     19  H   LIG d   1       4.734   1.324  -7.665  0.00  0.00     0.028 H 
BRANCH  17  20
ATOM     20  C   LIG d   1       2.910   2.061  -8.541  0.00  0.00    -0.064 C 
ATOM     21  H   LIG d   1       3.070   2.282  -9.597  0.00  0.00     0.023 H 
ATOM     22  H   LIG d   1       1.871   1.772  -8.383  0.00  0.00     0.023 H 
ATOM     23  H   LIG d   1       3.135   2.947  -7.947  0.00  0.00     0.023 H 
ENDBRANCH  17  20
ENDBRANCH  14  17
ENDBRANCH   1  14
TORSDOF 6
ENDMDL
MODEL 3
REMARK VINA RESULT:      -5.8      2.682      3.521
REMARK  6 active torsions:
REMARK  status: ('A' for Active; 'I' for Inactive)
REMARK    1  A    between atoms: C_1  and  C_2 
REMARK    2  A    between atoms: C_2  and  C_3 
REMARK    3  A    between atoms: C_3  and  N_4 
REMARK    4  A    between atoms: C_5  and  C_7 
REMARK    5  A    between atoms: C_7  and  C_8 
REMARK    6  A    between atoms: C_7  and  C_12 
ROOT
ATOM      1  N   LIG d   1       6.508   0.757  -4.226  0.00  0.00    -0.301 NA
ATOM      2  C   LIG d   1       5.589   0.621  -3.331  0.00  0.00    -0.003 C 
ATOM      3  O   LIG d   1       5.604   1.394  -2.225  0.00  0.00    -0.862 OA
ENDROOT
BRANCH   2   4
ATOM      4  C   LIG d   1       4.497  -0.401  -3.522  0.00  0.00     0.261 C 
ATOM      5 CL   LIG d   1       4.549  -1.027  -5.212  0.00  0.00    -0.094 Cl
BRANCH   4   6
ATOM      6  C   LIG d   1       4.703  -1.557  -2.542  0.00  0.00     0.421 C 
ATOM      7  F   LIG d   1       3.899  -2.637  -2.918  0.00  0.00    -0.168 F 
ATOM      8  F   LIG d   1       6.047  -1.948  -2.558  0.00  0.00    -0.168 F 
ATOM      9  F   LIG d   1       4.354  -1.142  -1.252  0.00  0.00    -0.168 F 
ENDBRANCH   4   6
BRANCH   4  10
ATOM     10  C   LIG d   1       3.138   0.252  -3.261  0.00  0.00     0.421 C 
ATOM     11  F   LIG d   1       2.157  -0.741  -3.157  0.00  0.00    -0.168 F 
ATOM     12  F   LIG d   1       3.192   0.981  -2.069  0.00  0.00    -0.168 F 
ATOM     13  F   LIG d   1       2.822   1.110  -4.319  0.00  0.00    -0.168 F 
ENDBRANCH   4  10
ENDBRANCH   2   4
BRANCH   1  14
ATOM     14  C   LIG d   1       7.569   1.750  -4.041  0.00  0.00     0.038 C 
ATOM     15  H   LIG d   1       8.281   1.388  -3.299  0.00  0.00     0.051 H 
ATOM     16  H   LIG d   1       7.132   2.689  -3.698  0.00  0.00     0.051 H 
BRANCH  14  17
ATOM     17  C   LIG d   1       8.290   1.980  -5.371  0.00  0.00    -0.036 C 
ATOM     18  H   LIG d   1       7.556   2.117  -6.164  0.00  0.00     0.028 H 
ATOM     19  H   LIG d   1       8.914   1.116  -5.600  0.00  0.00     0.028 H 
BRANCH  17  20
ATOM     20  C   LIG d   1       9.168   3.229  -5.266  0.00  0.00    -0.064 C 
ATOM     21  H   LIG d   1       8.537   4.104  -5.107  0.00  0.00     0.023 H 
ATOM     22  H   LIG d   1       9.856   3.120  -4.428  0.00  0.00     0.023 H 
ATOM     23  H   LIG d   1       9.735   3.352  -6.188  0.00  0.00     0.023 H 
ENDBRANCH  17  20
ENDBRANCH  14  17
ENDBRANCH   1  14
TORSDOF 6
ENDMDL
MODEL 4
REMARK VINA RESULT:      -5.8      1.793      3.178
REMARK  6 active torsions:
REMARK  status: ('A' for Active; 'I' for Inactive)
REMARK    1  A    between atoms: C_1  and  C_2 
REMARK    2  A    between atoms: C_2  and  C_3 
REMARK    3  A    between atoms: C_3  and  N_4 
REMARK    4  A    between atoms: C_5  and  C_7 
REMARK    5  A    between atoms: C_7  and  C_8 
REMARK    6  A    between atoms: C_7  and  C_12 
ROOT
ATOM      1  N   LIG d   1       4.703  -0.705  -5.579  0.00  0.00    -0.301 NA
ATOM      2  C   LIG d   1       4.134  -0.112  -4.584  0.00  0.00    -0.003 C 
ATOM      3  O   LIG d   1       3.092   0.718  -4.799  0.00  0.00    -0.862 OA
ENDROOT
BRANCH   2   4
ATOM      4  C   LIG d   1       4.634  -0.346  -3.182  0.00  0.00     0.261 C 
ATOM      5 CL   LIG d   1       6.410  -0.652  -3.220  0.00  0.00    -0.094 Cl
BRANCH   4   6
ATOM      6  C   LIG d   1       4.346   0.888  -2.324  0.00  0.00     0.421 C 
ATOM      7  F   LIG d   1       2.963   1.058  -2.201  0.00  0.00    -0.168 F 
ATOM      8  F   LIG d   1       4.909   0.715  -1.055  0.00  0.00    -0.168 F 
ATOM      9  F   LIG d   1       4.903   2.017  -2.932  0.00  0.00    -0.168 F 
ENDBRANCH   4   6
BRANCH   4  10
ATOM     10  C   LIG d   1       3.920  -1.560  -2.583  0.00  0.00     0.421 C 
ATOM     11  F   LIG d   1       4.251  -2.704  -3.318  0.00  0.00    -0.168 F 
ATOM     12  F   LIG d   1       4.322  -1.728  -1.254  0.00  0.00    -0.168 F 
ATOM     13  F   LIG d   1       2.537  -1.359  -2.631  0.00  0.00    -0.168 F 
ENDBRANCH   4  10
ENDBRANCH   2   4
BRANCH   1  14
ATOM     14  C   LIG d   1       4.217  -0.477  -6.943  0.00  0.00     0.038 C 
ATOM     15  H   LIG d   1       4.909   0.178  -7.470  0.00  0.00     0.051 H 
ATOM     16  H   LIG d   1       3.232  -0.011  -6.904  0.00  0.00     0.051 H 
BRANCH  14  17
ATOM     17  C   LIG d   1       4.118  -1.815  -7.678  0.00  0.00    -0.036 C 
ATOM     18  H   LIG d   1       4.583  -1.725  -8.660  0.00  0.00     0.028 H 
ATOM     19  H   LIG d   1       3.070  -2.088  -7.797  0.00  0.00     0.028 H 
BRANCH  17  20
ATOM     20  C   LIG d   1       4.838  -2.896  -6.869  0.00  0.00    -0.064 C 
ATOM     21  H   LIG d   1       5.748  -3.194  -7.391  0.00  0.00     0.023 H 
ATOM     22  H   LIG d   1       5.095  -2.503  -5.886  0.00  0.00     0.023 H 
ATOM     23  H   LIG d   1       4.184  -3.760  -6.757  0.00  0.00     0.023 H 
ENDBRANCH  17  20
ENDBRANCH  14  17
ENDBRANCH   1  14
TORSDOF 6
ENDMDL
MODEL 5
REMARK VINA RESULT:      -5.6      2.502      4.034
REMARK  6 active torsions:
REMARK  status: ('A' for Active; 'I' for Inactive)
REMARK    1  A    between atoms: C_1  and  C_2 
REMARK    2  A    between atoms: C_2  and  C_3 
REMARK    3  A    between atoms: C_3  and  N_4 
REMARK    4  A    between atoms: C_5  and  C_7 
REMARK    5  A    between atoms: C_7  and  C_8 
REMARK    6  A    between atoms: C_7  and  C_12 
ROOT
ATOM      1  N   LIG d   1       6.580  -1.121  -3.478  0.00  0.00    -0.301 NA
ATOM      2  C   LIG d   1       5.607  -0.358  -3.846  0.00  0.00    -0.003 C 
ATOM      3  O   LIG d   1       5.697   0.344  -4.994  0.00  0.00    -0.862 OA
ENDROOT
BRANCH   2   4
ATOM      4  C   LIG d   1       4.369  -0.251  -2.993  0.00  0.00     0.261 C 
ATOM      5 CL   LIG d   1       4.297  -1.653  -1.861  0.00  0.00    -0.094 Cl
BRANCH   4   6
ATOM      6  C   LIG d   1       4.412   1.051  -2.191  0.00  0.00     0.421 C 
ATOM      7  F   LIG d   1       5.220   1.980  -2.854  0.00  0.00    -0.168 F 
ATOM      8  F   LIG d   1       3.117   1.564  -2.065  0.00  0.00    -0.168 F 
ATOM      9  F   LIG d   1       4.939   0.798  -0.920  0.00  0.00    -0.168 F 
ENDBRANCH   4   6
BRANCH   4  10
ATOM     10  C   LIG d   1       3.130  -0.256  -3.890  0.00  0.00     0.421 C 
ATOM     11  F   LIG d   1       2.028  -0.716  -3.161  0.00  0.00    -0.168 F 
ATOM     12  F   LIG d   1       2.879   1.043  -4.345  0.00  0.00    -0.168 F 
ATOM     13  F   LIG d   1       3.350  -1.099  -4.985  0.00  0.00    -0.168 F 
ENDBRANCH   4  10
ENDBRANCH   2   4
BRANCH   1  14
ATOM     14  C   LIG d   1       7.784  -1.225  -4.307  0.00  0.00     0.038 C 
ATOM     15  H   LIG d   1       8.560  -0.575  -3.904  0.00  0.00     0.051 H 
ATOM     16  H   LIG d   1       7.549  -0.922  -5.327  0.00  0.00     0.051 H 
BRANCH  14  17
ATOM     17  C   LIG d   1       8.279  -2.672  -4.307  0.00  0.00    -0.036 C 
ATOM     18  H   LIG d   1       8.685  -2.918  -3.326  0.00  0.00     0.028 H 
ATOM     19  H   LIG d   1       9.057  -2.790  -5.061  0.00  0.00     0.028 H 
BRANCH  17  20
ATOM     20  C   LIG d   1       7.113  -3.610  -4.626  0.00  0.00    -0.064 C 
ATOM     21  H   LIG d   1       7.343  -4.612  -4.263  0.00  0.00     0.023 H 
ATOM     22  H   LIG d   1       6.209  -3.245  -4.138  0.00  0.00     0.023 H 
ATOM     23  H   LIG d   1       6.957  -3.641  -5.704  0.00  0.00     0.023 H 
ENDBRANCH  17  20
ENDBRANCH  14  17
ENDBRANCH   1  14
TORSDOF 6
ENDMDL
MODEL 6
REMARK VINA RESULT:      -5.6      1.659      2.554
REMARK  6 active torsions:
REMARK  status: ('A' for Active; 'I' for Inactive)
REMARK    1  A    between atoms: C_1  and  C_2 
REMARK    2  A    between atoms: C_2  and  C_3 
REMARK    3  A    between atoms: C_3  and  N_4 
REMARK    4  A    between atoms: C_5  and  C_7 
REMARK    5  A    between atoms: C_7  and  C_8 
REMARK    6  A    between atoms: C_7  and  C_12 
ROOT
ATOM      1  N   LIG d   1       5.687  -0.236  -5.171  0.00  0.00    -0.301 NA
ATOM      2  C   LIG d   1       4.483  -0.061  -4.743  0.00  0.00    -0.003 C 
ATOM      3  O   LIG d   1       3.495   0.242  -5.610  0.00  0.00    -0.862 OA
ENDROOT
BRANCH   2   4
ATOM      4  C   LIG d   1       4.180  -0.197  -3.272  0.00  0.00     0.261 C 
ATOM      5 CL   LIG d   1       2.437  -0.606  -3.053  0.00  0.00    -0.094 Cl
BRANCH   4   6
ATOM      6  C   LIG d   1       5.044  -1.308  -2.673  0.00  0.00     0.421 C 
ATOM      7  F   LIG d   1       6.366  -0.864  -2.567  0.00  0.00    -0.168 F 
ATOM      8  F   LIG d   1       4.560  -1.642  -1.403  0.00  0.00    -0.168 F 
ATOM      9  F   LIG d   1       4.995  -2.434  -3.502  0.00  0.00    -0.168 F 
ENDBRANCH   4   6
BRANCH   4  10
ATOM     10  C   LIG d   1       4.486   1.125  -2.565  0.00  0.00     0.421 C 
ATOM     11  F   LIG d   1       3.480   2.053  -2.855  0.00  0.00    -0.168 F 
ATOM     12  F   LIG d   1       4.541   0.912  -1.183  0.00  0.00    -0.168 F 
ATOM     13  F   LIG d   1       5.717   1.618  -3.010  0.00  0.00    -0.168 F 
ENDBRANCH   4  10
ENDBRANCH   2   4
BRANCH   1  14
ATOM     14  C   LIG d   1       5.982  -0.105  -6.600  0.00  0.00     0.038 C 
ATOM     15  H   LIG d   1       5.326   0.647  -7.039  0.00  0.00     0.051 H 
ATOM     16  H   LIG d   1       5.820  -1.063  -7.094  0.00  0.00     0.051 H 
BRANCH  14  17
ATOM     17  C   LIG d   1       7.440   0.322  -6.783  0.00  0.00    -0.036 C 
ATOM     18  H   LIG d   1       7.528   0.945  -7.672  0.00  0.00     0.028 H 
ATOM     19  H   LIG d   1       8.066  -0.563  -6.896  0.00  0.00     0.028 H 
BRANCH  17  20
ATOM     20  C   LIG d   1       7.896   1.115  -5.556  0.00  0.00    -0.064 C 
ATOM     21  H   LIG d   1       8.362   0.439  -4.839  0.00  0.00     0.023 H 
ATOM     22  H   LIG d   1       8.616   1.875  -5.861  0.00  0.00     0.023 H 
ATOM     23  H   LIG d   1       7.034   1.596  -5.094  0.00  0.00     0.023 H 
ENDBRANCH  17  20
ENDBRANCH  14  17
ENDBRANCH   1  14
TORSDOF 6
ENDMDL
MODEL 7
REMARK VINA RESULT:      -5.2      2.225      3.385
REMARK  6 active torsions:
REMARK  status: ('A' for Active; 'I' for Inactive)
REMARK    1  A    between atoms: C_1  and  C_2 
REMARK    2  A    between atoms: C_2  and  C_3 
REMARK    3  A    between atoms: C_3  and  N_4 
REMARK    4  A    between atoms: C_5  and  C_7 
REMARK    5  A    between atoms: C_7  and  C_8 
REMARK    6  A    between atoms: C_7  and  C_12 
ROOT
ATOM      1  N   LIG d   1       6.268  -0.210  -4.829  0.00  0.00    -0.301 NA
ATOM      2  C   LIG d   1       5.858   0.448  -3.797  0.00  0.00    -0.003 C 
ATOM      3  O   LIG d   1       6.493   1.576  -3.420  0.00  0.00    -0.862 OA
ENDROOT
BRANCH   2   4
ATOM      4  C   LIG d   1       4.668  -0.046  -3.014  0.00  0.00     0.261 C 
ATOM      5 CL   LIG d   1       4.586   0.822  -1.435  0.00  0.00    -0.094 Cl
BRANCH   4   6
ATOM      6  C   LIG d   1       3.388   0.219  -3.809  0.00  0.00     0.421 C 
ATOM      7  F   LIG d   1       3.091   1.585  -3.775  0.00  0.00    -0.168 F 
ATOM      8  F   LIG d   1       3.572  -0.185  -5.136  0.00  0.00    -0.168 F 
ATOM      9  F   LIG d   1       2.331  -0.502  -3.244  0.00  0.00    -0.168 F 
ENDBRANCH   4   6
BRANCH   4  10
ATOM     10  C   LIG d   1       4.811  -1.548  -2.764  0.00  0.00     0.421 C 
ATOM     11  F   LIG d   1       4.250  -2.254  -3.834  0.00  0.00    -0.168 F 
ATOM     12  F   LIG d   1       6.166  -1.875  -2.649  0.00  0.00    -0.168 F 
ATOM     13  F   LIG d   1       4.147  -1.889  -1.581  0.00  0.00    -0.168 F 
ENDBRANCH   4  10
ENDBRANCH   2   4
BRANCH   1  14
ATOM     14  C   LIG d   1       7.424   0.270  -5.591  0.00  0.00     0.038 C 
ATOM     15  H   LIG d   1       8.201  -0.495  -5.591  0.00  0.00     0.051 H 
ATOM     16  H   LIG d   1       7.809   1.180  -5.131  0.00  0.00     0.051 H 
BRANCH  14  17
ATOM     17  C   LIG d   1       6.999   0.566  -7.030  0.00  0.00    -0.036 C 
ATOM     18  H   LIG d   1       7.873   0.540  -7.680  0.00  0.00     0.028 H 
ATOM     19  H   LIG d   1       6.540   1.552  -7.078  0.00  0.00     0.028 H 
BRANCH  17  20
ATOM     20  C   LIG d   1       5.990  -0.489  -7.491  0.00  0.00    -0.064 C 
ATOM     21  H   LIG d   1       6.504  -1.436  -7.653  0.00  0.00     0.023 H 
ATOM     22  H   LIG d   1       5.224  -0.617  -6.726  0.00  0.00     0.023 H 
ATOM     23  H   LIG d   1       5.525  -0.164  -8.421  0.00  0.00     0.023 H 
ENDBRANCH  17  20
ENDBRANCH  14  17
ENDBRANCH   1  14
TORSDOF 6
ENDMDL
MODEL 8
REMARK VINA RESULT:      -4.9      2.892      4.152
REMARK  6 active torsions:
REMARK  status: ('A' for Active; 'I' for Inactive)
REMARK    1  A    between atoms: C_1  and  C_2 
REMARK    2  A    between atoms: C_2  and  C_3 
REMARK    3  A    between atoms: C_3  and  N_4 
REMARK    4  A    between atoms: C_5  and  C_7 
REMARK    5  A    between atoms: C_7  and  C_8 
REMARK    6  A    between atoms: C_7  and  C_12 
ROOT
ATOM      1  N   LIG d   1       4.097  -0.539  -3.821  0.00  0.00    -0.301 NA
ATOM      2  C   LIG d   1       4.962  -0.719  -4.762  0.00  0.00    -0.003 C 
ATOM      3  O   LIG d   1       4.994   0.119  -5.818  0.00  0.00    -0.862 OA
ENDROOT
BRANCH   2   4
ATOM      4  C   LIG d   1       5.936  -1.867  -4.681  0.00  0.00     0.261 C 
ATOM      5 CL   LIG d   1       7.105  -1.760  -6.049  0.00  0.00    -0.094 Cl
BRANCH   4   6
ATOM      6  C   LIG d   1       6.694  -1.799  -3.354  0.00  0.00     0.421 C 
ATOM      7  F   LIG d   1       5.809  -2.039  -2.298  0.00  0.00    -0.168 F 
ATOM      8  F   LIG d   1       7.705  -2.767  -3.345  0.00  0.00    -0.168 F 
ATOM      9  F   LIG d   1       7.263  -0.530  -3.206  0.00  0.00    -0.168 F 
ENDBRANCH   4   6
BRANCH   4  10
ATOM     10  C   LIG d   1       5.172  -3.190  -4.764  0.00  0.00     0.421 C 
ATOM     11  F   LIG d   1       4.436  -3.378  -3.589  0.00  0.00    -0.168 F 
ATOM     12  F   LIG d   1       4.302  -3.158  -5.859  0.00  0.00    -0.168 F 
ATOM     13  F   LIG d   1       6.079  -4.243  -4.920  0.00  0.00    -0.168 F 
ENDBRANCH   4  10
ENDBRANCH   2   4
BRANCH   1  14
ATOM     14  C   LIG d   1       3.150   0.576  -3.899  0.00  0.00     0.038 C 
ATOM     15  H   LIG d   1       2.143   0.212  -3.696  0.00  0.00     0.051 H 
ATOM     16  H   LIG d   1       3.185   1.012  -4.898  0.00  0.00     0.051 H 
BRANCH  14  17
ATOM     17  C   LIG d   1       3.528   1.639  -2.865  0.00  0.00    -0.036 C 
ATOM     18  H   LIG d   1       2.622   2.055  -2.425  0.00  0.00     0.028 H 
ATOM     19  H   LIG d   1       4.094   2.433  -3.350  0.00  0.00     0.028 H 
BRANCH  17  20
ATOM     20  C   LIG d   1       4.382   1.001  -1.767  0.00  0.00    -0.064 C 
ATOM     21  H   LIG d   1       3.778   0.868  -0.869  0.00  0.00     0.023 H 
ATOM     22  H   LIG d   1       4.747   0.032  -2.108  0.00  0.00     0.023 H 
ATOM     23  H   LIG d   1       5.228   1.650  -1.543  0.00  0.00     0.023 H 
ENDBRANCH  17  20
ENDBRANCH  14  17
ENDBRANCH   1  14
TORSDOF 6
ENDMDL
MODEL 9
REMARK VINA RESULT:      -4.9      2.697      3.587
REMARK  6 active torsions:
REMARK  status: ('A' for Active; 'I' for Inactive)
REMARK    1  A    between atoms: C_1  and  C_2 
REMARK    2  A    between atoms: C_2  and  C_3 
REMARK    3  A    between atoms: C_3  and  N_4 
REMARK    4  A    between atoms: C_5  and  C_7 
REMARK    5  A    between atoms: C_7  and  C_8 
REMARK    6  A    between atoms: C_7  and  C_12 
ROOT
ATOM      1  N   LIG d   1       4.784  -2.558  -5.210  0.00  0.00    -0.301 NA
ATOM      2  C   LIG d   1       4.401  -2.118  -4.059  0.00  0.00    -0.003 C 
ATOM      3  O   LIG d   1       4.112  -2.986  -3.068  0.00  0.00    -0.862 OA
ENDROOT
BRANCH   2   4
ATOM      4  C   LIG d   1       4.278  -0.635  -3.821  0.00  0.00     0.261 C 
ATOM      5 CL   LIG d   1       3.456   0.133  -5.231  0.00  0.00    -0.094 Cl
BRANCH   4   6
ATOM      6  C   LIG d   1       3.457  -0.387  -2.555  0.00  0.00     0.421 C 
ATOM      7  F   LIG d   1       3.170   0.977  -2.444  0.00  0.00    -0.168 F 
ATOM      8  F   LIG d   1       2.261  -1.110  -2.625  0.00  0.00    -0.168 F 
ATOM      9  F   LIG d   1       4.188  -0.803  -1.437  0.00  0.00    -0.168 F 
ENDBRANCH   4   6
BRANCH   4  10
ATOM     10  C   LIG d   1       5.672  -0.029  -3.651  0.00  0.00     0.421 C 
ATOM     11  F   LIG d   1       5.576   1.168  -2.933  0.00  0.00    -0.168 F 
ATOM     12  F   LIG d   1       6.489  -0.926  -2.955  0.00  0.00    -0.168 F 
ATOM     13  F   LIG d   1       6.227   0.226  -4.910  0.00  0.00    -0.168 F 
ENDBRANCH   4  10
ENDBRANCH   2   4
BRANCH   1  14
ATOM     14  C   LIG d   1       4.905  -4.000  -5.441  0.00  0.00     0.038 C 
ATOM     15  H   LIG d   1       4.468  -4.540  -4.601  0.00  0.00     0.051 H 
ATOM     16  H   LIG d   1       5.958  -4.265  -5.537  0.00  0.00     0.051 H 
BRANCH  14  17
ATOM     17  C   LIG d   1       4.166  -4.373  -6.727  0.00  0.00    -0.036 C 
ATOM     18  H   LIG d   1       3.900  -3.466  -7.270  0.00  0.00     0.028 H 
ATOM     19  H   LIG d   1       3.261  -4.926  -6.479  0.00  0.00     0.028 H 
BRANCH  17  20
ATOM     20  C   LIG d   1       5.072  -5.244  -7.601  0.00  0.00    -0.064 C 
ATOM     21  H   LIG d   1       4.524  -5.561  -8.488  0.00  0.00     0.023 H 
ATOM     22  H   LIG d   1       5.948  -4.670  -7.900  0.00  0.00     0.023 H 
ATOM     23  H   LIG d   1       5.386  -6.121  -7.035  0.00  0.00     0.023 H 
ENDBRANCH  17  20
ENDBRANCH  14  17
ENDBRANCH   1  14
TORSDOF 6
ENDMDL
MODEL 10
REMARK VINA RESULT:      -4.8      2.591      3.796
REMARK  6 active torsions:
REMARK  status: ('A' for Active; 'I' for Inactive)
REMARK    1  A    between atoms: C_1  and  C_2 
REMARK    2  A    between atoms: C_2  and  C_3 
REMARK    3  A    between atoms: C_3  and  N_4 
REMARK    4  A    between atoms: C_5  and  C_7 
REMARK    5  A    between atoms: C_7  and  C_8 
REMARK    6  A    between atoms: C_7  and  C_12 
ROOT
ATOM      1  N   LIG d   1       6.478  -0.533  -4.239  0.00  0.00    -0.301 NA
ATOM      2  C   LIG d   1       5.452   0.142  -3.841  0.00  0.00    -0.003 C 
ATOM      3  O   LIG d   1       5.596   1.428  -3.461  0.00  0.00    -0.862 OA
ENDROOT
BRANCH   2   4
ATOM      4  C   LIG d   1       4.093  -0.508  -3.801  0.00  0.00     0.261 C 
ATOM      5 CL   LIG d   1       4.219  -2.203  -4.403  0.00  0.00    -0.094 Cl
BRANCH   4   6
ATOM      6  C   LIG d   1       3.573  -0.515  -2.362  0.00  0.00     0.421 C 
ATOM      7  F   LIG d   1       4.467  -1.215  -1.546  0.00  0.00    -0.168 F 
ATOM      8  F   LIG d   1       3.454   0.801  -1.903  0.00  0.00    -0.168 F 
ATOM      9  F   LIG d   1       2.320  -1.137  -2.323  0.00  0.00    -0.168 F 
ENDBRANCH   4   6
BRANCH   4  10
ATOM     10  C   LIG d   1       3.126   0.278  -4.688  0.00  0.00     0.421 C 
ATOM     11  F   LIG d   1       2.978   1.574  -4.182  0.00  0.00    -0.168 F 
ATOM     12  F   LIG d   1       3.635   0.342  -5.990  0.00  0.00    -0.168 F 
ATOM     13  F   LIG d   1       1.882  -0.361  -4.705  0.00  0.00    -0.168 F 
ENDBRANCH   4  10
ENDBRANCH   2   4
BRANCH   1  14
ATOM     14  C   LIG d   1       7.799   0.099  -4.278  0.00  0.00     0.038 C 
ATOM     15  H   LIG d   1       8.213   0.140  -3.271  0.00  0.00     0.051 H 
ATOM     16  H   LIG d   1       7.707   1.110  -4.675  0.00  0.00     0.051 H 
BRANCH  14  17
ATOM     17  C   LIG d   1       8.728  -0.719  -5.178  0.00  0.00    -0.036 C 
ATOM     18  H   LIG d   1       9.744  -0.678  -4.785  0.00  0.00     0.028 H 
ATOM     19  H   LIG d   1       8.713  -0.306  -6.186  0.00  0.00     0.028 H 
BRANCH  17  20
ATOM     20  C   LIG d   1       8.252  -2.173  -5.215  0.00  0.00    -0.064 C 
ATOM     21  H   LIG d   1       8.471  -2.650  -4.260  0.00  0.00     0.023 H 
ATOM     22  H   LIG d   1       7.178  -2.199  -5.397  0.00  0.00     0.023 H 
ATOM     23  H   LIG d   1       8.770  -2.703  -6.014  0.00  0.00     0.023 H 
ENDBRANCH  17  20
ENDBRANCH  14  17
ENDBRANCH   1  14
TORSDOF 6
ENDMDL
