MODEL 1
REMARK VINA RESULT:      -7.6      0.000      0.000
REMARK  6 active torsions:
REMARK  status: ('A' for Active; 'I' for Inactive)
REMARK    1  A    between atoms: C_1  and  O_2 
REMARK    2  A    between atoms: O_2  and  C_3 
REMARK    3  A    between atoms: C_6  and  N_9 
REMARK       I    between atoms: N_9  and  C_10 
REMARK       I    between atoms: C_10  and  N_12 
REMARK    4  A    between atoms: C_20  and  C_22 
REMARK    5  A    between atoms: C_24  and  C_27 
REMARK    6  A    between atoms: C_31  and  N_33 
ROOT
ATOM      1  N   LIG d   1      10.899   5.584  -2.529  0.00  0.00    -0.269 N 
ATOM      2  C   LIG d   1      10.405   5.090  -3.681  0.00  0.00     0.307 C 
ATOM      3  O   LIG d   1       9.806   5.820  -4.448  0.00  0.00    -0.252 OA
ATOM      4  N   LIG d   1      10.574   3.787  -3.984  0.00  0.00    -0.267 N 
ATOM      5  C   LIG d   1      11.195   2.861  -3.019  0.00  0.00     0.059 C 
ATOM      6  C   LIG d   1      12.175   2.009  -3.785  0.00  0.00     0.056 A 
ATOM      7  C   LIG d   1      12.250   1.965  -5.133  0.00  0.00     0.066 A 
ATOM      8  N   LIG d   1      13.222   1.107  -5.460  0.00  0.00    -0.240 NA
ATOM      9  C   LIG d   1      13.753   0.621  -4.369  0.00  0.00     0.094 A 
ATOM     10  N   LIG d   1      13.124   1.164  -3.301  0.00  0.00    -0.347 N 
ATOM     11  C   LIG d   1      11.373   2.768  -6.061  0.00  0.00     0.019 C 
ATOM     12  C   LIG d   1      10.138   3.252  -5.283  0.00  0.00     0.112 C 
ATOM     13  H   LIG d   1       9.632   4.035  -5.847  0.00  0.00     0.060 H 
ATOM     14  H   LIG d   1      11.492   5.042  -1.984  0.00  0.00     0.156 HD
ATOM     15  H   LIG d   1      11.718   3.426  -2.247  0.00  0.00     0.053 H 
ATOM     16  H   LIG d   1      10.431   2.231  -2.565  0.00  0.00     0.053 H 
ATOM     17  H   LIG d   1      14.560  -0.095  -4.327  0.00  0.00     0.103 H 
ATOM     18  H   LIG d   1      11.929   3.625  -6.439  0.00  0.00     0.035 H 
ATOM     19  H   LIG d   1      11.056   2.141  -6.895  0.00  0.00     0.035 H 
ATOM     20  H   LIG d   1      13.314   0.984  -2.366  0.00  0.00     0.167 HD
ENDROOT
BRANCH  12  21
ATOM     21  C   LIG d   1       9.194   2.099  -5.060  0.00  0.00     0.249 A 
ATOM     22  O   LIG d   1       9.276   0.896  -5.644  0.00  0.00    -0.336 OA
ATOM     23  N   LIG d   1       8.191   0.132  -5.143  0.00  0.00    -0.056 NA
ATOM     24  C   LIG d   1       7.540   0.911  -4.315  0.00  0.00     0.202 A 
ATOM     25  N   LIG d   1       8.158   2.105  -4.272  0.00  0.00    -0.190 NA
BRANCH  24  26
ATOM     26  C   LIG d   1       6.322   0.539  -3.552  0.00  0.00     0.029 A 
ATOM     27  C   LIG d   1       5.799  -0.748  -3.654  0.00  0.00     0.026 A 
ATOM     28  C   LIG d   1       4.670  -1.091  -2.938  0.00  0.00     0.274 A 
ATOM     29  H   LIG d   1       6.279  -1.478  -4.290  0.00  0.00     0.069 H 
ATOM     30  C   LIG d   1       4.052  -0.157  -2.128  0.00  0.00     0.016 A 
ATOM     31  C   LIG d   1       4.563   1.125  -2.027  0.00  0.00    -0.055 A 
ATOM     32  H   LIG d   1       3.166  -0.427  -1.573  0.00  0.00     0.069 H 
ATOM     33  C   LIG d   1       5.695   1.477  -2.734  0.00  0.00    -0.051 A 
ATOM     34  H   LIG d   1       4.077   1.852  -1.393  0.00  0.00     0.062 H 
ATOM     35  H   LIG d   1       6.094   2.477  -2.653  0.00  0.00     0.062 H 
BRANCH  28  36
ATOM     36  N   LIG d   1       4.118  -2.460  -3.040  0.00  0.00     0.080 N 
ATOM     37  O   LIG d   1       3.474  -2.922  -2.127  0.00  0.00     0.041 OA
ATOM     38  O   LIG d   1       4.309  -3.117  -4.038  0.00  0.00    -0.576 OA
ENDBRANCH  28  36
ENDBRANCH  24  26
ENDBRANCH  12  21
BRANCH   1  39
ATOM     39  C   LIG d   1      10.558   6.879  -2.118  0.00  0.00     0.035 A 
ATOM     40  C   LIG d   1       9.377   7.099  -1.422  0.00  0.00    -0.037 A 
ATOM     41  C   LIG d   1       9.041   8.376  -1.016  0.00  0.00    -0.018 A 
ATOM     42  H   LIG d   1       8.720   6.271  -1.197  0.00  0.00     0.064 H 
ATOM     43  C   LIG d   1       9.885   9.439  -1.304  0.00  0.00     0.120 A 
ATOM     44  H   LIG d   1       8.122   8.546  -0.476  0.00  0.00     0.066 H 
ATOM     45  C   LIG d   1      11.062   9.221  -2.003  0.00  0.00    -0.018 A 
ATOM     46  C   LIG d   1      11.401   7.944  -2.406  0.00  0.00    -0.037 A 
ATOM     47  H   LIG d   1      11.718  10.050  -2.231  0.00  0.00     0.066 H 
ATOM     48  H   LIG d   1      12.321   7.774  -2.946  0.00  0.00     0.064 H 
BRANCH  43  49
ATOM     49  O   LIG d   1       9.554  10.695  -0.904  0.00  0.00    -0.495 OA
BRANCH  49  50
ATOM     50  C   LIG d   1      10.307  11.253   0.174  0.00  0.00     0.079 C 
ATOM     51  H   LIG d   1      10.786  10.452   0.736  0.00  0.00     0.066 H 
ATOM     52  H   LIG d   1      11.068  11.925  -0.222  0.00  0.00     0.066 H 
ATOM     53  H   LIG d   1       9.640  11.810   0.833  0.00  0.00     0.066 H 
ENDBRANCH  49  50
ENDBRANCH  43  49
ENDBRANCH   1  39
TORSDOF 6
ENDMDL
MODEL 2
REMARK VINA RESULT:      -7.1      6.310      8.991
REMARK  6 active torsions:
REMARK  status: ('A' for Active; 'I' for Inactive)
REMARK    1  A    between atoms: C_1  and  O_2 
REMARK    2  A    between atoms: O_2  and  C_3 
REMARK    3  A    between atoms: C_6  and  N_9 
REMARK       I    between atoms: N_9  and  C_10 
REMARK       I    between atoms: C_10  and  N_12 
REMARK    4  A    between atoms: C_20  and  C_22 
REMARK    5  A    between atoms: C_24  and  C_27 
REMARK    6  A    between atoms: C_31  and  N_33 
ROOT
ATOM      1  N   LIG d   1       7.587  -2.270  -3.150  0.00  0.00    -0.269 N 
ATOM      2  C   LIG d   1       7.636  -3.028  -4.263  0.00  0.00     0.307 C 
ATOM      3  O   LIG d   1       6.840  -2.838  -5.163  0.00  0.00    -0.252 OA
ATOM      4  N   LIG d   1       8.567  -3.996  -4.379  0.00  0.00    -0.267 N 
ATOM      5  C   LIG d   1       9.466  -4.319  -3.256  0.00  0.00     0.059 C 
ATOM      6  C   LIG d   1      10.854  -4.474  -3.826  0.00  0.00     0.056 A 
ATOM      7  C   LIG d   1      11.128  -4.545  -5.146  0.00  0.00     0.066 A 
ATOM      8  N   LIG d   1      12.450  -4.683  -5.283  0.00  0.00    -0.240 NA
ATOM      9  C   LIG d   1      13.006  -4.697  -4.099  0.00  0.00     0.094 A 
ATOM     10  N   LIG d   1      12.038  -4.566  -3.163  0.00  0.00    -0.347 N 
ATOM     11  C   LIG d   1      10.089  -4.470  -6.238  0.00  0.00     0.019 C 
ATOM     12  C   LIG d   1       8.707  -4.761  -5.627  0.00  0.00     0.112 C 
ATOM     13  H   LIG d   1       7.926  -4.462  -6.326  0.00  0.00     0.060 H 
ATOM     14  H   LIG d   1       8.300  -2.324  -2.494  0.00  0.00     0.156 HD
ATOM     15  H   LIG d   1       9.453  -3.509  -2.526  0.00  0.00     0.053 H 
ATOM     16  H   LIG d   1       9.153  -5.250  -2.785  0.00  0.00     0.053 H 
ATOM     17  H   LIG d   1      14.063  -4.796  -3.902  0.00  0.00     0.103 H 
ATOM     18  H   LIG d   1      10.093  -3.474  -6.679  0.00  0.00     0.035 H 
ATOM     19  H   LIG d   1      10.311  -5.212  -7.005  0.00  0.00     0.035 H 
ATOM     20  H   LIG d   1      12.164  -4.544  -2.201  0.00  0.00     0.167 HD
ENDROOT
BRANCH  12  21
ATOM     21  C   LIG d   1       8.583  -6.233  -5.331  0.00  0.00     0.249 A 
ATOM     22  O   LIG d   1       9.374  -7.199  -5.817  0.00  0.00    -0.336 OA
ATOM     23  N   LIG d   1       8.895  -8.420  -5.275  0.00  0.00    -0.056 NA
ATOM     24  C   LIG d   1       7.867  -8.115  -4.523  0.00  0.00     0.202 A 
ATOM     25  N   LIG d   1       7.685  -6.783  -4.564  0.00  0.00    -0.190 NA
BRANCH  24  26
ATOM     26  C   LIG d   1       7.039  -9.078  -3.754  0.00  0.00     0.029 A 
ATOM     27  C   LIG d   1       5.690  -9.241  -4.062  0.00  0.00     0.026 A 
ATOM     28  C   LIG d   1       4.926 -10.142  -3.347  0.00  0.00     0.274 A 
ATOM     29  H   LIG d   1       5.244  -8.667  -4.860  0.00  0.00     0.069 H 
ATOM     30  C   LIG d   1       5.495 -10.874  -2.322  0.00  0.00     0.016 A 
ATOM     31  C   LIG d   1       6.833 -10.712  -2.008  0.00  0.00    -0.055 A 
ATOM     32  H   LIG d   1       4.893 -11.574  -1.763  0.00  0.00     0.069 H 
ATOM     33  C   LIG d   1       7.607  -9.818  -2.719  0.00  0.00    -0.051 A 
ATOM     34  H   LIG d   1       7.272 -11.286  -1.205  0.00  0.00     0.062 H 
ATOM     35  H   LIG d   1       8.652  -9.693  -2.474  0.00  0.00     0.062 H 
BRANCH  28  36
ATOM     36  N   LIG d   1       3.495 -10.322  -3.678  0.00  0.00     0.080 N 
ATOM     37  O   LIG d   1       3.166 -11.119  -4.525  0.00  0.00     0.041 OA
ATOM     38  O   LIG d   1       2.654  -9.673  -3.100  0.00  0.00    -0.576 OA
ENDBRANCH  28  36
ENDBRANCH  24  26
ENDBRANCH  12  21
BRANCH   1  39
ATOM     39  C   LIG d   1       6.507  -1.403  -2.939  0.00  0.00     0.035 A 
ATOM     40  C   LIG d   1       6.640  -0.048  -3.210  0.00  0.00    -0.037 A 
ATOM     41  C   LIG d   1       5.574   0.806  -3.003  0.00  0.00    -0.018 A 
ATOM     42  H   LIG d   1       7.577   0.339  -3.584  0.00  0.00     0.064 H 
ATOM     43  C   LIG d   1       4.371   0.310  -2.525  0.00  0.00     0.120 A 
ATOM     44  H   LIG d   1       5.679   1.860  -3.213  0.00  0.00     0.066 H 
ATOM     45  C   LIG d   1       4.239  -1.043  -2.249  0.00  0.00    -0.018 A 
ATOM     46  C   LIG d   1       5.302  -1.898  -2.460  0.00  0.00    -0.037 A 
ATOM     47  H   LIG d   1       3.302  -1.429  -1.872  0.00  0.00     0.066 H 
ATOM     48  H   LIG d   1       5.197  -2.953  -2.250  0.00  0.00     0.064 H 
BRANCH  43  49
ATOM     49  O   LIG d   1       3.322   1.151  -2.321  0.00  0.00    -0.495 OA
BRANCH  49  50
ATOM     50  C   LIG d   1       3.113   2.176  -3.294  0.00  0.00     0.079 C 
ATOM     51  H   LIG d   1       2.412   2.912  -2.902  0.00  0.00     0.066 H 
ATOM     52  H   LIG d   1       4.062   2.662  -3.521  0.00  0.00     0.066 H 
ATOM     53  H   LIG d   1       2.706   1.734  -4.204  0.00  0.00     0.066 H 
ENDBRANCH  49  50
ENDBRANCH  43  49
ENDBRANCH   1  39
TORSDOF 6
ENDMDL
MODEL 3
REMARK VINA RESULT:      -6.9      3.096      3.531
REMARK  6 active torsions:
REMARK  status: ('A' for Active; 'I' for Inactive)
REMARK    1  A    between atoms: C_1  and  O_2 
REMARK    2  A    between atoms: O_2  and  C_3 
REMARK    3  A    between atoms: C_6  and  N_9 
REMARK       I    between atoms: N_9  and  C_10 
REMARK       I    between atoms: C_10  and  N_12 
REMARK    4  A    between atoms: C_20  and  C_22 
REMARK    5  A    between atoms: C_24  and  C_27 
REMARK    6  A    between atoms: C_31  and  N_33 
ROOT
ATOM      1  N   LIG d   1      10.693   5.656  -5.900  0.00  0.00    -0.269 N 
ATOM      2  C   LIG d   1       9.943   4.624  -6.334  0.00  0.00     0.307 C 
ATOM      3  O   LIG d   1       9.301   4.729  -7.362  0.00  0.00    -0.252 OA
ATOM      4  N   LIG d   1       9.904   3.475  -5.630  0.00  0.00    -0.267 N 
ATOM      5  C   LIG d   1      10.581   3.365  -4.325  0.00  0.00     0.059 C 
ATOM      6  C   LIG d   1      11.301   2.040  -4.305  0.00  0.00     0.056 A 
ATOM      7  C   LIG d   1      11.123   1.067  -5.224  0.00  0.00     0.066 A 
ATOM      8  N   LIG d   1      11.913   0.041  -4.893  0.00  0.00    -0.240 NA
ATOM      9  C   LIG d   1      12.576   0.343  -3.807  0.00  0.00     0.094 A 
ATOM     10  N   LIG d   1      12.220   1.587  -3.411  0.00  0.00    -0.347 N 
ATOM     11  C   LIG d   1      10.188   1.170  -6.404  0.00  0.00     0.019 C 
ATOM     12  C   LIG d   1       9.180   2.302  -6.141  0.00  0.00     0.112 C 
ATOM     13  H   LIG d   1       8.671   2.564  -7.068  0.00  0.00     0.060 H 
ATOM     14  H   LIG d   1      11.310   5.530  -5.161  0.00  0.00     0.156 HD
ATOM     15  H   LIG d   1      11.298   4.179  -4.209  0.00  0.00     0.053 H 
ATOM     16  H   LIG d   1       9.846   3.400  -3.521  0.00  0.00     0.053 H 
ATOM     17  H   LIG d   1      13.290  -0.295  -3.308  0.00  0.00     0.103 H 
ATOM     18  H   LIG d   1      10.759   1.389  -7.305  0.00  0.00     0.035 H 
ATOM     19  H   LIG d   1       9.653   0.228  -6.529  0.00  0.00     0.035 H 
ATOM     20  H   LIG d   1      12.556   2.065  -2.636  0.00  0.00     0.167 HD
ENDROOT
BRANCH  12  21
ATOM     21  C   LIG d   1       8.167   1.852  -5.120  0.00  0.00     0.249 A 
ATOM     22  O   LIG d   1       7.733   2.573  -4.077  0.00  0.00    -0.336 OA
ATOM     23  N   LIG d   1       6.791   1.761  -3.393  0.00  0.00    -0.056 NA
ATOM     24  C   LIG d   1       6.730   0.629  -4.050  0.00  0.00     0.202 A 
ATOM     25  N   LIG d   1       7.570   0.695  -5.098  0.00  0.00    -0.190 NA
BRANCH  24  26
ATOM     26  C   LIG d   1       5.876  -0.532  -3.697  0.00  0.00     0.029 A 
ATOM     27  C   LIG d   1       5.914  -1.689  -4.472  0.00  0.00     0.026 A 
ATOM     28  C   LIG d   1       5.123  -2.769  -4.136  0.00  0.00     0.274 A 
ATOM     29  H   LIG d   1       6.566  -1.743  -5.332  0.00  0.00     0.069 H 
ATOM     30  C   LIG d   1       4.285  -2.700  -3.039  0.00  0.00     0.016 A 
ATOM     31  C   LIG d   1       4.237  -1.552  -2.269  0.00  0.00    -0.055 A 
ATOM     32  H   LIG d   1       3.664  -3.545  -2.782  0.00  0.00     0.069 H 
ATOM     33  C   LIG d   1       5.029  -0.468  -2.592  0.00  0.00    -0.051 A 
ATOM     34  H   LIG d   1       3.581  -1.503  -1.413  0.00  0.00     0.062 H 
ATOM     35  H   LIG d   1       4.993   0.427  -1.990  0.00  0.00     0.062 H 
BRANCH  28  36
ATOM     36  N   LIG d   1       5.168  -4.001  -4.954  0.00  0.00     0.080 N 
ATOM     37  O   LIG d   1       6.172  -4.283  -5.568  0.00  0.00     0.041 OA
ATOM     38  O   LIG d   1       4.203  -4.728  -5.009  0.00  0.00    -0.576 OA
ENDBRANCH  28  36
ENDBRANCH  24  26
ENDBRANCH  12  21
BRANCH   1  39
ATOM     39  C   LIG d   1      10.582   6.910  -6.514  0.00  0.00     0.035 A 
ATOM     40  C   LIG d   1       9.598   7.800  -6.107  0.00  0.00    -0.037 A 
ATOM     41  C   LIG d   1       9.490   9.037  -6.712  0.00  0.00    -0.018 A 
ATOM     42  H   LIG d   1       8.916   7.525  -5.315  0.00  0.00     0.064 H 
ATOM     43  C   LIG d   1      10.366   9.390  -7.728  0.00  0.00     0.120 A 
ATOM     44  H   LIG d   1       8.724   9.728  -6.395  0.00  0.00     0.066 H 
ATOM     45  C   LIG d   1      11.347   8.500  -8.139  0.00  0.00    -0.018 A 
ATOM     46  C   LIG d   1      11.459   7.265  -7.531  0.00  0.00    -0.037 A 
ATOM     47  H   LIG d   1      12.027   8.774  -8.933  0.00  0.00     0.066 H 
ATOM     48  H   LIG d   1      12.226   6.574  -7.849  0.00  0.00     0.064 H 
BRANCH  43  49
ATOM     49  O   LIG d   1      10.260  10.607  -8.324  0.00  0.00    -0.495 OA
BRANCH  49  50
ATOM     50  C   LIG d   1      10.266  11.752  -7.468  0.00  0.00     0.079 C 
ATOM     51  H   LIG d   1      10.815  11.521  -6.556  0.00  0.00     0.066 H 
ATOM     52  H   LIG d   1      10.746  12.586  -7.980  0.00  0.00     0.066 H 
ATOM     53  H   LIG d   1       9.241  12.022  -7.216  0.00  0.00     0.066 H 
ENDBRANCH  49  50
ENDBRANCH  43  49
ENDBRANCH   1  39
TORSDOF 6
ENDMDL
MODEL 4
REMARK VINA RESULT:      -6.9      7.292     12.707
REMARK  6 active torsions:
REMARK  status: ('A' for Active; 'I' for Inactive)
REMARK    1  A    between atoms: C_1  and  O_2 
REMARK    2  A    between atoms: O_2  and  C_3 
REMARK    3  A    between atoms: C_6  and  N_9 
REMARK       I    between atoms: N_9  and  C_10 
REMARK       I    between atoms: C_10  and  N_12 
REMARK    4  A    between atoms: C_20  and  C_22 
REMARK    5  A    between atoms: C_24  and  C_27 
REMARK    6  A    between atoms: C_31  and  N_33 
ROOT
ATOM      1  N   LIG d   1       0.818  -3.019 -10.292  0.00  0.00    -0.269 N 
ATOM      2  C   LIG d   1       2.159  -3.148 -10.294  0.00  0.00     0.307 C 
ATOM      3  O   LIG d   1       2.674  -4.129 -10.795  0.00  0.00    -0.252 OA
ATOM      4  N   LIG d   1       2.929  -2.190  -9.741  0.00  0.00    -0.267 N 
ATOM      5  C   LIG d   1       2.323  -1.051  -9.028  0.00  0.00     0.059 C 
ATOM      6  C   LIG d   1       3.053   0.193  -9.472  0.00  0.00     0.056 A 
ATOM      7  C   LIG d   1       4.196   0.186 -10.189  0.00  0.00     0.066 A 
ATOM      8  N   LIG d   1       4.557   1.456 -10.396  0.00  0.00    -0.240 NA
ATOM      9  C   LIG d   1       3.681   2.249  -9.837  0.00  0.00     0.094 A 
ATOM     10  N   LIG d   1       2.723   1.494  -9.251  0.00  0.00    -0.347 N 
ATOM     11  C   LIG d   1       4.901  -1.064 -10.657  0.00  0.00     0.019 C 
ATOM     12  C   LIG d   1       4.396  -2.258  -9.829  0.00  0.00     0.112 C 
ATOM     13  H   LIG d   1       4.689  -3.190 -10.312  0.00  0.00     0.060 H 
ATOM     14  H   LIG d   1       0.411  -2.181 -10.019  0.00  0.00     0.156 HD
ATOM     15  H   LIG d   1       1.266  -0.972  -9.284  0.00  0.00     0.053 H 
ATOM     16  H   LIG d   1       2.436  -1.183  -7.952  0.00  0.00     0.053 H 
ATOM     17  H   LIG d   1       3.714   3.328  -9.844  0.00  0.00     0.103 H 
ATOM     18  H   LIG d   1       4.686  -1.231 -11.711  0.00  0.00     0.035 H 
ATOM     19  H   LIG d   1       5.976  -0.951 -10.515  0.00  0.00     0.035 H 
ATOM     20  H   LIG d   1       1.949   1.818  -8.764  0.00  0.00     0.167 HD
ENDROOT
BRANCH  12  21
ATOM     21  C   LIG d   1       4.985  -2.200  -8.443  0.00  0.00     0.249 A 
ATOM     22  O   LIG d   1       6.271  -2.411  -8.130  0.00  0.00    -0.336 OA
ATOM     23  N   LIG d   1       6.372  -2.253  -6.723  0.00  0.00    -0.056 NA
ATOM     24  C   LIG d   1       5.167  -1.973  -6.294  0.00  0.00     0.202 A 
ATOM     25  N   LIG d   1       4.331  -1.943  -7.347  0.00  0.00    -0.190 NA
BRANCH  24  26
ATOM     26  C   LIG d   1       4.785  -1.729  -4.880  0.00  0.00     0.029 A 
ATOM     27  C   LIG d   1       4.756  -0.430  -4.378  0.00  0.00     0.026 A 
ATOM     28  C   LIG d   1       4.395  -0.208  -3.064  0.00  0.00     0.274 A 
ATOM     29  H   LIG d   1       5.011   0.403  -5.017  0.00  0.00     0.069 H 
ATOM     30  C   LIG d   1       4.074  -1.273  -2.244  0.00  0.00     0.016 A 
ATOM     31  C   LIG d   1       4.106  -2.566  -2.735  0.00  0.00    -0.055 A 
ATOM     32  H   LIG d   1       3.796  -1.095  -1.216  0.00  0.00     0.069 H 
ATOM     33  C   LIG d   1       4.460  -2.799  -4.049  0.00  0.00    -0.051 A 
ATOM     34  H   LIG d   1       3.854  -3.395  -2.090  0.00  0.00     0.062 H 
ATOM     35  H   LIG d   1       4.484  -3.808  -4.432  0.00  0.00     0.062 H 
BRANCH  28  36
ATOM     36  N   LIG d   1       4.356   1.172  -2.532  0.00  0.00     0.080 N 
ATOM     37  O   LIG d   1       3.846   2.056  -3.180  0.00  0.00     0.041 OA
ATOM     38  O   LIG d   1       4.835   1.417  -1.448  0.00  0.00    -0.576 OA
ENDBRANCH  28  36
ENDBRANCH  24  26
ENDBRANCH  12  21
BRANCH   1  39
ATOM     39  C   LIG d   1       0.009  -4.095 -10.682  0.00  0.00     0.035 A 
ATOM     40  C   LIG d   1      -0.522  -4.136 -11.964  0.00  0.00    -0.037 A 
ATOM     41  C   LIG d   1      -1.317  -5.197 -12.350  0.00  0.00    -0.018 A 
ATOM     42  H   LIG d   1      -0.312  -3.337 -12.662  0.00  0.00     0.064 H 
ATOM     43  C   LIG d   1      -1.586  -6.223 -11.455  0.00  0.00     0.120 A 
ATOM     44  H   LIG d   1      -1.731  -5.228 -13.347  0.00  0.00     0.066 H 
ATOM     45  C   LIG d   1      -1.059  -6.180 -10.173  0.00  0.00    -0.018 A 
ATOM     46  C   LIG d   1      -0.260  -5.122  -9.788  0.00  0.00    -0.037 A 
ATOM     47  H   LIG d   1      -1.272  -6.978  -9.474  0.00  0.00     0.066 H 
ATOM     48  H   LIG d   1       0.154  -5.092  -8.791  0.00  0.00     0.064 H 
BRANCH  43  49
ATOM     49  O   LIG d   1      -2.369  -7.267 -11.835  0.00  0.00    -0.495 OA
BRANCH  49  50
ATOM     50  C   LIG d   1      -1.900  -8.579 -11.517  0.00  0.00     0.079 C 
ATOM     51  H   LIG d   1      -1.365  -8.554 -10.569  0.00  0.00     0.066 H 
ATOM     52  H   LIG d   1      -2.749  -9.259 -11.439  0.00  0.00     0.066 H 
ATOM     53  H   LIG d   1      -1.230  -8.925 -12.304  0.00  0.00     0.066 H 
ENDBRANCH  49  50
ENDBRANCH  43  49
ENDBRANCH   1  39
TORSDOF 6
ENDMDL
MODEL 5
REMARK VINA RESULT:      -6.6      1.473      2.138
REMARK  6 active torsions:
REMARK  status: ('A' for Active; 'I' for Inactive)
REMARK    1  A    between atoms: C_1  and  O_2 
REMARK    2  A    between atoms: O_2  and  C_3 
REMARK    3  A    between atoms: C_6  and  N_9 
REMARK       I    between atoms: N_9  and  C_10 
REMARK       I    between atoms: C_10  and  N_12 
REMARK    4  A    between atoms: C_20  and  C_22 
REMARK    5  A    between atoms: C_24  and  C_27 
REMARK    6  A    between atoms: C_31  and  N_33 
ROOT
ATOM      1  N   LIG d   1      10.665   6.042  -2.363  0.00  0.00    -0.269 N 
ATOM      2  C   LIG d   1      10.014   5.575  -3.446  0.00  0.00     0.307 C 
ATOM      3  O   LIG d   1       9.400   6.341  -4.163  0.00  0.00    -0.252 OA
ATOM      4  N   LIG d   1      10.043   4.258  -3.735  0.00  0.00    -0.267 N 
ATOM      5  C   LIG d   1      10.684   3.297  -2.818  0.00  0.00     0.059 C 
ATOM      6  C   LIG d   1      11.506   2.355  -3.662  0.00  0.00     0.056 A 
ATOM      7  C   LIG d   1      11.436   2.286  -5.009  0.00  0.00     0.066 A 
ATOM      8  N   LIG d   1      12.295   1.346  -5.415  0.00  0.00    -0.240 NA
ATOM      9  C   LIG d   1      12.895   0.833  -4.374  0.00  0.00     0.094 A 
ATOM     10  N   LIG d   1      12.429   1.441  -3.259  0.00  0.00    -0.347 N 
ATOM     11  C   LIG d   1      10.535   3.146  -5.860  0.00  0.00     0.019 C 
ATOM     12  C   LIG d   1       9.432   3.743  -4.969  0.00  0.00     0.112 C 
ATOM     13  H   LIG d   1       8.935   4.557  -5.496  0.00  0.00     0.060 H 
ATOM     14  H   LIG d   1      11.265   5.461  -1.869  0.00  0.00     0.156 HD
ATOM     15  H   LIG d   1      11.330   3.827  -2.117  0.00  0.00     0.053 H 
ATOM     16  H   LIG d   1       9.923   2.739  -2.273  0.00  0.00     0.053 H 
ATOM     17  H   LIG d   1      13.641   0.052  -4.399  0.00  0.00     0.103 H 
ATOM     18  H   LIG d   1      11.116   3.949  -6.312  0.00  0.00     0.035 H 
ATOM     19  H   LIG d   1      10.081   2.537  -6.642  0.00  0.00     0.035 H 
ATOM     20  H   LIG d   1      12.700   1.259  -2.345  0.00  0.00     0.167 HD
ENDROOT
BRANCH  12  21
ATOM     21  C   LIG d   1       8.425   2.676  -4.624  0.00  0.00     0.249 A 
ATOM     22  O   LIG d   1       7.842   2.506  -3.430  0.00  0.00    -0.336 OA
ATOM     23  N   LIG d   1       6.972   1.393  -3.563  0.00  0.00    -0.056 NA
ATOM     24  C   LIG d   1       7.094   0.973  -4.798  0.00  0.00     0.202 A 
ATOM     25  N   LIG d   1       7.980   1.759  -5.435  0.00  0.00    -0.190 NA
BRANCH  24  26
ATOM     26  C   LIG d   1       6.375  -0.180  -5.396  0.00  0.00     0.029 A 
ATOM     27  C   LIG d   1       5.788  -1.140  -4.574  0.00  0.00     0.026 A 
ATOM     28  C   LIG d   1       5.115  -2.207  -5.135  0.00  0.00     0.274 A 
ATOM     29  H   LIG d   1       5.855  -1.047  -3.500  0.00  0.00     0.069 H 
ATOM     30  C   LIG d   1       5.033  -2.330  -6.509  0.00  0.00     0.016 A 
ATOM     31  C   LIG d   1       5.619  -1.384  -7.330  0.00  0.00    -0.055 A 
ATOM     32  H   LIG d   1       4.509  -3.169  -6.943  0.00  0.00     0.069 H 
ATOM     33  C   LIG d   1       6.288  -0.310  -6.781  0.00  0.00    -0.051 A 
ATOM     34  H   LIG d   1       5.551  -1.485  -8.403  0.00  0.00     0.062 H 
ATOM     35  H   LIG d   1       6.744   0.430  -7.422  0.00  0.00     0.062 H 
BRANCH  28  36
ATOM     36  N   LIG d   1       4.485  -3.223  -4.263  0.00  0.00     0.080 N 
ATOM     37  O   LIG d   1       4.383  -4.367  -4.642  0.00  0.00     0.041 OA
ATOM     38  O   LIG d   1       4.072  -2.910  -3.170  0.00  0.00    -0.576 OA
ENDBRANCH  28  36
ENDBRANCH  24  26
ENDBRANCH  12  21
BRANCH   1  39
ATOM     39  C   LIG d   1      10.475   7.367  -1.948  0.00  0.00     0.035 A 
ATOM     40  C   LIG d   1      11.414   8.337  -2.271  0.00  0.00    -0.037 A 
ATOM     41  C   LIG d   1      11.226   9.643  -1.863  0.00  0.00    -0.018 A 
ATOM     42  H   LIG d   1      12.292   8.071  -2.841  0.00  0.00     0.064 H 
ATOM     43  C   LIG d   1      10.098   9.986  -1.131  0.00  0.00     0.120 A 
ATOM     44  H   LIG d   1      11.957  10.398  -2.113  0.00  0.00     0.066 H 
ATOM     45  C   LIG d   1       9.162   9.016  -0.805  0.00  0.00    -0.018 A 
ATOM     46  C   LIG d   1       9.347   7.710  -1.216  0.00  0.00    -0.037 A 
ATOM     47  H   LIG d   1       8.285   9.282  -0.231  0.00  0.00     0.066 H 
ATOM     48  H   LIG d   1       8.615   6.956  -0.966  0.00  0.00     0.064 H 
BRANCH  43  49
ATOM     49  O   LIG d   1       9.913  11.271  -0.730  0.00  0.00    -0.495 OA
BRANCH  49  50
ATOM     50  C   LIG d   1      10.303  11.596   0.606  0.00  0.00     0.079 C 
ATOM     51  H   LIG d   1      11.360  11.371   0.741  0.00  0.00     0.066 H 
ATOM     52  H   LIG d   1      10.131  12.657   0.787  0.00  0.00     0.066 H 
ATOM     53  H   LIG d   1       9.714  11.008   1.309  0.00  0.00     0.066 H 
ENDBRANCH  49  50
ENDBRANCH  43  49
ENDBRANCH   1  39
TORSDOF 6
ENDMDL
MODEL 6
REMARK VINA RESULT:      -6.5      4.037      6.276
REMARK  6 active torsions:
REMARK  status: ('A' for Active; 'I' for Inactive)
REMARK    1  A    between atoms: C_1  and  O_2 
REMARK    2  A    between atoms: O_2  and  C_3 
REMARK    3  A    between atoms: C_6  and  N_9 
REMARK       I    between atoms: N_9  and  C_10 
REMARK       I    between atoms: C_10  and  N_12 
REMARK    4  A    between atoms: C_20  and  C_22 
REMARK    5  A    between atoms: C_24  and  C_27 
REMARK    6  A    between atoms: C_31  and  N_33 
ROOT
ATOM      1  N   LIG d   1       9.605   6.844  -7.759  0.00  0.00    -0.269 N 
ATOM      2  C   LIG d   1      10.339   5.892  -7.152  0.00  0.00     0.307 C 
ATOM      3  O   LIG d   1      11.107   5.209  -7.804  0.00  0.00    -0.252 OA
ATOM      4  N   LIG d   1      10.224   5.694  -5.824  0.00  0.00    -0.267 N 
ATOM      5  C   LIG d   1       9.218   6.429  -5.035  0.00  0.00     0.059 C 
ATOM      6  C   LIG d   1       9.896   6.897  -3.771  0.00  0.00     0.056 A 
ATOM      7  C   LIG d   1      11.115   6.481  -3.367  0.00  0.00     0.066 A 
ATOM      8  N   LIG d   1      11.394   7.094  -2.212  0.00  0.00    -0.240 NA
ATOM      9  C   LIG d   1      10.397   7.875  -1.888  0.00  0.00     0.094 A 
ATOM     10  N   LIG d   1       9.441   7.778  -2.841  0.00  0.00    -0.347 N 
ATOM     11  C   LIG d   1      11.976   5.501  -4.125  0.00  0.00     0.019 C 
ATOM     12  C   LIG d   1      11.093   4.735  -5.125  0.00  0.00     0.112 C 
ATOM     13  H   LIG d   1      11.722   4.220  -5.850  0.00  0.00     0.060 H 
ATOM     14  H   LIG d   1       9.098   7.478  -7.227  0.00  0.00     0.156 HD
ATOM     15  H   LIG d   1       8.857   7.288  -5.602  0.00  0.00     0.053 H 
ATOM     16  H   LIG d   1       8.386   5.771  -4.788  0.00  0.00     0.053 H 
ATOM     17  H   LIG d   1      10.344   8.494  -1.005  0.00  0.00     0.103 H 
ATOM     18  H   LIG d   1      12.757   6.039  -4.661  0.00  0.00     0.035 H 
ATOM     19  H   LIG d   1      12.429   4.797  -3.426  0.00  0.00     0.035 H 
ATOM     20  H   LIG d   1       8.593   8.248  -2.858  0.00  0.00     0.167 HD
ENDROOT
BRANCH  12  21
ATOM     21  C   LIG d   1      10.245   3.731  -4.388  0.00  0.00     0.249 A 
ATOM     22  O   LIG d   1      10.411   3.351  -3.114  0.00  0.00    -0.336 OA
ATOM     23  N   LIG d   1       9.393   2.400  -2.844  0.00  0.00    -0.056 NA
ATOM     24  C   LIG d   1       8.703   2.269  -3.950  0.00  0.00     0.202 A 
ATOM     25  N   LIG d   1       9.230   3.083  -4.883  0.00  0.00    -0.190 NA
BRANCH  24  26
ATOM     26  C   LIG d   1       7.537   1.372  -4.143  0.00  0.00     0.029 A 
ATOM     27  C   LIG d   1       6.569   1.261  -3.148  0.00  0.00     0.026 A 
ATOM     28  C   LIG d   1       5.482   0.430  -3.335  0.00  0.00     0.274 A 
ATOM     29  H   LIG d   1       6.666   1.827  -2.233  0.00  0.00     0.069 H 
ATOM     30  C   LIG d   1       5.359  -0.299  -4.502  0.00  0.00     0.016 A 
ATOM     31  C   LIG d   1       6.321  -0.197  -5.493  0.00  0.00    -0.055 A 
ATOM     32  H   LIG d   1       4.510  -0.951  -4.643  0.00  0.00     0.069 H 
ATOM     33  C   LIG d   1       7.408   0.635  -5.319  0.00  0.00    -0.051 A 
ATOM     34  H   LIG d   1       6.220  -0.769  -6.403  0.00  0.00     0.062 H 
ATOM     35  H   LIG d   1       8.157   0.715  -6.092  0.00  0.00     0.062 H 
BRANCH  28  36
ATOM     36  N   LIG d   1       4.449   0.316  -2.281  0.00  0.00     0.080 N 
ATOM     37  O   LIG d   1       4.345  -0.706  -1.645  0.00  0.00     0.041 OA
ATOM     38  O   LIG d   1       3.710   1.247  -2.055  0.00  0.00    -0.576 OA
ENDBRANCH  28  36
ENDBRANCH  24  26
ENDBRANCH  12  21
BRANCH   1  39
ATOM     39  C   LIG d   1       9.573   6.920  -9.157  0.00  0.00     0.035 A 
ATOM     40  C   LIG d   1       8.803   6.023  -9.885  0.00  0.00    -0.037 A 
ATOM     41  C   LIG d   1       8.771   6.099 -11.263  0.00  0.00    -0.018 A 
ATOM     42  H   LIG d   1       8.228   5.265  -9.373  0.00  0.00     0.064 H 
ATOM     43  C   LIG d   1       9.507   7.073 -11.922  0.00  0.00     0.120 A 
ATOM     44  H   LIG d   1       8.173   5.400 -11.829  0.00  0.00     0.066 H 
ATOM     45  C   LIG d   1      10.281   7.967 -11.196  0.00  0.00    -0.018 A 
ATOM     46  C   LIG d   1      10.310   7.894  -9.817  0.00  0.00    -0.037 A 
ATOM     47  H   LIG d   1      10.858   8.723 -11.709  0.00  0.00     0.066 H 
ATOM     48  H   LIG d   1      10.908   8.594  -9.252  0.00  0.00     0.064 H 
BRANCH  43  49
ATOM     49  O   LIG d   1       9.476   7.147 -13.279  0.00  0.00    -0.495 OA
BRANCH  49  50
ATOM     50  C   LIG d   1       8.987   6.002 -13.980  0.00  0.00     0.079 C 
ATOM     51  H   LIG d   1       9.479   5.107 -13.602  0.00  0.00     0.066 H 
ATOM     52  H   LIG d   1       7.911   5.917 -13.832  0.00  0.00     0.066 H 
ATOM     53  H   LIG d   1       9.199   6.111 -15.044  0.00  0.00     0.066 H 
ENDBRANCH  49  50
ENDBRANCH  43  49
ENDBRANCH   1  39
TORSDOF 6
ENDMDL
MODEL 7
REMARK VINA RESULT:      -6.5      5.792     10.830
REMARK  6 active torsions:
REMARK  status: ('A' for Active; 'I' for Inactive)
REMARK    1  A    between atoms: C_1  and  O_2 
REMARK    2  A    between atoms: O_2  and  C_3 
REMARK    3  A    between atoms: C_6  and  N_9 
REMARK       I    between atoms: N_9  and  C_10 
REMARK       I    between atoms: C_10  and  N_12 
REMARK    4  A    between atoms: C_20  and  C_22 
REMARK    5  A    between atoms: C_24  and  C_27 
REMARK    6  A    between atoms: C_31  and  N_33 
ROOT
ATOM      1  N   LIG d   1       7.481  -3.934  -5.312  0.00  0.00    -0.269 N 
ATOM      2  C   LIG d   1       6.289  -3.399  -4.985  0.00  0.00     0.307 C 
ATOM      3  O   LIG d   1       5.401  -4.110  -4.553  0.00  0.00    -0.252 OA
ATOM      4  N   LIG d   1       6.079  -2.076  -5.136  0.00  0.00    -0.267 N 
ATOM      5  C   LIG d   1       7.100  -1.216  -5.764  0.00  0.00     0.059 C 
ATOM      6  C   LIG d   1       7.204   0.036  -4.929  0.00  0.00     0.056 A 
ATOM      7  C   LIG d   1       6.333   0.371  -3.953  0.00  0.00     0.066 A 
ATOM      8  N   LIG d   1       6.730   1.536  -3.433  0.00  0.00    -0.240 NA
ATOM      9  C   LIG d   1       7.813   1.935  -4.047  0.00  0.00     0.094 A 
ATOM     10  N   LIG d   1       8.141   1.020  -4.988  0.00  0.00    -0.347 N 
ATOM     11  C   LIG d   1       5.140  -0.462  -3.552  0.00  0.00     0.019 C 
ATOM     12  C   LIG d   1       4.825  -1.455  -4.685  0.00  0.00     0.112 C 
ATOM     13  H   LIG d   1       4.148  -2.226  -4.320  0.00  0.00     0.060 H 
ATOM     14  H   LIG d   1       8.231  -3.356  -5.525  0.00  0.00     0.156 HD
ATOM     15  H   LIG d   1       8.061  -1.731  -5.781  0.00  0.00     0.053 H 
ATOM     16  H   LIG d   1       6.797  -0.960  -6.779  0.00  0.00     0.053 H 
ATOM     17  H   LIG d   1       8.358   2.843  -3.837  0.00  0.00     0.103 H 
ATOM     18  H   LIG d   1       5.367  -1.009  -2.638  0.00  0.00     0.035 H 
ATOM     19  H   LIG d   1       4.281   0.187  -3.388  0.00  0.00     0.035 H 
ATOM     20  H   LIG d   1       8.900   1.058  -5.592  0.00  0.00     0.167 HD
ENDROOT
BRANCH  12  21
ATOM     21  C   LIG d   1       4.184  -0.723  -5.836  0.00  0.00     0.249 A 
ATOM     22  O   LIG d   1       3.734   0.538  -5.809  0.00  0.00    -0.336 OA
ATOM     23  N   LIG d   1       3.216   0.807  -7.103  0.00  0.00    -0.056 NA
ATOM     24  C   LIG d   1       3.379  -0.288  -7.803  0.00  0.00     0.202 A 
ATOM     25  N   LIG d   1       3.968  -1.213  -7.023  0.00  0.00    -0.190 NA
BRANCH  24  26
ATOM     26  C   LIG d   1       2.979  -0.478  -9.219  0.00  0.00     0.029 A 
ATOM     27  C   LIG d   1       3.933  -0.396 -10.231  0.00  0.00     0.026 A 
ATOM     28  C   LIG d   1       3.557  -0.580 -11.547  0.00  0.00     0.274 A 
ATOM     29  H   LIG d   1       4.966  -0.194  -9.987  0.00  0.00     0.069 H 
ATOM     30  C   LIG d   1       2.236  -0.834 -11.862  0.00  0.00     0.016 A 
ATOM     31  C   LIG d   1       1.283  -0.911 -10.862  0.00  0.00    -0.055 A 
ATOM     32  H   LIG d   1       1.945  -0.973 -12.893  0.00  0.00     0.069 H 
ATOM     33  C   LIG d   1       1.648  -0.735  -9.543  0.00  0.00    -0.051 A 
ATOM     34  H   LIG d   1       0.251  -1.110 -11.113  0.00  0.00     0.062 H 
ATOM     35  H   LIG d   1       0.904  -0.796  -8.762  0.00  0.00     0.062 H 
BRANCH  28  36
ATOM     36  N   LIG d   1       4.571  -0.501 -12.623  0.00  0.00     0.080 N 
ATOM     37  O   LIG d   1       5.747  -0.472 -12.344  0.00  0.00     0.041 OA
ATOM     38  O   LIG d   1       4.223  -0.466 -13.781  0.00  0.00    -0.576 OA
ENDBRANCH  28  36
ENDBRANCH  24  26
ENDBRANCH  12  21
BRANCH   1  39
ATOM     39  C   LIG d   1       7.639  -5.326  -5.346  0.00  0.00     0.035 A 
ATOM     40  C   LIG d   1       8.407  -5.962  -4.380  0.00  0.00    -0.037 A 
ATOM     41  C   LIG d   1       8.562  -7.334  -4.413  0.00  0.00    -0.018 A 
ATOM     42  H   LIG d   1       8.884  -5.384  -3.601  0.00  0.00     0.064 H 
ATOM     43  C   LIG d   1       7.949  -8.077  -5.411  0.00  0.00     0.120 A 
ATOM     44  H   LIG d   1       9.160  -7.829  -3.662  0.00  0.00     0.066 H 
ATOM     45  C   LIG d   1       7.185  -7.442  -6.380  0.00  0.00    -0.018 A 
ATOM     46  C   LIG d   1       7.027  -6.070  -6.345  0.00  0.00    -0.037 A 
ATOM     47  H   LIG d   1       6.711  -8.020  -7.160  0.00  0.00     0.066 H 
ATOM     48  H   LIG d   1       6.428  -5.577  -7.096  0.00  0.00     0.064 H 
BRANCH  43  49
ATOM     49  O   LIG d   1       8.101  -9.428  -5.444  0.00  0.00    -0.495 OA
BRANCH  49  50
ATOM     50  C   LIG d   1       8.040 -10.118  -4.194  0.00  0.00     0.079 C 
ATOM     51  H   LIG d   1       8.386 -11.142  -4.328  0.00  0.00     0.066 H 
ATOM     52  H   LIG d   1       8.674  -9.611  -3.467  0.00  0.00     0.066 H 
ATOM     53  H   LIG d   1       7.011 -10.126  -3.834  0.00  0.00     0.066 H 
ENDBRANCH  49  50
ENDBRANCH  43  49
ENDBRANCH   1  39
TORSDOF 6
ENDMDL
MODEL 8
REMARK VINA RESULT:      -6.4      6.390     10.011
REMARK  6 active torsions:
REMARK  status: ('A' for Active; 'I' for Inactive)
REMARK    1  A    between atoms: C_1  and  O_2 
REMARK    2  A    between atoms: O_2  and  C_3 
REMARK    3  A    between atoms: C_6  and  N_9 
REMARK       I    between atoms: N_9  and  C_10 
REMARK       I    between atoms: C_10  and  N_12 
REMARK    4  A    between atoms: C_20  and  C_22 
REMARK    5  A    between atoms: C_24  and  C_27 
REMARK    6  A    between atoms: C_31  and  N_33 
ROOT
ATOM      1  N   LIG d   1       8.482  -2.626  -3.615  0.00  0.00    -0.269 N 
ATOM      2  C   LIG d   1       7.289  -2.898  -4.179  0.00  0.00     0.307 C 
ATOM      3  O   LIG d   1       7.045  -4.024  -4.570  0.00  0.00    -0.252 OA
ATOM      4  N   LIG d   1       6.366  -1.925  -4.310  0.00  0.00    -0.267 N 
ATOM      5  C   LIG d   1       6.682  -0.530  -3.949  0.00  0.00     0.059 C 
ATOM      6  C   LIG d   1       5.506   0.007  -3.173  0.00  0.00     0.056 A 
ATOM      7  C   LIG d   1       4.314  -0.618  -3.074  0.00  0.00     0.066 A 
ATOM      8  N   LIG d   1       3.514   0.143  -2.320  0.00  0.00    -0.240 NA
ATOM      9  C   LIG d   1       4.165   1.214  -1.947  0.00  0.00     0.094 A 
ATOM     10  N   LIG d   1       5.416   1.163  -2.461  0.00  0.00    -0.347 N 
ATOM     11  C   LIG d   1       3.992  -1.946  -3.713  0.00  0.00     0.019 C 
ATOM     12  C   LIG d   1       5.021  -2.225  -4.823  0.00  0.00     0.112 C 
ATOM     13  H   LIG d   1       4.969  -3.273  -5.117  0.00  0.00     0.060 H 
ATOM     14  H   LIG d   1       8.629  -1.770  -3.181  0.00  0.00     0.156 HD
ATOM     15  H   LIG d   1       7.580  -0.501  -3.330  0.00  0.00     0.053 H 
ATOM     16  H   LIG d   1       6.834   0.062  -4.851  0.00  0.00     0.053 H 
ATOM     17  H   LIG d   1       3.771   2.007  -1.331  0.00  0.00     0.103 H 
ATOM     18  H   LIG d   1       4.039  -2.734  -2.963  0.00  0.00     0.035 H 
ATOM     19  H   LIG d   1       2.992  -1.910  -4.145  0.00  0.00     0.035 H 
ATOM     20  H   LIG d   1       6.116   1.824  -2.344  0.00  0.00     0.167 HD
ENDROOT
BRANCH  12  21
ATOM     21  C   LIG d   1       4.730  -1.351  -6.015  0.00  0.00     0.249 A 
ATOM     22  O   LIG d   1       5.079  -0.064  -6.146  0.00  0.00    -0.336 OA
ATOM     23  N   LIG d   1       4.606   0.352  -7.418  0.00  0.00    -0.056 NA
ATOM     24  C   LIG d   1       4.013  -0.687  -7.951  0.00  0.00     0.202 A 
ATOM     25  N   LIG d   1       4.094  -1.717  -7.090  0.00  0.00    -0.190 NA
BRANCH  24  26
ATOM     26  C   LIG d   1       3.360  -0.722  -9.284  0.00  0.00     0.029 A 
ATOM     27  C   LIG d   1       4.132  -0.686 -10.442  0.00  0.00     0.026 A 
ATOM     28  C   LIG d   1       3.520  -0.725 -11.679  0.00  0.00     0.274 A 
ATOM     29  H   LIG d   1       5.209  -0.631 -10.373  0.00  0.00     0.069 H 
ATOM     30  C   LIG d   1       2.142  -0.789 -11.769  0.00  0.00     0.016 A 
ATOM     31  C   LIG d   1       1.369  -0.819 -10.622  0.00  0.00    -0.055 A 
ATOM     32  H   LIG d   1       1.667  -0.814 -12.738  0.00  0.00     0.069 H 
ATOM     33  C   LIG d   1       1.971  -0.787  -9.380  0.00  0.00    -0.051 A 
ATOM     34  H   LIG d   1       0.293  -0.869 -10.697  0.00  0.00     0.062 H 
ATOM     35  H   LIG d   1       1.367  -0.812  -8.485  0.00  0.00     0.062 H 
BRANCH  28  36
ATOM     36  N   LIG d   1       4.340  -0.694 -12.910  0.00  0.00     0.080 N 
ATOM     37  O   LIG d   1       5.544  -0.626 -12.833  0.00  0.00     0.041 OA
ATOM     38  O   LIG d   1       3.806  -0.738 -13.995  0.00  0.00    -0.576 OA
ENDBRANCH  28  36
ENDBRANCH  24  26
ENDBRANCH  12  21
BRANCH   1  39
ATOM     39  C   LIG d   1       9.511  -3.576  -3.657  0.00  0.00     0.035 A 
ATOM     40  C   LIG d   1      10.387  -3.606  -4.734  0.00  0.00    -0.037 A 
ATOM     41  C   LIG d   1      11.401  -4.542  -4.774  0.00  0.00    -0.018 A 
ATOM     42  H   LIG d   1      10.275  -2.896  -5.541  0.00  0.00     0.064 H 
ATOM     43  C   LIG d   1      11.546  -5.452  -3.737  0.00  0.00     0.120 A 
ATOM     44  H   LIG d   1      12.082  -4.565  -5.612  0.00  0.00     0.066 H 
ATOM     45  C   LIG d   1      10.669  -5.426  -2.663  0.00  0.00    -0.018 A 
ATOM     46  C   LIG d   1       9.657  -4.487  -2.620  0.00  0.00    -0.037 A 
ATOM     47  H   LIG d   1      10.779  -6.138  -1.858  0.00  0.00     0.066 H 
ATOM     48  H   LIG d   1       8.977  -4.464  -1.781  0.00  0.00     0.064 H 
BRANCH  43  49
ATOM     49  O   LIG d   1      12.545  -6.373  -3.777  0.00  0.00    -0.495 OA
BRANCH  49  50
ATOM     50  C   LIG d   1      13.859  -5.894  -4.066  0.00  0.00     0.079 C 
ATOM     51  H   LIG d   1      14.185  -5.224  -3.272  0.00  0.00     0.066 H 
ATOM     52  H   LIG d   1      14.547  -6.737  -4.137  0.00  0.00     0.066 H 
ATOM     53  H   LIG d   1      13.849  -5.355  -5.014  0.00  0.00     0.066 H 
ENDBRANCH  49  50
ENDBRANCH  43  49
ENDBRANCH   1  39
TORSDOF 6
ENDMDL
MODEL 9
REMARK VINA RESULT:      -6.4      5.815     11.419
REMARK  6 active torsions:
REMARK  status: ('A' for Active; 'I' for Inactive)
REMARK    1  A    between atoms: C_1  and  O_2 
REMARK    2  A    between atoms: O_2  and  C_3 
REMARK    3  A    between atoms: C_6  and  N_9 
REMARK       I    between atoms: N_9  and  C_10 
REMARK       I    between atoms: C_10  and  N_12 
REMARK    4  A    between atoms: C_20  and  C_22 
REMARK    5  A    between atoms: C_24  and  C_27 
REMARK    6  A    between atoms: C_31  and  N_33 
ROOT
ATOM      1  N   LIG d   1      10.284   8.302  -1.403  0.00  0.00    -0.269 N 
ATOM      2  C   LIG d   1      11.423   8.612  -0.754  0.00  0.00     0.307 C 
ATOM      3  O   LIG d   1      12.432   7.962  -0.953  0.00  0.00    -0.252 OA
ATOM      4  N   LIG d   1      11.446   9.641   0.116  0.00  0.00    -0.267 N 
ATOM      5  C   LIG d   1      10.209  10.369   0.457  0.00  0.00     0.059 C 
ATOM      6  C   LIG d   1      10.538  11.841   0.440  0.00  0.00     0.056 A 
ATOM      7  C   LIG d   1      11.792  12.337   0.370  0.00  0.00     0.066 A 
ATOM      8  N   LIG d   1      11.705  13.671   0.381  0.00  0.00    -0.240 NA
ATOM      9  C   LIG d   1      10.447  14.019   0.451  0.00  0.00     0.094 A 
ATOM     10  N   LIG d   1       9.687  12.901   0.488  0.00  0.00    -0.347 N 
ATOM     11  C   LIG d   1      13.039  11.492   0.290  0.00  0.00     0.019 C 
ATOM     12  C   LIG d   1      12.702  10.064   0.752  0.00  0.00     0.112 C 
ATOM     13  H   LIG d   1      13.503   9.385   0.462  0.00  0.00     0.060 H 
ATOM     14  H   LIG d   1       9.520   8.898  -1.353  0.00  0.00     0.156 HD
ATOM     15  H   LIG d   1       9.436  10.153  -0.280  0.00  0.00     0.053 H 
ATOM     16  H   LIG d   1       9.869  10.076   1.450  0.00  0.00     0.053 H 
ATOM     17  H   LIG d   1      10.076  15.033   0.475  0.00  0.00     0.103 H 
ATOM     18  H   LIG d   1      13.400  11.470  -0.738  0.00  0.00     0.035 H 
ATOM     19  H   LIG d   1      13.808  11.913   0.938  0.00  0.00     0.035 H 
ATOM     20  H   LIG d   1       8.719  12.861   0.540  0.00  0.00     0.167 HD
ENDROOT
BRANCH  12  21
ATOM     21  C   LIG d   1      12.540  10.041   2.250  0.00  0.00     0.249 A 
ATOM     22  O   LIG d   1      12.663  11.096   3.067  0.00  0.00    -0.336 OA
ATOM     23  N   LIG d   1      12.427  10.615   4.381  0.00  0.00    -0.056 NA
ATOM     24  C   LIG d   1      12.189   9.331   4.269  0.00  0.00     0.202 A 
ATOM     25  N   LIG d   1      12.260   8.992   2.970  0.00  0.00    -0.190 NA
BRANCH  24  26
ATOM     26  C   LIG d   1      11.891   8.404   5.390  0.00  0.00     0.029 A 
ATOM     27  C   LIG d   1      12.320   8.708   6.680  0.00  0.00     0.026 A 
ATOM     28  C   LIG d   1      12.035   7.845   7.720  0.00  0.00     0.274 A 
ATOM     29  H   LIG d   1      12.871   9.618   6.868  0.00  0.00     0.069 H 
ATOM     30  C   LIG d   1      11.336   6.677   7.481  0.00  0.00     0.016 A 
ATOM     31  C   LIG d   1      10.912   6.368   6.201  0.00  0.00    -0.055 A 
ATOM     32  H   LIG d   1      11.119   6.003   8.297  0.00  0.00     0.069 H 
ATOM     33  C   LIG d   1      11.186   7.226   5.155  0.00  0.00    -0.051 A 
ATOM     34  H   LIG d   1      10.365   5.454   6.019  0.00  0.00     0.062 H 
ATOM     35  H   LIG d   1      10.853   6.984   4.156  0.00  0.00     0.062 H 
BRANCH  28  36
ATOM     36  N   LIG d   1      12.484   8.170   9.093  0.00  0.00     0.080 N 
ATOM     37  O   LIG d   1      12.124   9.196   9.620  0.00  0.00     0.041 OA
ATOM     38  O   LIG d   1      13.210   7.407   9.688  0.00  0.00    -0.576 OA
ENDBRANCH  28  36
ENDBRANCH  24  26
ENDBRANCH  12  21
BRANCH   1  39
ATOM     39  C   LIG d   1      10.203   7.120  -2.151  0.00  0.00     0.035 A 
ATOM     40  C   LIG d   1      10.357   5.890  -1.527  0.00  0.00    -0.037 A 
ATOM     41  C   LIG d   1      10.276   4.725  -2.264  0.00  0.00    -0.018 A 
ATOM     42  H   LIG d   1      10.541   5.844  -0.462  0.00  0.00     0.064 H 
ATOM     43  C   LIG d   1      10.039   4.784  -3.629  0.00  0.00     0.120 A 
ATOM     44  H   LIG d   1      10.397   3.768  -1.778  0.00  0.00     0.066 H 
ATOM     45  C   LIG d   1       9.890   6.013  -4.255  0.00  0.00    -0.018 A 
ATOM     46  C   LIG d   1       9.966   7.178  -3.518  0.00  0.00    -0.037 A 
ATOM     47  H   LIG d   1       9.709   6.059  -5.320  0.00  0.00     0.066 H 
ATOM     48  H   LIG d   1       9.845   8.134  -4.005  0.00  0.00     0.064 H 
BRANCH  43  49
ATOM     49  O   LIG d   1       9.960   3.637  -4.355  0.00  0.00    -0.495 OA
BRANCH  49  50
ATOM     50  C   LIG d   1       8.662   3.060  -4.517  0.00  0.00     0.079 C 
ATOM     51  H   LIG d   1       8.043   3.723  -5.120  0.00  0.00     0.066 H 
ATOM     52  H   LIG d   1       8.753   2.094  -5.014  0.00  0.00     0.066 H 
ATOM     53  H   LIG d   1       8.202   2.922  -3.538  0.00  0.00     0.066 H 
ENDBRANCH  49  50
ENDBRANCH  43  49
ENDBRANCH   1  39
TORSDOF 6
ENDMDL
