MODEL 1
REMARK VINA RESULT:      -7.8      0.000      0.000
REMARK  5 active torsions:
REMARK  status: ('A' for Active; 'I' for Inactive)
REMARK    1  A    between atoms: C_1  and  C_2 
REMARK    2  A    between atoms: C_7  and  C_9 
REMARK    3  A    between atoms: C_7  and  C_10 
REMARK    4  A    between atoms: N_31  and  C_38 
REMARK    5  A    between atoms: N_34  and  C_37 
ROOT
ATOM      1  C   LIG d   1       5.218  -2.360  -4.679  0.00  0.00    -0.010 C 
ATOM      2  C   LIG d   1       5.765  -2.045  -3.245  0.00  0.00    -0.027 C 
ATOM      3  C   LIG d   1       6.193  -0.570  -3.459  0.00  0.00     0.026 C 
ATOM      4  H   LIG d   1       6.953  -0.249  -2.734  0.00  0.00     0.050 H 
ATOM      5  C   LIG d   1       4.936   0.299  -3.435  0.00  0.00    -0.029 C 
ATOM      6  C   LIG d   1       3.694  -0.411  -3.936  0.00  0.00    -0.033 C 
ATOM      7  C   LIG d   1       3.891  -1.630  -4.809  0.00  0.00    -0.041 C 
ATOM      8  N   LIG d   1       6.707  -0.503  -4.843  0.00  0.00    -0.307 N 
ATOM      9  C   LIG d   1       6.347  -1.762  -5.519  0.00  0.00     0.053 C 
ATOM     10  H   LIG d   1       7.230  -2.446  -5.422  0.00  0.00     0.052 H 
ATOM     11  C   LIG d   1       6.116  -1.525  -6.993  0.00  0.00     0.147 C 
ATOM     12  C   LIG d   1       7.386  -0.863  -7.571  0.00  0.00    -0.000 C 
ATOM     13  C   LIG d   1       7.786   0.354  -6.789  0.00  0.00    -0.005 A 
ATOM     14  C   LIG d   1       7.427   0.515  -5.439  0.00  0.00     0.126 A 
ATOM     15  N   LIG d   1       7.766   1.586  -4.752  0.00  0.00    -0.232 NA
ATOM     16  C   LIG d   1       8.484   2.574  -5.303  0.00  0.00     0.077 A 
ATOM     17  C   LIG d   1       8.848   3.691  -4.526  0.00  0.00     0.010 A 
ATOM     18  C   LIG d   1       9.583   4.671  -5.138  0.00  0.00     0.168 A 
ATOM     19  C   LIG d   1       9.961   4.581  -6.499  0.00  0.00     0.167 A 
ATOM     20  C   LIG d   1       9.621   3.507  -7.272  0.00  0.00    -0.007 A 
ATOM     21  C   LIG d   1       8.875   2.479  -6.659  0.00  0.00     0.004 A 
ATOM     22  C   LIG d   1       8.513   1.335  -7.401  0.00  0.00    -0.046 A 
ATOM     23  O   LIG d   1      10.663   5.691  -6.826  0.00  0.00    -0.453 OA
ATOM     24  C   LIG d   1      10.408   6.642  -5.772  0.00  0.00     0.233 C 
ATOM     25  O   LIG d   1      10.066   5.829  -4.631  0.00  0.00    -0.453 OA
ATOM     26  C   LIG d   1       5.943  -2.848  -7.699  0.00  0.00     0.240 C 
ATOM     27  O   LIG d   1       6.867  -3.629  -7.705  0.00  0.00    -0.274 OA
ATOM     28  N   LIG d   1       4.803  -3.177  -8.320  0.00  0.00    -0.228 N 
ATOM     29  C   LIG d   1       3.793  -2.305  -8.450  0.00  0.00     0.317 C 
ATOM     30  O   LIG d   1       2.761  -2.666  -8.980  0.00  0.00    -0.252 OA
ATOM     31  N   LIG d   1       3.900  -1.042  -8.013  0.00  0.00    -0.228 N 
ATOM     32  C   LIG d   1       4.958  -0.624  -7.298  0.00  0.00     0.240 C 
ATOM     33  O   LIG d   1       4.980   0.525  -6.913  0.00  0.00    -0.274 OA
ATOM     34  H   LIG d   1       5.011  -2.170  -2.484  0.00  0.00     0.029 H 
ATOM     35  H   LIG d   1       6.636  -2.676  -3.035  0.00  0.00     0.029 H 
ATOM     36  H   LIG d   1       4.763   0.657  -2.406  0.00  0.00     0.029 H 
ATOM     37  H   LIG d   1       5.111   1.200  -4.047  0.00  0.00     0.029 H 
ATOM     38  H   LIG d   1       3.709  -1.361  -5.854  0.00  0.00     0.028 H 
ATOM     39  H   LIG d   1       3.085  -2.353  -4.563  0.00  0.00     0.028 H 
ATOM     40  H   LIG d   1       8.194  -1.592  -7.536  0.00  0.00     0.033 H 
ATOM     41  H   LIG d   1       7.189  -0.586  -8.603  0.00  0.00     0.033 H 
ATOM     42  H   LIG d   1       8.560   3.774  -3.488  0.00  0.00     0.068 H 
ATOM     43  H   LIG d   1       9.914   3.448  -8.310  0.00  0.00     0.066 H 
ATOM     44  H   LIG d   1       8.804   1.237  -8.436  0.00  0.00     0.063 H 
ATOM     45  H   LIG d   1      11.301   7.232  -5.567  0.00  0.00     0.117 H 
ATOM     46  H   LIG d   1       9.576   7.293  -6.040  0.00  0.00     0.117 H 
ENDROOT
BRANCH   1  47
ATOM     47  C   LIG d   1       5.068  -3.879  -4.880  0.00  0.00    -0.058 C 
ATOM     48  H   LIG d   1       4.133  -4.086  -5.402  0.00  0.00     0.024 H 
ATOM     49  H   LIG d   1       5.905  -4.251  -5.473  0.00  0.00     0.024 H 
ATOM     50  H   LIG d   1       5.061  -4.375  -3.910  0.00  0.00     0.024 H 
ENDBRANCH   1  47
BRANCH  31  51
ATOM     51  C   LIG d   1       2.841  -0.086  -8.347  0.00  0.00     0.012 C 
ATOM     52  H   LIG d   1       1.877  -0.490  -8.039  0.00  0.00     0.043 H 
ATOM     53  H   LIG d   1       3.024   0.854  -7.828  0.00  0.00     0.043 H 
ATOM     54  H   LIG d   1       2.834   0.088  -9.423  0.00  0.00     0.043 H 
ENDBRANCH  31  51
BRANCH  28  55
ATOM     55  C   LIG d   1       4.655  -4.526  -8.871  0.00  0.00     0.012 C 
ATOM     56  H   LIG d   1       3.696  -4.607  -9.382  0.00  0.00     0.043 H 
ATOM     57  H   LIG d   1       5.461  -4.719  -9.578  0.00  0.00     0.043 H 
ATOM     58  H   LIG d   1       4.698  -5.256  -8.062  0.00  0.00     0.043 H 
ENDBRANCH  28  55
BRANCH   6  59
ATOM     59  C   LIG d   1       2.859   0.618  -4.736  0.00  0.00    -0.060 C 
ATOM     60  H   LIG d   1       1.812   0.539  -4.445  0.00  0.00     0.024 H 
ATOM     61  H   LIG d   1       3.222   1.624  -4.523  0.00  0.00     0.024 H 
ATOM     62  H   LIG d   1       2.957   0.414  -5.802  0.00  0.00     0.024 H 
ENDBRANCH   6  59
BRANCH   6  63
ATOM     63  C   LIG d   1       2.824  -0.804  -2.725  0.00  0.00    -0.060 C 
ATOM     64  H   LIG d   1       1.786  -0.529  -2.918  0.00  0.00     0.024 H 
ATOM     65  H   LIG d   1       2.890  -1.880  -2.563  0.00  0.00     0.024 H 
ATOM     66  H   LIG d   1       3.179  -0.281  -1.838  0.00  0.00     0.024 H 
ENDBRANCH   6  63
TORSDOF 5
ENDMDL
MODEL 2
REMARK VINA RESULT:      -7.1      7.980     11.120
REMARK  5 active torsions:
REMARK  status: ('A' for Active; 'I' for Inactive)
REMARK    1  A    between atoms: C_1  and  C_2 
REMARK    2  A    between atoms: C_7  and  C_9 
REMARK    3  A    between atoms: C_7  and  C_10 
REMARK    4  A    between atoms: N_31  and  C_38 
REMARK    5  A    between atoms: N_34  and  C_37 
ROOT
ATOM      1  C   LIG d   1      10.468   5.470  -3.650  0.00  0.00    -0.010 C 
ATOM      2  C   LIG d   1       9.664   5.231  -4.974  0.00  0.00    -0.027 C 
ATOM      3  C   LIG d   1       9.941   6.583  -5.682  0.00  0.00     0.026 C 
ATOM      4  H   LIG d   1       9.180   6.818  -6.439  0.00  0.00     0.050 H 
ATOM      5  C   LIG d   1      11.359   6.541  -6.250  0.00  0.00    -0.029 C 
ATOM      6  C   LIG d   1      12.312   5.677  -5.447  0.00  0.00    -0.033 C 
ATOM      7  C   LIG d   1      11.941   5.375  -4.012  0.00  0.00    -0.041 C 
ATOM      8  N   LIG d   1       9.962   7.596  -4.607  0.00  0.00    -0.307 N 
ATOM      9  C   LIG d   1       9.994   6.885  -3.317  0.00  0.00     0.053 C 
ATOM     10  H   LIG d   1       8.933   6.804  -2.966  0.00  0.00     0.052 H 
ATOM     11  C   LIG d   1      10.754   7.688  -2.287  0.00  0.00     0.147 C 
ATOM     12  C   LIG d   1      10.101   9.083  -2.199  0.00  0.00    -0.000 C 
ATOM     13  C   LIG d   1       9.985   9.732  -3.547  0.00  0.00    -0.005 A 
ATOM     14  C   LIG d   1       9.929   8.972  -4.729  0.00  0.00     0.126 A 
ATOM     15  N   LIG d   1       9.838   9.537  -5.916  0.00  0.00    -0.232 NA
ATOM     16  C   LIG d   1       9.782  10.868  -6.055  0.00  0.00     0.077 A 
ATOM     17  C   LIG d   1       9.659  11.431  -7.341  0.00  0.00     0.010 A 
ATOM     18  C   LIG d   1       9.602  12.797  -7.427  0.00  0.00     0.168 A 
ATOM     19  C   LIG d   1       9.673  13.621  -6.279  0.00  0.00     0.167 A 
ATOM     20  C   LIG d   1       9.790  13.098  -5.022  0.00  0.00    -0.007 A 
ATOM     21  C   LIG d   1       9.837  11.693  -4.908  0.00  0.00     0.004 A 
ATOM     22  C   LIG d   1       9.936  11.094  -3.634  0.00  0.00    -0.046 A 
ATOM     23  O   LIG d   1       9.605  14.914  -6.671  0.00  0.00    -0.453 OA
ATOM     24  C   LIG d   1       9.865  14.909  -8.090  0.00  0.00     0.233 C 
ATOM     25  O   LIG d   1       9.479  13.587  -8.519  0.00  0.00    -0.453 OA
ATOM     26  C   LIG d   1      10.608   7.041  -0.931  0.00  0.00     0.240 C 
ATOM     27  O   LIG d   1       9.506   6.966  -0.438  0.00  0.00    -0.274 OA
ATOM     28  N   LIG d   1      11.661   6.555  -0.260  0.00  0.00    -0.228 N 
ATOM     29  C   LIG d   1      12.916   6.719  -0.701  0.00  0.00     0.317 C 
ATOM     30  O   LIG d   1      13.833   6.219  -0.081  0.00  0.00    -0.252 OA
ATOM     31  N   LIG d   1      13.180   7.428  -1.808  0.00  0.00    -0.228 N 
ATOM     32  C   LIG d   1      12.204   7.886  -2.609  0.00  0.00     0.240 C 
ATOM     33  O   LIG d   1      12.513   8.500  -3.607  0.00  0.00    -0.274 OA
ATOM     34  H   LIG d   1      10.025   4.375  -5.522  0.00  0.00     0.029 H 
ATOM     35  H   LIG d   1       8.597   5.123  -4.745  0.00  0.00     0.029 H 
ATOM     36  H   LIG d   1      11.323   6.176  -7.290  0.00  0.00     0.029 H 
ATOM     37  H   LIG d   1      11.756   7.569  -6.299  0.00  0.00     0.029 H 
ATOM     38  H   LIG d   1      12.535   6.005  -3.344  0.00  0.00     0.028 H 
ATOM     39  H   LIG d   1      12.275   4.340  -3.790  0.00  0.00     0.028 H 
ATOM     40  H   LIG d   1       9.106   8.965  -1.772  0.00  0.00     0.033 H 
ATOM     41  H   LIG d   1      10.707   9.705  -1.545  0.00  0.00     0.033 H 
ATOM     42  H   LIG d   1       9.611  10.813  -8.226  0.00  0.00     0.068 H 
ATOM     43  H   LIG d   1       9.844  13.736  -4.152  0.00  0.00     0.066 H 
ATOM     44  H   LIG d   1       9.974  11.703  -2.744  0.00  0.00     0.063 H 
ATOM     45  H   LIG d   1       9.260  15.664  -8.591  0.00  0.00     0.117 H 
ATOM     46  H   LIG d   1      10.923  15.079  -8.285  0.00  0.00     0.117 H 
ENDROOT
BRANCH   1  47
ATOM     47  C   LIG d   1      10.065   4.440  -2.579  0.00  0.00    -0.058 C 
ATOM     48  H   LIG d   1       9.869   4.954  -1.638  0.00  0.00     0.024 H 
ATOM     49  H   LIG d   1       9.164   3.915  -2.901  0.00  0.00     0.024 H 
ATOM     50  H   LIG d   1      10.873   3.723  -2.441  0.00  0.00     0.024 H 
ENDBRANCH   1  47
BRANCH  31  51
ATOM     51  C   LIG d   1      14.576   7.730  -2.137  0.00  0.00     0.012 C 
ATOM     52  H   LIG d   1      15.155   6.807  -2.146  0.00  0.00     0.043 H 
ATOM     53  H   LIG d   1      14.624   8.198  -3.120  0.00  0.00     0.043 H 
ATOM     54  H   LIG d   1      14.987   8.409  -1.391  0.00  0.00     0.043 H 
ENDBRANCH  31  51
BRANCH  28  55
ATOM     55  C   LIG d   1      11.434   5.823   0.989  0.00  0.00     0.012 C 
ATOM     56  H   LIG d   1      10.614   5.118   0.853  0.00  0.00     0.043 H 
ATOM     57  H   LIG d   1      12.339   5.280   1.261  0.00  0.00     0.043 H 
ATOM     58  H   LIG d   1      11.179   6.528   1.781  0.00  0.00     0.043 H 
ENDBRANCH  28  55
BRANCH   6  59
ATOM     59  C   LIG d   1      13.691   6.382  -5.444  0.00  0.00    -0.060 C 
ATOM     60  H   LIG d   1      13.688   7.181  -4.704  0.00  0.00     0.024 H 
ATOM     61  H   LIG d   1      14.467   5.658  -5.196  0.00  0.00     0.024 H 
ATOM     62  H   LIG d   1      13.885   6.800  -6.431  0.00  0.00     0.024 H 
ENDBRANCH   6  59
BRANCH   6  63
ATOM     63  C   LIG d   1      12.525   4.345  -6.195  0.00  0.00    -0.060 C 
ATOM     64  H   LIG d   1      13.473   3.903  -5.888  0.00  0.00     0.024 H 
ATOM     65  H   LIG d   1      11.711   3.660  -5.958  0.00  0.00     0.024 H 
ATOM     66  H   LIG d   1      12.542   4.531  -7.269  0.00  0.00     0.024 H 
ENDBRANCH   6  63
TORSDOF 5
ENDMDL
MODEL 3
REMARK VINA RESULT:      -7.1      2.852      6.834
REMARK  5 active torsions:
REMARK  status: ('A' for Active; 'I' for Inactive)
REMARK    1  A    between atoms: C_1  and  C_2 
REMARK    2  A    between atoms: C_7  and  C_9 
REMARK    3  A    between atoms: C_7  and  C_10 
REMARK    4  A    between atoms: N_31  and  C_38 
REMARK    5  A    between atoms: N_34  and  C_37 
ROOT
ATOM      1  C   LIG d   1       4.969  -2.965  -4.443  0.00  0.00    -0.010 C 
ATOM      2  C   LIG d   1       4.798  -4.392  -5.068  0.00  0.00    -0.027 C 
ATOM      3  C   LIG d   1       5.176  -4.068  -6.537  0.00  0.00     0.026 C 
ATOM      4  H   LIG d   1       4.761  -4.801  -7.243  0.00  0.00     0.050 H 
ATOM      5  C   LIG d   1       6.697  -3.947  -6.622  0.00  0.00    -0.029 C 
ATOM      6  C   LIG d   1       7.341  -3.447  -5.344  0.00  0.00    -0.033 C 
ATOM      7  C   LIG d   1       6.463  -2.700  -4.366  0.00  0.00    -0.041 C 
ATOM      8  N   LIG d   1       4.645  -2.713  -6.794  0.00  0.00    -0.307 N 
ATOM      9  C   LIG d   1       4.238  -2.135  -5.500  0.00  0.00     0.053 C 
ATOM     10  H   LIG d   1       3.143  -2.341  -5.384  0.00  0.00     0.052 H 
ATOM     11  C   LIG d   1       4.422  -0.636  -5.509  0.00  0.00     0.147 C 
ATOM     12  C   LIG d   1       3.629  -0.069  -6.706  0.00  0.00    -0.000 C 
ATOM     13  C   LIG d   1       3.990  -0.757  -7.990  0.00  0.00    -0.005 A 
ATOM     14  C   LIG d   1       4.503  -2.067  -8.007  0.00  0.00     0.126 A 
ATOM     15  N   LIG d   1       4.831  -2.672  -9.130  0.00  0.00    -0.232 NA
ATOM     16  C   LIG d   1       4.679  -2.072 -10.318  0.00  0.00     0.077 A 
ATOM     17  C   LIG d   1       5.018  -2.763 -11.498  0.00  0.00     0.010 A 
ATOM     18  C   LIG d   1       4.841  -2.105 -12.686  0.00  0.00     0.168 A 
ATOM     19  C   LIG d   1       4.348  -0.780 -12.739  0.00  0.00     0.167 A 
ATOM     20  C   LIG d   1       4.011  -0.090 -11.609  0.00  0.00    -0.007 A 
ATOM     21  C   LIG d   1       4.172  -0.752 -10.375  0.00  0.00     0.004 A 
ATOM     22  C   LIG d   1       3.821  -0.099  -9.175  0.00  0.00    -0.046 A 
ATOM     23  O   LIG d   1       4.293  -0.391 -14.035  0.00  0.00    -0.453 OA
ATOM     24  C   LIG d   1       5.099  -1.339 -14.764  0.00  0.00     0.233 C 
ATOM     25  O   LIG d   1       5.075  -2.530 -13.950  0.00  0.00    -0.453 OA
ATOM     26  C   LIG d   1       3.821  -0.044  -4.257  0.00  0.00     0.240 C 
ATOM     27  O   LIG d   1       2.630  -0.158  -4.074  0.00  0.00    -0.274 OA
ATOM     28  N   LIG d   1       4.564   0.603  -3.351  0.00  0.00    -0.228 N 
ATOM     29  C   LIG d   1       5.862   0.866  -3.559  0.00  0.00     0.317 C 
ATOM     30  O   LIG d   1       6.505   1.415  -2.687  0.00  0.00    -0.252 OA
ATOM     31  N   LIG d   1       6.463   0.539  -4.712  0.00  0.00    -0.228 N 
ATOM     32  C   LIG d   1       5.845  -0.190  -5.656  0.00  0.00     0.240 C 
ATOM     33  O   LIG d   1       6.455  -0.470  -6.665  0.00  0.00    -0.274 OA
ATOM     34  H   LIG d   1       5.446  -5.120  -4.606  0.00  0.00     0.029 H 
ATOM     35  H   LIG d   1       3.749  -4.704  -4.996  0.00  0.00     0.029 H 
ATOM     36  H   LIG d   1       7.124  -4.929  -6.888  0.00  0.00     0.029 H 
ATOM     37  H   LIG d   1       6.957  -3.266  -7.450  0.00  0.00     0.029 H 
ATOM     38  H   LIG d   1       6.661  -1.627  -4.448  0.00  0.00     0.028 H 
ATOM     39  H   LIG d   1       6.798  -2.967  -3.342  0.00  0.00     0.028 H 
ATOM     40  H   LIG d   1       2.568  -0.213  -6.509  0.00  0.00     0.033 H 
ATOM     41  H   LIG d   1       3.845   0.993  -6.788  0.00  0.00     0.033 H 
ATOM     42  H   LIG d   1       5.402  -3.772 -11.470  0.00  0.00     0.068 H 
ATOM     43  H   LIG d   1       3.636   0.922 -11.660  0.00  0.00     0.066 H 
ATOM     44  H   LIG d   1       3.427   0.906  -9.192  0.00  0.00     0.063 H 
ATOM     45  H   LIG d   1       4.662  -1.538 -15.743  0.00  0.00     0.117 H 
ATOM     46  H   LIG d   1       6.119  -0.970 -14.871  0.00  0.00     0.117 H 
ENDROOT
BRANCH   1  47
ATOM     47  C   LIG d   1       4.293  -2.895  -3.062  0.00  0.00    -0.058 C 
ATOM     48  H   LIG d   1       4.024  -3.901  -2.738  0.00  0.00     0.024 H 
ATOM     49  H   LIG d   1       4.983  -2.454  -2.342  0.00  0.00     0.024 H 
ATOM     50  H   LIG d   1       3.395  -2.282  -3.127  0.00  0.00     0.024 H 
ENDBRANCH   1  47
BRANCH  31  51
ATOM     51  C   LIG d   1       7.828   1.014  -4.957  0.00  0.00     0.012 C 
ATOM     52  H   LIG d   1       7.810   1.799  -5.712  0.00  0.00     0.043 H 
ATOM     53  H   LIG d   1       8.247   1.409  -4.031  0.00  0.00     0.043 H 
ATOM     54  H   LIG d   1       8.443   0.186  -5.310  0.00  0.00     0.043 H 
ENDBRANCH  31  51
BRANCH  28  55
ATOM     55  C   LIG d   1       3.942   1.037  -2.097  0.00  0.00     0.012 C 
ATOM     56  H   LIG d   1       4.713   1.181  -1.340  0.00  0.00     0.043 H 
ATOM     57  H   LIG d   1       3.414   1.977  -2.261  0.00  0.00     0.043 H 
ATOM     58  H   LIG d   1       3.237   0.277  -1.759  0.00  0.00     0.043 H 
ENDBRANCH  28  55
BRANCH   6  59
ATOM     59  C   LIG d   1       8.510  -2.515  -5.745  0.00  0.00    -0.060 C 
ATOM     60  H   LIG d   1       8.302  -1.503  -5.398  0.00  0.00     0.024 H 
ATOM     61  H   LIG d   1       9.433  -2.874  -5.290  0.00  0.00     0.024 H 
ATOM     62  H   LIG d   1       8.616  -2.512  -6.829  0.00  0.00     0.024 H 
ENDBRANCH   6  59
BRANCH   6  63
ATOM     63  C   LIG d   1       7.991  -4.641  -4.616  0.00  0.00    -0.060 C 
ATOM     64  H   LIG d   1       8.938  -4.328  -4.176  0.00  0.00     0.024 H 
ATOM     65  H   LIG d   1       7.324  -4.993  -3.827  0.00  0.00     0.024 H 
ATOM     66  H   LIG d   1       8.169  -5.447  -5.327  0.00  0.00     0.024 H 
ENDBRANCH   6  63
TORSDOF 5
ENDMDL
MODEL 4
REMARK VINA RESULT:      -6.8      3.294      7.980
REMARK  5 active torsions:
REMARK  status: ('A' for Active; 'I' for Inactive)
REMARK    1  A    between atoms: C_1  and  C_2 
REMARK    2  A    between atoms: C_7  and  C_9 
REMARK    3  A    between atoms: C_7  and  C_10 
REMARK    4  A    between atoms: N_31  and  C_38 
REMARK    5  A    between atoms: N_34  and  C_37 
ROOT
ATOM      1  C   LIG d   1       7.248  -0.333  -4.977  0.00  0.00    -0.010 C 
ATOM      2  C   LIG d   1       8.687  -0.857  -5.309  0.00  0.00    -0.027 C 
ATOM      3  C   LIG d   1       8.311  -2.090  -6.172  0.00  0.00     0.026 C 
ATOM      4  H   LIG d   1       9.115  -2.838  -6.198  0.00  0.00     0.050 H 
ATOM      5  C   LIG d   1       7.908  -1.594  -7.560  0.00  0.00    -0.029 C 
ATOM      6  C   LIG d   1       7.285  -0.212  -7.557  0.00  0.00    -0.033 C 
ATOM      7  C   LIG d   1       6.706   0.290  -6.253  0.00  0.00    -0.041 C 
ATOM      8  N   LIG d   1       7.083  -2.640  -5.564  0.00  0.00    -0.307 N 
ATOM      9  C   LIG d   1       6.579  -1.654  -4.591  0.00  0.00     0.053 C 
ATOM     10  H   LIG d   1       6.986  -1.950  -3.590  0.00  0.00     0.052 H 
ATOM     11  C   LIG d   1       5.072  -1.714  -4.507  0.00  0.00     0.147 C 
ATOM     12  C   LIG d   1       4.675  -3.166  -4.165  0.00  0.00    -0.000 C 
ATOM     13  C   LIG d   1       5.295  -4.152  -5.111  0.00  0.00    -0.005 A 
ATOM     14  C   LIG d   1       6.485  -3.863  -5.803  0.00  0.00     0.126 A 
ATOM     15  N   LIG d   1       7.028  -4.721  -6.642  0.00  0.00    -0.232 NA
ATOM     16  C   LIG d   1       6.478  -5.921  -6.870  0.00  0.00     0.077 A 
ATOM     17  C   LIG d   1       7.104  -6.819  -7.756  0.00  0.00     0.010 A 
ATOM     18  C   LIG d   1       6.501  -8.034  -7.952  0.00  0.00     0.168 A 
ATOM     19  C   LIG d   1       5.293  -8.381  -7.302  0.00  0.00     0.167 A 
ATOM     20  C   LIG d   1       4.668  -7.526  -6.438  0.00  0.00    -0.007 A 
ATOM     21  C   LIG d   1       5.278  -6.276  -6.211  0.00  0.00     0.004 A 
ATOM     22  C   LIG d   1       4.690  -5.360  -5.312  0.00  0.00    -0.046 A 
ATOM     23  O   LIG d   1       4.934  -9.625  -7.696  0.00  0.00    -0.453 OA
ATOM     24  C   LIG d   1       5.720  -9.908  -8.871  0.00  0.00     0.233 C 
ATOM     25  O   LIG d   1       6.886  -9.071  -8.731  0.00  0.00    -0.453 OA
ATOM     26  C   LIG d   1       4.593  -0.842  -3.372  0.00  0.00     0.240 C 
ATOM     27  O   LIG d   1       4.926  -1.121  -2.243  0.00  0.00    -0.274 OA
ATOM     28  N   LIG d   1       3.809   0.224  -3.579  0.00  0.00    -0.228 N 
ATOM     29  C   LIG d   1       3.310   0.509  -4.790  0.00  0.00     0.317 C 
ATOM     30  O   LIG d   1       2.642   1.513  -4.936  0.00  0.00    -0.252 OA
ATOM     31  N   LIG d   1       3.528  -0.294  -5.841  0.00  0.00    -0.228 N 
ATOM     32  C   LIG d   1       4.369  -1.339  -5.776  0.00  0.00     0.240 C 
ATOM     33  O   LIG d   1       4.539  -2.010  -6.771  0.00  0.00    -0.274 OA
ATOM     34  H   LIG d   1       9.276  -0.124  -5.837  0.00  0.00     0.029 H 
ATOM     35  H   LIG d   1       9.189  -1.168  -4.385  0.00  0.00     0.029 H 
ATOM     36  H   LIG d   1       8.795  -1.593  -8.217  0.00  0.00     0.029 H 
ATOM     37  H   LIG d   1       7.198  -2.311  -8.006  0.00  0.00     0.029 H 
ATOM     38  H   LIG d   1       5.616   0.202  -6.283  0.00  0.00     0.028 H 
ATOM     39  H   LIG d   1       6.896   1.382  -6.199  0.00  0.00     0.028 H 
ATOM     40  H   LIG d   1       5.013  -3.380  -3.152  0.00  0.00     0.033 H 
ATOM     41  H   LIG d   1       3.592  -3.245  -4.212  0.00  0.00     0.033 H 
ATOM     42  H   LIG d   1       8.023  -6.564  -8.263  0.00  0.00     0.068 H 
ATOM     43  H   LIG d   1       3.745  -7.801  -5.948  0.00  0.00     0.066 H 
ATOM     44  H   LIG d   1       3.778  -5.610  -4.793  0.00  0.00     0.063 H 
ATOM     45  H   LIG d   1       6.006 -10.960  -8.894  0.00  0.00     0.117 H 
ATOM     46  H   LIG d   1       5.168  -9.645  -9.772  0.00  0.00     0.117 H 
ENDROOT
BRANCH   1  47
ATOM     47  C   LIG d   1       7.293   0.672  -3.812  0.00  0.00    -0.058 C 
ATOM     48  H   LIG d   1       7.094   1.675  -4.190  0.00  0.00     0.024 H 
ATOM     49  H   LIG d   1       6.537   0.405  -3.073  0.00  0.00     0.024 H 
ATOM     50  H   LIG d   1       8.279   0.647  -3.348  0.00  0.00     0.024 H 
ENDBRANCH   1  47
BRANCH  31  51
ATOM     51  C   LIG d   1       2.808  -0.033  -7.091  0.00  0.00     0.012 C 
ATOM     52  H   LIG d   1       3.183   0.885  -7.542  0.00  0.00     0.043 H 
ATOM     53  H   LIG d   1       2.962  -0.865  -7.779  0.00  0.00     0.043 H 
ATOM     54  H   LIG d   1       1.744   0.074  -6.882  0.00  0.00     0.043 H 
ENDBRANCH  31  51
BRANCH  28  55
ATOM     55  C   LIG d   1       3.488   1.102  -2.451  0.00  0.00     0.012 C 
ATOM     56  H   LIG d   1       2.439   1.396  -2.506  0.00  0.00     0.043 H 
ATOM     57  H   LIG d   1       3.668   0.573  -1.516  0.00  0.00     0.043 H 
ATOM     58  H   LIG d   1       4.117   1.992  -2.493  0.00  0.00     0.043 H 
ENDBRANCH  28  55
BRANCH   6  59
ATOM     59  C   LIG d   1       6.153  -0.208  -8.613  0.00  0.00    -0.060 C 
ATOM     60  H   LIG d   1       5.677   0.772  -8.631  0.00  0.00     0.024 H 
ATOM     61  H   LIG d   1       6.573  -0.427  -9.595  0.00  0.00     0.024 H 
ATOM     62  H   LIG d   1       5.415  -0.966  -8.356  0.00  0.00     0.024 H 
ENDBRANCH   6  59
BRANCH   6  63
ATOM     63  C   LIG d   1       8.329   0.806  -8.060  0.00  0.00    -0.060 C 
ATOM     64  H   LIG d   1       9.298   0.315  -8.156  0.00  0.00     0.024 H 
ATOM     65  H   LIG d   1       8.020   1.193  -9.032  0.00  0.00     0.024 H 
ATOM     66  H   LIG d   1       8.407   1.628  -7.350  0.00  0.00     0.024 H 
ENDBRANCH   6  63
TORSDOF 5
ENDMDL
MODEL 5
REMARK VINA RESULT:      -6.4      7.009     10.696
REMARK  5 active torsions:
REMARK  status: ('A' for Active; 'I' for Inactive)
REMARK    1  A    between atoms: C_1  and  C_2 
REMARK    2  A    between atoms: C_7  and  C_9 
REMARK    3  A    between atoms: C_7  and  C_10 
REMARK    4  A    between atoms: N_31  and  C_38 
REMARK    5  A    between atoms: N_34  and  C_37 
ROOT
ATOM      1  C   LIG d   1      10.237   6.213  -5.590  0.00  0.00    -0.010 C 
ATOM      2  C   LIG d   1       9.401   7.332  -6.300  0.00  0.00    -0.027 C 
ATOM      3  C   LIG d   1       9.858   8.555  -5.463  0.00  0.00     0.026 C 
ATOM      4  H   LIG d   1       9.132   9.379  -5.504  0.00  0.00     0.050 H 
ATOM      5  C   LIG d   1      11.254   8.960  -5.933  0.00  0.00    -0.029 C 
ATOM      6  C   LIG d   1      12.083   7.801  -6.450  0.00  0.00    -0.033 C 
ATOM      7  C   LIG d   1      11.681   6.408  -6.021  0.00  0.00    -0.041 C 
ATOM      8  N   LIG d   1      10.023   8.051  -4.083  0.00  0.00    -0.307 N 
ATOM      9  C   LIG d   1       9.963   6.579  -4.131  0.00  0.00     0.053 C 
ATOM     10  H   LIG d   1       8.903   6.291  -3.911  0.00  0.00     0.052 H 
ATOM     11  C   LIG d   1      10.832   5.978  -3.050  0.00  0.00     0.147 C 
ATOM     12  C   LIG d   1      10.377   6.565  -1.697  0.00  0.00    -0.000 C 
ATOM     13  C   LIG d   1      10.344   8.065  -1.721  0.00  0.00    -0.005 A 
ATOM     14  C   LIG d   1      10.179   8.780  -2.920  0.00  0.00     0.126 A 
ATOM     15  N   LIG d   1      10.160  10.097  -2.949  0.00  0.00    -0.232 NA
ATOM     16  C   LIG d   1      10.285  10.823  -1.830  0.00  0.00     0.077 A 
ATOM     17  C   LIG d   1      10.234  12.229  -1.900  0.00  0.00     0.010 A 
ATOM     18  C   LIG d   1      10.365  12.923  -0.727  0.00  0.00     0.168 A 
ATOM     19  C   LIG d   1      10.554  12.266   0.513  0.00  0.00     0.167 A 
ATOM     20  C   LIG d   1      10.605  10.903   0.606  0.00  0.00    -0.007 A 
ATOM     21  C   LIG d   1      10.459  10.168  -0.588  0.00  0.00     0.004 A 
ATOM     22  C   LIG d   1      10.482   8.757  -0.552  0.00  0.00    -0.046 A 
ATOM     23  O   LIG d   1      10.663  13.201   1.485  0.00  0.00    -0.453 OA
ATOM     24  C   LIG d   1      10.912  14.448   0.804  0.00  0.00     0.233 C 
ATOM     25  O   LIG d   1      10.346  14.259  -0.508  0.00  0.00    -0.453 OA
ATOM     26  C   LIG d   1      10.606   4.487  -2.988  0.00  0.00     0.240 C 
ATOM     27  O   LIG d   1       9.506   4.077  -2.693  0.00  0.00    -0.274 OA
ATOM     28  N   LIG d   1      11.585   3.610  -3.244  0.00  0.00    -0.228 N 
ATOM     29  C   LIG d   1      12.849   4.004  -3.455  0.00  0.00     0.317 C 
ATOM     30  O   LIG d   1      13.692   3.174  -3.730  0.00  0.00    -0.252 OA
ATOM     31  N   LIG d   1      13.202   5.294  -3.364  0.00  0.00    -0.228 N 
ATOM     32  C   LIG d   1      12.294   6.271  -3.202  0.00  0.00     0.240 C 
ATOM     33  O   LIG d   1      12.679   7.419  -3.151  0.00  0.00    -0.274 OA
ATOM     34  H   LIG d   1       9.639   7.414  -7.349  0.00  0.00     0.029 H 
ATOM     35  H   LIG d   1       8.331   7.140  -6.158  0.00  0.00     0.029 H 
ATOM     36  H   LIG d   1      11.163   9.726  -6.722  0.00  0.00     0.029 H 
ATOM     37  H   LIG d   1      11.788   9.444  -5.098  0.00  0.00     0.029 H 
ATOM     38  H   LIG d   1      12.360   6.061  -5.236  0.00  0.00     0.028 H 
ATOM     39  H   LIG d   1      11.872   5.725  -6.875  0.00  0.00     0.028 H 
ATOM     40  H   LIG d   1       9.377   6.188  -1.483  0.00  0.00     0.033 H 
ATOM     41  H   LIG d   1      11.065   6.226  -0.927  0.00  0.00     0.033 H 
ATOM     42  H   LIG d   1      10.097  12.743  -2.840  0.00  0.00     0.068 H 
ATOM     43  H   LIG d   1      10.750  10.412   1.557  0.00  0.00     0.066 H 
ATOM     44  H   LIG d   1      10.608   8.235   0.384  0.00  0.00     0.063 H 
ATOM     45  H   LIG d   1      10.413  15.270   1.320  0.00  0.00     0.117 H 
ATOM     46  H   LIG d   1      11.983  14.638   0.735  0.00  0.00     0.117 H 
ENDROOT
BRANCH   1  47
ATOM     47  C   LIG d   1       9.702   4.818  -5.963  0.00  0.00    -0.058 C 
ATOM     48  H   LIG d   1       9.967   4.107  -5.180  0.00  0.00     0.024 H 
ATOM     49  H   LIG d   1       8.617   4.861  -6.064  0.00  0.00     0.024 H 
ATOM     50  H   LIG d   1      10.143   4.500  -6.907  0.00  0.00     0.024 H 
ENDBRANCH   1  47
BRANCH  31  51
ATOM     51  C   LIG d   1      14.624   5.644  -3.421  0.00  0.00     0.012 C 
ATOM     52  H   LIG d   1      14.729   6.700  -3.669  0.00  0.00     0.043 H 
ATOM     53  H   LIG d   1      15.085   5.450  -2.453  0.00  0.00     0.043 H 
ATOM     54  H   LIG d   1      15.116   5.042  -4.185  0.00  0.00     0.043 H 
ENDBRANCH  31  51
BRANCH  28  55
ATOM     55  C   LIG d   1      11.266   2.181  -3.296  0.00  0.00     0.012 C 
ATOM     56  H   LIG d   1      12.100   1.608  -2.888  0.00  0.00     0.043 H 
ATOM     57  H   LIG d   1      10.370   1.988  -2.706  0.00  0.00     0.043 H 
ATOM     58  H   LIG d   1      11.092   1.884  -4.330  0.00  0.00     0.043 H 
ENDBRANCH  28  55
BRANCH   6  59
ATOM     59  C   LIG d   1      13.545   8.036  -6.000  0.00  0.00    -0.060 C 
ATOM     60  H   LIG d   1      14.182   7.254  -6.412  0.00  0.00     0.024 H 
ATOM     61  H   LIG d   1      13.884   9.008  -6.358  0.00  0.00     0.024 H 
ATOM     62  H   LIG d   1      13.597   8.012  -4.912  0.00  0.00     0.024 H 
ENDBRANCH   6  59
BRANCH   6  63
ATOM     63  C   LIG d   1      12.108   7.857  -7.992  0.00  0.00    -0.060 C 
ATOM     64  H   LIG d   1      12.773   7.082  -8.374  0.00  0.00     0.024 H 
ATOM     65  H   LIG d   1      11.101   7.695  -8.378  0.00  0.00     0.024 H 
ATOM     66  H   LIG d   1      12.466   8.834  -8.314  0.00  0.00     0.024 H 
ENDBRANCH   6  63
TORSDOF 5
ENDMDL
MODEL 6
REMARK VINA RESULT:      -6.3      4.372      6.493
REMARK  5 active torsions:
REMARK  status: ('A' for Active; 'I' for Inactive)
REMARK    1  A    between atoms: C_1  and  C_2 
REMARK    2  A    between atoms: C_7  and  C_9 
REMARK    3  A    between atoms: C_7  and  C_10 
REMARK    4  A    between atoms: N_31  and  C_38 
REMARK    5  A    between atoms: N_34  and  C_37 
ROOT
ATOM      1  C   LIG d   1       6.165  -7.348  -6.978  0.00  0.00    -0.010 C 
ATOM      2  C   LIG d   1       4.807  -7.639  -6.253  0.00  0.00    -0.027 C 
ATOM      3  C   LIG d   1       4.402  -6.187  -5.887  0.00  0.00     0.026 C 
ATOM      4  H   LIG d   1       3.698  -6.153  -5.045  0.00  0.00     0.050 H 
ATOM      5  C   LIG d   1       3.864  -5.511  -7.147  0.00  0.00    -0.029 C 
ATOM      6  C   LIG d   1       4.485  -6.029  -8.430  0.00  0.00    -0.033 C 
ATOM      7  C   LIG d   1       5.818  -6.736  -8.325  0.00  0.00    -0.041 C 
ATOM      8  N   LIG d   1       5.666  -5.493  -5.562  0.00  0.00    -0.307 N 
ATOM      9  C   LIG d   1       6.779  -6.363  -5.981  0.00  0.00     0.053 C 
ATOM     10  H   LIG d   1       7.087  -6.953  -5.080  0.00  0.00     0.052 H 
ATOM     11  C   LIG d   1       7.967  -5.534  -6.410  0.00  0.00     0.147 C 
ATOM     12  C   LIG d   1       8.334  -4.594  -5.241  0.00  0.00    -0.000 C 
ATOM     13  C   LIG d   1       7.149  -3.804  -4.767  0.00  0.00    -0.005 A 
ATOM     14  C   LIG d   1       5.834  -4.267  -4.948  0.00  0.00     0.126 A 
ATOM     15  N   LIG d   1       4.790  -3.573  -4.543  0.00  0.00    -0.232 NA
ATOM     16  C   LIG d   1       4.931  -2.392  -3.925  0.00  0.00     0.077 A 
ATOM     17  C   LIG d   1       3.790  -1.693  -3.485  0.00  0.00     0.010 A 
ATOM     18  C   LIG d   1       3.991  -0.493  -2.857  0.00  0.00     0.168 A 
ATOM     19  C   LIG d   1       5.287   0.040  -2.660  0.00  0.00     0.167 A 
ATOM     20  C   LIG d   1       6.408  -0.621  -3.077  0.00  0.00    -0.007 A 
ATOM     21  C   LIG d   1       6.227  -1.865  -3.714  0.00  0.00     0.004 A 
ATOM     22  C   LIG d   1       7.349  -2.603  -4.148  0.00  0.00    -0.046 A 
ATOM     23  O   LIG d   1       5.172   1.232  -2.030  0.00  0.00    -0.453 OA
ATOM     24  C   LIG d   1       3.789   1.616  -2.165  0.00  0.00     0.233 C 
ATOM     25  O   LIG d   1       3.086   0.369  -2.335  0.00  0.00    -0.453 OA
ATOM     26  C   LIG d   1       9.155  -6.434  -6.647  0.00  0.00     0.240 C 
ATOM     27  O   LIG d   1       9.602  -7.065  -5.716  0.00  0.00    -0.274 OA
ATOM     28  N   LIG d   1       9.728  -6.550  -7.852  0.00  0.00    -0.228 N 
ATOM     29  C   LIG d   1       9.354  -5.787  -8.888  0.00  0.00     0.317 C 
ATOM     30  O   LIG d   1       9.871  -5.962  -9.973  0.00  0.00    -0.252 OA
ATOM     31  N   LIG d   1       8.425  -4.830  -8.750  0.00  0.00    -0.228 N 
ATOM     32  C   LIG d   1       7.719  -4.681  -7.617  0.00  0.00     0.240 C 
ATOM     33  O   LIG d   1       6.878  -3.811  -7.568  0.00  0.00    -0.274 OA
ATOM     34  H   LIG d   1       4.099  -8.135  -6.898  0.00  0.00     0.029 H 
ATOM     35  H   LIG d   1       4.990  -8.231  -5.349  0.00  0.00     0.029 H 
ATOM     36  H   LIG d   1       2.770  -5.644  -7.191  0.00  0.00     0.029 H 
ATOM     37  H   LIG d   1       4.037  -4.424  -7.074  0.00  0.00     0.029 H 
ATOM     38  H   LIG d   1       6.614  -6.059  -8.649  0.00  0.00     0.028 H 
ATOM     39  H   LIG d   1       5.825  -7.553  -9.076  0.00  0.00     0.028 H 
ATOM     40  H   LIG d   1       8.709  -5.204  -4.421  0.00  0.00     0.033 H 
ATOM     41  H   LIG d   1       9.114  -3.916  -5.578  0.00  0.00     0.033 H 
ATOM     42  H   LIG d   1       2.795  -2.086  -3.635  0.00  0.00     0.068 H 
ATOM     43  H   LIG d   1       7.394  -0.205  -2.923  0.00  0.00     0.066 H 
ATOM     44  H   LIG d   1       8.347  -2.225  -3.993  0.00  0.00     0.063 H 
ATOM     45  H   LIG d   1       3.446   2.127  -1.264  0.00  0.00     0.117 H 
ATOM     46  H   LIG d   1       3.653   2.254  -3.037  0.00  0.00     0.117 H 
ENDROOT
BRANCH   1  47
ATOM     47  C   LIG d   1       6.990  -8.640  -7.121  0.00  0.00    -0.058 C 
ATOM     48  H   LIG d   1       7.050  -9.141  -6.155  0.00  0.00     0.024 H 
ATOM     49  H   LIG d   1       6.508  -9.300  -7.843  0.00  0.00     0.024 H 
ATOM     50  H   LIG d   1       7.994  -8.395  -7.466  0.00  0.00     0.024 H 
ENDBRANCH   1  47
BRANCH  31  51
ATOM     51  C   LIG d   1       8.190  -3.907  -9.864  0.00  0.00     0.012 C 
ATOM     52  H   LIG d   1       8.077  -4.473 -10.788  0.00  0.00     0.043 H 
ATOM     53  H   LIG d   1       7.283  -3.333  -9.675  0.00  0.00     0.043 H 
ATOM     54  H   LIG d   1       9.037  -3.227  -9.957  0.00  0.00     0.043 H 
ENDBRANCH  31  51
BRANCH  28  55
ATOM     55  C   LIG d   1      10.792  -7.539  -8.043  0.00  0.00     0.012 C 
ATOM     56  H   LIG d   1      10.375  -8.543  -7.957  0.00  0.00     0.043 H 
ATOM     57  H   LIG d   1      11.232  -7.412  -9.032  0.00  0.00     0.043 H 
ATOM     58  H   LIG d   1      11.560  -7.398  -7.282  0.00  0.00     0.043 H 
ENDBRANCH  28  55
BRANCH   6  59
ATOM     59  C   LIG d   1       4.659  -4.823  -9.385  0.00  0.00    -0.060 C 
ATOM     60  H   LIG d   1       4.745  -5.181 -10.410  0.00  0.00     0.024 H 
ATOM     61  H   LIG d   1       3.794  -4.165  -9.300  0.00  0.00     0.024 H 
ATOM     62  H   LIG d   1       5.561  -4.274  -9.114  0.00  0.00     0.024 H 
ENDBRANCH   6  59
BRANCH   6  63
ATOM     63  C   LIG d   1       3.478  -6.969  -9.125  0.00  0.00    -0.060 C 
ATOM     64  H   LIG d   1       4.002  -7.845  -9.508  0.00  0.00     0.024 H 
ATOM     65  H   LIG d   1       2.720  -7.284  -8.407  0.00  0.00     0.024 H 
ATOM     66  H   LIG d   1       3.000  -6.442  -9.950  0.00  0.00     0.024 H 
ENDBRANCH   6  63
TORSDOF 5
ENDMDL
MODEL 7
REMARK VINA RESULT:      -6.3      3.849      6.460
REMARK  5 active torsions:
REMARK  status: ('A' for Active; 'I' for Inactive)
REMARK    1  A    between atoms: C_1  and  C_2 
REMARK    2  A    between atoms: C_7  and  C_9 
REMARK    3  A    between atoms: C_7  and  C_10 
REMARK    4  A    between atoms: N_31  and  C_38 
REMARK    5  A    between atoms: N_34  and  C_37 
ROOT
ATOM      1  C   LIG d   1       5.447  -2.606 -11.522  0.00  0.00    -0.010 C 
ATOM      2  C   LIG d   1       6.865  -2.059 -11.139  0.00  0.00    -0.027 C 
ATOM      3  C   LIG d   1       6.687  -1.957  -9.602  0.00  0.00     0.026 C 
ATOM      4  H   LIG d   1       7.388  -1.242  -9.150  0.00  0.00     0.050 H 
ATOM      5  C   LIG d   1       6.804  -3.363  -9.014  0.00  0.00    -0.029 C 
ATOM      6  C   LIG d   1       6.334  -4.456  -9.954  0.00  0.00    -0.033 C 
ATOM      7  C   LIG d   1       5.407  -4.059 -11.080  0.00  0.00    -0.041 C 
ATOM      8  N   LIG d   1       5.285  -1.543  -9.391  0.00  0.00    -0.307 N 
ATOM      9  C   LIG d   1       4.579  -1.670 -10.679  0.00  0.00     0.053 C 
ATOM     10  H   LIG d   1       4.609  -0.662 -11.166  0.00  0.00     0.052 H 
ATOM     11  C   LIG d   1       3.127  -2.024 -10.454  0.00  0.00     0.147 C 
ATOM     12  C   LIG d   1       2.517  -0.952  -9.527  0.00  0.00    -0.000 C 
ATOM     13  C   LIG d   1       3.324  -0.770  -8.275  0.00  0.00    -0.005 A 
ATOM     14  C   LIG d   1       4.695  -1.082  -8.230  0.00  0.00     0.126 A 
ATOM     15  N   LIG d   1       5.406  -0.934  -7.131  0.00  0.00    -0.232 NA
ATOM     16  C   LIG d   1       4.860  -0.467  -6.001  0.00  0.00     0.077 A 
ATOM     17  C   LIG d   1       5.661  -0.300  -4.854  0.00  0.00     0.010 A 
ATOM     18  C   LIG d   1       5.053   0.183  -3.726  0.00  0.00     0.168 A 
ATOM     19  C   LIG d   1       3.674   0.498  -3.698  0.00  0.00     0.167 A 
ATOM     20  C   LIG d   1       2.877   0.346  -4.798  0.00  0.00    -0.007 A 
ATOM     21  C   LIG d   1       3.484  -0.138  -5.975  0.00  0.00     0.004 A 
ATOM     22  C   LIG d   1       2.717  -0.295  -7.148  0.00  0.00    -0.046 A 
ATOM     23  O   LIG d   1       3.357   0.937  -2.458  0.00  0.00    -0.453 OA
ATOM     24  C   LIG d   1       4.456   0.547  -1.610  0.00  0.00     0.233 C 
ATOM     25  O   LIG d   1       5.581   0.443  -2.507  0.00  0.00    -0.453 OA
ATOM     26  C   LIG d   1       2.380  -1.958 -11.764  0.00  0.00     0.240 C 
ATOM     27  O   LIG d   1       2.302  -0.894 -12.336  0.00  0.00    -0.274 OA
ATOM     28  N   LIG d   1       1.802  -3.038 -12.306  0.00  0.00    -0.228 N 
ATOM     29  C   LIG d   1       1.751  -4.211 -11.660  0.00  0.00     0.317 C 
ATOM     30  O   LIG d   1       1.257  -5.173 -12.214  0.00  0.00    -0.252 OA
ATOM     31  N   LIG d   1       2.231  -4.343 -10.416  0.00  0.00    -0.228 N 
ATOM     32  C   LIG d   1       2.912  -3.358  -9.806  0.00  0.00     0.240 C 
ATOM     33  O   LIG d   1       3.339  -3.553  -8.689  0.00  0.00    -0.274 OA
ATOM     34  H   LIG d   1       7.655  -2.730 -11.439  0.00  0.00     0.029 H 
ATOM     35  H   LIG d   1       7.010  -1.066 -11.581  0.00  0.00     0.029 H 
ATOM     36  H   LIG d   1       7.852  -3.551  -8.729  0.00  0.00     0.029 H 
ATOM     37  H   LIG d   1       6.219  -3.412  -8.081  0.00  0.00     0.029 H 
ATOM     38  H   LIG d   1       4.383  -4.349 -10.826  0.00  0.00     0.028 H 
ATOM     39  H   LIG d   1       5.663  -4.684 -11.962  0.00  0.00     0.028 H 
ATOM     40  H   LIG d   1       2.486  -0.010 -10.073  0.00  0.00     0.033 H 
ATOM     41  H   LIG d   1       1.506  -1.256  -9.269  0.00  0.00     0.033 H 
ATOM     42  H   LIG d   1       6.714  -0.543  -4.861  0.00  0.00     0.068 H 
ATOM     43  H   LIG d   1       1.825   0.588  -4.766  0.00  0.00     0.066 H 
ATOM     44  H   LIG d   1       1.667  -0.046  -7.154  0.00  0.00     0.063 H 
ATOM     45  H   LIG d   1       4.642   1.310  -0.853  0.00  0.00     0.117 H 
ATOM     46  H   LIG d   1       4.253  -0.414  -1.139  0.00  0.00     0.117 H 
ENDROOT
BRANCH   1  47
ATOM     47  C   LIG d   1       5.196  -2.449 -13.032  0.00  0.00    -0.058 C 
ATOM     48  H   LIG d   1       4.215  -2.002 -13.192  0.00  0.00     0.024 H 
ATOM     49  H   LIG d   1       5.964  -1.805 -13.463  0.00  0.00     0.024 H 
ATOM     50  H   LIG d   1       5.232  -3.427 -13.511  0.00  0.00     0.024 H 
ENDBRANCH   1  47
BRANCH  31  51
ATOM     51  C   LIG d   1       1.984  -5.594  -9.692  0.00  0.00     0.012 C 
ATOM     52  H   LIG d   1       2.856  -5.842  -9.088  0.00  0.00     0.043 H 
ATOM     53  H   LIG d   1       1.115  -5.473  -9.045  0.00  0.00     0.043 H 
ATOM     54  H   LIG d   1       1.797  -6.396 -10.406  0.00  0.00     0.043 H 
ENDBRANCH  31  51
BRANCH  28  55
ATOM     55  C   LIG d   1       1.207  -2.933 -13.641  0.00  0.00     0.012 C 
ATOM     56  H   LIG d   1       1.686  -3.649 -14.309  0.00  0.00     0.043 H 
ATOM     57  H   LIG d   1       0.140  -3.148 -13.581  0.00  0.00     0.043 H 
ATOM     58  H   LIG d   1       1.353  -1.923 -14.026  0.00  0.00     0.043 H 
ENDBRANCH  28  55
BRANCH   6  59
ATOM     59  C   LIG d   1       5.614  -5.528  -9.099  0.00  0.00    -0.060 C 
ATOM     60  H   LIG d   1       6.344  -6.049  -8.481  0.00  0.00     0.024 H 
ATOM     61  H   LIG d   1       4.874  -5.046  -8.461  0.00  0.00     0.024 H 
ATOM     62  H   LIG d   1       5.118  -6.242  -9.756  0.00  0.00     0.024 H 
ENDBRANCH   6  59
BRANCH   6  63
ATOM     63  C   LIG d   1       7.569  -5.161 -10.552  0.00  0.00    -0.060 C 
ATOM     64  H   LIG d   1       8.307  -5.332  -9.767  0.00  0.00     0.024 H 
ATOM     65  H   LIG d   1       7.269  -6.118 -10.983  0.00  0.00     0.024 H 
ATOM     66  H   LIG d   1       8.004  -4.534 -11.329  0.00  0.00     0.024 H 
ENDBRANCH   6  63
TORSDOF 5
ENDMDL
MODEL 8
REMARK VINA RESULT:      -6.3      3.006      7.842
REMARK  5 active torsions:
REMARK  status: ('A' for Active; 'I' for Inactive)
REMARK    1  A    between atoms: C_1  and  C_2 
REMARK    2  A    between atoms: C_7  and  C_9 
REMARK    3  A    between atoms: C_7  and  C_10 
REMARK    4  A    between atoms: N_31  and  C_38 
REMARK    5  A    between atoms: N_34  and  C_37 
ROOT
ATOM      1  C   LIG d   1      10.841   4.481  -5.902  0.00  0.00    -0.010 C 
ATOM      2  C   LIG d   1      10.113   5.239  -4.740  0.00  0.00    -0.027 C 
ATOM      3  C   LIG d   1       9.375   4.042  -4.085  0.00  0.00     0.026 C 
ATOM      4  H   LIG d   1       8.501   4.364  -3.502  0.00  0.00     0.050 H 
ATOM      5  C   LIG d   1      10.389   3.251  -3.259  0.00  0.00    -0.029 C 
ATOM      6  C   LIG d   1      11.800   3.309  -3.809  0.00  0.00    -0.033 C 
ATOM      7  C   LIG d   1      11.968   3.686  -5.264  0.00  0.00    -0.041 C 
ATOM      8  N   LIG d   1       8.981   3.159  -5.202  0.00  0.00    -0.307 N 
ATOM      9  C   LIG d   1       9.681   3.625  -6.413  0.00  0.00     0.053 C 
ATOM     10  H   LIG d   1       8.976   4.310  -6.951  0.00  0.00     0.052 H 
ATOM     11  C   LIG d   1       9.978   2.464  -7.333  0.00  0.00     0.147 C 
ATOM     12  C   LIG d   1       8.645   1.747  -7.636  0.00  0.00    -0.000 C 
ATOM     13  C   LIG d   1       7.907   1.386  -6.380  0.00  0.00    -0.005 A 
ATOM     14  C   LIG d   1       8.100   2.096  -5.181  0.00  0.00     0.126 A 
ATOM     15  N   LIG d   1       7.463   1.776  -4.073  0.00  0.00    -0.232 NA
ATOM     16  C   LIG d   1       6.587   0.763  -4.037  0.00  0.00     0.077 A 
ATOM     17  C   LIG d   1       5.907   0.471  -2.837  0.00  0.00     0.010 A 
ATOM     18  C   LIG d   1       5.021  -0.573  -2.855  0.00  0.00     0.168 A 
ATOM     19  C   LIG d   1       4.793  -1.340  -4.023  0.00  0.00     0.167 A 
ATOM     20  C   LIG d   1       5.440  -1.074  -5.197  0.00  0.00    -0.007 A 
ATOM     21  C   LIG d   1       6.347   0.005  -5.206  0.00  0.00     0.004 A 
ATOM     22  C   LIG d   1       7.028   0.341  -6.395  0.00  0.00    -0.046 A 
ATOM     23  O   LIG d   1       3.884  -2.301  -3.737  0.00  0.00    -0.453 OA
ATOM     24  C   LIG d   1       3.820  -2.366  -2.298  0.00  0.00     0.233 C 
ATOM     25  O   LIG d   1       4.240  -1.058  -1.862  0.00  0.00    -0.453 OA
ATOM     26  C   LIG d   1      10.514   2.981  -8.646  0.00  0.00     0.240 C 
ATOM     27  O   LIG d   1       9.800   3.678  -9.331  0.00  0.00    -0.274 OA
ATOM     28  N   LIG d   1      11.749   2.688  -9.073  0.00  0.00    -0.228 N 
ATOM     29  C   LIG d   1      12.536   1.824  -8.417  0.00  0.00     0.317 C 
ATOM     30  O   LIG d   1      13.666   1.627  -8.818  0.00  0.00    -0.252 OA
ATOM     31  N   LIG d   1      12.101   1.171  -7.330  0.00  0.00    -0.228 N 
ATOM     32  C   LIG d   1      10.918   1.448  -6.758  0.00  0.00     0.240 C 
ATOM     33  O   LIG d   1      10.596   0.835  -5.763  0.00  0.00    -0.274 OA
ATOM     34  H   LIG d   1      10.807   5.733  -4.078  0.00  0.00     0.029 H 
ATOM     35  H   LIG d   1       9.397   5.956  -5.158  0.00  0.00     0.029 H 
ATOM     36  H   LIG d   1      10.384   3.626  -2.222  0.00  0.00     0.029 H 
ATOM     37  H   LIG d   1      10.064   2.198  -3.205  0.00  0.00     0.029 H 
ATOM     38  H   LIG d   1      12.173   2.784  -5.850  0.00  0.00     0.028 H 
ATOM     39  H   LIG d   1      12.895   4.290  -5.350  0.00  0.00     0.028 H 
ATOM     40  H   LIG d   1       8.028   2.417  -8.233  0.00  0.00     0.033 H 
ATOM     41  H   LIG d   1       8.861   0.847  -8.205  0.00  0.00     0.033 H 
ATOM     42  H   LIG d   1       6.076   1.044  -1.938  0.00  0.00     0.068 H 
ATOM     43  H   LIG d   1       5.260  -1.666  -6.083  0.00  0.00     0.066 H 
ATOM     44  H   LIG d   1       6.858  -0.220  -7.301  0.00  0.00     0.063 H 
ATOM     45  H   LIG d   1       2.799  -2.568  -1.971  0.00  0.00     0.117 H 
ATOM     46  H   LIG d   1       4.498  -3.131  -1.920  0.00  0.00     0.117 H 
ENDROOT
BRANCH   1  47
ATOM     47  C   LIG d   1      11.356   5.475  -6.958  0.00  0.00    -0.058 C 
ATOM     48  H   LIG d   1      10.600   5.605  -7.733  0.00  0.00     0.024 H 
ATOM     49  H   LIG d   1      11.557   6.436  -6.484  0.00  0.00     0.024 H 
ATOM     50  H   LIG d   1      12.272   5.091  -7.404  0.00  0.00     0.024 H 
ENDBRANCH   1  47
BRANCH  31  51
ATOM     51  C   LIG d   1      12.935   0.106  -6.765  0.00  0.00     0.012 C 
ATOM     52  H   LIG d   1      13.987   0.362  -6.891  0.00  0.00     0.043 H 
ATOM     53  H   LIG d   1      12.712  -0.006  -5.704  0.00  0.00     0.043 H 
ATOM     54  H   LIG d   1      12.726  -0.831  -7.281  0.00  0.00     0.043 H 
ENDBRANCH  31  51
BRANCH  28  55
ATOM     55  C   LIG d   1      12.253   3.329 -10.290  0.00  0.00     0.012 C 
ATOM     56  H   LIG d   1      12.939   2.652 -10.799  0.00  0.00     0.043 H 
ATOM     57  H   LIG d   1      11.417   3.562 -10.950  0.00  0.00     0.043 H 
ATOM     58  H   LIG d   1      12.777   4.248 -10.027  0.00  0.00     0.043 H 
ENDBRANCH  28  55
BRANCH   6  59
ATOM     59  C   LIG d   1      12.440   1.915  -3.600  0.00  0.00    -0.060 C 
ATOM     60  H   LIG d   1      13.516   2.027  -3.467  0.00  0.00     0.024 H 
ATOM     61  H   LIG d   1      12.010   1.448  -2.715  0.00  0.00     0.024 H 
ATOM     62  H   LIG d   1      12.244   1.292  -4.472  0.00  0.00     0.024 H 
ENDBRANCH   6  59
BRANCH   6  63
ATOM     63  C   LIG d   1      12.630   4.283  -2.946  0.00  0.00    -0.060 C 
ATOM     64  H   LIG d   1      13.329   3.717  -2.330  0.00  0.00     0.024 H 
ATOM     65  H   LIG d   1      13.185   4.961  -3.595  0.00  0.00     0.024 H 
ATOM     66  H   LIG d   1      11.963   4.858  -2.305  0.00  0.00     0.024 H 
ENDBRANCH   6  63
TORSDOF 5
ENDMDL
MODEL 9
REMARK VINA RESULT:      -6.3      6.382      9.066
REMARK  5 active torsions:
REMARK  status: ('A' for Active; 'I' for Inactive)
REMARK    1  A    between atoms: C_1  and  C_2 
REMARK    2  A    between atoms: C_7  and  C_9 
REMARK    3  A    between atoms: C_7  and  C_10 
REMARK    4  A    between atoms: N_31  and  C_38 
REMARK    5  A    between atoms: N_34  and  C_37 
ROOT
ATOM      1  C   LIG d   1       9.585   6.874  -9.089  0.00  0.00    -0.010 C 
ATOM      2  C   LIG d   1       8.882   8.206  -8.657  0.00  0.00    -0.027 C 
ATOM      3  C   LIG d   1       9.464   8.344  -7.226  0.00  0.00     0.026 C 
ATOM      4  H   LIG d   1       8.834   8.971  -6.581  0.00  0.00     0.050 H 
ATOM      5  C   LIG d   1      10.900   8.854  -7.343  0.00  0.00    -0.029 C 
ATOM      6  C   LIG d   1      11.600   8.418  -8.615  0.00  0.00    -0.033 C 
ATOM      7  C   LIG d   1      11.045   7.213  -9.341  0.00  0.00    -0.041 C 
ATOM      8  N   LIG d   1       9.564   6.965  -6.705  0.00  0.00    -0.307 N 
ATOM      9  C   LIG d   1       9.342   6.039  -7.831  0.00  0.00     0.053 C 
ATOM     10  H   LIG d   1       8.255   5.768  -7.818  0.00  0.00     0.052 H 
ATOM     11  C   LIG d   1      10.132   4.767  -7.634  0.00  0.00     0.147 C 
ATOM     12  C   LIG d   1       9.734   4.170  -6.267  0.00  0.00    -0.000 C 
ATOM     13  C   LIG d   1       9.867   5.175  -5.159  0.00  0.00    -0.005 A 
ATOM     14  C   LIG d   1       9.790   6.557  -5.404  0.00  0.00     0.126 A 
ATOM     15  N   LIG d   1       9.916   7.443  -4.438  0.00  0.00    -0.232 NA
ATOM     16  C   LIG d   1      10.113   7.069  -3.167  0.00  0.00     0.077 A 
ATOM     17  C   LIG d   1      10.218   8.048  -2.159  0.00  0.00     0.010 A 
ATOM     18  C   LIG d   1      10.416   7.611  -0.876  0.00  0.00     0.168 A 
ATOM     19  C   LIG d   1      10.522   6.235  -0.563  0.00  0.00     0.167 A 
ATOM     20  C   LIG d   1      10.422   5.268  -1.523  0.00  0.00    -0.007 A 
ATOM     21  C   LIG d   1      10.205   5.693  -2.850  0.00  0.00     0.004 A 
ATOM     22  C   LIG d   1      10.072   4.740  -3.881  0.00  0.00    -0.046 A 
ATOM     23  O   LIG d   1      10.726   6.110   0.769  0.00  0.00    -0.453 OA
ATOM     24  C   LIG d   1      11.116   7.419   1.232  0.00  0.00     0.233 C 
ATOM     25  O   LIG d   1      10.542   8.325   0.268  0.00  0.00    -0.453 OA
ATOM     26  C   LIG d   1       9.742   3.760  -8.689  0.00  0.00     0.240 C 
ATOM     27  O   LIG d   1       8.602   3.356  -8.715  0.00  0.00    -0.274 OA
ATOM     28  N   LIG d   1      10.621   3.301  -9.590  0.00  0.00    -0.228 N 
ATOM     29  C   LIG d   1      11.922   3.619  -9.533  0.00  0.00     0.317 C 
ATOM     30  O   LIG d   1      12.670   3.215 -10.401  0.00  0.00    -0.252 OA
ATOM     31  N   LIG d   1      12.414   4.369  -8.537  0.00  0.00    -0.228 N 
ATOM     32  C   LIG d   1      11.618   4.958  -7.629  0.00  0.00     0.240 C 
ATOM     33  O   LIG d   1      12.127   5.642  -6.768  0.00  0.00    -0.274 OA
ATOM     34  H   LIG d   1       9.135   9.030  -9.307  0.00  0.00     0.029 H 
ATOM     35  H   LIG d   1       7.797   8.058  -8.623  0.00  0.00     0.029 H 
ATOM     36  H   LIG d   1      10.899   9.955  -7.285  0.00  0.00     0.029 H 
ATOM     37  H   LIG d   1      11.478   8.502  -6.472  0.00  0.00     0.029 H 
ATOM     38  H   LIG d   1      11.675   6.343  -9.134  0.00  0.00     0.028 H 
ATOM     39  H   LIG d   1      11.165   7.392 -10.430  0.00  0.00     0.028 H 
ATOM     40  H   LIG d   1       8.698   3.841  -6.329  0.00  0.00     0.033 H 
ATOM     41  H   LIG d   1      10.376   3.316  -6.065  0.00  0.00     0.033 H 
ATOM     42  H   LIG d   1      10.145   9.102  -2.385  0.00  0.00     0.068 H 
ATOM     43  H   LIG d   1      10.505   4.220  -1.274  0.00  0.00     0.066 H 
ATOM     44  H   LIG d   1      10.133   3.685  -3.663  0.00  0.00     0.063 H 
ATOM     45  H   LIG d   1      10.707   7.610   2.225  0.00  0.00     0.117 H 
ATOM     46  H   LIG d   1      12.201   7.512   1.244  0.00  0.00     0.117 H 
ENDROOT
BRANCH   1  47
ATOM     47  C   LIG d   1       8.902   6.282 -10.335  0.00  0.00    -0.058 C 
ATOM     48  H   LIG d   1       8.229   7.023 -10.768  0.00  0.00     0.024 H 
ATOM     49  H   LIG d   1       9.661   6.009 -11.070  0.00  0.00     0.024 H 
ATOM     50  H   LIG d   1       8.334   5.396 -10.053  0.00  0.00     0.024 H 
ENDBRANCH   1  47
BRANCH  31  51
ATOM     51  C   LIG d   1      13.866   4.530  -8.424  0.00  0.00     0.012 C 
ATOM     52  H   LIG d   1      14.091   5.291  -7.678  0.00  0.00     0.043 H 
ATOM     53  H   LIG d   1      14.315   3.583  -8.124  0.00  0.00     0.043 H 
ATOM     54  H   LIG d   1      14.274   4.835  -9.388  0.00  0.00     0.043 H 
ENDBRANCH  31  51
BRANCH  28  55
ATOM     55  C   LIG d   1      10.147   2.427 -10.666  0.00  0.00     0.012 C 
ATOM     56  H   LIG d   1       9.278   2.879 -11.144  0.00  0.00     0.043 H 
ATOM     57  H   LIG d   1      10.940   2.296 -11.403  0.00  0.00     0.043 H 
ATOM     58  H   LIG d   1       9.871   1.457 -10.252  0.00  0.00     0.043 H 
ENDBRANCH  28  55
BRANCH   6  59
ATOM     59  C   LIG d   1      13.077   8.119  -8.256  0.00  0.00    -0.060 C 
ATOM     60  H   LIG d   1      13.196   7.052  -8.071  0.00  0.00     0.024 H 
ATOM     61  H   LIG d   1      13.719   8.420  -9.083  0.00  0.00     0.024 H 
ATOM     62  H   LIG d   1      13.351   8.676  -7.360  0.00  0.00     0.024 H 
ENDBRANCH   6  59
BRANCH   6  63
ATOM     63  C   LIG d   1      11.642   9.610  -9.593  0.00  0.00    -0.060 C 
ATOM     64  H   LIG d   1      10.941   9.436 -10.409  0.00  0.00     0.024 H 
ATOM     65  H   LIG d   1      11.365  10.524  -9.064  0.00  0.00     0.024 H 
ATOM     66  H   LIG d   1      12.650   9.715  -9.994  0.00  0.00     0.024 H 
ENDBRANCH   6  63
TORSDOF 5
ENDMDL
MODEL 10
REMARK VINA RESULT:      -6.3      7.481     11.429
REMARK  5 active torsions:
REMARK  status: ('A' for Active; 'I' for Inactive)
REMARK    1  A    between atoms: C_1  and  C_2 
REMARK    2  A    between atoms: C_7  and  C_9 
REMARK    3  A    between atoms: C_7  and  C_10 
REMARK    4  A    between atoms: N_31  and  C_38 
REMARK    5  A    between atoms: N_34  and  C_37 
ROOT
ATOM      1  C   LIG d   1      10.449   8.029  -1.625  0.00  0.00    -0.010 C 
ATOM      2  C   LIG d   1       9.918   6.558  -1.531  0.00  0.00    -0.027 C 
ATOM      3  C   LIG d   1      10.211   6.092  -2.981  0.00  0.00     0.026 C 
ATOM      4  H   LIG d   1       9.583   5.241  -3.278  0.00  0.00     0.050 H 
ATOM      5  C   LIG d   1      11.707   5.803  -3.095  0.00  0.00    -0.029 C 
ATOM      6  C   LIG d   1      12.564   6.655  -2.180  0.00  0.00    -0.033 C 
ATOM      7  C   LIG d   1      11.965   7.943  -1.661  0.00  0.00    -0.041 C 
ATOM      8  N   LIG d   1       9.959   7.271  -3.834  0.00  0.00    -0.307 N 
ATOM      9  C   LIG d   1       9.812   8.444  -2.953  0.00  0.00     0.053 C 
ATOM     10  H   LIG d   1       8.715   8.575  -2.767  0.00  0.00     0.052 H 
ATOM     11  C   LIG d   1      10.309   9.692  -3.644  0.00  0.00     0.147 C 
ATOM     12  C   LIG d   1       9.543   9.831  -4.977  0.00  0.00    -0.000 C 
ATOM     13  C   LIG d   1       9.622   8.579  -5.800  0.00  0.00    -0.005 A 
ATOM     14  C   LIG d   1       9.840   7.321  -5.210  0.00  0.00     0.126 A 
ATOM     15  N   LIG d   1       9.921   6.220  -5.928  0.00  0.00    -0.232 NA
ATOM     16  C   LIG d   1       9.786   6.243  -7.261  0.00  0.00     0.077 A 
ATOM     17  C   LIG d   1       9.853   5.039  -7.990  0.00  0.00     0.010 A 
ATOM     18  C   LIG d   1       9.706   5.118  -9.350  0.00  0.00     0.168 A 
ATOM     19  C   LIG d   1       9.503   6.353 -10.009  0.00  0.00     0.167 A 
ATOM     20  C   LIG d   1       9.433   7.533  -9.323  0.00  0.00    -0.007 A 
ATOM     21  C   LIG d   1       9.568   7.475  -7.920  0.00  0.00     0.004 A 
ATOM     22  C   LIG d   1       9.483   8.658  -7.156  0.00  0.00    -0.046 A 
ATOM     23  O   LIG d   1       9.407   6.123 -11.339  0.00  0.00    -0.453 OA
ATOM     24  C   LIG d   1       9.918   4.790 -11.545  0.00  0.00     0.233 C 
ATOM     25  O   LIG d   1       9.720   4.131 -10.277  0.00  0.00    -0.453 OA
ATOM     26  C   LIG d   1       9.972  10.903  -2.808  0.00  0.00     0.240 C 
ATOM     27  O   LIG d   1       8.808  11.165  -2.606  0.00  0.00    -0.274 OA
ATOM     28  N   LIG d   1      10.921  11.693  -2.290  0.00  0.00    -0.228 N 
ATOM     29  C   LIG d   1      12.219  11.523  -2.581  0.00  0.00     0.317 C 
ATOM     30  O   LIG d   1      13.045  12.237  -2.049  0.00  0.00    -0.252 OA
ATOM     31  N   LIG d   1      12.621  10.585  -3.450  0.00  0.00    -0.228 N 
ATOM     32  C   LIG d   1      11.773   9.678  -3.963  0.00  0.00     0.240 C 
ATOM     33  O   LIG d   1      12.209   8.843  -4.725  0.00  0.00    -0.274 OA
ATOM     34  H   LIG d   1      10.438   5.984  -0.779  0.00  0.00     0.029 H 
ATOM     35  H   LIG d   1       8.839   6.566  -1.335  0.00  0.00     0.029 H 
ATOM     36  H   LIG d   1      11.888   4.737  -2.877  0.00  0.00     0.029 H 
ATOM     37  H   LIG d   1      12.025   5.960  -4.139  0.00  0.00     0.029 H 
ATOM     38  H   LIG d   1      12.378   8.787  -2.223  0.00  0.00     0.028 H 
ATOM     39  H   LIG d   1      12.334   8.092  -0.625  0.00  0.00     0.028 H 
ATOM     40  H   LIG d   1       8.500  10.044  -4.747  0.00  0.00     0.033 H 
ATOM     41  H   LIG d   1       9.970  10.662  -5.533  0.00  0.00     0.033 H 
ATOM     42  H   LIG d   1      10.014   4.090  -7.500  0.00  0.00     0.068 H 
ATOM     43  H   LIG d   1       9.279   8.472  -9.835  0.00  0.00     0.066 H 
ATOM     44  H   LIG d   1       9.312   9.609  -7.636  0.00  0.00     0.063 H 
ATOM     45  H   LIG d   1       9.356   4.283 -12.329  0.00  0.00     0.117 H 
ATOM     46  H   LIG d   1      10.977   4.822 -11.797  0.00  0.00     0.117 H 
ENDROOT
BRANCH   1  47
ATOM     47  C   LIG d   1       9.941   8.865  -0.437  0.00  0.00    -0.058 C 
ATOM     48  H   LIG d   1       8.876   8.682  -0.292  0.00  0.00     0.024 H 
ATOM     49  H   LIG d   1      10.484   8.580   0.466  0.00  0.00     0.024 H 
ATOM     50  H   LIG d   1      10.103   9.923  -0.640  0.00  0.00     0.024 H 
ENDBRANCH   1  47
BRANCH  31  51
ATOM     51  C   LIG d   1      14.026  10.567  -3.869  0.00  0.00     0.012 C 
ATOM     52  H   LIG d   1      14.092  10.225  -4.902  0.00  0.00     0.043 H 
ATOM     53  H   LIG d   1      14.442  11.571  -3.791  0.00  0.00     0.043 H 
ATOM     54  H   LIG d   1      14.588   9.890  -3.227  0.00  0.00     0.043 H 
ENDBRANCH  31  51
BRANCH  28  55
ATOM     55  C   LIG d   1      10.531  12.774  -1.381  0.00  0.00     0.012 C 
ATOM     56  H   LIG d   1      11.065  12.665  -0.437  0.00  0.00     0.043 H 
ATOM     57  H   LIG d   1      10.780  13.735  -1.831  0.00  0.00     0.043 H 
ATOM     58  H   LIG d   1       9.457  12.725  -1.198  0.00  0.00     0.043 H 
ENDBRANCH  28  55
BRANCH   6  59
ATOM     59  C   LIG d   1      13.861   7.008  -2.949  0.00  0.00    -0.060 C 
ATOM     60  H   LIG d   1      14.724   6.817  -2.312  0.00  0.00     0.024 H 
ATOM     61  H   LIG d   1      13.927   6.395  -3.848  0.00  0.00     0.024 H 
ATOM     62  H   LIG d   1      13.841   8.061  -3.228  0.00  0.00     0.024 H 
ENDBRANCH   6  59
BRANCH   6  63
ATOM     63  C   LIG d   1      13.013   5.798  -0.978  0.00  0.00    -0.060 C 
ATOM     64  H   LIG d   1      12.753   6.307  -0.050  0.00  0.00     0.024 H 
ATOM     65  H   LIG d   1      12.512   4.830  -1.015  0.00  0.00     0.024 H 
ATOM     66  H   LIG d   1      14.092   5.650  -1.021  0.00  0.00     0.024 H 
ENDBRANCH   6  63
TORSDOF 5
ENDMDL
