MODEL 1
REMARK VINA RESULT:      -6.6      0.000      0.000
REMARK  0 active torsions:
REMARK  status: ('A' for Active; 'I' for Inactive)
ROOT
ATOM      1  C   LIG d   1       5.684  -3.293  -4.581  0.00  0.00    -0.060 A 
ATOM      2  C   LIG d   1       4.682  -2.875  -3.750  0.00  0.00    -0.054 A 
ATOM      3  C   LIG d   1       4.731  -1.573  -3.222  0.00  0.00    -0.017 A 
ATOM      4  C   LIG d   1       3.777  -1.035  -2.341  0.00  0.00    -0.054 A 
ATOM      5  C   LIG d   1       3.931   0.249  -1.899  0.00  0.00    -0.060 A 
ATOM      6  C   LIG d   1       4.996   1.058  -2.289  0.00  0.00    -0.052 A 
ATOM      7  C   LIG d   1       5.957   0.568  -3.159  0.00  0.00     0.010 A 
ATOM      8  C   LIG d   1       5.807  -0.759  -3.593  0.00  0.00     0.001 A 
ATOM      9  C   LIG d   1       6.849  -1.192  -4.430  0.00  0.00     0.010 A 
ATOM     10  C   LIG d   1       6.763  -2.482  -4.927  0.00  0.00    -0.052 A 
ATOM     11  C   LIG d   1       7.796  -0.074  -4.530  0.00  0.00     0.092 C 
ATOM     12  N   LIG d   1       8.985   0.009  -5.036  0.00  0.00    -0.279 NA
ATOM     13  C   LIG d   1       9.750   1.240  -4.809  0.00  0.00     0.060 C 
ATOM     14  C   LIG d   1       8.863   2.471  -4.717  0.00  0.00     0.060 C 
ATOM     15  N   LIG d   1       7.701   2.265  -3.844  0.00  0.00    -0.279 NA
ATOM     16  C   LIG d   1       7.163   1.088  -3.811  0.00  0.00     0.092 C 
ATOM     17  H   LIG d   1       5.637  -4.293  -4.986  0.00  0.00     0.062 H 
ATOM     18  H   LIG d   1       3.865  -3.536  -3.502  0.00  0.00     0.062 H 
ATOM     19  H   LIG d   1       2.932  -1.628  -2.021  0.00  0.00     0.062 H 
ATOM     20  H   LIG d   1       3.196   0.653  -1.218  0.00  0.00     0.062 H 
ATOM     21  H   LIG d   1       5.073   2.067  -1.912  0.00  0.00     0.062 H 
ATOM     22  H   LIG d   1       7.533  -2.859  -5.584  0.00  0.00     0.062 H 
ATOM     23  H   LIG d   1      10.455   1.374  -5.629  0.00  0.00     0.053 H 
ATOM     24  H   LIG d   1      10.310   1.139  -3.879  0.00  0.00     0.053 H 
ATOM     25  H   LIG d   1       8.511   2.727  -5.717  0.00  0.00     0.053 H 
ATOM     26  H   LIG d   1       9.452   3.302  -4.330  0.00  0.00     0.053 H 
ENDROOT
TORSDOF 0
ENDMDL
MODEL 2
REMARK VINA RESULT:      -6.2      2.074      4.271
REMARK  0 active torsions:
REMARK  status: ('A' for Active; 'I' for Inactive)
ROOT
ATOM      1  C   LIG d   1       7.527   0.936  -3.864  0.00  0.00    -0.060 A 
ATOM      2  C   LIG d   1       6.424   1.348  -3.170  0.00  0.00    -0.054 A 
ATOM      3  C   LIG d   1       5.299   0.506  -3.114  0.00  0.00    -0.017 A 
ATOM      4  C   LIG d   1       4.099   0.824  -2.453  0.00  0.00    -0.054 A 
ATOM      5  C   LIG d   1       3.076  -0.082  -2.464  0.00  0.00    -0.060 A 
ATOM      6  C   LIG d   1       3.170  -1.318  -3.099  0.00  0.00    -0.052 A 
ATOM      7  C   LIG d   1       4.336  -1.673  -3.758  0.00  0.00     0.010 A 
ATOM      8  C   LIG d   1       5.377  -0.731  -3.765  0.00  0.00     0.001 A 
ATOM      9  C   LIG d   1       6.501  -1.148  -4.496  0.00  0.00     0.010 A 
ATOM     10  C   LIG d   1       7.587  -0.288  -4.528  0.00  0.00    -0.052 A 
ATOM     11  C   LIG d   1       6.168  -2.461  -5.060  0.00  0.00     0.092 C 
ATOM     12  N   LIG d   1       6.772  -3.208  -5.929  0.00  0.00    -0.279 NA
ATOM     13  C   LIG d   1       6.074  -4.399  -6.424  0.00  0.00     0.060 C 
ATOM     14  C   LIG d   1       5.160  -5.018  -5.379  0.00  0.00     0.060 C 
ATOM     15  N   LIG d   1       4.327  -4.021  -4.697  0.00  0.00    -0.279 NA
ATOM     16  C   LIG d   1       4.828  -2.845  -4.490  0.00  0.00     0.092 C 
ATOM     17  H   LIG d   1       8.388   1.587  -3.901  0.00  0.00     0.062 H 
ATOM     18  H   LIG d   1       6.415   2.306  -2.673  0.00  0.00     0.062 H 
ATOM     19  H   LIG d   1       3.990   1.769  -1.943  0.00  0.00     0.062 H 
ATOM     20  H   LIG d   1       2.156   0.172  -1.959  0.00  0.00     0.062 H 
ATOM     21  H   LIG d   1       2.333  -2.000  -3.078  0.00  0.00     0.062 H 
ATOM     22  H   LIG d   1       8.480  -0.566  -5.067  0.00  0.00     0.062 H 
ATOM     23  H   LIG d   1       6.813  -5.140  -6.730  0.00  0.00     0.053 H 
ATOM     24  H   LIG d   1       5.477  -4.121  -7.294  0.00  0.00     0.053 H 
ATOM     25  H   LIG d   1       5.772  -5.532  -4.637  0.00  0.00     0.053 H 
ATOM     26  H   LIG d   1       4.512  -5.746  -5.865  0.00  0.00     0.053 H 
ENDROOT
TORSDOF 0
ENDMDL
MODEL 3
REMARK VINA RESULT:      -6.1      2.055      4.596
REMARK  0 active torsions:
REMARK  status: ('A' for Active; 'I' for Inactive)
ROOT
ATOM      1  C   LIG d   1       3.104   0.013  -2.442  0.00  0.00    -0.060 A 
ATOM      2  C   LIG d   1       4.128   0.918  -2.451  0.00  0.00    -0.054 A 
ATOM      3  C   LIG d   1       5.316   0.599  -3.133  0.00  0.00    -0.017 A 
ATOM      4  C   LIG d   1       6.446   1.433  -3.196  0.00  0.00    -0.054 A 
ATOM      5  C   LIG d   1       7.542   1.012  -3.896  0.00  0.00    -0.060 A 
ATOM      6  C   LIG d   1       7.589  -0.211  -4.560  0.00  0.00    -0.052 A 
ATOM      7  C   LIG d   1       6.495  -1.061  -4.527  0.00  0.00     0.010 A 
ATOM      8  C   LIG d   1       5.380  -0.636  -3.787  0.00  0.00     0.001 A 
ATOM      9  C   LIG d   1       4.337  -1.577  -3.762  0.00  0.00     0.010 A 
ATOM     10  C   LIG d   1       3.185  -1.224  -3.078  0.00  0.00    -0.052 A 
ATOM     11  C   LIG d   1       4.812  -2.746  -4.513  0.00  0.00     0.092 C 
ATOM     12  N   LIG d   1       4.322  -3.936  -4.661  0.00  0.00    -0.279 NA
ATOM     13  C   LIG d   1       5.146  -4.945  -5.335  0.00  0.00     0.060 C 
ATOM     14  C   LIG d   1       6.050  -4.345  -6.400  0.00  0.00     0.060 C 
ATOM     15  N   LIG d   1       6.757  -3.148  -5.930  0.00  0.00    -0.279 NA
ATOM     16  C   LIG d   1       6.146  -2.366  -5.098  0.00  0.00     0.092 C 
ATOM     17  H   LIG d   1       2.194   0.267  -1.919  0.00  0.00     0.062 H 
ATOM     18  H   LIG d   1       4.027   1.865  -1.942  0.00  0.00     0.062 H 
ATOM     19  H   LIG d   1       6.446   2.393  -2.701  0.00  0.00     0.062 H 
ATOM     20  H   LIG d   1       8.408   1.657  -3.936  0.00  0.00     0.062 H 
ATOM     21  H   LIG d   1       8.479  -0.497  -5.101  0.00  0.00     0.062 H 
ATOM     22  H   LIG d   1       2.351  -1.907  -3.038  0.00  0.00     0.062 H 
ATOM     23  H   LIG d   1       4.491  -5.680  -5.803  0.00  0.00     0.053 H 
ATOM     24  H   LIG d   1       5.764  -5.449  -4.592  0.00  0.00     0.053 H 
ATOM     25  H   LIG d   1       5.445  -4.080  -7.267  0.00  0.00     0.053 H 
ATOM     26  H   LIG d   1       6.784  -5.093  -6.700  0.00  0.00     0.053 H 
ENDROOT
TORSDOF 0
ENDMDL
MODEL 4
REMARK VINA RESULT:      -6.1      3.183      4.509
REMARK  0 active torsions:
REMARK  status: ('A' for Active; 'I' for Inactive)
ROOT
ATOM      1  C   LIG d   1       3.341  -0.964  -2.467  0.00  0.00    -0.060 A 
ATOM      2  C   LIG d   1       4.610  -1.422  -2.251  0.00  0.00    -0.054 A 
ATOM      3  C   LIG d   1       5.517  -1.452  -3.325  0.00  0.00    -0.017 A 
ATOM      4  C   LIG d   1       6.840  -1.921  -3.237  0.00  0.00    -0.054 A 
ATOM      5  C   LIG d   1       7.629  -1.894  -4.352  0.00  0.00    -0.060 A 
ATOM      6  C   LIG d   1       7.182  -1.415  -5.581  0.00  0.00    -0.052 A 
ATOM      7  C   LIG d   1       5.886  -0.940  -5.711  0.00  0.00     0.010 A 
ATOM      8  C   LIG d   1       5.071  -0.990  -4.568  0.00  0.00     0.001 A 
ATOM      9  C   LIG d   1       3.761  -0.539  -4.799  0.00  0.00     0.010 A 
ATOM     10  C   LIG d   1       2.899  -0.527  -3.714  0.00  0.00    -0.052 A 
ATOM     11  C   LIG d   1       3.682  -0.198  -6.224  0.00  0.00     0.092 C 
ATOM     12  N   LIG d   1       2.680   0.110  -6.986  0.00  0.00    -0.279 NA
ATOM     13  C   LIG d   1       2.915   0.218  -8.430  0.00  0.00     0.060 C 
ATOM     14  C   LIG d   1       4.314   0.713  -8.759  0.00  0.00     0.060 C 
ATOM     15  N   LIG d   1       5.353   0.019  -7.989  0.00  0.00    -0.279 NA
ATOM     16  C   LIG d   1       5.075  -0.346  -6.778  0.00  0.00     0.092 C 
ATOM     17  H   LIG d   1       2.650  -0.941  -1.637  0.00  0.00     0.062 H 
ATOM     18  H   LIG d   1       4.913  -1.756  -1.270  0.00  0.00     0.062 H 
ATOM     19  H   LIG d   1       7.227  -2.293  -2.300  0.00  0.00     0.062 H 
ATOM     20  H   LIG d   1       8.643  -2.261  -4.277  0.00  0.00     0.062 H 
ATOM     21  H   LIG d   1       7.845  -1.415  -6.434  0.00  0.00     0.062 H 
ATOM     22  H   LIG d   1       1.884  -0.179  -3.836  0.00  0.00     0.062 H 
ATOM     23  H   LIG d   1       2.187   0.910  -8.854  0.00  0.00     0.053 H 
ATOM     24  H   LIG d   1       2.772  -0.763  -8.884  0.00  0.00     0.053 H 
ATOM     25  H   LIG d   1       4.369   1.780  -8.544  0.00  0.00     0.053 H 
ATOM     26  H   LIG d   1       4.501   0.559  -9.821  0.00  0.00     0.053 H 
ENDROOT
TORSDOF 0
ENDMDL
MODEL 5
REMARK VINA RESULT:      -6.1      3.216      3.795
REMARK  0 active torsions:
REMARK  status: ('A' for Active; 'I' for Inactive)
ROOT
ATOM      1  C   LIG d   1       7.324  -1.900  -4.081  0.00  0.00    -0.060 A 
ATOM      2  C   LIG d   1       6.438  -1.852  -3.041  0.00  0.00    -0.054 A 
ATOM      3  C   LIG d   1       5.147  -1.343  -3.266  0.00  0.00    -0.017 A 
ATOM      4  C   LIG d   1       4.157  -1.221  -2.275  0.00  0.00    -0.054 A 
ATOM      5  C   LIG d   1       2.935  -0.714  -2.618  0.00  0.00    -0.060 A 
ATOM      6  C   LIG d   1       2.621  -0.316  -3.915  0.00  0.00    -0.052 A 
ATOM      7  C   LIG d   1       3.566  -0.424  -4.923  0.00  0.00     0.010 A 
ATOM      8  C   LIG d   1       4.829  -0.922  -4.561  0.00  0.00     0.001 A 
ATOM      9  C   LIG d   1       5.742  -0.950  -5.628  0.00  0.00     0.010 A 
ATOM     10  C   LIG d   1       7.004  -1.458  -5.364  0.00  0.00    -0.052 A 
ATOM     11  C   LIG d   1       5.046  -0.384  -6.789  0.00  0.00     0.092 C 
ATOM     12  N   LIG d   1       5.465  -0.035  -7.964  0.00  0.00    -0.279 NA
ATOM     13  C   LIG d   1       4.537   0.681  -8.846  0.00  0.00     0.060 C 
ATOM     14  C   LIG d   1       3.091   0.263  -8.637  0.00  0.00     0.060 C 
ATOM     15  N   LIG d   1       2.718   0.212  -7.218  0.00  0.00    -0.279 NA
ATOM     16  C   LIG d   1       3.619  -0.156  -6.363  0.00  0.00     0.092 C 
ATOM     17  H   LIG d   1       8.313  -2.295  -3.902  0.00  0.00     0.062 H 
ATOM     18  H   LIG d   1       6.726  -2.200  -2.060  0.00  0.00     0.062 H 
ATOM     19  H   LIG d   1       4.358  -1.526  -1.259  0.00  0.00     0.062 H 
ATOM     20  H   LIG d   1       2.180  -0.620  -1.851  0.00  0.00     0.062 H 
ATOM     21  H   LIG d   1       1.639   0.077  -4.136  0.00  0.00     0.062 H 
ATOM     22  H   LIG d   1       7.740  -1.511  -6.152  0.00  0.00     0.062 H 
ATOM     23  H   LIG d   1       4.814   0.485  -9.883  0.00  0.00     0.053 H 
ATOM     24  H   LIG d   1       4.626   1.751  -8.657  0.00  0.00     0.053 H 
ATOM     25  H   LIG d   1       2.943  -0.724  -9.076  0.00  0.00     0.053 H 
ATOM     26  H   LIG d   1       2.441   0.974  -9.146  0.00  0.00     0.053 H 
ENDROOT
TORSDOF 0
ENDMDL
MODEL 6
REMARK VINA RESULT:      -6.0      3.063      4.025
REMARK  0 active torsions:
REMARK  status: ('A' for Active; 'I' for Inactive)
ROOT
ATOM      1  C   LIG d   1       2.800   0.279  -6.492  0.00  0.00    -0.060 A 
ATOM      2  C   LIG d   1       2.587   0.523  -5.164  0.00  0.00    -0.054 A 
ATOM      3  C   LIG d   1       3.349  -0.173  -4.211  0.00  0.00    -0.017 A 
ATOM      4  C   LIG d   1       3.209  -0.028  -2.819  0.00  0.00    -0.054 A 
ATOM      5  C   LIG d   1       4.015  -0.758  -1.991  0.00  0.00    -0.060 A 
ATOM      6  C   LIG d   1       4.980  -1.642  -2.466  0.00  0.00    -0.052 A 
ATOM      7  C   LIG d   1       5.154  -1.813  -3.830  0.00  0.00     0.010 A 
ATOM      8  C   LIG d   1       4.309  -1.078  -4.678  0.00  0.00     0.001 A 
ATOM      9  C   LIG d   1       4.516  -1.348  -6.040  0.00  0.00     0.010 A 
ATOM     10  C   LIG d   1       3.742  -0.641  -6.947  0.00  0.00    -0.052 A 
ATOM     11  C   LIG d   1       5.558  -2.380  -6.109  0.00  0.00     0.092 C 
ATOM     12  N   LIG d   1       6.007  -3.091  -7.093  0.00  0.00    -0.279 NA
ATOM     13  C   LIG d   1       6.939  -4.183  -6.789  0.00  0.00     0.060 C 
ATOM     14  C   LIG d   1       7.823  -3.881  -5.590  0.00  0.00     0.060 C 
ATOM     15  N   LIG d   1       7.065  -3.347  -4.451  0.00  0.00    -0.279 NA
ATOM     16  C   LIG d   1       6.045  -2.589  -4.699  0.00  0.00     0.092 C 
ATOM     17  H   LIG d   1       2.212   0.820  -7.219  0.00  0.00     0.062 H 
ATOM     18  H   LIG d   1       1.843   1.241  -4.852  0.00  0.00     0.062 H 
ATOM     19  H   LIG d   1       2.478   0.654  -2.411  0.00  0.00     0.062 H 
ATOM     20  H   LIG d   1       3.897  -0.644  -0.923  0.00  0.00     0.062 H 
ATOM     21  H   LIG d   1       5.593  -2.196  -1.770  0.00  0.00     0.062 H 
ATOM     22  H   LIG d   1       3.870  -0.804  -8.007  0.00  0.00     0.062 H 
ATOM     23  H   LIG d   1       7.573  -4.357  -7.659  0.00  0.00     0.053 H 
ATOM     24  H   LIG d   1       6.367  -5.088  -6.587  0.00  0.00     0.053 H 
ATOM     25  H   LIG d   1       8.578  -3.151  -5.883  0.00  0.00     0.053 H 
ATOM     26  H   LIG d   1       8.323  -4.798  -5.281  0.00  0.00     0.053 H 
ENDROOT
TORSDOF 0
ENDMDL
MODEL 7
REMARK VINA RESULT:      -5.3      3.146      4.868
REMARK  0 active torsions:
REMARK  status: ('A' for Active; 'I' for Inactive)
ROOT
ATOM      1  C   LIG d   1       2.874  -0.372  -8.107  0.00  0.00    -0.060 A 
ATOM      2  C   LIG d   1       3.590  -1.502  -8.387  0.00  0.00    -0.054 A 
ATOM      3  C   LIG d   1       4.372  -2.084  -7.373  0.00  0.00    -0.017 A 
ATOM      4  C   LIG d   1       5.168  -3.230  -7.541  0.00  0.00    -0.054 A 
ATOM      5  C   LIG d   1       5.880  -3.705  -6.475  0.00  0.00    -0.060 A 
ATOM      6  C   LIG d   1       5.848  -3.105  -5.219  0.00  0.00    -0.052 A 
ATOM      7  C   LIG d   1       5.072  -1.976  -5.009  0.00  0.00     0.010 A 
ATOM      8  C   LIG d   1       4.361  -1.477  -6.112  0.00  0.00     0.001 A 
ATOM      9  C   LIG d   1       3.643  -0.304  -5.827  0.00  0.00     0.010 A 
ATOM     10  C   LIG d   1       2.887   0.237  -6.854  0.00  0.00    -0.052 A 
ATOM     11  C   LIG d   1       3.932   0.033  -4.428  0.00  0.00     0.092 C 
ATOM     12  N   LIG d   1       3.662   1.081  -3.717  0.00  0.00    -0.279 NA
ATOM     13  C   LIG d   1       4.260   1.185  -2.381  0.00  0.00     0.060 C 
ATOM     14  C   LIG d   1       4.447  -0.169  -1.717  0.00  0.00     0.060 C 
ATOM     15  N   LIG d   1       5.051  -1.160  -2.616  0.00  0.00    -0.279 NA
ATOM     16  C   LIG d   1       4.753  -1.103  -3.875  0.00  0.00     0.092 C 
ATOM     17  H   LIG d   1       2.274   0.068  -8.890  0.00  0.00     0.062 H 
ATOM     18  H   LIG d   1       3.557  -1.942  -9.372  0.00  0.00     0.062 H 
ATOM     19  H   LIG d   1       5.214  -3.729  -8.498  0.00  0.00     0.062 H 
ATOM     20  H   LIG d   1       6.494  -4.584  -6.614  0.00  0.00     0.062 H 
ATOM     21  H   LIG d   1       6.429  -3.520  -4.408  0.00  0.00     0.062 H 
ATOM     22  H   LIG d   1       2.308   1.133  -6.683  0.00  0.00     0.062 H 
ATOM     23  H   LIG d   1       3.615   1.800  -1.753  0.00  0.00     0.053 H 
ATOM     24  H   LIG d   1       5.232   1.672  -2.468  0.00  0.00     0.053 H 
ATOM     25  H   LIG d   1       3.475  -0.537  -1.389  0.00  0.00     0.053 H 
ATOM     26  H   LIG d   1       5.089  -0.048  -0.845  0.00  0.00     0.053 H 
ENDROOT
TORSDOF 0
ENDMDL
MODEL 8
REMARK VINA RESULT:      -5.1      1.754      4.715
REMARK  0 active torsions:
REMARK  status: ('A' for Active; 'I' for Inactive)
ROOT
ATOM      1  C   LIG d   1       9.508   0.997  -4.929  0.00  0.00    -0.060 A 
ATOM      2  C   LIG d   1       9.723  -0.291  -5.333  0.00  0.00    -0.054 A 
ATOM      3  C   LIG d   1       8.753  -1.268  -5.046  0.00  0.00    -0.017 A 
ATOM      4  C   LIG d   1       8.867  -2.627  -5.386  0.00  0.00    -0.054 A 
ATOM      5  C   LIG d   1       7.852  -3.480  -5.057  0.00  0.00    -0.060 A 
ATOM      6  C   LIG d   1       6.698  -3.062  -4.400  0.00  0.00    -0.052 A 
ATOM      7  C   LIG d   1       6.543  -1.730  -4.049  0.00  0.00     0.010 A 
ATOM      8  C   LIG d   1       7.598  -0.860  -4.368  0.00  0.00     0.001 A 
ATOM      9  C   LIG d   1       7.384   0.458  -3.933  0.00  0.00     0.010 A 
ATOM     10  C   LIG d   1       8.365   1.389  -4.236  0.00  0.00    -0.052 A 
ATOM     11  C   LIG d   1       6.097   0.461  -3.228  0.00  0.00     0.092 C 
ATOM     12  N   LIG d   1       5.508   1.361  -2.506  0.00  0.00    -0.279 NA
ATOM     13  C   LIG d   1       4.293   0.979  -1.778  0.00  0.00     0.060 C 
ATOM     14  C   LIG d   1       3.479  -0.075  -2.512  0.00  0.00     0.060 C 
ATOM     15  N   LIG d   1       4.305  -1.182  -3.008  0.00  0.00    -0.279 NA
ATOM     16  C   LIG d   1       5.508  -0.914  -3.406  0.00  0.00     0.092 C 
ATOM     17  H   LIG d   1      10.256   1.742  -5.156  0.00  0.00     0.062 H 
ATOM     18  H   LIG d   1      10.625  -0.555  -5.865  0.00  0.00     0.062 H 
ATOM     19  H   LIG d   1       9.743  -2.990  -5.904  0.00  0.00     0.062 H 
ATOM     20  H   LIG d   1       7.949  -4.524  -5.318  0.00  0.00     0.062 H 
ATOM     21  H   LIG d   1       5.923  -3.776  -4.162  0.00  0.00     0.062 H 
ATOM     22  H   LIG d   1       8.243   2.418  -3.933  0.00  0.00     0.062 H 
ATOM     23  H   LIG d   1       3.674   1.865  -1.635  0.00  0.00     0.053 H 
ATOM     24  H   LIG d   1       4.576   0.588  -0.801  0.00  0.00     0.053 H 
ATOM     25  H   LIG d   1       2.975   0.395  -3.357  0.00  0.00     0.053 H 
ATOM     26  H   LIG d   1       2.726  -0.474  -1.833  0.00  0.00     0.053 H 
ENDROOT
TORSDOF 0
ENDMDL
MODEL 9
REMARK VINA RESULT:      -5.1      9.453     12.049
REMARK  0 active torsions:
REMARK  status: ('A' for Active; 'I' for Inactive)
ROOT
ATOM      1  C   LIG d   1       9.696  10.510  -1.636  0.00  0.00    -0.060 A 
ATOM      2  C   LIG d   1       9.605   9.168  -1.876  0.00  0.00    -0.054 A 
ATOM      3  C   LIG d   1      10.150   8.268  -0.943  0.00  0.00    -0.017 A 
ATOM      4  C   LIG d   1      10.141   6.870  -1.087  0.00  0.00    -0.054 A 
ATOM      5  C   LIG d   1      10.699   6.099  -0.106  0.00  0.00    -0.060 A 
ATOM      6  C   LIG d   1      11.276   6.638   1.040  0.00  0.00    -0.052 A 
ATOM      7  C   LIG d   1      11.303   8.012   1.224  0.00  0.00     0.010 A 
ATOM      8  C   LIG d   1      10.749   8.802   0.203  0.00  0.00     0.001 A 
ATOM      9  C   LIG d   1      10.863  10.181   0.444  0.00  0.00     0.010 A 
ATOM     10  C   LIG d   1      10.314  11.032  -0.501  0.00  0.00    -0.052 A 
ATOM     11  C   LIG d   1      11.591  10.326   1.710  0.00  0.00     0.092 C 
ATOM     12  N   LIG d   1      12.096  11.360   2.304  0.00  0.00    -0.279 NA
ATOM     13  C   LIG d   1      12.935  11.138   3.487  0.00  0.00     0.060 C 
ATOM     14  C   LIG d   1      12.503   9.922   4.291  0.00  0.00     0.060 C 
ATOM     15  N   LIG d   1      12.258   8.746   3.446  0.00  0.00    -0.279 NA
ATOM     16  C   LIG d   1      11.767   8.936   2.263  0.00  0.00     0.092 C 
ATOM     17  H   LIG d   1       9.272  11.195  -2.355  0.00  0.00     0.062 H 
ATOM     18  H   LIG d   1       9.121   8.803  -2.770  0.00  0.00     0.062 H 
ATOM     19  H   LIG d   1       9.696   6.412  -1.958  0.00  0.00     0.062 H 
ATOM     20  H   LIG d   1      10.692   5.025  -0.227  0.00  0.00     0.062 H 
ATOM     21  H   LIG d   1      11.704   5.985   1.787  0.00  0.00     0.062 H 
ATOM     22  H   LIG d   1      10.365  12.101  -0.358  0.00  0.00     0.062 H 
ATOM     23  H   LIG d   1      12.882  12.019   4.127  0.00  0.00     0.053 H 
ATOM     24  H   LIG d   1      13.967  10.999   3.166  0.00  0.00     0.053 H 
ATOM     25  H   LIG d   1      11.587  10.164   4.831  0.00  0.00     0.053 H 
ATOM     26  H   LIG d   1      13.283   9.681   5.012  0.00  0.00     0.053 H 
ENDROOT
TORSDOF 0
ENDMDL
MODEL 10
REMARK VINA RESULT:      -5.1      3.494      4.548
REMARK  0 active torsions:
REMARK  status: ('A' for Active; 'I' for Inactive)
ROOT
ATOM      1  C   LIG d   1       5.148  -3.765  -7.230  0.00  0.00    -0.060 A 
ATOM      2  C   LIG d   1       4.496  -3.033  -8.183  0.00  0.00    -0.054 A 
ATOM      3  C   LIG d   1       3.905  -1.811  -7.819  0.00  0.00    -0.017 A 
ATOM      4  C   LIG d   1       3.189  -0.980  -8.699  0.00  0.00    -0.054 A 
ATOM      5  C   LIG d   1       2.664   0.190  -8.228  0.00  0.00    -0.060 A 
ATOM      6  C   LIG d   1       2.813   0.605  -6.907  0.00  0.00    -0.052 A 
ATOM      7  C   LIG d   1       3.515  -0.181  -6.007  0.00  0.00     0.010 A 
ATOM      8  C   LIG d   1       4.033  -1.395  -6.489  0.00  0.00     0.001 A 
ATOM      9  C   LIG d   1       4.684  -2.153  -5.503  0.00  0.00     0.010 A 
ATOM     10  C   LIG d   1       5.251  -3.352  -5.903  0.00  0.00    -0.052 A 
ATOM     11  C   LIG d   1       4.555  -1.404  -4.247  0.00  0.00     0.092 C 
ATOM     12  N   LIG d   1       4.830  -1.718  -3.021  0.00  0.00    -0.279 NA
ATOM     13  C   LIG d   1       4.406  -0.798  -1.960  0.00  0.00     0.060 C 
ATOM     14  C   LIG d   1       4.419   0.655  -2.405  0.00  0.00     0.060 C 
ATOM     15  N   LIG d   1       3.785   0.849  -3.714  0.00  0.00    -0.279 NA
ATOM     16  C   LIG d   1       3.909  -0.090  -4.598  0.00  0.00     0.092 C 
ATOM     17  H   LIG d   1       5.602  -4.702  -7.517  0.00  0.00     0.062 H 
ATOM     18  H   LIG d   1       4.434  -3.390  -9.200  0.00  0.00     0.062 H 
ATOM     19  H   LIG d   1       3.058  -1.262  -9.734  0.00  0.00     0.062 H 
ATOM     20  H   LIG d   1       2.111   0.821  -8.909  0.00  0.00     0.062 H 
ATOM     21  H   LIG d   1       2.380   1.540  -6.583  0.00  0.00     0.062 H 
ATOM     22  H   LIG d   1       5.773  -3.968  -5.185  0.00  0.00     0.062 H 
ATOM     23  H   LIG d   1       5.076  -0.912  -1.107  0.00  0.00     0.053 H 
ATOM     24  H   LIG d   1       3.396  -1.062  -1.648  0.00  0.00     0.053 H 
ATOM     25  H   LIG d   1       5.453   0.997  -2.460  0.00  0.00     0.053 H 
ATOM     26  H   LIG d   1       3.891   1.255  -1.665  0.00  0.00     0.053 H 
ENDROOT
TORSDOF 0
ENDMDL
