MODEL 1
REMARK VINA RESULT:      -6.9      0.000      0.000
REMARK  4 active torsions:
REMARK  status: ('A' for Active; 'I' for Inactive)
REMARK    1  A    between atoms: C_1  and  C_2 
REMARK    2  A    between atoms: C_16  and  C_19 
REMARK    3  A    between atoms: C_19  and  O_21 
REMARK    4  A    between atoms: O_21  and  C_22 
ROOT
ATOM      1  C   LIG d   1       5.851  -3.308  -9.206  0.00  0.00     0.105 C 
ATOM      2  H   LIG d   1       5.383  -3.759  -8.331  0.00  0.00     0.073 H 
ATOM      3  C   LIG d   1       6.320  -1.891  -8.868  0.00  0.00     0.043 C 
ATOM      4  H   LIG d   1       6.713  -1.426  -9.773  0.00  0.00     0.040 H 
ATOM      5  C   LIG d   1       7.432  -1.945  -7.819  0.00  0.00    -0.025 C 
ATOM      6  N   LIG d   1       6.869  -2.453  -6.575  0.00  0.00     0.239 N 
ATOM      7  C   LIG d   1       7.827  -2.589  -5.466  0.00  0.00    -0.030 C 
ATOM      8  C   LIG d   1       6.922  -2.600  -4.202  0.00  0.00     0.011 C 
ATOM      9  C   LIG d   1       5.637  -1.870  -4.641  0.00  0.00     0.121 A 
ATOM     10  C   LIG d   1       5.898  -1.438  -6.078  0.00  0.00    -0.002 C 
ATOM     11  H   LIG d   1       6.346  -0.445  -6.097  0.00  0.00     0.086 H 
ATOM     12  C   LIG d   1       4.681  -1.493  -6.987  0.00  0.00    -0.001 C 
ATOM     13  C   LIG d   1       5.126  -1.077  -8.378  0.00  0.00     0.010 C 
ATOM     14  H   LIG d   1       5.386  -0.019  -8.372  0.00  0.00     0.036 H 
ATOM     15  C   LIG d   1       3.961  -1.291  -9.311  0.00  0.00     0.074 C 
ATOM     16  C   LIG d   1       3.918  -2.317 -10.166  0.00  0.00     0.095 C 
ATOM     17  O   LIG d   1       4.899  -3.227 -10.272  0.00  0.00    -0.496 OA
ATOM     18  C   LIG d   1       5.318  -0.725  -3.742  0.00  0.00    -0.006 A 
ATOM     19  C   LIG d   1       6.020   0.416  -3.418  0.00  0.00    -0.056 A 
ATOM     20  C   LIG d   1       5.418   1.298  -2.527  0.00  0.00    -0.061 A 
ATOM     21  C   LIG d   1       4.172   1.040  -1.992  0.00  0.00    -0.060 A 
ATOM     22  C   LIG d   1       3.460  -0.104  -2.312  0.00  0.00    -0.040 A 
ATOM     23  C   LIG d   1       4.052  -0.998  -3.204  0.00  0.00     0.038 A 
ATOM     24  N   LIG d   1       3.572  -2.202  -3.690  0.00  0.00    -0.284 N 
ATOM     25  C   LIG d   1       4.443  -2.787  -4.543  0.00  0.00     0.233 A 
ATOM     26  O   LIG d   1       4.293  -3.845  -5.117  0.00  0.00    -0.274 OA
ATOM     27  H   LIG d   1       8.225  -2.610  -8.161  0.00  0.00     0.082 H 
ATOM     28  H   LIG d   1       7.833  -0.944  -7.658  0.00  0.00     0.082 H 
ATOM     29  H   LIG d   1       8.381  -3.524  -5.549  0.00  0.00     0.082 H 
ATOM     30  H   LIG d   1       8.509  -1.739  -5.442  0.00  0.00     0.082 H 
ATOM     31  H   LIG d   1       6.695  -3.624  -3.907  0.00  0.00     0.033 H 
ATOM     32  H   LIG d   1       7.403  -2.064  -3.385  0.00  0.00     0.033 H 
ATOM     33  H   LIG d   1       4.286  -2.508  -7.013  0.00  0.00     0.033 H 
ATOM     34  H   LIG d   1       3.915  -0.808  -6.621  0.00  0.00     0.033 H 
ATOM     35  H   LIG d   1       3.052  -2.419 -10.802  0.00  0.00     0.103 H 
ATOM     36  H   LIG d   1       6.995   0.616  -3.837  0.00  0.00     0.062 H 
ATOM     37  H   LIG d   1       5.936   2.203  -2.248  0.00  0.00     0.062 H 
ATOM     38  H   LIG d   1       3.740   1.752  -1.304  0.00  0.00     0.062 H 
ATOM     39  H   LIG d   1       2.485  -0.296  -1.888  0.00  0.00     0.064 H 
ATOM     40  H   LIG d   1       2.712  -2.581  -3.449  0.00  0.00     0.155 HD
ATOM     41  H   LIG d   1       6.397  -3.328  -6.744  0.00  0.00     0.204 HD
ENDROOT
BRANCH  15  42
ATOM     42  C   LIG d   1       2.881  -0.377  -9.280  0.00  0.00     0.338 C 
ATOM     43  O   LIG d   1       1.752  -0.776  -9.062  0.00  0.00    -0.245 OA
BRANCH  42  44
ATOM     44  O   LIG d   1       3.101   0.937  -9.494  0.00  0.00    -0.465 OA
BRANCH  44  45
ATOM     45  C   LIG d   1       2.793   1.829  -8.421  0.00  0.00     0.082 C 
ATOM     46  H   LIG d   1       3.539   1.723  -7.633  0.00  0.00     0.066 H 
ATOM     47  H   LIG d   1       2.797   2.855  -8.789  0.00  0.00     0.066 H 
ATOM     48  H   LIG d   1       1.807   1.591  -8.022  0.00  0.00     0.066 H 
ENDBRANCH  44  45
ENDBRANCH  42  44
ENDBRANCH  15  42
BRANCH   1  49
ATOM     49  C   LIG d   1       7.046  -4.156  -9.645  0.00  0.00    -0.027 C 
ATOM     50  H   LIG d   1       7.733  -4.277  -8.807  0.00  0.00     0.026 H 
ATOM     51  H   LIG d   1       6.697  -5.135  -9.973  0.00  0.00     0.026 H 
ATOM     52  H   LIG d   1       7.561  -3.659 -10.467  0.00  0.00     0.026 H 
ENDBRANCH   1  49
TORSDOF 4
ENDMDL
MODEL 2
REMARK VINA RESULT:      -6.9      1.599      1.877
REMARK  4 active torsions:
REMARK  status: ('A' for Active; 'I' for Inactive)
REMARK    1  A    between atoms: C_1  and  C_2 
REMARK    2  A    between atoms: C_16  and  C_19 
REMARK    3  A    between atoms: C_19  and  O_21 
REMARK    4  A    between atoms: O_21  and  C_22 
ROOT
ATOM      1  C   LIG d   1       7.704  -1.808  -9.054  0.00  0.00     0.105 C 
ATOM      2  H   LIG d   1       6.931  -2.393  -8.556  0.00  0.00     0.073 H 
ATOM      3  C   LIG d   1       8.057  -0.587  -8.201  0.00  0.00     0.043 C 
ATOM      4  H   LIG d   1       8.773   0.028  -8.748  0.00  0.00     0.040 H 
ATOM      5  C   LIG d   1       8.696  -1.035  -6.886  0.00  0.00    -0.025 C 
ATOM      6  N   LIG d   1       7.695  -1.752  -6.107  0.00  0.00     0.239 N 
ATOM      7  C   LIG d   1       8.167  -2.274  -4.814  0.00  0.00    -0.030 C 
ATOM      8  C   LIG d   1       6.855  -2.473  -4.002  0.00  0.00     0.011 C 
ATOM      9  C   LIG d   1       5.849  -1.500  -4.647  0.00  0.00     0.121 A 
ATOM     10  C   LIG d   1       6.640  -0.771  -5.726  0.00  0.00    -0.002 C 
ATOM     11  H   LIG d   1       7.093   0.131  -5.316  0.00  0.00     0.086 H 
ATOM     12  C   LIG d   1       5.848  -0.448  -6.983  0.00  0.00    -0.001 C 
ATOM     13  C   LIG d   1       6.791   0.231  -7.960  0.00  0.00     0.010 C 
ATOM     14  H   LIG d   1       7.063   1.213  -7.575  0.00  0.00     0.036 H 
ATOM     15  C   LIG d   1       6.053   0.401  -9.263  0.00  0.00     0.074 C 
ATOM     16  C   LIG d   1       6.299  -0.374 -10.323  0.00  0.00     0.095 C 
ATOM     17  O   LIG d   1       7.221  -1.351 -10.321  0.00  0.00    -0.496 OA
ATOM     18  C   LIG d   1       5.254  -0.575  -3.643  0.00  0.00    -0.006 A 
ATOM     19  C   LIG d   1       5.819   0.354  -2.796  0.00  0.00    -0.056 A 
ATOM     20  C   LIG d   1       4.956   1.064  -1.969  0.00  0.00    -0.061 A 
ATOM     21  C   LIG d   1       3.593   0.847  -1.997  0.00  0.00    -0.060 A 
ATOM     22  C   LIG d   1       3.016  -0.084  -2.845  0.00  0.00    -0.040 A 
ATOM     23  C   LIG d   1       3.871  -0.805  -3.679  0.00  0.00     0.038 A 
ATOM     24  N   LIG d   1       3.570  -1.783  -4.611  0.00  0.00    -0.284 N 
ATOM     25  C   LIG d   1       4.677  -2.252  -5.228  0.00  0.00     0.233 A 
ATOM     26  O   LIG d   1       4.720  -3.112  -6.083  0.00  0.00    -0.274 OA
ATOM     27  H   LIG d   1       9.538  -1.695  -7.095  0.00  0.00     0.082 H 
ATOM     28  H   LIG d   1       9.038  -0.163  -6.329  0.00  0.00     0.082 H 
ATOM     29  H   LIG d   1       8.682  -3.225  -4.949  0.00  0.00     0.082 H 
ATOM     30  H   LIG d   1       8.816  -1.550  -4.322  0.00  0.00     0.082 H 
ATOM     31  H   LIG d   1       6.504  -3.500  -4.095  0.00  0.00     0.033 H 
ATOM     32  H   LIG d   1       7.014  -2.218  -2.955  0.00  0.00     0.033 H 
ATOM     33  H   LIG d   1       5.460  -1.367  -7.421  0.00  0.00     0.033 H 
ATOM     34  H   LIG d   1       5.022   0.221  -6.737  0.00  0.00     0.033 H 
ATOM     35  H   LIG d   1       5.730  -0.207 -11.225  0.00  0.00     0.103 H 
ATOM     36  H   LIG d   1       6.885   0.522  -2.775  0.00  0.00     0.062 H 
ATOM     37  H   LIG d   1       5.360   1.801  -1.291  0.00  0.00     0.062 H 
ATOM     38  H   LIG d   1       2.958   1.421  -1.338  0.00  0.00     0.062 H 
ATOM     39  H   LIG d   1       1.948  -0.246  -2.859  0.00  0.00     0.064 H 
ATOM     40  H   LIG d   1       2.671  -2.096  -4.799  0.00  0.00     0.155 HD
ATOM     41  H   LIG d   1       7.293  -2.492  -6.662  0.00  0.00     0.204 HD
ENDROOT
BRANCH  15  42
ATOM     42  C   LIG d   1       5.067   1.411  -9.366  0.00  0.00     0.338 C 
ATOM     43  O   LIG d   1       5.398   2.580  -9.444  0.00  0.00    -0.245 OA
BRANCH  42  44
ATOM     44  O   LIG d   1       3.759   1.080  -9.377  0.00  0.00    -0.465 OA
BRANCH  44  45
ATOM     45  C   LIG d   1       2.876   1.900  -8.610  0.00  0.00     0.082 C 
ATOM     46  H   LIG d   1       1.880   1.878  -9.054  0.00  0.00     0.066 H 
ATOM     47  H   LIG d   1       2.826   1.525  -7.588  0.00  0.00     0.066 H 
ATOM     48  H   LIG d   1       3.246   2.926  -8.602  0.00  0.00     0.066 H 
ENDBRANCH  44  45
ENDBRANCH  42  44
ENDBRANCH  15  42
BRANCH   1  49
ATOM     49  C   LIG d   1       8.951  -2.671  -9.259  0.00  0.00    -0.027 C 
ATOM     50  H   LIG d   1       9.572  -2.233 -10.041  0.00  0.00     0.026 H 
ATOM     51  H   LIG d   1       9.517  -2.719  -8.329  0.00  0.00     0.026 H 
ATOM     52  H   LIG d   1       8.652  -3.677  -9.554  0.00  0.00     0.026 H 
ENDBRANCH   1  49
TORSDOF 4
ENDMDL
MODEL 3
REMARK VINA RESULT:      -6.3      2.555      6.249
REMARK  4 active torsions:
REMARK  status: ('A' for Active; 'I' for Inactive)
REMARK    1  A    between atoms: C_1  and  C_2 
REMARK    2  A    between atoms: C_16  and  C_19 
REMARK    3  A    between atoms: C_19  and  O_21 
REMARK    4  A    between atoms: O_21  and  C_22 
ROOT
ATOM      1  C   LIG d   1       6.675   0.158  -4.830  0.00  0.00     0.105 C 
ATOM      2  H   LIG d   1       5.714   0.623  -5.052  0.00  0.00     0.073 H 
ATOM      3  C   LIG d   1       7.183  -0.591  -6.066  0.00  0.00     0.043 C 
ATOM      4  H   LIG d   1       8.103  -1.114  -5.805  0.00  0.00     0.040 H 
ATOM      5  C   LIG d   1       7.482   0.401  -7.192  0.00  0.00    -0.025 C 
ATOM      6  N   LIG d   1       6.227   1.007  -7.618  0.00  0.00     0.239 N 
ATOM      7  C   LIG d   1       6.351   2.011  -8.687  0.00  0.00    -0.030 C 
ATOM      8  C   LIG d   1       4.923   2.069  -9.299  0.00  0.00     0.011 C 
ATOM      9  C   LIG d   1       4.299   0.702  -8.956  0.00  0.00     0.121 A 
ATOM     10  C   LIG d   1       5.401  -0.067  -8.238  0.00  0.00    -0.002 C 
ATOM     11  H   LIG d   1       5.994  -0.632  -8.956  0.00  0.00     0.086 H 
ATOM     12  C   LIG d   1       4.916  -0.970  -7.115  0.00  0.00    -0.001 C 
ATOM     13  C   LIG d   1       6.136  -1.619  -6.486  0.00  0.00     0.010 C 
ATOM     14  H   LIG d   1       6.579  -2.317  -7.196  0.00  0.00     0.036 H 
ATOM     15  C   LIG d   1       5.671  -2.381  -5.272  0.00  0.00     0.074 C 
ATOM     16  C   LIG d   1       5.879  -1.931  -4.031  0.00  0.00     0.095 C 
ATOM     17  O   LIG d   1       6.520  -0.783  -3.763  0.00  0.00    -0.496 OA
ATOM     18  C   LIG d   1       3.803   0.000 -10.172  0.00  0.00    -0.006 A 
ATOM     19  C   LIG d   1       4.443  -0.424 -11.317  0.00  0.00    -0.056 A 
ATOM     20  C   LIG d   1       3.665  -1.061 -12.278  0.00  0.00    -0.061 A 
ATOM     21  C   LIG d   1       2.312  -1.259 -12.091  0.00  0.00    -0.060 A 
ATOM     22  C   LIG d   1       1.661  -0.835 -10.945  0.00  0.00    -0.040 A 
ATOM     23  C   LIG d   1       2.429  -0.194  -9.973  0.00  0.00     0.038 A 
ATOM     24  N   LIG d   1       2.043   0.325  -8.749  0.00  0.00    -0.284 N 
ATOM     25  C   LIG d   1       3.082   0.876  -8.082  0.00  0.00     0.233 A 
ATOM     26  O   LIG d   1       3.042   1.407  -6.992  0.00  0.00    -0.274 OA
ATOM     27  H   LIG d   1       8.157   1.175  -6.827  0.00  0.00     0.082 H 
ATOM     28  H   LIG d   1       7.939  -0.125  -8.030  0.00  0.00     0.082 H 
ATOM     29  H   LIG d   1       6.631   2.980  -8.274  0.00  0.00     0.082 H 
ATOM     30  H   LIG d   1       7.076   1.687  -9.435  0.00  0.00     0.082 H 
ATOM     31  H   LIG d   1       4.348   2.874  -8.843  0.00  0.00     0.033 H 
ATOM     32  H   LIG d   1       4.977   2.202 -10.379  0.00  0.00     0.033 H 
ATOM     33  H   LIG d   1       4.386  -0.379  -6.370  0.00  0.00     0.033 H 
ATOM     34  H   LIG d   1       4.253  -1.736  -7.519  0.00  0.00     0.033 H 
ATOM     35  H   LIG d   1       5.514  -2.521  -3.204  0.00  0.00     0.103 H 
ATOM     36  H   LIG d   1       5.502  -0.269 -11.462  0.00  0.00     0.062 H 
ATOM     37  H   LIG d   1       4.130  -1.408 -13.189  0.00  0.00     0.062 H 
ATOM     38  H   LIG d   1       1.745  -1.759 -12.862  0.00  0.00     0.062 H 
ATOM     39  H   LIG d   1       0.601  -0.995 -10.808  0.00  0.00     0.064 H 
ATOM     40  H   LIG d   1       1.135   0.297  -8.409  0.00  0.00     0.155 HD
ATOM     41  H   LIG d   1       5.745   1.396  -6.821  0.00  0.00     0.204 HD
ENDROOT
BRANCH  15  42
ATOM     42  C   LIG d   1       4.993  -3.610  -5.452  0.00  0.00     0.338 C 
ATOM     43  O   LIG d   1       4.293  -4.056  -4.562  0.00  0.00    -0.245 OA
BRANCH  42  44
ATOM     44  O   LIG d   1       5.122  -4.289  -6.611  0.00  0.00    -0.465 OA
BRANCH  44  45
ATOM     45  C   LIG d   1       3.918  -4.723  -7.247  0.00  0.00     0.082 C 
ATOM     46  H   LIG d   1       3.079  -4.596  -6.563  0.00  0.00     0.066 H 
ATOM     47  H   LIG d   1       3.747  -4.129  -8.145  0.00  0.00     0.066 H 
ATOM     48  H   LIG d   1       4.008  -5.774  -7.520  0.00  0.00     0.066 H 
ENDBRANCH  44  45
ENDBRANCH  42  44
ENDBRANCH  15  42
BRANCH   1  49
ATOM     49  C   LIG d   1       7.687   1.233  -4.428  0.00  0.00    -0.027 C 
ATOM     50  H   LIG d   1       8.515   1.235  -5.136  0.00  0.00     0.026 H 
ATOM     51  H   LIG d   1       7.201   2.209  -4.432  0.00  0.00     0.026 H 
ATOM     52  H   LIG d   1       8.064   1.019  -3.428  0.00  0.00     0.026 H 
ENDBRANCH   1  49
TORSDOF 4
ENDMDL
MODEL 4
REMARK VINA RESULT:      -6.3      2.056      2.488
REMARK  4 active torsions:
REMARK  status: ('A' for Active; 'I' for Inactive)
REMARK    1  A    between atoms: C_1  and  C_2 
REMARK    2  A    between atoms: C_16  and  C_19 
REMARK    3  A    between atoms: C_19  and  O_21 
REMARK    4  A    between atoms: O_21  and  C_22 
ROOT
ATOM      1  C   LIG d   1       7.103   0.050  -9.926  0.00  0.00     0.105 C 
ATOM      2  H   LIG d   1       7.114  -0.884  -9.365  0.00  0.00     0.073 H 
ATOM      3  C   LIG d   1       6.717   1.205  -8.999  0.00  0.00     0.043 C 
ATOM      4  H   LIG d   1       6.635   2.117  -9.591  0.00  0.00     0.040 H 
ATOM      5  C   LIG d   1       7.798   1.404  -7.935  0.00  0.00    -0.025 C 
ATOM      6  N   LIG d   1       7.818   0.230  -7.072  0.00  0.00     0.239 N 
ATOM      7  C   LIG d   1       8.832   0.258  -6.004  0.00  0.00    -0.030 C 
ATOM      8  C   LIG d   1       8.293  -0.767  -4.966  0.00  0.00     0.011 C 
ATOM      9  C   LIG d   1       6.775  -0.819  -5.226  0.00  0.00     0.121 A 
ATOM     10  C   LIG d   1       6.526   0.200  -6.330  0.00  0.00    -0.002 C 
ATOM     11  H   LIG d   1       6.315   1.177  -5.899  0.00  0.00     0.086 H 
ATOM     12  C   LIG d   1       5.444  -0.193  -7.323  0.00  0.00    -0.001 C 
ATOM     13  C   LIG d   1       5.360   0.903  -8.371  0.00  0.00     0.010 C 
ATOM     14  H   LIG d   1       4.963   1.809  -7.912  0.00  0.00     0.036 H 
ATOM     15  C   LIG d   1       4.408   0.437  -9.441  0.00  0.00     0.074 C 
ATOM     16  C   LIG d   1       4.837   0.010 -10.633  0.00  0.00     0.095 C 
ATOM     17  O   LIG d   1       6.134  -0.031 -10.976  0.00  0.00    -0.496 OA
ATOM     18  C   LIG d   1       5.993  -0.535  -3.991  0.00  0.00    -0.006 A 
ATOM     19  C   LIG d   1       5.951   0.563  -3.158  0.00  0.00    -0.056 A 
ATOM     20  C   LIG d   1       5.091   0.498  -2.068  0.00  0.00    -0.061 A 
ATOM     21  C   LIG d   1       4.313  -0.618  -1.831  0.00  0.00    -0.060 A 
ATOM     22  C   LIG d   1       4.349  -1.725  -2.662  0.00  0.00    -0.040 A 
ATOM     23  C   LIG d   1       5.209  -1.674  -3.759  0.00  0.00     0.038 A 
ATOM     24  N   LIG d   1       5.442  -2.625  -4.738  0.00  0.00    -0.284 N 
ATOM     25  C   LIG d   1       6.354  -2.207  -5.643  0.00  0.00     0.233 A 
ATOM     26  O   LIG d   1       6.756  -2.828  -6.605  0.00  0.00    -0.274 OA
ATOM     27  H   LIG d   1       8.768   1.521  -8.417  0.00  0.00     0.082 H 
ATOM     28  H   LIG d   1       7.570   2.291  -7.343  0.00  0.00     0.082 H 
ATOM     29  H   LIG d   1       9.802  -0.057  -6.387  0.00  0.00     0.082 H 
ATOM     30  H   LIG d   1       8.896   1.253  -5.563  0.00  0.00     0.082 H 
ATOM     31  H   LIG d   1       8.742  -1.745  -5.132  0.00  0.00     0.033 H 
ATOM     32  H   LIG d   1       8.494  -0.421  -3.952  0.00  0.00     0.033 H 
ATOM     33  H   LIG d   1       5.705  -1.138  -7.798  0.00  0.00     0.033 H 
ATOM     34  H   LIG d   1       4.488  -0.290  -6.808  0.00  0.00     0.033 H 
ATOM     35  H   LIG d   1       4.104  -0.318 -11.355  0.00  0.00     0.103 H 
ATOM     36  H   LIG d   1       6.560   1.435  -3.345  0.00  0.00     0.062 H 
ATOM     37  H   LIG d   1       5.030   1.338  -1.392  0.00  0.00     0.062 H 
ATOM     38  H   LIG d   1       3.658  -0.626  -0.973  0.00  0.00     0.062 H 
ATOM     39  H   LIG d   1       3.736  -2.594  -2.468  0.00  0.00     0.064 H 
ATOM     40  H   LIG d   1       5.002  -3.490  -4.771  0.00  0.00     0.155 HD
ATOM     41  H   LIG d   1       7.916  -0.604  -7.630  0.00  0.00     0.204 HD
ENDROOT
BRANCH  15  42
ATOM     42  C   LIG d   1       3.017   0.452  -9.177  0.00  0.00     0.338 C 
ATOM     43  O   LIG d   1       2.414   1.509  -9.144  0.00  0.00    -0.245 OA
BRANCH  42  44
ATOM     44  O   LIG d   1       2.359  -0.706  -8.961  0.00  0.00    -0.465 OA
BRANCH  44  45
ATOM     45  C   LIG d   1       1.407  -1.105  -9.949  0.00  0.00     0.082 C 
ATOM     46  H   LIG d   1       1.149  -0.250 -10.573  0.00  0.00     0.066 H 
ATOM     47  H   LIG d   1       1.836  -1.892 -10.571  0.00  0.00     0.066 H 
ATOM     48  H   LIG d   1       0.509  -1.480  -9.459  0.00  0.00     0.066 H 
ENDBRANCH  44  45
ENDBRANCH  42  44
ENDBRANCH  15  42
BRANCH   1  49
ATOM     49  C   LIG d   1       8.489   0.308 -10.522  0.00  0.00    -0.027 C 
ATOM     50  H   LIG d   1       8.663  -0.381 -11.349  0.00  0.00     0.026 H 
ATOM     51  H   LIG d   1       8.542   1.334 -10.886  0.00  0.00     0.026 H 
ATOM     52  H   LIG d   1       9.248   0.154  -9.755  0.00  0.00     0.026 H 
ENDBRANCH   1  49
TORSDOF 4
ENDMDL
MODEL 5
REMARK VINA RESULT:      -6.2      5.425      7.109
REMARK  4 active torsions:
REMARK  status: ('A' for Active; 'I' for Inactive)
REMARK    1  A    between atoms: C_1  and  C_2 
REMARK    2  A    between atoms: C_16  and  C_19 
REMARK    3  A    between atoms: C_19  and  O_21 
REMARK    4  A    between atoms: O_21  and  C_22 
ROOT
ATOM      1  C   LIG d   1       8.863  -0.169  -6.236  0.00  0.00     0.105 C 
ATOM      2  H   LIG d   1       9.680  -0.031  -5.528  0.00  0.00     0.073 H 
ATOM      3  C   LIG d   1       8.077   1.137  -6.378  0.00  0.00     0.043 C 
ATOM      4  H   LIG d   1       7.219   0.962  -7.028  0.00  0.00     0.040 H 
ATOM      5  C   LIG d   1       8.962   2.213  -7.011  0.00  0.00    -0.025 C 
ATOM      6  N   LIG d   1      10.039   2.530  -6.082  0.00  0.00     0.239 N 
ATOM      7  C   LIG d   1      10.998   3.539  -6.560  0.00  0.00    -0.030 C 
ATOM      8  C   LIG d   1      11.654   4.065  -5.252  0.00  0.00     0.011 C 
ATOM      9  C   LIG d   1      10.613   3.775  -4.153  0.00  0.00     0.121 A 
ATOM     10  C   LIG d   1       9.422   3.171  -4.886  0.00  0.00    -0.002 C 
ATOM     11  H   LIG d   1       8.731   3.954  -5.192  0.00  0.00     0.086 H 
ATOM     12  C   LIG d   1       8.691   2.082  -4.117  0.00  0.00    -0.001 C 
ATOM     13  C   LIG d   1       7.572   1.563  -5.003  0.00  0.00     0.010 C 
ATOM     14  H   LIG d   1       6.816   2.340  -5.119  0.00  0.00     0.036 H 
ATOM     15  C   LIG d   1       6.955   0.377  -4.309  0.00  0.00     0.074 C 
ATOM     16  C   LIG d   1       7.188  -0.877  -4.709  0.00  0.00     0.095 C 
ATOM     17  O   LIG d   1       7.974  -1.181  -5.755  0.00  0.00    -0.496 OA
ATOM     18  C   LIG d   1      10.258   5.004  -3.391  0.00  0.00    -0.006 A 
ATOM     19  C   LIG d   1       9.712   6.208  -3.783  0.00  0.00    -0.056 A 
ATOM     20  C   LIG d   1       9.505   7.162  -2.793  0.00  0.00    -0.061 A 
ATOM     21  C   LIG d   1       9.833   6.914  -1.476  0.00  0.00    -0.060 A 
ATOM     22  C   LIG d   1      10.383   5.708  -1.072  0.00  0.00    -0.040 A 
ATOM     23  C   LIG d   1      10.596   4.741  -2.056  0.00  0.00     0.038 A 
ATOM     24  N   LIG d   1      11.125   3.468  -1.936  0.00  0.00    -0.284 N 
ATOM     25  C   LIG d   1      11.174   2.826  -3.124  0.00  0.00     0.233 A 
ATOM     26  O   LIG d   1      11.591   1.704  -3.324  0.00  0.00    -0.274 OA
ATOM     27  H   LIG d   1       9.382   1.838  -7.944  0.00  0.00     0.082 H 
ATOM     28  H   LIG d   1       8.369   3.107  -7.204  0.00  0.00     0.082 H 
ATOM     29  H   LIG d   1      11.747   3.081  -7.207  0.00  0.00     0.082 H 
ATOM     30  H   LIG d   1      10.480   4.344  -7.080  0.00  0.00     0.082 H 
ATOM     31  H   LIG d   1      12.580   3.528  -5.049  0.00  0.00     0.033 H 
ATOM     32  H   LIG d   1      11.842   5.136  -5.325  0.00  0.00     0.033 H 
ATOM     33  H   LIG d   1       9.380   1.272  -3.879  0.00  0.00     0.033 H 
ATOM     34  H   LIG d   1       8.277   2.495  -3.196  0.00  0.00     0.033 H 
ATOM     35  H   LIG d   1       6.722  -1.684  -4.165  0.00  0.00     0.103 H 
ATOM     36  H   LIG d   1       9.456   6.401  -4.814  0.00  0.00     0.062 H 
ATOM     37  H   LIG d   1       9.079   8.118  -3.061  0.00  0.00     0.062 H 
ATOM     38  H   LIG d   1       9.655   7.682  -0.738  0.00  0.00     0.062 H 
ATOM     39  H   LIG d   1      10.635   5.523  -0.038  0.00  0.00     0.064 H 
ATOM     40  H   LIG d   1      11.423   3.080  -1.098  0.00  0.00     0.155 HD
ATOM     41  H   LIG d   1      10.519   1.685  -5.812  0.00  0.00     0.204 HD
ENDROOT
BRANCH  15  42
ATOM     42  C   LIG d   1       6.103   0.596  -3.200  0.00  0.00     0.338 C 
ATOM     43  O   LIG d   1       5.708   1.720  -2.949  0.00  0.00    -0.245 OA
BRANCH  42  44
ATOM     44  O   LIG d   1       5.730  -0.440  -2.421  0.00  0.00    -0.465 OA
BRANCH  44  45
ATOM     45  C   LIG d   1       4.367  -0.471  -1.993  0.00  0.00     0.082 C 
ATOM     46  H   LIG d   1       4.031   0.542  -1.772  0.00  0.00     0.066 H 
ATOM     47  H   LIG d   1       3.747  -0.894  -2.783  0.00  0.00     0.066 H 
ATOM     48  H   LIG d   1       4.281  -1.085  -1.096  0.00  0.00     0.066 H 
ENDBRANCH  44  45
ENDBRANCH  42  44
ENDBRANCH  15  42
BRANCH   1  49
ATOM     49  C   LIG d   1       9.426  -0.582  -7.598  0.00  0.00    -0.027 C 
ATOM     50  H   LIG d   1      10.023   0.234  -8.006  0.00  0.00     0.026 H 
ATOM     51  H   LIG d   1      10.051  -1.467  -7.479  0.00  0.00     0.026 H 
ATOM     52  H   LIG d   1       8.604  -0.806  -8.277  0.00  0.00     0.026 H 
ENDBRANCH   1  49
TORSDOF 4
ENDMDL
MODEL 6
REMARK VINA RESULT:      -6.1      2.649      3.346
REMARK  4 active torsions:
REMARK  status: ('A' for Active; 'I' for Inactive)
REMARK    1  A    between atoms: C_1  and  C_2 
REMARK    2  A    between atoms: C_16  and  C_19 
REMARK    3  A    between atoms: C_19  and  O_21 
REMARK    4  A    between atoms: O_21  and  C_22 
ROOT
ATOM      1  C   LIG d   1       8.536  -2.146  -8.491  0.00  0.00     0.105 C 
ATOM      2  H   LIG d   1       7.460  -2.304  -8.424  0.00  0.00     0.073 H 
ATOM      3  C   LIG d   1       9.027  -1.404  -7.245  0.00  0.00     0.043 C 
ATOM      4  H   LIG d   1      10.089  -1.185  -7.363  0.00  0.00     0.040 H 
ATOM      5  C   LIG d   1       8.840  -2.283  -6.006  0.00  0.00    -0.025 C 
ATOM      6  N   LIG d   1       7.412  -2.470  -5.785  0.00  0.00     0.239 N 
ATOM      7  C   LIG d   1       7.066  -3.321  -4.635  0.00  0.00    -0.030 C 
ATOM      8  C   LIG d   1       5.600  -2.914  -4.310  0.00  0.00     0.011 C 
ATOM      9  C   LIG d   1       5.460  -1.487  -4.876  0.00  0.00     0.121 A 
ATOM     10  C   LIG d   1       6.839  -1.142  -5.425  0.00  0.00    -0.002 C 
ATOM     11  H   LIG d   1       7.442  -0.666  -4.653  0.00  0.00     0.086 H 
ATOM     12  C   LIG d   1       6.824  -0.299  -6.690  0.00  0.00    -0.001 C 
ATOM     13  C   LIG d   1       8.265  -0.088  -7.120  0.00  0.00     0.010 C 
ATOM     14  H   LIG d   1       8.767   0.553  -6.396  0.00  0.00     0.036 H 
ATOM     15  C   LIG d   1       8.244   0.604  -8.458  0.00  0.00     0.074 C 
ATOM     16  C   LIG d   1       8.515  -0.044  -9.595  0.00  0.00     0.095 C 
ATOM     17  O   LIG d   1       8.835  -1.347  -9.640  0.00  0.00    -0.496 OA
ATOM     18  C   LIG d   1       4.994  -0.525  -3.840  0.00  0.00    -0.006 A 
ATOM     19  C   LIG d   1       5.531  -0.140  -2.630  0.00  0.00    -0.056 A 
ATOM     20  C   LIG d   1       4.822   0.803  -1.894  0.00  0.00    -0.061 A 
ATOM     21  C   LIG d   1       3.632   1.328  -2.355  0.00  0.00    -0.060 A 
ATOM     22  C   LIG d   1       3.084   0.947  -3.569  0.00  0.00    -0.040 A 
ATOM     23  C   LIG d   1       3.785   0.001  -4.318  0.00  0.00     0.038 A 
ATOM     24  N   LIG d   1       3.473  -0.552  -5.548  0.00  0.00    -0.284 N 
ATOM     25  C   LIG d   1       4.405  -1.443  -5.953  0.00  0.00     0.233 A 
ATOM     26  O   LIG d   1       4.394  -2.083  -6.984  0.00  0.00    -0.274 OA
ATOM     27  H   LIG d   1       9.315  -3.250  -6.169  0.00  0.00     0.082 H 
ATOM     28  H   LIG d   1       9.284  -1.793  -5.140  0.00  0.00     0.082 H 
ATOM     29  H   LIG d   1       7.120  -4.375  -4.907  0.00  0.00     0.082 H 
ATOM     30  H   LIG d   1       7.719  -3.107  -3.789  0.00  0.00     0.082 H 
ATOM     31  H   LIG d   1       4.901  -3.589  -4.803  0.00  0.00     0.033 H 
ATOM     32  H   LIG d   1       5.436  -2.914  -3.233  0.00  0.00     0.033 H 
ATOM     33  H   LIG d   1       6.277  -0.819  -7.474  0.00  0.00     0.033 H 
ATOM     34  H   LIG d   1       6.352   0.663  -6.486  0.00  0.00     0.033 H 
ATOM     35  H   LIG d   1       8.476   0.508 -10.522  0.00  0.00     0.103 H 
ATOM     36  H   LIG d   1       6.462  -0.552  -2.271  0.00  0.00     0.062 H 
ATOM     37  H   LIG d   1       5.210   1.130  -0.941  0.00  0.00     0.062 H 
ATOM     38  H   LIG d   1       3.114   2.058  -1.752  0.00  0.00     0.062 H 
ATOM     39  H   LIG d   1       2.152   1.365  -3.921  0.00  0.00     0.064 H 
ATOM     40  H   LIG d   1       2.680  -0.327  -6.059  0.00  0.00     0.155 HD
ATOM     41  H   LIG d   1       6.977  -2.817  -6.626  0.00  0.00     0.204 HD
ENDROOT
BRANCH  15  42
ATOM     42  C   LIG d   1       7.927   1.983  -8.513  0.00  0.00     0.338 C 
ATOM     43  O   LIG d   1       7.065   2.379  -9.275  0.00  0.00    -0.245 OA
BRANCH  42  44
ATOM     44  O   LIG d   1       8.581   2.858  -7.721  0.00  0.00    -0.465 OA
BRANCH  44  45
ATOM     45  C   LIG d   1       9.294   3.912  -8.370  0.00  0.00     0.082 C 
ATOM     46  H   LIG d   1       9.618   4.643  -7.629  0.00  0.00     0.066 H 
ATOM     47  H   LIG d   1      10.166   3.502  -8.880  0.00  0.00     0.066 H 
ATOM     48  H   LIG d   1       8.644   4.398  -9.098  0.00  0.00     0.066 H 
ENDBRANCH  44  45
ENDBRANCH  42  44
ENDBRANCH  15  42
BRANCH   1  49
ATOM     49  C   LIG d   1       9.248  -3.496  -8.601  0.00  0.00    -0.027 C 
ATOM     50  H   LIG d   1       8.526  -4.266  -8.873  0.00  0.00     0.026 H 
ATOM     51  H   LIG d   1      10.022  -3.437  -9.367  0.00  0.00     0.026 H 
ATOM     52  H   LIG d   1       9.703  -3.745  -7.643  0.00  0.00     0.026 H 
ENDBRANCH   1  49
TORSDOF 4
ENDMDL
MODEL 7
REMARK VINA RESULT:      -6.1      2.184      5.746
REMARK  4 active torsions:
REMARK  status: ('A' for Active; 'I' for Inactive)
REMARK    1  A    between atoms: C_1  and  C_2 
REMARK    2  A    between atoms: C_16  and  C_19 
REMARK    3  A    between atoms: C_19  and  O_21 
REMARK    4  A    between atoms: O_21  and  C_22 
ROOT
ATOM      1  C   LIG d   1       7.466  -2.504  -4.219  0.00  0.00     0.105 C 
ATOM      2  H   LIG d   1       7.554  -1.648  -4.887  0.00  0.00     0.073 H 
ATOM      3  C   LIG d   1       6.237  -3.334  -4.601  0.00  0.00     0.043 C 
ATOM      4  H   LIG d   1       6.119  -4.140  -3.877  0.00  0.00     0.040 H 
ATOM      5  C   LIG d   1       6.432  -3.944  -5.991  0.00  0.00    -0.025 C 
ATOM      6  N   LIG d   1       6.466  -2.864  -6.968  0.00  0.00     0.239 N 
ATOM      7  C   LIG d   1       6.675  -3.291  -8.362  0.00  0.00    -0.030 C 
ATOM      8  C   LIG d   1       6.136  -2.093  -9.193  0.00  0.00     0.011 C 
ATOM      9  C   LIG d   1       5.136  -1.389  -8.254  0.00  0.00     0.121 A 
ATOM     10  C   LIG d   1       5.114  -2.239  -6.991  0.00  0.00    -0.002 C 
ATOM     11  H   LIG d   1       4.344  -3.006  -7.067  0.00  0.00     0.086 H 
ATOM     12  C   LIG d   1       4.959  -1.451  -5.699  0.00  0.00    -0.001 C 
ATOM     13  C   LIG d   1       5.001  -2.441  -4.548  0.00  0.00     0.010 C 
ATOM     14  H   LIG d   1       4.105  -3.061  -4.573  0.00  0.00     0.036 H 
ATOM     15  C   LIG d   1       5.014  -1.648  -3.267  0.00  0.00     0.074 C 
ATOM     16  C   LIG d   1       6.123  -1.501  -2.536  0.00  0.00     0.095 C 
ATOM     17  O   LIG d   1       7.302  -2.049  -2.872  0.00  0.00    -0.496 OA
ATOM     18  C   LIG d   1       3.793  -1.250  -8.881  0.00  0.00    -0.006 A 
ATOM     19  C   LIG d   1       2.897  -2.183  -9.359  0.00  0.00    -0.056 A 
ATOM     20  C   LIG d   1       1.706  -1.703  -9.893  0.00  0.00    -0.061 A 
ATOM     21  C   LIG d   1       1.435  -0.350  -9.942  0.00  0.00    -0.060 A 
ATOM     22  C   LIG d   1       2.329   0.594  -9.464  0.00  0.00    -0.040 A 
ATOM     23  C   LIG d   1       3.528   0.126  -8.927  0.00  0.00     0.038 A 
ATOM     24  N   LIG d   1       4.586   0.837  -8.387  0.00  0.00    -0.284 N 
ATOM     25  C   LIG d   1       5.580   0.024  -7.967  0.00  0.00     0.233 A 
ATOM     26  O   LIG d   1       6.627   0.366  -7.458  0.00  0.00    -0.274 OA
ATOM     27  H   LIG d   1       7.371  -4.495  -6.020  0.00  0.00     0.082 H 
ATOM     28  H   LIG d   1       5.602  -4.615  -6.215  0.00  0.00     0.082 H 
ATOM     29  H   LIG d   1       7.734  -3.450  -8.560  0.00  0.00     0.082 H 
ATOM     30  H   LIG d   1       6.103  -4.194  -8.576  0.00  0.00     0.082 H 
ATOM     31  H   LIG d   1       6.949  -1.418  -9.458  0.00  0.00     0.033 H 
ATOM     32  H   LIG d   1       5.629  -2.449 -10.089  0.00  0.00     0.033 H 
ATOM     33  H   LIG d   1       5.775  -0.737  -5.603  0.00  0.00     0.033 H 
ATOM     34  H   LIG d   1       4.004  -0.923  -5.702  0.00  0.00     0.033 H 
ATOM     35  H   LIG d   1       6.068  -0.914  -1.632  0.00  0.00     0.103 H 
ATOM     36  H   LIG d   1       3.111  -3.241  -9.320  0.00  0.00     0.062 H 
ATOM     37  H   LIG d   1       0.980  -2.402 -10.278  0.00  0.00     0.062 H 
ATOM     38  H   LIG d   1       0.498  -0.020 -10.364  0.00  0.00     0.062 H 
ATOM     39  H   LIG d   1       2.106   1.651  -9.507  0.00  0.00     0.064 H 
ATOM     40  H   LIG d   1       4.610   1.805  -8.317  0.00  0.00     0.155 HD
ATOM     41  H   LIG d   1       7.158  -2.181  -6.701  0.00  0.00     0.204 HD
ENDROOT
BRANCH  15  42
ATOM     42  C   LIG d   1       3.815  -1.039  -2.824  0.00  0.00     0.338 C 
ATOM     43  O   LIG d   1       2.739  -1.524  -3.123  0.00  0.00    -0.245 OA
BRANCH  42  44
ATOM     44  O   LIG d   1       3.864   0.079  -2.072  0.00  0.00    -0.465 OA
BRANCH  44  45
ATOM     45  C   LIG d   1       3.657   1.323  -2.744  0.00  0.00     0.082 C 
ATOM     46  H   LIG d   1       3.780   2.144  -2.037  0.00  0.00     0.066 H 
ATOM     47  H   LIG d   1       4.382   1.426  -3.550  0.00  0.00     0.066 H 
ATOM     48  H   LIG d   1       2.648   1.350  -3.157  0.00  0.00     0.066 H 
ENDBRANCH  44  45
ENDBRANCH  42  44
ENDBRANCH  15  42
BRANCH   1  49
ATOM     49  C   LIG d   1       8.724  -3.369  -4.321  0.00  0.00    -0.027 C 
ATOM     50  H   LIG d   1       8.447  -4.421  -4.258  0.00  0.00     0.026 H 
ATOM     51  H   LIG d   1       9.218  -3.180  -5.274  0.00  0.00     0.026 H 
ATOM     52  H   LIG d   1       9.402  -3.122  -3.504  0.00  0.00     0.026 H 
ENDBRANCH   1  49
TORSDOF 4
ENDMDL
MODEL 8
REMARK VINA RESULT:      -6.1      3.692      5.268
REMARK  4 active torsions:
REMARK  status: ('A' for Active; 'I' for Inactive)
REMARK    1  A    between atoms: C_1  and  C_2 
REMARK    2  A    between atoms: C_16  and  C_19 
REMARK    3  A    between atoms: C_19  and  O_21 
REMARK    4  A    between atoms: O_21  and  C_22 
ROOT
ATOM      1  C   LIG d   1      10.090  -0.562  -7.207  0.00  0.00     0.105 C 
ATOM      2  H   LIG d   1       9.115  -0.376  -7.658  0.00  0.00     0.073 H 
ATOM      3  C   LIG d   1       9.906  -1.064  -5.772  0.00  0.00     0.043 C 
ATOM      4  H   LIG d   1      10.888  -1.170  -5.309  0.00  0.00     0.040 H 
ATOM      5  C   LIG d   1       9.215  -2.429  -5.780  0.00  0.00    -0.025 C 
ATOM      6  N   LIG d   1       7.860  -2.256  -6.286  0.00  0.00     0.239 N 
ATOM      7  C   LIG d   1       7.067  -3.494  -6.380  0.00  0.00    -0.030 C 
ATOM      8  C   LIG d   1       5.598  -2.983  -6.399  0.00  0.00     0.011 C 
ATOM      9  C   LIG d   1       5.658  -1.605  -5.712  0.00  0.00     0.121 A 
ATOM     10  C   LIG d   1       7.113  -1.435  -5.292  0.00  0.00    -0.002 C 
ATOM     11  H   LIG d   1       7.263  -1.829  -4.288  0.00  0.00     0.086 H 
ATOM     12  C   LIG d   1       7.640  -0.013  -5.395  0.00  0.00    -0.001 C 
ATOM     13  C   LIG d   1       9.102  -0.032  -4.986  0.00  0.00     0.010 C 
ATOM     14  H   LIG d   1       9.175  -0.251  -3.921  0.00  0.00     0.036 H 
ATOM     15  C   LIG d   1       9.666   1.341  -5.245  0.00  0.00     0.074 C 
ATOM     16  C   LIG d   1      10.467   1.592  -6.284  0.00  0.00     0.095 C 
ATOM     17  O   LIG d   1      10.842   0.654  -7.168  0.00  0.00    -0.496 OA
ATOM     18  C   LIG d   1       4.713  -1.518  -4.564  0.00  0.00    -0.006 A 
ATOM     19  C   LIG d   1       4.606  -2.248  -3.400  0.00  0.00    -0.056 A 
ATOM     20  C   LIG d   1       3.586  -1.895  -2.523  0.00  0.00    -0.061 A 
ATOM     21  C   LIG d   1       2.719  -0.860  -2.808  0.00  0.00    -0.060 A 
ATOM     22  C   LIG d   1       2.818  -0.122  -3.976  0.00  0.00    -0.040 A 
ATOM     23  C   LIG d   1       3.836  -0.466  -4.866  0.00  0.00     0.038 A 
ATOM     24  N   LIG d   1       4.160   0.095  -6.089  0.00  0.00    -0.284 N 
ATOM     25  C   LIG d   1       5.221  -0.517  -6.661  0.00  0.00     0.233 A 
ATOM     26  O   LIG d   1       5.724  -0.243  -7.730  0.00  0.00    -0.274 OA
ATOM     27  H   LIG d   1       9.764  -3.112  -6.428  0.00  0.00     0.082 H 
ATOM     28  H   LIG d   1       9.180  -2.827  -4.766  0.00  0.00     0.082 H 
ATOM     29  H   LIG d   1       7.299  -4.029  -7.300  0.00  0.00     0.082 H 
ATOM     30  H   LIG d   1       7.241  -4.127  -5.511  0.00  0.00     0.082 H 
ATOM     31  H   LIG d   1       5.245  -2.881  -7.425  0.00  0.00     0.033 H 
ATOM     32  H   LIG d   1       4.953  -3.660  -5.839  0.00  0.00     0.033 H 
ATOM     33  H   LIG d   1       7.548   0.342  -6.420  0.00  0.00     0.033 H 
ATOM     34  H   LIG d   1       7.075   0.639  -4.727  0.00  0.00     0.033 H 
ATOM     35  H   LIG d   1      10.832   2.600  -6.419  0.00  0.00     0.103 H 
ATOM     36  H   LIG d   1       5.286  -3.057  -3.178  0.00  0.00     0.062 H 
ATOM     37  H   LIG d   1       3.470  -2.443  -1.600  0.00  0.00     0.062 H 
ATOM     38  H   LIG d   1       1.941  -0.619  -2.100  0.00  0.00     0.062 H 
ATOM     39  H   LIG d   1       2.134   0.686  -4.190  0.00  0.00     0.064 H 
ATOM     40  H   LIG d   1       3.683   0.839  -6.489  0.00  0.00     0.155 HD
ATOM     41  H   LIG d   1       7.883  -1.783  -7.177  0.00  0.00     0.204 HD
ENDROOT
BRANCH  15  42
ATOM     42  C   LIG d   1       9.335   2.396  -4.362  0.00  0.00     0.338 C 
ATOM     43  O   LIG d   1       8.625   3.309  -4.742  0.00  0.00    -0.245 OA
BRANCH  42  44
ATOM     44  O   LIG d   1       9.807   2.392  -3.098  0.00  0.00    -0.465 OA
BRANCH  44  45
ATOM     45  C   LIG d   1      10.595   3.514  -2.696  0.00  0.00     0.082 C 
ATOM     46  H   LIG d   1      10.011   4.148  -2.028  0.00  0.00     0.066 H 
ATOM     47  H   LIG d   1      11.487   3.165  -2.177  0.00  0.00     0.066 H 
ATOM     48  H   LIG d   1      10.888   4.087  -3.576  0.00  0.00     0.066 H 
ENDBRANCH  44  45
ENDBRANCH  42  44
ENDBRANCH  15  42
BRANCH   1  49
ATOM     49  C   LIG d   1      10.845  -1.611  -8.026  0.00  0.00    -0.027 C 
ATOM     50  H   LIG d   1      11.918  -1.462  -7.905  0.00  0.00     0.026 H 
ATOM     51  H   LIG d   1      10.575  -2.608  -7.679  0.00  0.00     0.026 H 
ATOM     52  H   LIG d   1      10.581  -1.508  -9.079  0.00  0.00     0.026 H 
ENDBRANCH   1  49
TORSDOF 4
ENDMDL
MODEL 9
REMARK VINA RESULT:      -6.1      3.246      5.805
REMARK  4 active torsions:
REMARK  status: ('A' for Active; 'I' for Inactive)
REMARK    1  A    between atoms: C_1  and  C_2 
REMARK    2  A    between atoms: C_16  and  C_19 
REMARK    3  A    between atoms: C_19  and  O_21 
REMARK    4  A    between atoms: O_21  and  C_22 
ROOT
ATOM      1  C   LIG d   1       8.487  -5.246  -6.858  0.00  0.00     0.105 C 
ATOM      2  H   LIG d   1       8.297  -4.221  -7.177  0.00  0.00     0.073 H 
ATOM      3  C   LIG d   1       7.831  -5.491  -5.496  0.00  0.00     0.043 C 
ATOM      4  H   LIG d   1       8.095  -6.493  -5.155  0.00  0.00     0.040 H 
ATOM      5  C   LIG d   1       6.309  -5.400  -5.625  0.00  0.00    -0.025 C 
ATOM      6  N   LIG d   1       5.957  -4.027  -5.962  0.00  0.00     0.239 N 
ATOM      7  C   LIG d   1       4.517  -3.780  -6.147  0.00  0.00    -0.030 C 
ATOM      8  C   LIG d   1       4.383  -2.244  -5.945  0.00  0.00     0.011 C 
ATOM      9  C   LIG d   1       5.600  -1.860  -5.080  0.00  0.00     0.121 A 
ATOM     10  C   LIG d   1       6.312  -3.175  -4.792  0.00  0.00    -0.002 C 
ATOM     11  H   LIG d   1       5.928  -3.617  -3.873  0.00  0.00     0.086 H 
ATOM     12  C   LIG d   1       7.828  -3.079  -4.747  0.00  0.00    -0.001 C 
ATOM     13  C   LIG d   1       8.372  -4.474  -4.496  0.00  0.00     0.010 C 
ATOM     14  H   LIG d   1       8.110  -4.786  -3.485  0.00  0.00     0.036 H 
ATOM     15  C   LIG d   1       9.872  -4.406  -4.616  0.00  0.00     0.074 C 
ATOM     16  C   LIG d   1      10.519  -4.879  -5.685  0.00  0.00     0.095 C 
ATOM     17  O   LIG d   1       9.896  -5.456  -6.725  0.00  0.00    -0.496 OA
ATOM     18  C   LIG d   1       5.193  -1.139  -3.842  0.00  0.00    -0.006 A 
ATOM     19  C   LIG d   1       4.385  -1.504  -2.786  0.00  0.00    -0.056 A 
ATOM     20  C   LIG d   1       4.212  -0.572  -1.769  0.00  0.00    -0.061 A 
ATOM     21  C   LIG d   1       4.823   0.665  -1.817  0.00  0.00    -0.060 A 
ATOM     22  C   LIG d   1       5.636   1.041  -2.874  0.00  0.00    -0.040 A 
ATOM     23  C   LIG d   1       5.818   0.114  -3.902  0.00  0.00     0.038 A 
ATOM     24  N   LIG d   1       6.566   0.224  -5.061  0.00  0.00    -0.284 N 
ATOM     25  C   LIG d   1       6.493  -0.893  -5.818  0.00  0.00     0.233 A 
ATOM     26  O   LIG d   1       7.040  -1.082  -6.884  0.00  0.00    -0.274 OA
ATOM     27  H   LIG d   1       5.969  -6.069  -6.415  0.00  0.00     0.082 H 
ATOM     28  H   LIG d   1       5.845  -5.676  -4.679  0.00  0.00     0.082 H 
ATOM     29  H   LIG d   1       4.205  -4.063  -7.152  0.00  0.00     0.082 H 
ATOM     30  H   LIG d   1       3.937  -4.318  -5.397  0.00  0.00     0.082 H 
ATOM     31  H   LIG d   1       4.421  -1.730  -6.904  0.00  0.00     0.033 H 
ATOM     32  H   LIG d   1       3.456  -2.009  -5.422  0.00  0.00     0.033 H 
ATOM     33  H   LIG d   1       8.202  -2.702  -5.698  0.00  0.00     0.033 H 
ATOM     34  H   LIG d   1       8.132  -2.410  -3.940  0.00  0.00     0.033 H 
ATOM     35  H   LIG d   1      11.595  -4.794  -5.714  0.00  0.00     0.103 H 
ATOM     36  H   LIG d   1       3.908  -2.472  -2.750  0.00  0.00     0.062 H 
ATOM     37  H   LIG d   1       3.586  -0.820  -0.925  0.00  0.00     0.062 H 
ATOM     38  H   LIG d   1       4.663   1.360  -1.006  0.00  0.00     0.062 H 
ATOM     39  H   LIG d   1       6.110   2.011  -2.902  0.00  0.00     0.064 H 
ATOM     40  H   LIG d   1       7.082   1.010  -5.302  0.00  0.00     0.155 HD
ATOM     41  H   LIG d   1       6.474  -3.729  -6.775  0.00  0.00     0.204 HD
ENDROOT
BRANCH  15  42
ATOM     42  C   LIG d   1      10.619  -3.823  -3.564  0.00  0.00     0.338 C 
ATOM     43  O   LIG d   1      10.374  -4.115  -2.408  0.00  0.00    -0.245 OA
BRANCH  42  44
ATOM     44  O   LIG d   1      11.604  -2.944  -3.842  0.00  0.00    -0.465 OA
BRANCH  44  45
ATOM     45  C   LIG d   1      12.943  -3.364  -3.577  0.00  0.00     0.082 C 
ATOM     46  H   LIG d   1      13.439  -3.617  -4.514  0.00  0.00     0.066 H 
ATOM     47  H   LIG d   1      13.487  -2.558  -3.085  0.00  0.00     0.066 H 
ATOM     48  H   LIG d   1      12.928  -4.240  -2.927  0.00  0.00     0.066 H 
ENDBRANCH  44  45
ENDBRANCH  42  44
ENDBRANCH  15  42
BRANCH   1  49
ATOM     49  C   LIG d   1       7.914  -6.221  -7.889  0.00  0.00    -0.027 C 
ATOM     50  H   LIG d   1       7.775  -5.704  -8.839  0.00  0.00     0.026 H 
ATOM     51  H   LIG d   1       8.605  -7.053  -8.025  0.00  0.00     0.026 H 
ATOM     52  H   LIG d   1       6.954  -6.598  -7.537  0.00  0.00     0.026 H 
ENDBRANCH   1  49
TORSDOF 4
ENDMDL
MODEL 10
REMARK VINA RESULT:      -5.9      2.628      5.420
REMARK  4 active torsions:
REMARK  status: ('A' for Active; 'I' for Inactive)
REMARK    1  A    between atoms: C_1  and  C_2 
REMARK    2  A    between atoms: C_16  and  C_19 
REMARK    3  A    between atoms: C_19  and  O_21 
REMARK    4  A    between atoms: O_21  and  C_22 
ROOT
ATOM      1  C   LIG d   1       4.158  -0.684  -3.536  0.00  0.00     0.105 C 
ATOM      2  H   LIG d   1       4.933   0.080  -3.594  0.00  0.00     0.073 H 
ATOM      3  C   LIG d   1       4.358  -1.710  -4.655  0.00  0.00     0.043 C 
ATOM      4  H   LIG d   1       3.532  -2.421  -4.630  0.00  0.00     0.040 H 
ATOM      5  C   LIG d   1       5.669  -2.469  -4.438  0.00  0.00    -0.025 C 
ATOM      6  N   LIG d   1       6.775  -1.534  -4.593  0.00  0.00     0.239 N 
ATOM      7  C   LIG d   1       8.114  -2.112  -4.387  0.00  0.00    -0.030 C 
ATOM      8  C   LIG d   1       9.056  -1.115  -5.120  0.00  0.00     0.011 C 
ATOM      9  C   LIG d   1       8.155  -0.428  -6.166  0.00  0.00     0.121 A 
ATOM     10  C   LIG d   1       6.795  -1.098  -6.018  0.00  0.00    -0.002 C 
ATOM     11  H   LIG d   1       6.728  -1.962  -6.678  0.00  0.00     0.086 H 
ATOM     12  C   LIG d   1       5.607  -0.173  -6.224  0.00  0.00    -0.001 C 
ATOM     13  C   LIG d   1       4.345  -0.986  -5.998  0.00  0.00     0.010 C 
ATOM     14  H   LIG d   1       4.237  -1.715  -6.801  0.00  0.00     0.036 H 
ATOM     15  C   LIG d   1       3.177  -0.035  -6.039  0.00  0.00     0.074 C 
ATOM     16  C   LIG d   1       2.538   0.351  -4.930  0.00  0.00     0.095 C 
ATOM     17  O   LIG d   1       2.872  -0.079  -3.703  0.00  0.00    -0.496 OA
ATOM     18  C   LIG d   1       8.713  -0.550  -7.541  0.00  0.00    -0.006 A 
ATOM     19  C   LIG d   1       9.014  -1.647  -8.320  0.00  0.00    -0.056 A 
ATOM     20  C   LIG d   1       9.532  -1.401  -9.587  0.00  0.00    -0.061 A 
ATOM     21  C   LIG d   1       9.735  -0.114 -10.043  0.00  0.00    -0.060 A 
ATOM     22  C   LIG d   1       9.435   0.994  -9.267  0.00  0.00    -0.040 A 
ATOM     23  C   LIG d   1       8.916   0.761  -7.993  0.00  0.00     0.038 A 
ATOM     24  N   LIG d   1       8.534   1.670  -7.021  0.00  0.00    -0.284 N 
ATOM     25  C   LIG d   1       8.076   1.056  -5.907  0.00  0.00     0.233 A 
ATOM     26  O   LIG d   1       7.677   1.595  -4.896  0.00  0.00    -0.274 OA
ATOM     27  H   LIG d   1       5.684  -2.892  -3.434  0.00  0.00     0.082 H 
ATOM     28  H   LIG d   1       5.756  -3.266  -5.177  0.00  0.00     0.082 H 
ATOM     29  H   LIG d   1       8.354  -2.157  -3.326  0.00  0.00     0.082 H 
ATOM     30  H   LIG d   1       8.177  -3.102  -4.839  0.00  0.00     0.082 H 
ATOM     31  H   LIG d   1       9.452  -0.382  -4.419  0.00  0.00     0.033 H 
ATOM     32  H   LIG d   1       9.868  -1.651  -5.611  0.00  0.00     0.033 H 
ATOM     33  H   LIG d   1       5.650   0.648  -5.510  0.00  0.00     0.033 H 
ATOM     34  H   LIG d   1       5.619   0.222  -7.241  0.00  0.00     0.033 H 
ATOM     35  H   LIG d   1       1.714   1.041  -5.026  0.00  0.00     0.103 H 
ATOM     36  H   LIG d   1       8.855  -2.653  -7.962  0.00  0.00     0.062 H 
ATOM     37  H   LIG d   1       9.781  -2.234 -10.227  0.00  0.00     0.062 H 
ATOM     38  H   LIG d   1      10.138   0.033 -11.033  0.00  0.00     0.062 H 
ATOM     39  H   LIG d   1       9.597   1.997  -9.634  0.00  0.00     0.064 H 
ATOM     40  H   LIG d   1       8.589   2.633  -7.125  0.00  0.00     0.155 HD
ATOM     41  H   LIG d   1       6.638  -0.737  -3.990  0.00  0.00     0.204 HD
ENDROOT
BRANCH  15  42
ATOM     42  C   LIG d   1       2.743   0.466  -7.290  0.00  0.00     0.338 C 
ATOM     43  O   LIG d   1       2.218  -0.280  -8.096  0.00  0.00    -0.245 OA
BRANCH  42  44
ATOM     44  O   LIG d   1       2.912   1.771  -7.590  0.00  0.00    -0.465 OA
BRANCH  44  45
ATOM     45  C   LIG d   1       3.251   2.087  -8.941  0.00  0.00     0.082 C 
ATOM     46  H   LIG d   1       4.166   1.564  -9.219  0.00  0.00     0.066 H 
ATOM     47  H   LIG d   1       2.441   1.777  -9.601  0.00  0.00     0.066 H 
ATOM     48  H   LIG d   1       3.405   3.162  -9.036  0.00  0.00     0.066 H 
ENDBRANCH  44  45
ENDBRANCH  42  44
ENDBRANCH  15  42
BRANCH   1  49
ATOM     49  C   LIG d   1       4.226  -1.384  -2.177  0.00  0.00    -0.027 C 
ATOM     50  H   LIG d   1       4.025  -2.448  -2.306  0.00  0.00     0.026 H 
ATOM     51  H   LIG d   1       5.220  -1.251  -1.749  0.00  0.00     0.026 H 
ATOM     52  H   LIG d   1       3.481  -0.952  -1.508  0.00  0.00     0.026 H 
ENDBRANCH   1  49
TORSDOF 4
ENDMDL
