MODEL 1
REMARK VINA RESULT:      -6.3      0.000      0.000
REMARK  5 active torsions:
REMARK  status: ('A' for Active; 'I' for Inactive)
REMARK    1  A    between atoms: C_1  and  C_2 
REMARK    2  A    between atoms: C_5  and  O_29 
REMARK    3  A    between atoms: C_19  and  C_28 
REMARK    4  A    between atoms: C_24  and  C_25 
REMARK    5  A    between atoms: C_24  and  O_27 
ROOT
ATOM      1  C   LIG d   1       6.903  -0.142 -10.585  0.00  0.00    -0.070 C 
ATOM      2  C   LIG d   1       8.056  -0.047 -10.790  0.00  0.00    -0.116 C 
ATOM      3  H   LIG d   1       9.086   0.038 -10.972  0.00  0.00     0.123 H 
ENDROOT
BRANCH   1   4
ATOM      4  C   LIG d   1       5.458  -0.262 -10.330  0.00  0.00     0.132 C 
ATOM      5  C   LIG d   1       5.213  -1.014  -8.995  0.00  0.00     0.011 C 
ATOM      6  C   LIG d   1       6.424  -0.729  -8.101  0.00  0.00    -0.043 C 
ATOM      7  C   LIG d   1       3.970  -0.319  -8.424  0.00  0.00    -0.029 C 
ATOM      8  C   LIG d   1       6.127  -1.190  -6.679  0.00  0.00    -0.049 C 
ATOM      9  H   LIG d   1       6.631   0.342  -8.099  0.00  0.00     0.027 H 
ATOM     10  H   LIG d   1       7.292  -1.266  -8.482  0.00  0.00     0.027 H 
ATOM     11  C   LIG d   1       4.974  -0.361  -6.099  0.00  0.00    -0.030 C 
ATOM     12  H   LIG d   1       7.015  -1.058  -6.061  0.00  0.00     0.027 H 
ATOM     13  H   LIG d   1       5.846  -2.243  -6.690  0.00  0.00     0.027 H 
ATOM     14  C   LIG d   1       4.688  -0.903  -4.698  0.00  0.00     0.003 C 
ATOM     15  C   LIG d   1       3.719  -0.559  -6.954  0.00  0.00    -0.032 C 
ATOM     16  H   LIG d   1       5.252   0.691  -6.048  0.00  0.00     0.031 H 
ATOM     17  C   LIG d   1       3.488  -0.203  -4.073  0.00  0.00     0.104 A 
ATOM     18  C   LIG d   1       5.890  -0.750  -3.770  0.00  0.00    -0.042 C 
ATOM     19  C   LIG d   1       3.113  -0.741  -2.685  0.00  0.00     0.005 C 
ATOM     20  O   LIG d   1       3.338   1.208  -4.244  0.00  0.00    -0.364 OA
ATOM     21  C   LIG d   1       2.424   0.376  -4.983  0.00  0.00     0.089 A 
ATOM     22  C   LIG d   1       4.350  -0.616  -1.787  0.00  0.00     0.058 C 
ATOM     23  H   LIG d   1       2.293  -0.155  -2.270  0.00  0.00     0.032 H 
ATOM     24  H   LIG d   1       2.816  -1.787  -2.762  0.00  0.00     0.032 H 
ATOM     25  C   LIG d   1       5.534  -1.355  -2.408  0.00  0.00    -0.026 C 
ATOM     26  H   LIG d   1       4.132  -1.048  -0.810  0.00  0.00     0.059 H 
ATOM     27  H   LIG d   1       6.395  -1.277  -1.744  0.00  0.00     0.029 H 
ATOM     28  H   LIG d   1       5.274  -2.406  -2.538  0.00  0.00     0.029 H 
ATOM     29  H   LIG d   1       1.390   0.331  -4.643  0.00  0.00     0.062 H 
ATOM     30  C   LIG d   1       2.621   0.402  -6.496  0.00  0.00    -0.021 C 
ATOM     31  H   LIG d   1       1.679   0.148  -6.982  0.00  0.00     0.029 H 
ATOM     32  H   LIG d   1       2.916   1.408  -6.798  0.00  0.00     0.029 H 
ATOM     33  H   LIG d   1       6.747  -1.275  -4.192  0.00  0.00     0.027 H 
ATOM     34  H   LIG d   1       6.128   0.307  -3.651  0.00  0.00     0.027 H 
ATOM     35  H   LIG d   1       3.358  -1.579  -6.824  0.00  0.00     0.031 H 
ATOM     36  H   LIG d   1       3.102  -0.663  -8.987  0.00  0.00     0.031 H 
ATOM     37  C   LIG d   1       4.205   1.168  -8.746  0.00  0.00    -0.046 C 
ATOM     38  C   LIG d   1       4.834   1.137 -10.158  0.00  0.00    -0.012 C 
ATOM     39  H   LIG d   1       3.260   1.712  -8.759  0.00  0.00     0.027 H 
ATOM     40  H   LIG d   1       4.892   1.613  -8.026  0.00  0.00     0.027 H 
ATOM     41  H   LIG d   1       4.066   1.298 -10.914  0.00  0.00     0.030 H 
ATOM     42  H   LIG d   1       5.606   1.902 -10.240  0.00  0.00     0.030 H 
BRANCH   5  43
ATOM     43  C   LIG d   1       4.986  -2.512  -9.211  0.00  0.00    -0.056 C 
ATOM     44  H   LIG d   1       5.440  -2.816 -10.154  0.00  0.00     0.024 H 
ATOM     45  H   LIG d   1       5.440  -3.070  -8.392  0.00  0.00     0.024 H 
ATOM     46  H   LIG d   1       3.916  -2.716  -9.241  0.00  0.00     0.024 H 
ENDBRANCH   5  43
BRANCH  14  47
ATOM     47  C   LIG d   1       4.369  -2.396  -4.814  0.00  0.00    -0.057 C 
ATOM     48  H   LIG d   1       5.237  -2.923  -5.206  0.00  0.00     0.024 H 
ATOM     49  H   LIG d   1       4.118  -2.790  -3.829  0.00  0.00     0.024 H 
ATOM     50  H   LIG d   1       3.524  -2.535  -5.487  0.00  0.00     0.024 H 
ENDBRANCH  14  47
BRANCH  22  51
ATOM     51  O   LIG d   1       4.684   0.764  -1.630  0.00  0.00    -0.392 OA
ATOM     52  H   LIG d   1       4.244   1.193  -0.884  0.00  0.00     0.210 HD
ENDBRANCH  22  51
BRANCH   4  53
ATOM     53  O   LIG d   1       4.825  -0.952 -11.408  0.00  0.00    -0.376 OA
ATOM     54  H   LIG d   1       4.402  -0.370 -12.054  0.00  0.00     0.211 HD
ENDBRANCH   4  53
ENDBRANCH   1   4
TORSDOF 5
ENDMDL
MODEL 2
REMARK VINA RESULT:      -6.3      1.830      2.398
REMARK  5 active torsions:
REMARK  status: ('A' for Active; 'I' for Inactive)
REMARK    1  A    between atoms: C_1  and  C_2 
REMARK    2  A    between atoms: C_5  and  O_29 
REMARK    3  A    between atoms: C_19  and  C_28 
REMARK    4  A    between atoms: C_24  and  C_25 
REMARK    5  A    between atoms: C_24  and  O_27 
ROOT
ATOM      1  C   LIG d   1       3.559  -0.092 -11.503  0.00  0.00    -0.070 C 
ATOM      2  C   LIG d   1       4.319  -0.100 -12.399  0.00  0.00    -0.116 C 
ATOM      3  H   LIG d   1       4.999  -0.108 -13.199  0.00  0.00     0.123 H 
ENDROOT
BRANCH   1   4
ATOM      4  C   LIG d   1       2.607  -0.081 -10.381  0.00  0.00     0.132 C 
ATOM      5  C   LIG d   1       3.098  -1.028  -9.256  0.00  0.00     0.011 C 
ATOM      6  C   LIG d   1       4.628  -1.058  -9.342  0.00  0.00    -0.043 C 
ATOM      7  C   LIG d   1       2.664  -0.304  -7.974  0.00  0.00    -0.029 C 
ATOM      8  C   LIG d   1       5.195  -1.731  -8.098  0.00  0.00    -0.049 C 
ATOM      9  H   LIG d   1       5.008  -0.039  -9.409  0.00  0.00     0.027 H 
ATOM     10  H   LIG d   1       4.930  -1.618 -10.227  0.00  0.00     0.027 H 
ATOM     11  C   LIG d   1       4.863  -0.889  -6.859  0.00  0.00    -0.030 C 
ATOM     12  H   LIG d   1       6.277  -1.821  -8.195  0.00  0.00     0.027 H 
ATOM     13  H   LIG d   1       4.756  -2.723  -7.990  0.00  0.00     0.027 H 
ATOM     14  C   LIG d   1       5.408  -1.638  -5.644  0.00  0.00     0.003 C 
ATOM     15  C   LIG d   1       3.343  -0.775  -6.709  0.00  0.00    -0.032 C 
ATOM     16  H   LIG d   1       5.325   0.096  -6.936  0.00  0.00     0.031 H 
ATOM     17  C   LIG d   1       5.042  -0.923  -4.349  0.00  0.00     0.104 A 
ATOM     18  C   LIG d   1       6.925  -1.802  -5.708  0.00  0.00    -0.042 C 
ATOM     19  C   LIG d   1       5.514  -1.657  -3.086  0.00  0.00     0.005 C 
ATOM     20  O   LIG d   1       5.118   0.502  -4.294  0.00  0.00    -0.364 OA
ATOM     21  C   LIG d   1       3.794  -0.066  -4.316  0.00  0.00     0.089 A 
ATOM     22  C   LIG d   1       7.032  -1.846  -3.196  0.00  0.00     0.058 C 
ATOM     23  H   LIG d   1       5.279  -1.061  -2.203  0.00  0.00     0.032 H 
ATOM     24  H   LIG d   1       5.024  -2.627  -3.016  0.00  0.00     0.032 H 
ATOM     25  C   LIG d   1       7.381  -2.597  -4.480  0.00  0.00    -0.026 C 
ATOM     26  H   LIG d   1       7.388  -2.419  -2.339  0.00  0.00     0.059 H 
ATOM     27  H   LIG d   1       8.459  -2.746  -4.528  0.00  0.00     0.029 H 
ATOM     28  H   LIG d   1       6.884  -3.568  -4.475  0.00  0.00     0.029 H 
ATOM     29  H   LIG d   1       3.219  -0.046  -3.391  0.00  0.00     0.062 H 
ATOM     30  C   LIG d   1       3.004   0.212  -5.592  0.00  0.00    -0.021 C 
ATOM     31  H   LIG d   1       1.938   0.166  -5.366  0.00  0.00     0.029 H 
ATOM     32  H   LIG d   1       3.248   1.213  -5.950  0.00  0.00     0.029 H 
ATOM     33  H   LIG d   1       7.196  -2.341  -6.615  0.00  0.00     0.027 H 
ATOM     34  H   LIG d   1       7.400  -0.821  -5.706  0.00  0.00     0.027 H 
ATOM     35  H   LIG d   1       2.939  -1.751  -6.440  0.00  0.00     0.031 H 
ATOM     36  H   LIG d   1       1.588  -0.433  -7.860  0.00  0.00     0.031 H 
ATOM     37  C   LIG d   1       2.951   1.178  -8.278  0.00  0.00    -0.046 C 
ATOM     38  C   LIG d   1       2.537   1.328  -9.761  0.00  0.00    -0.012 C 
ATOM     39  H   LIG d   1       2.345   1.824  -7.643  0.00  0.00     0.027 H 
ATOM     40  H   LIG d   1       4.011   1.399  -8.149  0.00  0.00     0.027 H 
ATOM     41  H   LIG d   1       1.520   1.715  -9.828  0.00  0.00     0.030 H 
ATOM     42  H   LIG d   1       3.226   1.996 -10.275  0.00  0.00     0.030 H 
BRANCH   5  43
ATOM     43  C   LIG d   1       2.479  -2.424  -9.365  0.00  0.00    -0.056 C 
ATOM     44  H   LIG d   1       2.091  -2.726  -8.393  0.00  0.00     0.024 H 
ATOM     45  H   LIG d   1       1.666  -2.405 -10.091  0.00  0.00     0.024 H 
ATOM     46  H   LIG d   1       3.240  -3.134  -9.689  0.00  0.00     0.024 H 
ENDBRANCH   5  43
BRANCH  14  47
ATOM     47  C   LIG d   1       4.784  -3.035  -5.617  0.00  0.00    -0.057 C 
ATOM     48  H   LIG d   1       4.118  -3.151  -6.471  0.00  0.00     0.024 H 
ATOM     49  H   LIG d   1       5.572  -3.786  -5.667  0.00  0.00     0.024 H 
ATOM     50  H   LIG d   1       4.219  -3.162  -4.695  0.00  0.00     0.024 H 
ENDBRANCH  14  47
BRANCH  22  51
ATOM     51  O   LIG d   1       7.669  -0.568  -3.208  0.00  0.00    -0.392 OA
ATOM     52  H   LIG d   1       7.764  -0.168  -2.333  0.00  0.00     0.210 HD
ENDBRANCH  22  51
BRANCH   4  53
ATOM     53  O   LIG d   1       1.312  -0.482 -10.833  0.00  0.00    -0.376 OA
ATOM     54  H   LIG d   1       0.603   0.128 -10.589  0.00  0.00     0.211 HD
ENDBRANCH   4  53
ENDBRANCH   1   4
TORSDOF 5
ENDMDL
MODEL 3
REMARK VINA RESULT:      -6.3      3.651      4.675
REMARK  5 active torsions:
REMARK  status: ('A' for Active; 'I' for Inactive)
REMARK    1  A    between atoms: C_1  and  C_2 
REMARK    2  A    between atoms: C_5  and  O_29 
REMARK    3  A    between atoms: C_19  and  C_28 
REMARK    4  A    between atoms: C_24  and  C_25 
REMARK    5  A    between atoms: C_24  and  O_27 
ROOT
ATOM      1  C   LIG d   1       9.885   4.073  -6.000  0.00  0.00    -0.070 C 
ATOM      2  C   LIG d   1       9.918   5.147  -5.525  0.00  0.00    -0.116 C 
ATOM      3  H   LIG d   1       9.948   6.107  -5.100  0.00  0.00     0.123 H 
ENDROOT
BRANCH   1   4
ATOM      4  C   LIG d   1       9.844   2.728  -6.595  0.00  0.00     0.132 C 
ATOM      5  C   LIG d   1       9.280   1.708  -5.572  0.00  0.00     0.011 C 
ATOM      6  C   LIG d   1       8.331   2.487  -4.654  0.00  0.00    -0.043 C 
ATOM      7  C   LIG d   1       8.475   0.740  -6.449  0.00  0.00    -0.029 C 
ATOM      8  C   LIG d   1       7.520   1.508  -3.812  0.00  0.00    -0.049 C 
ATOM      9  H   LIG d   1       7.655   3.092  -5.258  0.00  0.00     0.027 H 
ATOM     10  H   LIG d   1       8.911   3.135  -3.998  0.00  0.00     0.027 H 
ATOM     11  C   LIG d   1       6.621   0.665  -4.724  0.00  0.00    -0.030 C 
ATOM     12  H   LIG d   1       6.902   2.062  -3.105  0.00  0.00     0.027 H 
ATOM     13  H   LIG d   1       8.198   0.853  -3.265  0.00  0.00     0.027 H 
ATOM     14  C   LIG d   1       5.877  -0.328  -3.833  0.00  0.00     0.003 C 
ATOM     15  C   LIG d   1       7.487  -0.129  -5.707  0.00  0.00    -0.032 C 
ATOM     16  H   LIG d   1       5.913   1.303  -5.253  0.00  0.00     0.031 H 
ATOM     17  C   LIG d   1       5.024  -1.279  -4.663  0.00  0.00     0.104 A 
ATOM     18  C   LIG d   1       4.984   0.376  -2.814  0.00  0.00    -0.042 C 
ATOM     19  C   LIG d   1       4.293  -2.341  -3.828  0.00  0.00     0.005 C 
ATOM     20  O   LIG d   1       4.293  -0.767  -5.778  0.00  0.00    -0.364 OA
ATOM     21  C   LIG d   1       5.442  -1.580  -6.088  0.00  0.00     0.089 A 
ATOM     22  C   LIG d   1       3.438  -1.607  -2.786  0.00  0.00     0.058 C 
ATOM     23  H   LIG d   1       3.652  -2.943  -4.474  0.00  0.00     0.032 H 
ATOM     24  H   LIG d   1       5.018  -2.982  -3.328  0.00  0.00     0.032 H 
ATOM     25  C   LIG d   1       4.313  -0.686  -1.937  0.00  0.00    -0.026 C 
ATOM     26  H   LIG d   1       2.953  -2.338  -2.138  0.00  0.00     0.059 H 
ATOM     27  H   LIG d   1       3.694  -0.195  -1.187  0.00  0.00     0.029 H 
ATOM     28  H   LIG d   1       5.081  -1.278  -1.438  0.00  0.00     0.029 H 
ATOM     29  H   LIG d   1       5.264  -2.587  -6.465  0.00  0.00     0.062 H 
ATOM     30  C   LIG d   1       6.598  -0.826  -6.738  0.00  0.00    -0.021 C 
ATOM     31  H   LIG d   1       7.191  -1.525  -7.327  0.00  0.00     0.029 H 
ATOM     32  H   LIG d   1       6.195  -0.058  -7.398  0.00  0.00     0.029 H 
ATOM     33  H   LIG d   1       5.589   1.036  -2.192  0.00  0.00     0.027 H 
ATOM     34  H   LIG d   1       4.222   0.957  -3.334  0.00  0.00     0.027 H 
ATOM     35  H   LIG d   1       8.038  -0.892  -5.157  0.00  0.00     0.031 H 
ATOM     36  H   LIG d   1       9.180   0.095  -6.975  0.00  0.00     0.031 H 
ATOM     37  C   LIG d   1       7.792   1.661  -7.476  0.00  0.00    -0.046 C 
ATOM     38  C   LIG d   1       8.881   2.711  -7.798  0.00  0.00    -0.012 C 
ATOM     39  H   LIG d   1       7.522   1.102  -8.373  0.00  0.00     0.027 H 
ATOM     40  H   LIG d   1       6.913   2.136  -7.042  0.00  0.00     0.027 H 
ATOM     41  H   LIG d   1       9.419   2.428  -8.703  0.00  0.00     0.030 H 
ATOM     42  H   LIG d   1       8.426   3.693  -7.925  0.00  0.00     0.030 H 
BRANCH   5  43
ATOM     43  C   LIG d   1      10.389   0.995  -4.796  0.00  0.00    -0.056 C 
ATOM     44  H   LIG d   1      10.468   1.425  -3.798  0.00  0.00     0.024 H 
ATOM     45  H   LIG d   1      10.154  -0.066  -4.717  0.00  0.00     0.024 H 
ATOM     46  H   LIG d   1      11.337   1.120  -5.321  0.00  0.00     0.024 H 
ENDBRANCH   5  43
BRANCH  14  47
ATOM     47  C   LIG d   1       6.910  -1.154  -3.062  0.00  0.00    -0.057 C 
ATOM     48  H   LIG d   1       7.842  -0.595  -2.991  0.00  0.00     0.024 H 
ATOM     49  H   LIG d   1       6.534  -1.363  -2.061  0.00  0.00     0.024 H 
ATOM     50  H   LIG d   1       7.088  -2.093  -3.586  0.00  0.00     0.024 H 
ENDBRANCH  14  47
BRANCH  22  51
ATOM     51  O   LIG d   1       2.442  -0.831  -3.453  0.00  0.00    -0.392 OA
ATOM     52  H   LIG d   1       2.500   0.118  -3.277  0.00  0.00     0.210 HD
ENDBRANCH  22  51
BRANCH   4  53
ATOM     53  O   LIG d   1      11.154   2.335  -7.011  0.00  0.00    -0.376 OA
ATOM     54  H   LIG d   1      11.196   2.006  -7.919  0.00  0.00     0.211 HD
ENDBRANCH   4  53
ENDBRANCH   1   4
TORSDOF 5
ENDMDL
MODEL 4
REMARK VINA RESULT:      -5.6      2.992      6.752
REMARK  5 active torsions:
REMARK  status: ('A' for Active; 'I' for Inactive)
REMARK    1  A    between atoms: C_1  and  C_2 
REMARK    2  A    between atoms: C_5  and  O_29 
REMARK    3  A    between atoms: C_19  and  C_28 
REMARK    4  A    between atoms: C_24  and  C_25 
REMARK    5  A    between atoms: C_24  and  O_27 
ROOT
ATOM      1  C   LIG d   1       2.911  -0.559  -3.295  0.00  0.00    -0.070 C 
ATOM      2  C   LIG d   1       1.855  -0.611  -3.808  0.00  0.00    -0.116 C 
ATOM      3  H   LIG d   1       0.912  -0.656  -4.268  0.00  0.00     0.123 H 
ENDROOT
BRANCH   1   4
ATOM      4  C   LIG d   1       4.233  -0.496  -2.651  0.00  0.00     0.132 C 
ATOM      5  C   LIG d   1       5.345  -0.815  -3.685  0.00  0.00     0.011 C 
ATOM      6  C   LIG d   1       4.813  -0.373  -5.053  0.00  0.00    -0.043 C 
ATOM      7  C   LIG d   1       6.496   0.103  -3.255  0.00  0.00    -0.029 C 
ATOM      8  C   LIG d   1       5.949  -0.385  -6.068  0.00  0.00    -0.049 C 
ATOM      9  H   LIG d   1       4.405   0.635  -4.976  0.00  0.00     0.027 H 
ATOM     10  H   LIG d   1       4.030  -1.058  -5.377  0.00  0.00     0.027 H 
ATOM     11  C   LIG d   1       7.005   0.656  -5.674  0.00  0.00    -0.030 C 
ATOM     12  H   LIG d   1       5.556  -0.146  -7.056  0.00  0.00     0.027 H 
ATOM     13  H   LIG d   1       6.407  -1.374  -6.090  0.00  0.00     0.027 H 
ATOM     14  C   LIG d   1       8.138   0.561  -6.695  0.00  0.00     0.003 C 
ATOM     15  C   LIG d   1       7.573   0.313  -4.294  0.00  0.00    -0.032 C 
ATOM     16  H   LIG d   1       6.571   1.656  -5.682  0.00  0.00     0.031 H 
ATOM     17  C   LIG d   1       9.284   1.496  -6.331  0.00  0.00     0.104 A 
ATOM     18  C   LIG d   1       7.662   0.886  -8.108  0.00  0.00    -0.042 C 
ATOM     19  C   LIG d   1      10.481   1.405  -7.289  0.00  0.00     0.005 C 
ATOM     20  O   LIG d   1       8.988   2.805  -5.843  0.00  0.00    -0.364 OA
ATOM     21  C   LIG d   1       9.493   1.864  -4.877  0.00  0.00     0.089 A 
ATOM     22  C   LIG d   1       9.968   1.694  -8.705  0.00  0.00     0.058 C 
ATOM     23  H   LIG d   1      11.234   2.144  -7.011  0.00  0.00     0.032 H 
ATOM     24  H   LIG d   1      10.913   0.406  -7.248  0.00  0.00     0.032 H 
ATOM     25  C   LIG d   1       8.845   0.724  -9.070  0.00  0.00    -0.026 C 
ATOM     26  H   LIG d   1      10.786   1.577  -9.417  0.00  0.00     0.059 H 
ATOM     27  H   LIG d   1       8.511   0.926 -10.087  0.00  0.00     0.029 H 
ATOM     28  H   LIG d   1       9.219  -0.299  -9.010  0.00  0.00     0.029 H 
ATOM     29  H   LIG d   1      10.518   1.994  -4.531  0.00  0.00     0.062 H 
ATOM     30  C   LIG d   1       8.485   1.442  -3.812  0.00  0.00    -0.021 C 
ATOM     31  H   LIG d   1       9.023   1.128  -2.918  0.00  0.00     0.029 H 
ATOM     32  H   LIG d   1       7.852   2.295  -3.565  0.00  0.00     0.029 H 
ATOM     33  H   LIG d   1       6.863   0.201  -8.392  0.00  0.00     0.027 H 
ATOM     34  H   LIG d   1       7.298   1.913  -8.145  0.00  0.00     0.027 H 
ATOM     35  H   LIG d   1       8.166  -0.598  -4.370  0.00  0.00     0.031 H 
ATOM     36  H   LIG d   1       6.954  -0.324  -2.362  0.00  0.00     0.031 H 
ATOM     37  C   LIG d   1       5.791   1.415  -2.865  0.00  0.00    -0.046 C 
ATOM     38  C   LIG d   1       4.508   0.934  -2.148  0.00  0.00    -0.012 C 
ATOM     39  H   LIG d   1       6.414   1.998  -2.186  0.00  0.00     0.027 H 
ATOM     40  H   LIG d   1       5.544   1.997  -3.753  0.00  0.00     0.027 H 
ATOM     41  H   LIG d   1       4.661   0.927  -1.069  0.00  0.00     0.030 H 
ATOM     42  H   LIG d   1       3.672   1.586  -2.402  0.00  0.00     0.030 H 
BRANCH   5  43
ATOM     43  C   LIG d   1       5.746  -2.291  -3.663  0.00  0.00    -0.056 C 
ATOM     44  H   LIG d   1       6.697  -2.401  -3.144  0.00  0.00     0.024 H 
ATOM     45  H   LIG d   1       4.980  -2.869  -3.145  0.00  0.00     0.024 H 
ATOM     46  H   LIG d   1       5.846  -2.655  -4.686  0.00  0.00     0.024 H 
ENDBRANCH   5  43
BRANCH  14  47
ATOM     47  C   LIG d   1       8.668  -0.876  -6.695  0.00  0.00    -0.057 C 
ATOM     48  H   LIG d   1       9.736  -0.868  -6.483  0.00  0.00     0.024 H 
ATOM     49  H   LIG d   1       8.150  -1.454  -5.930  0.00  0.00     0.024 H 
ATOM     50  H   LIG d   1       8.494  -1.326  -7.671  0.00  0.00     0.024 H 
ENDBRANCH  14  47
BRANCH  22  51
ATOM     51  O   LIG d   1       9.475   3.032  -8.767  0.00  0.00    -0.392 OA
ATOM     52  H   LIG d   1      10.167   3.707  -8.773  0.00  0.00     0.210 HD
ENDBRANCH  22  51
BRANCH   4  53
ATOM     53  O   LIG d   1       4.293  -1.419  -1.562  0.00  0.00    -0.376 OA
ATOM     54  H   LIG d   1       5.125  -1.908  -1.506  0.00  0.00     0.211 HD
ENDBRANCH   4  53
ENDBRANCH   1   4
TORSDOF 5
ENDMDL
MODEL 5
REMARK VINA RESULT:      -5.6      3.293      6.783
REMARK  5 active torsions:
REMARK  status: ('A' for Active; 'I' for Inactive)
REMARK    1  A    between atoms: C_1  and  C_2 
REMARK    2  A    between atoms: C_5  and  O_29 
REMARK    3  A    between atoms: C_19  and  C_28 
REMARK    4  A    between atoms: C_24  and  C_25 
REMARK    5  A    between atoms: C_24  and  O_27 
ROOT
ATOM      1  C   LIG d   1       3.569   0.823  -3.590  0.00  0.00    -0.070 C 
ATOM      2  C   LIG d   1       2.735   1.394  -4.191  0.00  0.00    -0.116 C 
ATOM      3  H   LIG d   1       1.991   1.903  -4.728  0.00  0.00     0.123 H 
ENDROOT
BRANCH   1   4
ATOM      4  C   LIG d   1       4.613   0.109  -2.838  0.00  0.00     0.132 C 
ATOM      5  C   LIG d   1       4.751  -1.343  -3.365  0.00  0.00     0.011 C 
ATOM      6  C   LIG d   1       4.347  -1.314  -4.843  0.00  0.00    -0.043 C 
ATOM      7  C   LIG d   1       6.256  -1.617  -3.244  0.00  0.00    -0.029 C 
ATOM      8  C   LIG d   1       4.731  -2.634  -5.502  0.00  0.00    -0.049 C 
ATOM      9  H   LIG d   1       4.861  -0.495  -5.346  0.00  0.00     0.027 H 
ATOM     10  H   LIG d   1       3.270  -1.170  -4.922  0.00  0.00     0.027 H 
ATOM     11  C   LIG d   1       6.257  -2.792  -5.489  0.00  0.00    -0.030 C 
ATOM     12  H   LIG d   1       4.374  -2.643  -6.532  0.00  0.00     0.027 H 
ATOM     13  H   LIG d   1       4.277  -3.459  -4.953  0.00  0.00     0.027 H 
ATOM     14  C   LIG d   1       6.577  -4.150  -6.111  0.00  0.00     0.003 C 
ATOM     15  C   LIG d   1       6.760  -2.797  -4.043  0.00  0.00    -0.032 C 
ATOM     16  H   LIG d   1       6.725  -1.992  -6.064  0.00  0.00     0.031 H 
ATOM     17  C   LIG d   1       8.071  -4.441  -6.057  0.00  0.00     0.104 A 
ATOM     18  C   LIG d   1       6.107  -4.239  -7.561  0.00  0.00    -0.042 C 
ATOM     19  C   LIG d   1       8.451  -5.820  -6.616  0.00  0.00     0.005 C 
ATOM     20  O   LIG d   1       8.996  -3.390  -6.336  0.00  0.00    -0.364 OA
ATOM     21  C   LIG d   1       8.899  -3.805  -4.960  0.00  0.00     0.089 A 
ATOM     22  C   LIG d   1       7.931  -5.898  -8.057  0.00  0.00     0.058 C 
ATOM     23  H   LIG d   1       9.536  -5.935  -6.609  0.00  0.00     0.032 H 
ATOM     24  H   LIG d   1       7.993  -6.603  -6.014  0.00  0.00     0.032 H 
ATOM     25  C   LIG d   1       6.425  -5.641  -8.092  0.00  0.00    -0.026 C 
ATOM     26  H   LIG d   1       8.134  -6.890  -8.461  0.00  0.00     0.059 H 
ATOM     27  H   LIG d   1       6.069  -5.727  -9.118  0.00  0.00     0.029 H 
ATOM     28  H   LIG d   1       5.920  -6.383  -7.472  0.00  0.00     0.029 H 
ATOM     29  H   LIG d   1       9.723  -4.386  -4.546  0.00  0.00     0.062 H 
ATOM     30  C   LIG d   1       8.289  -2.766  -4.024  0.00  0.00    -0.021 C 
ATOM     31  H   LIG d   1       8.651  -2.943  -3.011  0.00  0.00     0.029 H 
ATOM     32  H   LIG d   1       8.603  -1.772  -4.344  0.00  0.00     0.029 H 
ATOM     33  H   LIG d   1       5.032  -4.064  -7.609  0.00  0.00     0.027 H 
ATOM     34  H   LIG d   1       6.628  -3.493  -8.161  0.00  0.00     0.027 H 
ATOM     35  H   LIG d   1       6.430  -3.714  -3.555  0.00  0.00     0.031 H 
ATOM     36  H   LIG d   1       6.485  -1.786  -2.192  0.00  0.00     0.031 H 
ATOM     37  C   LIG d   1       6.905  -0.291  -3.681  0.00  0.00    -0.046 C 
ATOM     38  C   LIG d   1       5.981   0.783  -3.062  0.00  0.00    -0.012 C 
ATOM     39  H   LIG d   1       7.915  -0.207  -3.278  0.00  0.00     0.027 H 
ATOM     40  H   LIG d   1       6.919  -0.210  -4.768  0.00  0.00     0.027 H 
ATOM     41  H   LIG d   1       6.388   1.125  -2.111  0.00  0.00     0.030 H 
ATOM     42  H   LIG d   1       5.874   1.623  -3.747  0.00  0.00     0.030 H 
BRANCH   5  43
ATOM     43  C   LIG d   1       3.918  -2.334  -2.550  0.00  0.00    -0.056 C 
ATOM     44  H   LIG d   1       4.571  -2.897  -1.884  0.00  0.00     0.024 H 
ATOM     45  H   LIG d   1       3.179  -1.791  -1.961  0.00  0.00     0.024 H 
ATOM     46  H   LIG d   1       3.409  -3.022  -3.227  0.00  0.00     0.024 H 
ENDBRANCH   5  43
BRANCH  14  47
ATOM     47  C   LIG d   1       5.845  -5.232  -5.312  0.00  0.00    -0.057 C 
ATOM     48  H   LIG d   1       5.336  -4.774  -4.465  0.00  0.00     0.024 H 
ATOM     49  H   LIG d   1       5.113  -5.724  -5.953  0.00  0.00     0.024 H 
ATOM     50  H   LIG d   1       6.564  -5.966  -4.952  0.00  0.00     0.024 H 
ENDBRANCH  14  47
BRANCH  22  51
ATOM     51  O   LIG d   1       8.596  -4.917  -8.855  0.00  0.00    -0.392 OA
ATOM     52  H   LIG d   1       8.618  -4.036  -8.458  0.00  0.00     0.210 HD
ENDBRANCH  22  51
BRANCH   4  53
ATOM     53  O   LIG d   1       4.294   0.099  -1.445  0.00  0.00    -0.376 OA
ATOM     54  H   LIG d   1       4.035   0.962  -1.094  0.00  0.00     0.211 HD
ENDBRANCH   4  53
ENDBRANCH   1   4
TORSDOF 5
ENDMDL
MODEL 6
REMARK VINA RESULT:      -5.6      2.635      6.554
REMARK  5 active torsions:
REMARK  status: ('A' for Active; 'I' for Inactive)
REMARK    1  A    between atoms: C_1  and  C_2 
REMARK    2  A    between atoms: C_5  and  O_29 
REMARK    3  A    between atoms: C_19  and  C_28 
REMARK    4  A    between atoms: C_24  and  C_25 
REMARK    5  A    between atoms: C_24  and  O_27 
ROOT
ATOM      1  C   LIG d   1       4.137   0.221  -2.242  0.00  0.00    -0.070 C 
ATOM      2  C   LIG d   1       4.586   1.067  -1.562  0.00  0.00    -0.116 C 
ATOM      3  H   LIG d   1       4.988   1.823  -0.954  0.00  0.00     0.123 H 
ENDROOT
BRANCH   1   4
ATOM      4  C   LIG d   1       3.574  -0.838  -3.095  0.00  0.00     0.132 C 
ATOM      5  C   LIG d   1       4.159  -0.737  -4.527  0.00  0.00     0.011 C 
ATOM      6  C   LIG d   1       5.556  -0.123  -4.390  0.00  0.00    -0.043 C 
ATOM      7  C   LIG d   1       4.278  -2.204  -4.962  0.00  0.00    -0.029 C 
ATOM      8  C   LIG d   1       6.305  -0.258  -5.710  0.00  0.00    -0.049 C 
ATOM      9  H   LIG d   1       6.107  -0.643  -3.605  0.00  0.00     0.027 H 
ATOM     10  H   LIG d   1       5.465   0.932  -4.131  0.00  0.00     0.027 H 
ATOM     11  C   LIG d   1       6.530  -1.742  -6.025  0.00  0.00    -0.030 C 
ATOM     12  H   LIG d   1       7.268   0.247  -5.635  0.00  0.00     0.027 H 
ATOM     13  H   LIG d   1       5.718   0.197  -6.508  0.00  0.00     0.027 H 
ATOM     14  C   LIG d   1       7.234  -1.815  -7.380  0.00  0.00     0.003 C 
ATOM     15  C   LIG d   1       5.179  -2.452  -6.149  0.00  0.00    -0.032 C 
ATOM     16  H   LIG d   1       7.147  -2.204  -5.253  0.00  0.00     0.031 H 
ATOM     17  C   LIG d   1       7.417  -3.260  -7.826  0.00  0.00     0.104 A 
ATOM     18  C   LIG d   1       8.597  -1.128  -7.353  0.00  0.00    -0.042 C 
ATOM     19  C   LIG d   1       8.069  -3.400  -9.209  0.00  0.00     0.005 C 
ATOM     20  O   LIG d   1       7.804  -4.243  -6.865  0.00  0.00    -0.364 OA
ATOM     21  C   LIG d   1       6.442  -4.307  -7.330  0.00  0.00     0.089 A 
ATOM     22  C   LIG d   1       9.416  -2.665  -9.167  0.00  0.00     0.058 C 
ATOM     23  H   LIG d   1       8.231  -4.454  -9.437  0.00  0.00     0.032 H 
ATOM     24  H   LIG d   1       7.428  -2.954  -9.968  0.00  0.00     0.032 H 
ATOM     25  C   LIG d   1       9.211  -1.208  -8.755  0.00  0.00    -0.026 C 
ATOM     26  H   LIG d   1       9.875  -2.696 -10.155  0.00  0.00     0.059 H 
ATOM     27  H   LIG d   1      10.173  -0.697  -8.756  0.00  0.00     0.029 H 
ATOM     28  H   LIG d   1       8.544  -0.723  -9.468  0.00  0.00     0.029 H 
ATOM     29  H   LIG d   1       6.177  -5.115  -8.012  0.00  0.00     0.062 H 
ATOM     30  C   LIG d   1       5.393  -3.960  -6.277  0.00  0.00    -0.021 C 
ATOM     31  H   LIG d   1       4.454  -4.448  -6.538  0.00  0.00     0.029 H 
ATOM     32  H   LIG d   1       5.728  -4.329  -5.308  0.00  0.00     0.029 H 
ATOM     33  H   LIG d   1       8.474  -0.084  -7.066  0.00  0.00     0.027 H 
ATOM     34  H   LIG d   1       9.248  -1.633  -6.639  0.00  0.00     0.027 H 
ATOM     35  H   LIG d   1       4.674  -2.099  -7.049  0.00  0.00     0.031 H 
ATOM     36  H   LIG d   1       3.279  -2.568  -5.201  0.00  0.00     0.031 H 
ATOM     37  C   LIG d   1       4.770  -2.922  -3.691  0.00  0.00    -0.046 C 
ATOM     38  C   LIG d   1       3.985  -2.223  -2.557  0.00  0.00    -0.012 C 
ATOM     39  H   LIG d   1       4.523  -3.983  -3.731  0.00  0.00     0.027 H 
ATOM     40  H   LIG d   1       5.843  -2.782  -3.562  0.00  0.00     0.027 H 
ATOM     41  H   LIG d   1       3.098  -2.803  -2.303  0.00  0.00     0.030 H 
ATOM     42  H   LIG d   1       4.620  -2.108  -1.679  0.00  0.00     0.030 H 
BRANCH   5  43
ATOM     43  C   LIG d   1       3.256   0.069  -5.464  0.00  0.00    -0.056 C 
ATOM     44  H   LIG d   1       3.871   0.636  -6.162  0.00  0.00     0.024 H 
ATOM     45  H   LIG d   1       2.609  -0.610  -6.019  0.00  0.00     0.024 H 
ATOM     46  H   LIG d   1       2.646   0.755  -4.877  0.00  0.00     0.024 H 
ENDBRANCH   5  43
BRANCH  14  47
ATOM     47  C   LIG d   1       6.365  -1.097  -8.415  0.00  0.00    -0.057 C 
ATOM     48  H   LIG d   1       5.602  -0.511  -7.904  0.00  0.00     0.024 H 
ATOM     49  H   LIG d   1       6.989  -0.436  -9.017  0.00  0.00     0.024 H 
ATOM     50  H   LIG d   1       5.887  -1.833  -9.061  0.00  0.00     0.024 H 
ENDBRANCH  14  47
BRANCH  22  51
ATOM     51  O   LIG d   1      10.276  -3.307  -8.225  0.00  0.00    -0.392 OA
ATOM     52  H   LIG d   1      11.159  -3.500  -8.567  0.00  0.00     0.210 HD
ENDBRANCH  22  51
BRANCH   4  53
ATOM     53  O   LIG d   1       2.150  -0.731  -3.135  0.00  0.00    -0.376 OA
ATOM     54  H   LIG d   1       1.803   0.070  -2.719  0.00  0.00     0.211 HD
ENDBRANCH   4  53
ENDBRANCH   1   4
TORSDOF 5
ENDMDL
MODEL 7
REMARK VINA RESULT:      -5.4      3.554      5.024
REMARK  5 active torsions:
REMARK  status: ('A' for Active; 'I' for Inactive)
REMARK    1  A    between atoms: C_1  and  C_2 
REMARK    2  A    between atoms: C_5  and  O_29 
REMARK    3  A    between atoms: C_19  and  C_28 
REMARK    4  A    between atoms: C_24  and  C_25 
REMARK    5  A    between atoms: C_24  and  O_27 
ROOT
ATOM      1  C   LIG d   1      11.492  -3.492  -4.387  0.00  0.00    -0.070 C 
ATOM      2  C   LIG d   1      12.092  -3.835  -3.437  0.00  0.00    -0.116 C 
ATOM      3  H   LIG d   1      12.628  -4.143  -2.588  0.00  0.00     0.123 H 
ENDROOT
BRANCH   1   4
ATOM      4  C   LIG d   1      10.741  -3.061  -5.577  0.00  0.00     0.132 C 
ATOM      5  C   LIG d   1       9.222  -3.286  -5.359  0.00  0.00     0.011 C 
ATOM      6  C   LIG d   1       8.972  -3.168  -3.852  0.00  0.00    -0.043 C 
ATOM      7  C   LIG d   1       8.584  -2.095  -6.086  0.00  0.00    -0.029 C 
ATOM      8  C   LIG d   1       7.473  -3.088  -3.589  0.00  0.00    -0.049 C 
ATOM      9  H   LIG d   1       9.455  -2.268  -3.472  0.00  0.00     0.027 H 
ATOM     10  H   LIG d   1       9.383  -4.041  -3.346  0.00  0.00     0.027 H 
ATOM     11  C   LIG d   1       6.908  -1.804  -4.209  0.00  0.00    -0.030 C 
ATOM     12  H   LIG d   1       7.291  -3.083  -2.515  0.00  0.00     0.027 H 
ATOM     13  H   LIG d   1       6.980  -3.953  -4.035  0.00  0.00     0.027 H 
ATOM     14  C   LIG d   1       5.400  -1.807  -3.961  0.00  0.00     0.003 C 
ATOM     15  C   LIG d   1       7.144  -1.817  -5.722  0.00  0.00    -0.032 C 
ATOM     16  H   LIG d   1       7.366  -0.928  -3.748  0.00  0.00     0.031 H 
ATOM     17  C   LIG d   1       4.732  -0.610  -4.625  0.00  0.00     0.104 A 
ATOM     18  C   LIG d   1       5.067  -1.796  -2.471  0.00  0.00    -0.042 C 
ATOM     19  C   LIG d   1       3.206  -0.585  -4.460  0.00  0.00     0.005 C 
ATOM     20  O   LIG d   1       5.374   0.665  -4.573  0.00  0.00    -0.364 OA
ATOM     21  C   LIG d   1       5.379   0.000  -5.851  0.00  0.00     0.089 A 
ATOM     22  C   LIG d   1       2.898  -0.619  -2.958  0.00  0.00     0.058 C 
ATOM     23  H   LIG d   1       2.800   0.327  -4.900  0.00  0.00     0.032 H 
ATOM     24  H   LIG d   1       2.766  -1.455  -4.948  0.00  0.00     0.032 H 
ATOM     25  C   LIG d   1       3.543  -1.844  -2.312  0.00  0.00    -0.026 C 
ATOM     26  H   LIG d   1       1.819  -0.663  -2.811  0.00  0.00     0.059 H 
ATOM     27  H   LIG d   1       3.292  -1.866  -1.252  0.00  0.00     0.029 H 
ATOM     28  H   LIG d   1       3.160  -2.746  -2.791  0.00  0.00     0.029 H 
ATOM     29  H   LIG d   1       4.723   0.391  -6.628  0.00  0.00     0.062 H 
ATOM     30  C   LIG d   1       6.755  -0.465  -6.321  0.00  0.00    -0.021 C 
ATOM     31  H   LIG d   1       6.757  -0.526  -7.409  0.00  0.00     0.029 H 
ATOM     32  H   LIG d   1       7.503   0.264  -6.005  0.00  0.00     0.029 H 
ATOM     33  H   LIG d   1       5.513  -2.666  -1.990  0.00  0.00     0.027 H 
ATOM     34  H   LIG d   1       5.454  -0.885  -2.015  0.00  0.00     0.027 H 
ATOM     35  H   LIG d   1       6.516  -2.585  -6.173  0.00  0.00     0.031 H 
ATOM     36  H   LIG d   1       8.641  -2.283  -7.159  0.00  0.00     0.031 H 
ATOM     37  C   LIG d   1       9.515  -0.918  -5.744  0.00  0.00    -0.046 C 
ATOM     38  C   LIG d   1      10.926  -1.547  -5.799  0.00  0.00    -0.012 C 
ATOM     39  H   LIG d   1       9.420  -0.125  -6.487  0.00  0.00     0.027 H 
ATOM     40  H   LIG d   1       9.300  -0.535  -4.746  0.00  0.00     0.027 H 
ATOM     41  H   LIG d   1      11.380  -1.366  -6.773  0.00  0.00     0.030 H 
ATOM     42  H   LIG d   1      11.552  -1.129  -5.012  0.00  0.00     0.030 H 
BRANCH   5  43
ATOM     43  C   LIG d   1       8.750  -4.627  -5.927  0.00  0.00    -0.056 C 
ATOM     44  H   LIG d   1       7.670  -4.603  -6.063  0.00  0.00     0.024 H 
ATOM     45  H   LIG d   1       9.235  -4.806  -6.887  0.00  0.00     0.024 H 
ATOM     46  H   LIG d   1       9.012  -5.426  -5.233  0.00  0.00     0.024 H 
ENDBRANCH   5  43
BRANCH  14  47
ATOM     47  C   LIG d   1       4.813  -3.085  -4.566  0.00  0.00    -0.057 C 
ATOM     48  H   LIG d   1       3.854  -3.300  -4.097  0.00  0.00     0.024 H 
ATOM     49  H   LIG d   1       4.672  -2.947  -5.638  0.00  0.00     0.024 H 
ATOM     50  H   LIG d   1       5.497  -3.915  -4.393  0.00  0.00     0.024 H 
ENDBRANCH  14  47
BRANCH  22  51
ATOM     51  O   LIG d   1       3.411   0.564  -2.343  0.00  0.00    -0.392 OA
ATOM     52  H   LIG d   1       4.022   1.064  -2.901  0.00  0.00     0.210 HD
ENDBRANCH  22  51
BRANCH   4  53
ATOM     53  O   LIG d   1      11.187  -3.783  -6.727  0.00  0.00    -0.376 OA
ATOM     54  H   LIG d   1      10.807  -3.471  -7.559  0.00  0.00     0.211 HD
ENDBRANCH   4  53
ENDBRANCH   1   4
TORSDOF 5
ENDMDL
MODEL 8
REMARK VINA RESULT:      -5.3      9.228     10.241
REMARK  5 active torsions:
REMARK  status: ('A' for Active; 'I' for Inactive)
REMARK    1  A    between atoms: C_1  and  C_2 
REMARK    2  A    between atoms: C_5  and  O_29 
REMARK    3  A    between atoms: C_19  and  C_28 
REMARK    4  A    between atoms: C_24  and  C_25 
REMARK    5  A    between atoms: C_24  and  O_27 
ROOT
ATOM      1  C   LIG d   1       9.916   4.955  -7.741  0.00  0.00    -0.070 C 
ATOM      2  C   LIG d   1       9.435   5.399  -8.717  0.00  0.00    -0.116 C 
ATOM      3  H   LIG d   1       9.004   5.795  -9.589  0.00  0.00     0.123 H 
ENDROOT
BRANCH   1   4
ATOM      4  C   LIG d   1      10.519   4.401  -6.519  0.00  0.00     0.132 C 
ATOM      5  C   LIG d   1      11.107   5.542  -5.649  0.00  0.00     0.011 C 
ATOM      6  C   LIG d   1      10.271   6.793  -5.941  0.00  0.00    -0.043 C 
ATOM      7  C   LIG d   1      10.842   5.063  -4.216  0.00  0.00    -0.029 C 
ATOM      8  C   LIG d   1      10.599   7.874  -4.918  0.00  0.00    -0.049 C 
ATOM      9  H   LIG d   1       9.212   6.545  -5.880  0.00  0.00     0.027 H 
ATOM     10  H   LIG d   1      10.501   7.158  -6.941  0.00  0.00     0.027 H 
ATOM     11  C   LIG d   1      10.177   7.406  -3.519  0.00  0.00    -0.030 C 
ATOM     12  H   LIG d   1      10.062   8.789  -5.171  0.00  0.00     0.027 H 
ATOM     13  H   LIG d   1      11.671   8.069  -4.927  0.00  0.00     0.027 H 
ATOM     14  C   LIG d   1      10.578   8.504  -2.535  0.00  0.00     0.003 C 
ATOM     15  C   LIG d   1      10.943   6.132  -3.152  0.00  0.00    -0.032 C 
ATOM     16  H   LIG d   1       9.100   7.241  -3.484  0.00  0.00     0.031 H 
ATOM     17  C   LIG d   1      10.284   8.089  -1.099  0.00  0.00     0.104 A 
ATOM     18  C   LIG d   1       9.861   9.821  -2.826  0.00  0.00    -0.042 C 
ATOM     19  C   LIG d   1      10.717   9.128  -0.055  0.00  0.00     0.005 C 
ATOM     20  O   LIG d   1       9.068   7.398  -0.808  0.00  0.00    -0.364 OA
ATOM     21  C   LIG d   1      10.275   6.614  -0.753  0.00  0.00     0.089 A 
ATOM     22  C   LIG d   1      10.017  10.450  -0.396  0.00  0.00     0.058 C 
ATOM     23  H   LIG d   1      10.419   8.798   0.941  0.00  0.00     0.032 H 
ATOM     24  H   LIG d   1      11.798   9.261  -0.091  0.00  0.00     0.032 H 
ATOM     25  C   LIG d   1      10.351  10.874  -1.825  0.00  0.00    -0.026 C 
ATOM     26  H   LIG d   1      10.353  11.225   0.294  0.00  0.00     0.059 H 
ATOM     27  H   LIG d   1       9.868  11.826  -2.040  0.00  0.00     0.029 H 
ATOM     28  H   LIG d   1      11.432  10.988  -1.924  0.00  0.00     0.029 H 
ATOM     29  H   LIG d   1      10.646   6.323   0.229  0.00  0.00     0.062 H 
ATOM     30  C   LIG d   1      10.397   5.555  -1.846  0.00  0.00    -0.021 C 
ATOM     31  H   LIG d   1      11.046   4.754  -1.493  0.00  0.00     0.029 H 
ATOM     32  H   LIG d   1       9.408   5.145  -2.054  0.00  0.00     0.029 H 
ATOM     33  H   LIG d   1      10.091  10.145  -3.841  0.00  0.00     0.027 H 
ATOM     34  H   LIG d   1       8.786   9.684  -2.717  0.00  0.00     0.027 H 
ATOM     35  H   LIG d   1      11.994   6.379  -3.005  0.00  0.00     0.031 H 
ATOM     36  H   LIG d   1      11.559   4.274  -3.985  0.00  0.00     0.031 H 
ATOM     37  C   LIG d   1       9.436   4.441  -4.294  0.00  0.00    -0.046 C 
ATOM     38  C   LIG d   1       9.438   3.716  -5.660  0.00  0.00    -0.012 C 
ATOM     39  H   LIG d   1       9.286   3.729  -3.482  0.00  0.00     0.027 H 
ATOM     40  H   LIG d   1       8.671   5.217  -4.269  0.00  0.00     0.027 H 
ATOM     41  H   LIG d   1       9.681   2.663  -5.524  0.00  0.00     0.030 H 
ATOM     42  H   LIG d   1       8.464   3.817  -6.137  0.00  0.00     0.030 H 
BRANCH   5  43
ATOM     43  C   LIG d   1      12.598   5.761  -5.916  0.00  0.00    -0.056 C 
ATOM     44  H   LIG d   1      13.030   4.851  -6.331  0.00  0.00     0.024 H 
ATOM     45  H   LIG d   1      12.725   6.579  -6.625  0.00  0.00     0.024 H 
ATOM     46  H   LIG d   1      13.102   6.009  -4.982  0.00  0.00     0.024 H 
ENDBRANCH   5  43
BRANCH  14  47
ATOM     47  C   LIG d   1      12.083   8.748  -2.669  0.00  0.00    -0.057 C 
ATOM     48  H   LIG d   1      12.346   8.823  -3.723  0.00  0.00     0.024 H 
ATOM     49  H   LIG d   1      12.348   9.675  -2.161  0.00  0.00     0.024 H 
ATOM     50  H   LIG d   1      12.626   7.918  -2.217  0.00  0.00     0.024 H 
ENDBRANCH  14  47
BRANCH  22  51
ATOM     51  O   LIG d   1       8.604  10.284  -0.270  0.00  0.00    -0.392 OA
ATOM     52  H   LIG d   1       8.335   9.777   0.507  0.00  0.00     0.210 HD
ENDBRANCH  22  51
BRANCH   4  53
ATOM     53  O   LIG d   1      11.542   3.462  -6.859  0.00  0.00    -0.376 OA
ATOM     54  H   LIG d   1      11.389   2.572  -6.514  0.00  0.00     0.211 HD
ENDBRANCH   4  53
ENDBRANCH   1   4
TORSDOF 5
ENDMDL
MODEL 9
REMARK VINA RESULT:      -5.3      1.784      6.551
REMARK  5 active torsions:
REMARK  status: ('A' for Active; 'I' for Inactive)
REMARK    1  A    between atoms: C_1  and  C_2 
REMARK    2  A    between atoms: C_5  and  O_29 
REMARK    3  A    between atoms: C_19  and  C_28 
REMARK    4  A    between atoms: C_24  and  C_25 
REMARK    5  A    between atoms: C_24  and  O_27 
ROOT
ATOM      1  C   LIG d   1       4.656   0.287  -1.987  0.00  0.00    -0.070 C 
ATOM      2  C   LIG d   1       4.733   1.331  -1.454  0.00  0.00    -0.116 C 
ATOM      3  H   LIG d   1       4.801   2.264  -0.977  0.00  0.00     0.123 H 
ENDROOT
BRANCH   1   4
ATOM      4  C   LIG d   1       4.560  -1.021  -2.655  0.00  0.00     0.132 C 
ATOM      5  C   LIG d   1       3.800  -0.878  -4.000  0.00  0.00     0.011 C 
ATOM      6  C   LIG d   1       4.055   0.548  -4.500  0.00  0.00    -0.043 C 
ATOM      7  C   LIG d   1       4.513  -1.884  -4.914  0.00  0.00    -0.029 C 
ATOM      8  C   LIG d   1       3.586   0.672  -5.945  0.00  0.00    -0.049 C 
ATOM      9  H   LIG d   1       5.121   0.767  -4.445  0.00  0.00     0.027 H 
ATOM     10  H   LIG d   1       3.506   1.254  -3.879  0.00  0.00     0.027 H 
ATOM     11  C   LIG d   1       4.430  -0.243  -6.842  0.00  0.00    -0.030 C 
ATOM     12  H   LIG d   1       3.696   1.704  -6.275  0.00  0.00     0.027 H 
ATOM     13  H   LIG d   1       2.538   0.379  -6.013  0.00  0.00     0.027 H 
ATOM     14  C   LIG d   1       3.880  -0.116  -8.262  0.00  0.00     0.003 C 
ATOM     15  C   LIG d   1       4.264  -1.698  -6.392  0.00  0.00    -0.032 C 
ATOM     16  H   LIG d   1       5.477   0.059  -6.812  0.00  0.00     0.031 H 
ATOM     17  C   LIG d   1       4.597  -1.065  -9.215  0.00  0.00     0.104 A 
ATOM     18  C   LIG d   1       4.003   1.308  -8.796  0.00  0.00    -0.042 C 
ATOM     19  C   LIG d   1       4.051  -1.026 -10.649  0.00  0.00     0.005 C 
ATOM     20  O   LIG d   1       6.011  -1.230  -9.101  0.00  0.00    -0.364 OA
ATOM     21  C   LIG d   1       5.203  -2.338  -8.660  0.00  0.00     0.089 A 
ATOM     22  C   LIG d   1       4.146   0.422 -11.146  0.00  0.00     0.058 C 
ATOM     23  H   LIG d   1       4.649  -1.676 -11.290  0.00  0.00     0.032 H 
ATOM     24  H   LIG d   1       3.012  -1.354 -10.659  0.00  0.00     0.032 H 
ATOM     25  C   LIG d   1       3.391   1.356 -10.201  0.00  0.00    -0.026 C 
ATOM     26  H   LIG d   1       3.709   0.492 -12.142  0.00  0.00     0.059 H 
ATOM     27  H   LIG d   1       3.447   2.375 -10.583  0.00  0.00     0.029 H 
ATOM     28  H   LIG d   1       2.347   1.048 -10.149  0.00  0.00     0.029 H 
ATOM     29  H   LIG d   1       5.174  -3.227  -9.289  0.00  0.00     0.062 H 
ATOM     30  C   LIG d   1       5.240  -2.593  -7.155  0.00  0.00    -0.021 C 
ATOM     31  H   LIG d   1       5.008  -3.641  -6.967  0.00  0.00     0.029 H 
ATOM     32  H   LIG d   1       6.243  -2.379  -6.784  0.00  0.00     0.029 H 
ATOM     33  H   LIG d   1       3.466   1.992  -8.140  0.00  0.00     0.027 H 
ATOM     34  H   LIG d   1       5.054   1.593  -8.845  0.00  0.00     0.027 H 
ATOM     35  H   LIG d   1       3.249  -2.026  -6.619  0.00  0.00     0.031 H 
ATOM     36  H   LIG d   1       4.190  -2.886  -4.630  0.00  0.00     0.031 H 
ATOM     37  C   LIG d   1       5.998  -1.725  -4.543  0.00  0.00    -0.046 C 
ATOM     38  C   LIG d   1       5.968  -1.538  -3.008  0.00  0.00    -0.012 C 
ATOM     39  H   LIG d   1       6.559  -2.621  -4.810  0.00  0.00     0.027 H 
ATOM     40  H   LIG d   1       6.424  -0.848  -5.031  0.00  0.00     0.027 H 
ATOM     41  H   LIG d   1       6.151  -2.492  -2.512  0.00  0.00     0.030 H 
ATOM     42  H   LIG d   1       6.720  -0.810  -2.706  0.00  0.00     0.030 H 
BRANCH   5  43
ATOM     43  C   LIG d   1       2.308  -1.189  -3.855  0.00  0.00    -0.056 C 
ATOM     44  H   LIG d   1       1.736  -0.540  -4.517  0.00  0.00     0.024 H 
ATOM     45  H   LIG d   1       2.126  -2.230  -4.120  0.00  0.00     0.024 H 
ATOM     46  H   LIG d   1       2.001  -1.018  -2.823  0.00  0.00     0.024 H 
ENDBRANCH   5  43
BRANCH  14  47
ATOM     47  C   LIG d   1       2.395  -0.485  -8.240  0.00  0.00    -0.057 C 
ATOM     48  H   LIG d   1       2.262  -1.480  -8.663  0.00  0.00     0.024 H 
ATOM     49  H   LIG d   1       2.034  -0.476  -7.212  0.00  0.00     0.024 H 
ATOM     50  H   LIG d   1       1.833   0.239  -8.829  0.00  0.00     0.024 H 
ENDBRANCH  14  47
BRANCH  22  51
ATOM     51  O   LIG d   1       5.518   0.815 -11.202  0.00  0.00    -0.392 OA
ATOM     52  H   LIG d   1       5.776   1.224 -12.039  0.00  0.00     0.210 HD
ENDBRANCH  22  51
BRANCH   4  53
ATOM     53  O   LIG d   1       3.892  -1.957  -1.808  0.00  0.00    -0.376 OA
ATOM     54  H   LIG d   1       3.506  -1.564  -1.014  0.00  0.00     0.211 HD
ENDBRANCH   4  53
ENDBRANCH   1   4
TORSDOF 5
ENDMDL
MODEL 10
REMARK VINA RESULT:      -5.3     10.007     11.432
REMARK  5 active torsions:
REMARK  status: ('A' for Active; 'I' for Inactive)
REMARK    1  A    between atoms: C_1  and  C_2 
REMARK    2  A    between atoms: C_5  and  O_29 
REMARK    3  A    between atoms: C_19  and  C_28 
REMARK    4  A    between atoms: C_24  and  C_25 
REMARK    5  A    between atoms: C_24  and  O_27 
ROOT
ATOM      1  C   LIG d   1      11.235   3.313  -4.710  0.00  0.00    -0.070 C 
ATOM      2  C   LIG d   1      10.819   2.808  -5.685  0.00  0.00    -0.116 C 
ATOM      3  H   LIG d   1      10.446   2.356  -6.557  0.00  0.00     0.123 H 
ENDROOT
BRANCH   1   4
ATOM      4  C   LIG d   1      11.757   3.946  -3.488  0.00  0.00     0.132 C 
ATOM      5  C   LIG d   1      11.917   5.474  -3.706  0.00  0.00     0.011 C 
ATOM      6  C   LIG d   1      10.864   5.883  -4.742  0.00  0.00    -0.043 C 
ATOM      7  C   LIG d   1      11.556   6.063  -2.337  0.00  0.00    -0.029 C 
ATOM      8  C   LIG d   1      10.765   7.403  -4.793  0.00  0.00    -0.049 C 
ATOM      9  H   LIG d   1       9.897   5.466  -4.461  0.00  0.00     0.027 H 
ATOM     10  H   LIG d   1      11.152   5.505  -5.722  0.00  0.00     0.027 H 
ATOM     11  C   LIG d   1      10.256   7.933  -3.447  0.00  0.00    -0.030 C 
ATOM     12  H   LIG d   1      10.073   7.695  -5.583  0.00  0.00     0.027 H 
ATOM     13  H   LIG d   1      11.749   7.824  -5.000  0.00  0.00     0.027 H 
ATOM     14  C   LIG d   1      10.229   9.458  -3.542  0.00  0.00     0.003 C 
ATOM     15  C   LIG d   1      11.236   7.540  -2.337  0.00  0.00    -0.032 C 
ATOM     16  H   LIG d   1       9.257   7.549  -3.242  0.00  0.00     0.031 H 
ATOM     17  C   LIG d   1       9.825  10.084  -2.213  0.00  0.00     0.104 A 
ATOM     18  C   LIG d   1       9.275   9.945  -4.630  0.00  0.00    -0.042 C 
ATOM     19  C   LIG d   1       9.833  11.619  -2.227  0.00  0.00     0.005 C 
ATOM     20  O   LIG d   1       8.777   9.484  -1.450  0.00  0.00    -0.364 OA
ATOM     21  C   LIG d   1      10.112   9.328  -0.932  0.00  0.00     0.089 A 
ATOM     22  C   LIG d   1       8.901  12.081  -3.355  0.00  0.00     0.058 C 
ATOM     23  H   LIG d   1       9.472  12.000  -1.271  0.00  0.00     0.032 H 
ATOM     24  H   LIG d   1      10.844  11.982  -2.409  0.00  0.00     0.032 H 
ATOM     25  C   LIG d   1       9.342  11.475  -4.687  0.00  0.00    -0.026 C 
ATOM     26  H   LIG d   1       8.934  13.168  -3.428  0.00  0.00     0.059 H 
ATOM     27  H   LIG d   1       8.685  11.835  -5.479  0.00  0.00     0.029 H 
ATOM     28  H   LIG d   1      10.366  11.783  -4.901  0.00  0.00     0.029 H 
ATOM     29  H   LIG d   1      10.386   9.910  -0.053  0.00  0.00     0.062 H 
ATOM     30  C   LIG d   1      10.647   7.899  -0.973  0.00  0.00    -0.021 C 
ATOM     31  H   LIG d   1      11.405   7.782  -0.199  0.00  0.00     0.029 H 
ATOM     32  H   LIG d   1       9.828   7.208  -0.774  0.00  0.00     0.029 H 
ATOM     33  H   LIG d   1       9.574   9.529  -5.592  0.00  0.00     0.027 H 
ATOM     34  H   LIG d   1       8.258   9.632  -4.393  0.00  0.00     0.027 H 
ATOM     35  H   LIG d   1      12.163   8.097  -2.468  0.00  0.00     0.031 H 
ATOM     36  H   LIG d   1      12.394   5.889  -1.662  0.00  0.00     0.031 H 
ATOM     37  C   LIG d   1      10.366   5.204  -1.873  0.00  0.00    -0.046 C 
ATOM     38  C   LIG d   1      10.750   3.778  -2.334  0.00  0.00    -0.012 C 
ATOM     39  H   LIG d   1      10.266   5.241  -0.788  0.00  0.00     0.027 H 
ATOM     40  H   LIG d   1       9.445   5.531  -2.354  0.00  0.00     0.027 H 
ATOM     41  H   LIG d   1      11.212   3.231  -1.513  0.00  0.00     0.030 H 
ATOM     42  H   LIG d   1       9.865   3.249  -2.686  0.00  0.00     0.030 H 
BRANCH   5  43
ATOM     43  C   LIG d   1      13.337   5.849  -4.138  0.00  0.00    -0.056 C 
ATOM     44  H   LIG d   1      13.331   6.148  -5.185  0.00  0.00     0.024 H 
ATOM     45  H   LIG d   1      13.697   6.675  -3.525  0.00  0.00     0.024 H 
ATOM     46  H   LIG d   1      13.994   4.988  -4.010  0.00  0.00     0.024 H 
ENDBRANCH   5  43
BRANCH  14  47
ATOM     47  C   LIG d   1      11.636   9.945  -3.897  0.00  0.00    -0.057 C 
ATOM     48  H   LIG d   1      12.018  10.568  -3.089  0.00  0.00     0.024 H 
ATOM     49  H   LIG d   1      12.293   9.087  -4.036  0.00  0.00     0.024 H 
ATOM     50  H   LIG d   1      11.597  10.526  -4.818  0.00  0.00     0.024 H 
ENDBRANCH  14  47
BRANCH  22  51
ATOM     51  O   LIG d   1       7.566  11.666  -3.066  0.00  0.00    -0.392 OA
ATOM     52  H   LIG d   1       6.895  12.083  -3.622  0.00  0.00     0.210 HD
ENDBRANCH  22  51
BRANCH   4  53
ATOM     53  O   LIG d   1      13.013   3.365  -3.132  0.00  0.00    -0.376 OA
ATOM     54  H   LIG d   1      13.188   3.359  -2.181  0.00  0.00     0.211 HD
ENDBRANCH   4  53
ENDBRANCH   1   4
TORSDOF 5
ENDMDL
