MODEL 1
REMARK VINA RESULT:      -5.1      0.000      0.000
REMARK  11 active torsions:
REMARK  status: ('A' for Active; 'I' for Inactive)
REMARK    1  A    between atoms: C_1  and  C_2 
REMARK    2  A    between atoms: C_2  and  C_3 
REMARK    3  A    between atoms: C_3  and  N_4 
REMARK       I    between atoms: N_4  and  C_5 
REMARK    4  A    between atoms: C_5  and  C_7 
REMARK    5  A    between atoms: C_7  and  C_8 
REMARK       I    between atoms: N_12  and  C_18 
REMARK    6  A    between atoms: C_14  and  C_16 
REMARK    7  A    between atoms: C_16  and  C_17 
REMARK    8  A    between atoms: C_18  and  C_20 
REMARK    9  A    between atoms: C_20  and  C_21 
REMARK   10  A    between atoms: C_20  and  C_22 
REMARK   11  A    between atoms: C_20  and  C_23 
ROOT
ATOM      1  C   LIG d   1       3.048  -0.777  -7.744  0.00  0.00    -0.027 C 
ATOM      2  H   LIG d   1       2.218  -1.198  -7.176  0.00  0.00     0.031 H 
ATOM      3  C   LIG d   1       3.828  -1.908  -8.420  0.00  0.00    -0.034 C 
ATOM      4  C   LIG d   1       2.886  -2.693  -9.339  0.00  0.00     0.015 C 
ATOM      5  N   LIG d   1       2.247  -1.757 -10.274  0.00  0.00    -0.301 N 
ATOM      6  C   LIG d   1       1.548  -0.584  -9.732  0.00  0.00     0.018 C 
ATOM      7  C   LIG d   1       2.503   0.177  -8.808  0.00  0.00    -0.022 C 
ATOM      8  H   LIG d   1       1.969   0.995  -8.325  0.00  0.00     0.032 H 
ATOM      9  C   LIG d   1       2.303  -1.970 -11.603  0.00  0.00     0.221 C 
ATOM     10  O   LIG d   1       1.695  -1.241 -12.360  0.00  0.00    -0.275 OA
ATOM     11  H   LIG d   1       4.234  -2.575  -7.660  0.00  0.00     0.028 H 
ATOM     12  H   LIG d   1       4.642  -1.487  -9.008  0.00  0.00     0.028 H 
ATOM     13  H   LIG d   1       2.122  -3.190  -8.741  0.00  0.00     0.046 H 
ATOM     14  H   LIG d   1       3.456  -3.436  -9.898  0.00  0.00     0.046 H 
ATOM     15  H   LIG d   1       1.235   0.065 -10.550  0.00  0.00     0.047 H 
ATOM     16  H   LIG d   1       0.674  -0.909  -9.166  0.00  0.00     0.047 H 
ENDROOT
BRANCH   1  17
ATOM     17  C   LIG d   1       3.976  -0.012  -6.798  0.00  0.00     0.027 C 
ATOM     18  H   LIG d   1       4.939  -0.520  -6.746  0.00  0.00     0.036 H 
ATOM     19  H   LIG d   1       4.118   1.002  -7.171  0.00  0.00     0.036 H 
BRANCH  17  20
ATOM     20  C   LIG d   1       3.361   0.039  -5.423  0.00  0.00     0.213 C 
ATOM     21  N   LIG d   1       3.515  -0.998  -4.576  0.00  0.00    -0.315 N 
ATOM     22  H   LIG d   1       4.022  -1.778  -4.852  0.00  0.00     0.149 HD
ATOM     23  O   LIG d   1       2.729   1.015  -5.077  0.00  0.00    -0.276 OA
BRANCH  21  24
ATOM     24  C   LIG d   1       2.919  -0.947  -3.240  0.00  0.00     0.011 C 
ATOM     25  H   LIG d   1       2.335  -0.032  -3.137  0.00  0.00     0.046 H 
ATOM     26  H   LIG d   1       2.270  -1.810  -3.099  0.00  0.00     0.046 H 
BRANCH  24  27
ATOM     27  C   LIG d   1       4.028  -0.965  -2.186  0.00  0.00    -0.040 C 
ATOM     28  H   LIG d   1       3.669  -1.473  -1.291  0.00  0.00     0.028 H 
ATOM     29  H   LIG d   1       4.896  -1.492  -2.580  0.00  0.00     0.028 H 
BRANCH  27  30
ATOM     30  C   LIG d   1       4.420   0.471  -1.833  0.00  0.00    -0.064 C 
ATOM     31  H   LIG d   1       5.413   0.684  -2.228  0.00  0.00     0.023 H 
ATOM     32  H   LIG d   1       3.699   1.163  -2.270  0.00  0.00     0.023 H 
ATOM     33  H   LIG d   1       4.427   0.591  -0.749  0.00  0.00     0.023 H 
ENDBRANCH  27  30
ENDBRANCH  24  27
ENDBRANCH  21  24
ENDBRANCH  17  20
ENDBRANCH   1  17
BRANCH   7  34
ATOM     34  C   LIG d   1       3.665   0.741  -9.628  0.00  0.00    -0.051 C 
ATOM     35  H   LIG d   1       4.609   0.482  -9.149  0.00  0.00     0.027 H 
ATOM     36  H   LIG d   1       3.640   0.319 -10.633  0.00  0.00     0.027 H 
BRANCH  34  37
ATOM     37  C   LIG d   1       3.538   2.265  -9.713  0.00  0.00    -0.065 C 
ATOM     38  H   LIG d   1       3.578   2.575 -10.756  0.00  0.00     0.023 H 
ATOM     39  H   LIG d   1       2.587   2.573  -9.278  0.00  0.00     0.023 H 
ATOM     40  H   LIG d   1       4.356   2.729  -9.163  0.00  0.00     0.023 H 
ENDBRANCH  34  37
ENDBRANCH   7  34
BRANCH   9  41
ATOM     41  C   LIG d   1       3.120  -3.112 -12.151  0.00  0.00     0.039 C 
BRANCH  41  42
ATOM     42  C   LIG d   1       4.600  -2.874 -11.842  0.00  0.00    -0.052 C 
ATOM     43  H   LIG d   1       5.059  -3.810 -11.523  0.00  0.00     0.024 H 
ATOM     44  H   LIG d   1       5.103  -2.510 -12.738  0.00  0.00     0.024 H 
ATOM     45  H   LIG d   1       4.691  -2.135 -11.048  0.00  0.00     0.024 H 
ENDBRANCH  41  42
BRANCH  41  46
ATOM     46  C   LIG d   1       2.667  -4.421 -11.501  0.00  0.00    -0.052 C 
ATOM     47  H   LIG d   1       3.514  -5.102 -11.427  0.00  0.00     0.024 H 
ATOM     48  H   LIG d   1       2.277  -4.216 -10.504  0.00  0.00     0.024 H 
ATOM     49  H   LIG d   1       1.886  -4.877 -12.110  0.00  0.00     0.024 H 
ENDBRANCH  41  46
BRANCH  41  50
ATOM     50  C   LIG d   1       2.922  -3.200 -13.666  0.00  0.00    -0.052 C 
ATOM     51  H   LIG d   1       1.962  -2.759 -13.933  0.00  0.00     0.024 H 
ATOM     52  H   LIG d   1       3.723  -2.657 -14.169  0.00  0.00     0.024 H 
ATOM     53  H   LIG d   1       2.940  -4.245 -13.975  0.00  0.00     0.024 H 
ENDBRANCH  41  50
ENDBRANCH   9  41
TORSDOF 11
ENDMDL
MODEL 2
REMARK VINA RESULT:      -5.0      3.587      6.988
REMARK  11 active torsions:
REMARK  status: ('A' for Active; 'I' for Inactive)
REMARK    1  A    between atoms: C_1  and  C_2 
REMARK    2  A    between atoms: C_2  and  C_3 
REMARK    3  A    between atoms: C_3  and  N_4 
REMARK       I    between atoms: N_4  and  C_5 
REMARK    4  A    between atoms: C_5  and  C_7 
REMARK    5  A    between atoms: C_7  and  C_8 
REMARK       I    between atoms: N_12  and  C_18 
REMARK    6  A    between atoms: C_14  and  C_16 
REMARK    7  A    between atoms: C_16  and  C_17 
REMARK    8  A    between atoms: C_18  and  C_20 
REMARK    9  A    between atoms: C_20  and  C_21 
REMARK   10  A    between atoms: C_20  and  C_22 
REMARK   11  A    between atoms: C_20  and  C_23 
ROOT
ATOM      1  C   LIG d   1       4.573  -0.372  -5.663  0.00  0.00    -0.027 C 
ATOM      2  H   LIG d   1       5.127   0.462  -6.094  0.00  0.00     0.031 H 
ATOM      3  C   LIG d   1       4.952  -1.665  -6.389  0.00  0.00    -0.034 C 
ATOM      4  C   LIG d   1       6.462  -1.894  -6.262  0.00  0.00     0.015 C 
ATOM      5  N   LIG d   1       6.825  -1.872  -4.838  0.00  0.00    -0.301 N 
ATOM      6  C   LIG d   1       6.429  -0.715  -4.025  0.00  0.00     0.018 C 
ATOM      7  C   LIG d   1       4.920  -0.499  -4.178  0.00  0.00    -0.022 C 
ATOM      8  H   LIG d   1       4.628   0.413  -3.657  0.00  0.00     0.032 H 
ATOM      9  C   LIG d   1       7.510  -2.895  -4.289  0.00  0.00     0.221 C 
ATOM     10  O   LIG d   1       7.884  -2.826  -3.137  0.00  0.00    -0.275 OA
ATOM     11  H   LIG d   1       4.684  -1.583  -7.442  0.00  0.00     0.028 H 
ATOM     12  H   LIG d   1       4.418  -2.504  -5.942  0.00  0.00     0.028 H 
ATOM     13  H   LIG d   1       6.997  -1.103  -6.787  0.00  0.00     0.046 H 
ATOM     14  H   LIG d   1       6.722  -2.862  -6.691  0.00  0.00     0.046 H 
ATOM     15  H   LIG d   1       6.667  -0.905  -2.978  0.00  0.00     0.047 H 
ATOM     16  H   LIG d   1       6.961   0.172  -4.368  0.00  0.00     0.047 H 
ENDROOT
BRANCH   1  17
ATOM     17  C   LIG d   1       3.072  -0.122  -5.817  0.00  0.00     0.027 C 
ATOM     18  H   LIG d   1       2.529  -1.050  -5.639  0.00  0.00     0.036 H 
ATOM     19  H   LIG d   1       2.753   0.630  -5.095  0.00  0.00     0.036 H 
BRANCH  17  20
ATOM     20  C   LIG d   1       2.785   0.367  -7.213  0.00  0.00     0.213 C 
ATOM     21  N   LIG d   1       3.131   1.619  -7.573  0.00  0.00    -0.315 N 
ATOM     22  H   LIG d   1       3.566   2.205  -6.934  0.00  0.00     0.149 HD
ATOM     23  O   LIG d   1       2.243  -0.366  -8.013  0.00  0.00    -0.276 OA
BRANCH  21  24
ATOM     24  C   LIG d   1       2.852   2.094  -8.930  0.00  0.00     0.011 C 
ATOM     25  H   LIG d   1       2.119   1.439  -9.401  0.00  0.00     0.046 H 
ATOM     26  H   LIG d   1       2.458   3.109  -8.886  0.00  0.00     0.046 H 
BRANCH  24  27
ATOM     27  C   LIG d   1       4.144   2.084  -9.749  0.00  0.00    -0.040 C 
ATOM     28  H   LIG d   1       4.360   3.094 -10.099  0.00  0.00     0.028 H 
ATOM     29  H   LIG d   1       4.966   1.731  -9.127  0.00  0.00     0.028 H 
BRANCH  27  30
ATOM     30  C   LIG d   1       3.978   1.153 -10.953  0.00  0.00    -0.064 C 
ATOM     31  H   LIG d   1       3.228   1.562 -11.628  0.00  0.00     0.023 H 
ATOM     32  H   LIG d   1       4.930   1.064 -11.478  0.00  0.00     0.023 H 
ATOM     33  H   LIG d   1       3.660   0.168 -10.609  0.00  0.00     0.023 H 
ENDBRANCH  27  30
ENDBRANCH  24  27
ENDBRANCH  21  24
ENDBRANCH  17  20
ENDBRANCH   1  17
BRANCH   7  34
ATOM     34  C   LIG d   1       4.170  -1.691  -3.579  0.00  0.00    -0.051 C 
ATOM     35  H   LIG d   1       3.114  -1.624  -3.838  0.00  0.00     0.027 H 
ATOM     36  H   LIG d   1       4.584  -2.618  -3.978  0.00  0.00     0.027 H 
BRANCH  34  37
ATOM     37  C   LIG d   1       4.324  -1.678  -2.056  0.00  0.00    -0.065 C 
ATOM     38  H   LIG d   1       4.463  -2.697  -1.697  0.00  0.00     0.023 H 
ATOM     39  H   LIG d   1       5.191  -1.075  -1.785  0.00  0.00     0.023 H 
ATOM     40  H   LIG d   1       3.429  -1.252  -1.604  0.00  0.00     0.023 H 
ENDBRANCH  34  37
ENDBRANCH   7  34
BRANCH   9  41
ATOM     41  C   LIG d   1       7.810  -4.126  -5.106  0.00  0.00     0.039 C 
BRANCH  41  42
ATOM     42  C   LIG d   1       6.501  -4.828  -5.471  0.00  0.00    -0.052 C 
ATOM     43  H   LIG d   1       6.169  -4.491  -6.453  0.00  0.00     0.024 H 
ATOM     44  H   LIG d   1       6.660  -5.907  -5.492  0.00  0.00     0.024 H 
ATOM     45  H   LIG d   1       5.740  -4.589  -4.729  0.00  0.00     0.024 H 
ENDBRANCH  41  42
BRANCH  41  46
ATOM     46  C   LIG d   1       8.547  -3.723  -6.385  0.00  0.00    -0.052 C 
ATOM     47  H   LIG d   1       9.133  -4.567  -6.748  0.00  0.00     0.024 H 
ATOM     48  H   LIG d   1       7.822  -3.430  -7.144  0.00  0.00     0.024 H 
ATOM     49  H   LIG d   1       9.210  -2.885  -6.173  0.00  0.00     0.024 H 
ENDBRANCH  41  46
BRANCH  41  50
ATOM     50  C   LIG d   1       8.689  -5.077  -4.290  0.00  0.00    -0.052 C 
ATOM     51  H   LIG d   1       9.617  -5.267  -4.828  0.00  0.00     0.024 H 
ATOM     52  H   LIG d   1       8.915  -4.624  -3.324  0.00  0.00     0.024 H 
ATOM     53  H   LIG d   1       8.160  -6.018  -4.135  0.00  0.00     0.024 H 
ENDBRANCH  41  50
ENDBRANCH   9  41
TORSDOF 11
ENDMDL
MODEL 3
REMARK VINA RESULT:      -4.9      1.574      2.150
REMARK  11 active torsions:
REMARK  status: ('A' for Active; 'I' for Inactive)
REMARK    1  A    between atoms: C_1  and  C_2 
REMARK    2  A    between atoms: C_2  and  C_3 
REMARK    3  A    between atoms: C_3  and  N_4 
REMARK       I    between atoms: N_4  and  C_5 
REMARK    4  A    between atoms: C_5  and  C_7 
REMARK    5  A    between atoms: C_7  and  C_8 
REMARK       I    between atoms: N_12  and  C_18 
REMARK    6  A    between atoms: C_14  and  C_16 
REMARK    7  A    between atoms: C_16  and  C_17 
REMARK    8  A    between atoms: C_18  and  C_20 
REMARK    9  A    between atoms: C_20  and  C_21 
REMARK   10  A    between atoms: C_20  and  C_22 
REMARK   11  A    between atoms: C_20  and  C_23 
ROOT
ATOM      1  C   LIG d   1       3.216  -0.413  -7.380  0.00  0.00    -0.027 C 
ATOM      2  H   LIG d   1       2.190  -0.127  -7.149  0.00  0.00     0.031 H 
ATOM      3  C   LIG d   1       3.210  -1.616  -8.327  0.00  0.00    -0.034 C 
ATOM      4  C   LIG d   1       2.450  -1.249  -9.606  0.00  0.00     0.015 C 
ATOM      5  N   LIG d   1       3.045  -0.033 -10.178  0.00  0.00    -0.301 N 
ATOM      6  C   LIG d   1       3.183   1.154  -9.325  0.00  0.00     0.018 C 
ATOM      7  C   LIG d   1       3.934   0.762  -8.049  0.00  0.00    -0.022 C 
ATOM      8  H   LIG d   1       3.959   1.610  -7.365  0.00  0.00     0.032 H 
ATOM      9  C   LIG d   1       3.457  -0.009 -11.461  0.00  0.00     0.221 C 
ATOM     10  O   LIG d   1       3.862   1.026 -11.948  0.00  0.00    -0.275 OA
ATOM     11  H   LIG d   1       2.719  -2.459  -7.841  0.00  0.00     0.028 H 
ATOM     12  H   LIG d   1       4.235  -1.887  -8.578  0.00  0.00     0.028 H 
ATOM     13  H   LIG d   1       1.402  -1.066  -9.369  0.00  0.00     0.046 H 
ATOM     14  H   LIG d   1       2.527  -2.066 -10.324  0.00  0.00     0.046 H 
ATOM     15  H   LIG d   1       3.743   1.924  -9.857  0.00  0.00     0.047 H 
ATOM     16  H   LIG d   1       2.194   1.534  -9.065  0.00  0.00     0.047 H 
ENDROOT
BRANCH   1  17
ATOM     17  C   LIG d   1       3.944  -0.786  -6.087  0.00  0.00     0.027 C 
ATOM     18  H   LIG d   1       3.755  -1.834  -5.854  0.00  0.00     0.036 H 
ATOM     19  H   LIG d   1       5.015  -0.629  -6.215  0.00  0.00     0.036 H 
BRANCH  17  20
ATOM     20  C   LIG d   1       3.440   0.078  -4.960  0.00  0.00     0.213 C 
ATOM     21  N   LIG d   1       4.308   0.601  -4.070  0.00  0.00    -0.315 N 
ATOM     22  H   LIG d   1       5.258   0.421  -4.157  0.00  0.00     0.149 HD
ATOM     23  O   LIG d   1       2.253   0.303  -4.852  0.00  0.00    -0.276 OA
BRANCH  21  24
ATOM     24  C   LIG d   1       3.818   1.440  -2.975  0.00  0.00     0.011 C 
ATOM     25  H   LIG d   1       4.117   2.474  -3.148  0.00  0.00     0.046 H 
ATOM     26  H   LIG d   1       2.731   1.379  -2.929  0.00  0.00     0.046 H 
BRANCH  24  27
ATOM     27  C   LIG d   1       4.413   0.952  -1.653  0.00  0.00    -0.040 C 
ATOM     28  H   LIG d   1       5.411   1.371  -1.528  0.00  0.00     0.028 H 
ATOM     29  H   LIG d   1       3.777   1.274  -0.829  0.00  0.00     0.028 H 
BRANCH  27  30
ATOM     30  C   LIG d   1       4.498  -0.576  -1.665  0.00  0.00    -0.064 C 
ATOM     31  H   LIG d   1       4.784  -0.916  -2.659  0.00  0.00     0.023 H 
ATOM     32  H   LIG d   1       5.244  -0.903  -0.940  0.00  0.00     0.023 H 
ATOM     33  H   LIG d   1       3.527  -0.996  -1.401  0.00  0.00     0.023 H 
ENDBRANCH  27  30
ENDBRANCH  24  27
ENDBRANCH  21  24
ENDBRANCH  17  20
ENDBRANCH   1  17
BRANCH   7  34
ATOM     34  C   LIG d   1       5.364   0.350  -8.404  0.00  0.00    -0.051 C 
ATOM     35  H   LIG d   1       5.887   0.037  -7.501  0.00  0.00     0.027 H 
ATOM     36  H   LIG d   1       5.338  -0.478  -9.114  0.00  0.00     0.027 H 
BRANCH  34  37
ATOM     37  C   LIG d   1       6.095   1.538  -9.034  0.00  0.00    -0.065 C 
ATOM     38  H   LIG d   1       5.442   2.411  -9.028  0.00  0.00     0.023 H 
ATOM     39  H   LIG d   1       6.996   1.754  -8.460  0.00  0.00     0.023 H 
ATOM     40  H   LIG d   1       6.368   1.294 -10.060  0.00  0.00     0.023 H 
ENDBRANCH  34  37
ENDBRANCH   7  34
BRANCH   9  41
ATOM     41  C   LIG d   1       3.415  -1.267 -12.290  0.00  0.00     0.039 C 
BRANCH  41  42
ATOM     42  C   LIG d   1       1.980  -1.795 -12.344  0.00  0.00    -0.052 C 
ATOM     43  H   LIG d   1       1.525  -1.512 -13.294  0.00  0.00     0.024 H 
ATOM     44  H   LIG d   1       1.989  -2.882 -12.255  0.00  0.00     0.024 H 
ATOM     45  H   LIG d   1       1.405  -1.368 -11.524  0.00  0.00     0.024 H 
ENDBRANCH  41  42
BRANCH  41  46
ATOM     46  C   LIG d   1       3.900  -0.960 -13.708  0.00  0.00    -0.052 C 
ATOM     47  H   LIG d   1       4.919  -1.326 -13.831  0.00  0.00     0.024 H 
ATOM     48  H   LIG d   1       3.247  -1.450 -14.430  0.00  0.00     0.024 H 
ATOM     49  H   LIG d   1       3.881   0.118 -13.873  0.00  0.00     0.024 H 
ENDBRANCH  41  46
BRANCH  41  50
ATOM     50  C   LIG d   1       4.324  -2.324 -11.658  0.00  0.00    -0.052 C 
ATOM     51  H   LIG d   1       4.686  -1.963 -10.696  0.00  0.00     0.024 H 
ATOM     52  H   LIG d   1       3.762  -3.246 -11.512  0.00  0.00     0.024 H 
ATOM     53  H   LIG d   1       5.172  -2.515 -12.317  0.00  0.00     0.024 H 
ENDBRANCH  41  50
ENDBRANCH   9  41
TORSDOF 11
ENDMDL
MODEL 4
REMARK VINA RESULT:      -4.9      2.811      4.155
REMARK  11 active torsions:
REMARK  status: ('A' for Active; 'I' for Inactive)
REMARK    1  A    between atoms: C_1  and  C_2 
REMARK    2  A    between atoms: C_2  and  C_3 
REMARK    3  A    between atoms: C_3  and  N_4 
REMARK       I    between atoms: N_4  and  C_5 
REMARK    4  A    between atoms: C_5  and  C_7 
REMARK    5  A    between atoms: C_7  and  C_8 
REMARK       I    between atoms: N_12  and  C_18 
REMARK    6  A    between atoms: C_14  and  C_16 
REMARK    7  A    between atoms: C_16  and  C_17 
REMARK    8  A    between atoms: C_18  and  C_20 
REMARK    9  A    between atoms: C_20  and  C_21 
REMARK   10  A    between atoms: C_20  and  C_22 
REMARK   11  A    between atoms: C_20  and  C_23 
ROOT
ATOM      1  C   LIG d   1       5.237  -1.446  -5.776  0.00  0.00    -0.027 C 
ATOM      2  H   LIG d   1       5.643  -0.648  -5.154  0.00  0.00     0.031 H 
ATOM      3  C   LIG d   1       3.941  -0.970  -6.436  0.00  0.00    -0.034 C 
ATOM      4  C   LIG d   1       4.230   0.278  -7.279  0.00  0.00     0.015 C 
ATOM      5  N   LIG d   1       5.313  -0.031  -8.224  0.00  0.00    -0.301 N 
ATOM      6  C   LIG d   1       6.571  -0.580  -7.703  0.00  0.00     0.018 C 
ATOM      7  C   LIG d   1       6.256  -1.817  -6.856  0.00  0.00    -0.022 C 
ATOM      8  H   LIG d   1       7.170  -2.179  -6.385  0.00  0.00     0.032 H 
ATOM      9  C   LIG d   1       5.153   0.187  -9.544  0.00  0.00     0.221 C 
ATOM     10  O   LIG d   1       6.083   0.016 -10.304  0.00  0.00    -0.275 OA
ATOM     11  H   LIG d   1       3.208  -0.727  -5.667  0.00  0.00     0.028 H 
ATOM     12  H   LIG d   1       3.548  -1.758  -7.078  0.00  0.00     0.028 H 
ATOM     13  H   LIG d   1       4.537   1.095  -6.627  0.00  0.00     0.046 H 
ATOM     14  H   LIG d   1       3.334   0.563  -7.830  0.00  0.00     0.046 H 
ATOM     15  H   LIG d   1       7.219  -0.861  -8.533  0.00  0.00     0.047 H 
ATOM     16  H   LIG d   1       7.069   0.168  -7.085  0.00  0.00     0.047 H 
ENDROOT
BRANCH   1  17
ATOM     17  C   LIG d   1       4.946  -2.671  -4.907  0.00  0.00     0.027 C 
ATOM     18  H   LIG d   1       4.147  -3.256  -5.361  0.00  0.00     0.036 H 
ATOM     19  H   LIG d   1       5.845  -3.281  -4.827  0.00  0.00     0.036 H 
BRANCH  17  20
ATOM     20  C   LIG d   1       4.520  -2.222  -3.532  0.00  0.00     0.213 C 
ATOM     21  N   LIG d   1       4.922  -1.026  -3.058  0.00  0.00    -0.315 N 
ATOM     22  H   LIG d   1       5.486  -0.453  -3.602  0.00  0.00     0.149 HD
ATOM     23  O   LIG d   1       3.813  -2.937  -2.853  0.00  0.00    -0.276 OA
BRANCH  21  24
ATOM     24  C   LIG d   1       4.506  -0.590  -1.724  0.00  0.00     0.011 C 
ATOM     25  H   LIG d   1       3.504  -0.962  -1.515  0.00  0.00     0.046 H 
ATOM     26  H   LIG d   1       5.201  -0.981  -0.981  0.00  0.00     0.046 H 
BRANCH  24  27
ATOM     27  C   LIG d   1       4.505   0.939  -1.664  0.00  0.00    -0.040 C 
ATOM     28  H   LIG d   1       4.050   1.265  -0.728  0.00  0.00     0.028 H 
ATOM     29  H   LIG d   1       5.529   1.306  -1.718  0.00  0.00     0.028 H 
BRANCH  27  30
ATOM     30  C   LIG d   1       3.701   1.495  -2.842  0.00  0.00    -0.064 C 
ATOM     31  H   LIG d   1       4.379   1.753  -3.654  0.00  0.00     0.023 H 
ATOM     32  H   LIG d   1       2.992   0.740  -3.186  0.00  0.00     0.023 H 
ATOM     33  H   LIG d   1       3.157   2.385  -2.524  0.00  0.00     0.023 H 
ENDBRANCH  27  30
ENDBRANCH  24  27
ENDBRANCH  21  24
ENDBRANCH  17  20
ENDBRANCH   1  17
BRANCH   7  34
ATOM     34  C   LIG d   1       5.674  -2.914  -7.750  0.00  0.00    -0.051 C 
ATOM     35  H   LIG d   1       5.415  -3.780  -7.142  0.00  0.00     0.027 H 
ATOM     36  H   LIG d   1       4.780  -2.539  -8.249  0.00  0.00     0.027 H 
BRANCH  34  37
ATOM     37  C   LIG d   1       6.711  -3.319  -8.800  0.00  0.00    -0.065 C 
ATOM     38  H   LIG d   1       7.670  -3.496  -8.314  0.00  0.00     0.023 H 
ATOM     39  H   LIG d   1       6.383  -4.230  -9.301  0.00  0.00     0.023 H 
ATOM     40  H   LIG d   1       6.817  -2.520  -9.534  0.00  0.00     0.023 H 
ENDBRANCH  34  37
ENDBRANCH   7  34
BRANCH   9  41
ATOM     41  C   LIG d   1       3.819   0.643 -10.077  0.00  0.00     0.039 C 
BRANCH  41  42
ATOM     42  C   LIG d   1       3.496   2.032  -9.524  0.00  0.00    -0.052 C 
ATOM     43  H   LIG d   1       4.057   2.197  -8.603  0.00  0.00     0.024 H 
ATOM     44  H   LIG d   1       3.774   2.789 -10.258  0.00  0.00     0.024 H 
ATOM     45  H   LIG d   1       2.429   2.102  -9.316  0.00  0.00     0.024 H 
ENDBRANCH  41  42
BRANCH  41  46
ATOM     46  C   LIG d   1       3.873   0.702 -11.605  0.00  0.00    -0.052 C 
ATOM     47  H   LIG d   1       3.636   1.712 -11.938  0.00  0.00     0.024 H 
ATOM     48  H   LIG d   1       4.873   0.432 -11.944  0.00  0.00     0.024 H 
ATOM     49  H   LIG d   1       3.147   0.003 -12.021  0.00  0.00     0.024 H 
ENDBRANCH  41  46
BRANCH  41  50
ATOM     50  C   LIG d   1       2.732  -0.344  -9.643  0.00  0.00    -0.052 C 
ATOM     51  H   LIG d   1       1.755   0.043  -9.931  0.00  0.00     0.024 H 
ATOM     52  H   LIG d   1       2.900  -1.305 -10.129  0.00  0.00     0.024 H 
ATOM     53  H   LIG d   1       2.769  -0.472  -8.561  0.00  0.00     0.024 H 
ENDBRANCH  41  50
ENDBRANCH   9  41
TORSDOF 11
ENDMDL
MODEL 5
REMARK VINA RESULT:      -4.9      4.109      7.444
REMARK  11 active torsions:
REMARK  status: ('A' for Active; 'I' for Inactive)
REMARK    1  A    between atoms: C_1  and  C_2 
REMARK    2  A    between atoms: C_2  and  C_3 
REMARK    3  A    between atoms: C_3  and  N_4 
REMARK       I    between atoms: N_4  and  C_5 
REMARK    4  A    between atoms: C_5  and  C_7 
REMARK    5  A    between atoms: C_7  and  C_8 
REMARK       I    between atoms: N_12  and  C_18 
REMARK    6  A    between atoms: C_14  and  C_16 
REMARK    7  A    between atoms: C_16  and  C_17 
REMARK    8  A    between atoms: C_18  and  C_20 
REMARK    9  A    between atoms: C_20  and  C_21 
REMARK   10  A    between atoms: C_20  and  C_22 
REMARK   11  A    between atoms: C_20  and  C_23 
ROOT
ATOM      1  C   LIG d   1       5.706  -3.492  -6.071  0.00  0.00    -0.027 C 
ATOM      2  H   LIG d   1       6.612  -3.935  -5.657  0.00  0.00     0.031 H 
ATOM      3  C   LIG d   1       4.632  -3.416  -4.984  0.00  0.00    -0.034 C 
ATOM      4  C   LIG d   1       5.156  -2.580  -3.811  0.00  0.00     0.015 C 
ATOM      5  N   LIG d   1       5.593  -1.273  -4.321  0.00  0.00    -0.301 N 
ATOM      6  C   LIG d   1       6.556  -1.232  -5.429  0.00  0.00     0.018 C 
ATOM      7  C   LIG d   1       6.017  -2.084  -6.583  0.00  0.00    -0.022 C 
ATOM      8  H   LIG d   1       6.764  -2.140  -7.374  0.00  0.00     0.032 H 
ATOM      9  C   LIG d   1       5.118  -0.133  -3.782  0.00  0.00     0.221 C 
ATOM     10  O   LIG d   1       5.554   0.939  -4.148  0.00  0.00    -0.275 OA
ATOM     11  H   LIG d   1       4.395  -4.421  -4.635  0.00  0.00     0.028 H 
ATOM     12  H   LIG d   1       3.735  -2.951  -5.390  0.00  0.00     0.028 H 
ATOM     13  H   LIG d   1       6.000  -3.090  -3.346  0.00  0.00     0.046 H 
ATOM     14  H   LIG d   1       4.362  -2.439  -3.078  0.00  0.00     0.046 H 
ATOM     15  H   LIG d   1       6.685  -0.203  -5.764  0.00  0.00     0.047 H 
ATOM     16  H   LIG d   1       7.514  -1.633  -5.096  0.00  0.00     0.047 H 
ENDROOT
BRANCH   1  17
ATOM     17  C   LIG d   1       5.200  -4.355  -7.229  0.00  0.00     0.027 C 
ATOM     18  H   LIG d   1       4.395  -3.833  -7.746  0.00  0.00     0.036 H 
ATOM     19  H   LIG d   1       6.017  -4.544  -7.925  0.00  0.00     0.036 H 
BRANCH  17  20
ATOM     20  C   LIG d   1       4.684  -5.664  -6.690  0.00  0.00     0.213 C 
ATOM     21  N   LIG d   1       5.519  -6.508  -6.051  0.00  0.00    -0.315 N 
ATOM     22  H   LIG d   1       6.453  -6.271  -5.937  0.00  0.00     0.149 HD
ATOM     23  O   LIG d   1       3.515  -5.960  -6.832  0.00  0.00    -0.276 OA
BRANCH  21  24
ATOM     24  C   LIG d   1       5.016  -7.779  -5.528  0.00  0.00     0.011 C 
ATOM     25  H   LIG d   1       4.258  -7.586  -4.769  0.00  0.00     0.046 H 
ATOM     26  H   LIG d   1       4.578  -8.359  -6.340  0.00  0.00     0.046 H 
BRANCH  24  27
ATOM     27  C   LIG d   1       6.171  -8.567  -4.906  0.00  0.00    -0.040 C 
ATOM     28  H   LIG d   1       5.928  -8.812  -3.872  0.00  0.00     0.028 H 
ATOM     29  H   LIG d   1       6.330  -9.486  -5.470  0.00  0.00     0.028 H 
BRANCH  27  30
ATOM     30  C   LIG d   1       7.445  -7.719  -4.943  0.00  0.00    -0.064 C 
ATOM     31  H   LIG d   1       7.238  -6.734  -4.529  0.00  0.00     0.023 H 
ATOM     32  H   LIG d   1       8.222  -8.206  -4.352  0.00  0.00     0.023 H 
ATOM     33  H   LIG d   1       7.784  -7.617  -5.974  0.00  0.00     0.023 H 
ENDBRANCH  27  30
ENDBRANCH  24  27
ENDBRANCH  21  24
ENDBRANCH  17  20
ENDBRANCH   1  17
BRANCH   7  34
ATOM     34  C   LIG d   1       4.738  -1.448  -7.133  0.00  0.00    -0.051 C 
ATOM     35  H   LIG d   1       4.334  -2.073  -7.928  0.00  0.00     0.027 H 
ATOM     36  H   LIG d   1       4.004  -1.358  -6.333  0.00  0.00     0.027 H 
BRANCH  34  37
ATOM     37  C   LIG d   1       5.059  -0.058  -7.689  0.00  0.00    -0.065 C 
ATOM     38  H   LIG d   1       5.948   0.334  -7.197  0.00  0.00     0.023 H 
ATOM     39  H   LIG d   1       5.239  -0.130  -8.762  0.00  0.00     0.023 H 
ATOM     40  H   LIG d   1       4.217   0.609  -7.506  0.00  0.00     0.023 H 
ENDBRANCH  34  37
ENDBRANCH   7  34
BRANCH   9  41
ATOM     41  C   LIG d   1       4.046  -0.188  -2.724  0.00  0.00     0.039 C 
BRANCH  41  42
ATOM     42  C   LIG d   1       3.876   1.197  -2.097  0.00  0.00    -0.052 C 
ATOM     43  H   LIG d   1       4.809   1.495  -1.616  0.00  0.00     0.024 H 
ATOM     44  H   LIG d   1       3.621   1.919  -2.873  0.00  0.00     0.024 H 
ATOM     45  H   LIG d   1       3.079   1.165  -1.355  0.00  0.00     0.024 H 
ENDBRANCH  41  42
BRANCH  41  46
ATOM     46  C   LIG d   1       2.725  -0.626  -3.359  0.00  0.00    -0.052 C 
ATOM     47  H   LIG d   1       1.943  -0.639  -2.599  0.00  0.00     0.024 H 
ATOM     48  H   LIG d   1       2.453   0.072  -4.150  0.00  0.00     0.024 H 
ATOM     49  H   LIG d   1       2.838  -1.626  -3.779  0.00  0.00     0.024 H 
ENDBRANCH  41  46
BRANCH  41  50
ATOM     50  C   LIG d   1       4.449  -1.193  -1.642  0.00  0.00    -0.052 C 
ATOM     51  H   LIG d   1       4.189  -2.200  -1.966  0.00  0.00     0.024 H 
ATOM     52  H   LIG d   1       5.524  -1.132  -1.473  0.00  0.00     0.024 H 
ATOM     53  H   LIG d   1       3.922  -0.961  -0.716  0.00  0.00     0.024 H 
ENDBRANCH  41  50
ENDBRANCH   9  41
TORSDOF 11
ENDMDL
MODEL 6
REMARK VINA RESULT:      -4.8      1.757      2.133
REMARK  11 active torsions:
REMARK  status: ('A' for Active; 'I' for Inactive)
REMARK    1  A    between atoms: C_1  and  C_2 
REMARK    2  A    between atoms: C_2  and  C_3 
REMARK    3  A    between atoms: C_3  and  N_4 
REMARK       I    between atoms: N_4  and  C_5 
REMARK    4  A    between atoms: C_5  and  C_7 
REMARK    5  A    between atoms: C_7  and  C_8 
REMARK       I    between atoms: N_12  and  C_18 
REMARK    6  A    between atoms: C_14  and  C_16 
REMARK    7  A    between atoms: C_16  and  C_17 
REMARK    8  A    between atoms: C_18  and  C_20 
REMARK    9  A    between atoms: C_20  and  C_21 
REMARK   10  A    between atoms: C_20  and  C_22 
REMARK   11  A    between atoms: C_20  and  C_23 
ROOT
ATOM      1  C   LIG d   1       4.696  -0.774  -6.953  0.00  0.00    -0.027 C 
ATOM      2  H   LIG d   1       4.231  -1.285  -6.110  0.00  0.00     0.031 H 
ATOM      3  C   LIG d   1       4.909  -1.767  -8.097  0.00  0.00    -0.034 C 
ATOM      4  C   LIG d   1       3.559  -2.366  -8.506  0.00  0.00     0.015 C 
ATOM      5  N   LIG d   1       2.632  -1.269  -8.822  0.00  0.00    -0.301 N 
ATOM      6  C   LIG d   1       2.425  -0.210  -7.826  0.00  0.00     0.018 C 
ATOM      7  C   LIG d   1       3.787   0.363  -7.424  0.00  0.00    -0.022 C 
ATOM      8  H   LIG d   1       3.655   1.083  -6.616  0.00  0.00     0.032 H 
ATOM      9  C   LIG d   1       1.986  -1.237 -10.004  0.00  0.00     0.221 C 
ATOM     10  O   LIG d   1       1.155  -0.378 -10.218  0.00  0.00    -0.275 OA
ATOM     11  H   LIG d   1       5.575  -2.565  -7.768  0.00  0.00     0.028 H 
ATOM     12  H   LIG d   1       5.352  -1.252  -8.949  0.00  0.00     0.028 H 
ATOM     13  H   LIG d   1       3.157  -2.957  -7.684  0.00  0.00     0.046 H 
ATOM     14  H   LIG d   1       3.690  -2.998  -9.385  0.00  0.00     0.046 H 
ATOM     15  H   LIG d   1       1.808   0.579  -8.255  0.00  0.00     0.047 H 
ATOM     16  H   LIG d   1       1.930  -0.627  -6.948  0.00  0.00     0.047 H 
ENDROOT
BRANCH   1  17
ATOM     17  C   LIG d   1       6.046  -0.200  -6.518  0.00  0.00     0.027 C 
ATOM     18  H   LIG d   1       6.849  -0.751  -7.008  0.00  0.00     0.036 H 
ATOM     19  H   LIG d   1       6.102   0.851  -6.799  0.00  0.00     0.036 H 
BRANCH  17  20
ATOM     20  C   LIG d   1       6.190  -0.330  -5.023  0.00  0.00     0.213 C 
ATOM     21  N   LIG d   1       5.522   0.510  -4.207  0.00  0.00    -0.315 N 
ATOM     22  H   LIG d   1       4.949   1.197  -4.581  0.00  0.00     0.149 HD
ATOM     23  O   LIG d   1       6.905  -1.190  -4.555  0.00  0.00    -0.276 OA
BRANCH  21  24
ATOM     24  C   LIG d   1       5.661   0.383  -2.755  0.00  0.00     0.011 C 
ATOM     25  H   LIG d   1       6.421  -0.364  -2.526  0.00  0.00     0.046 H 
ATOM     26  H   LIG d   1       5.957   1.344  -2.333  0.00  0.00     0.046 H 
BRANCH  24  27
ATOM     27  C   LIG d   1       4.324  -0.049  -2.150  0.00  0.00    -0.040 C 
ATOM     28  H   LIG d   1       4.216   0.390  -1.158  0.00  0.00     0.028 H 
ATOM     29  H   LIG d   1       3.510   0.291  -2.789  0.00  0.00     0.028 H 
BRANCH  27  30
ATOM     30  C   LIG d   1       4.283  -1.575  -2.040  0.00  0.00    -0.064 C 
ATOM     31  H   LIG d   1       4.782  -2.015  -2.902  0.00  0.00     0.023 H 
ATOM     32  H   LIG d   1       4.792  -1.887  -1.127  0.00  0.00     0.023 H 
ATOM     33  H   LIG d   1       3.246  -1.909  -2.010  0.00  0.00     0.023 H 
ENDBRANCH  27  30
ENDBRANCH  24  27
ENDBRANCH  21  24
ENDBRANCH  17  20
ENDBRANCH   1  17
BRANCH   7  34
ATOM     34  C   LIG d   1       4.424   1.059  -8.629  0.00  0.00    -0.051 C 
ATOM     35  H   LIG d   1       5.432   1.381  -8.372  0.00  0.00     0.027 H 
ATOM     36  H   LIG d   1       4.467   0.365  -9.469  0.00  0.00     0.027 H 
BRANCH  34  37
ATOM     37  C   LIG d   1       3.582   2.277  -9.018  0.00  0.00    -0.065 C 
ATOM     38  H   LIG d   1       3.655   2.441 -10.092  0.00  0.00     0.023 H 
ATOM     39  H   LIG d   1       2.541   2.100  -8.746  0.00  0.00     0.023 H 
ATOM     40  H   LIG d   1       3.950   3.156  -8.490  0.00  0.00     0.023 H 
ENDBRANCH  34  37
ENDBRANCH   7  34
BRANCH   9  41
ATOM     41  C   LIG d   1       2.294  -2.266 -11.061  0.00  0.00     0.039 C 
BRANCH  41  42
ATOM     42  C   LIG d   1       3.754  -2.128 -11.497  0.00  0.00    -0.052 C 
ATOM     43  H   LIG d   1       3.814  -2.168 -12.585  0.00  0.00     0.024 H 
ATOM     44  H   LIG d   1       4.149  -1.174 -11.147  0.00  0.00     0.024 H 
ATOM     45  H   LIG d   1       4.340  -2.942 -11.071  0.00  0.00     0.024 H 
ENDBRANCH  41  42
BRANCH  41  46
ATOM     46  C   LIG d   1       2.062  -3.667 -10.492  0.00  0.00    -0.052 C 
ATOM     47  H   LIG d   1       1.558  -4.283 -11.237  0.00  0.00     0.024 H 
ATOM     48  H   LIG d   1       3.020  -4.118 -10.235  0.00  0.00     0.024 H 
ATOM     49  H   LIG d   1       1.441  -3.598  -9.599  0.00  0.00     0.024 H 
ENDBRANCH  41  46
BRANCH  41  50
ATOM     50  C   LIG d   1       1.378  -2.047 -12.268  0.00  0.00    -0.052 C 
ATOM     51  H   LIG d   1       1.597  -2.796 -13.030  0.00  0.00     0.024 H 
ATOM     52  H   LIG d   1       0.338  -2.139 -11.956  0.00  0.00     0.024 H 
ATOM     53  H   LIG d   1       1.549  -1.052 -12.677  0.00  0.00     0.024 H 
ENDBRANCH  41  50
ENDBRANCH   9  41
TORSDOF 11
ENDMDL
MODEL 7
REMARK VINA RESULT:      -4.8      2.556      3.568
REMARK  11 active torsions:
REMARK  status: ('A' for Active; 'I' for Inactive)
REMARK    1  A    between atoms: C_1  and  C_2 
REMARK    2  A    between atoms: C_2  and  C_3 
REMARK    3  A    between atoms: C_3  and  N_4 
REMARK       I    between atoms: N_4  and  C_5 
REMARK    4  A    between atoms: C_5  and  C_7 
REMARK    5  A    between atoms: C_7  and  C_8 
REMARK       I    between atoms: N_12  and  C_18 
REMARK    6  A    between atoms: C_14  and  C_16 
REMARK    7  A    between atoms: C_16  and  C_17 
REMARK    8  A    between atoms: C_18  and  C_20 
REMARK    9  A    between atoms: C_20  and  C_21 
REMARK   10  A    between atoms: C_20  and  C_22 
REMARK   11  A    between atoms: C_20  and  C_23 
ROOT
ATOM      1  C   LIG d   1       3.241  -0.227  -7.015  0.00  0.00    -0.027 C 
ATOM      2  H   LIG d   1       2.859  -1.243  -6.916  0.00  0.00     0.031 H 
ATOM      3  C   LIG d   1       4.729  -0.205  -6.657  0.00  0.00    -0.034 C 
ATOM      4  C   LIG d   1       5.488  -1.160  -7.584  0.00  0.00     0.015 C 
ATOM      5  N   LIG d   1       5.196  -0.798  -8.978  0.00  0.00    -0.301 N 
ATOM      6  C   LIG d   1       3.794  -0.701  -9.404  0.00  0.00     0.018 C 
ATOM      7  C   LIG d   1       3.054   0.249  -8.457  0.00  0.00    -0.022 C 
ATOM      8  H   LIG d   1       1.993   0.256  -8.703  0.00  0.00     0.032 H 
ATOM      9  C   LIG d   1       6.197  -0.558  -9.848  0.00  0.00     0.221 C 
ATOM     10  O   LIG d   1       5.947  -0.349 -11.017  0.00  0.00    -0.275 OA
ATOM     11  H   LIG d   1       4.860  -0.522  -5.622  0.00  0.00     0.028 H 
ATOM     12  H   LIG d   1       5.118   0.806  -6.779  0.00  0.00     0.028 H 
ATOM     13  H   LIG d   1       5.163  -2.184  -7.398  0.00  0.00     0.046 H 
ATOM     14  H   LIG d   1       6.559  -1.075  -7.400  0.00  0.00     0.046 H 
ATOM     15  H   LIG d   1       3.747  -0.312 -10.422  0.00  0.00     0.047 H 
ATOM     16  H   LIG d   1       3.332  -1.687  -9.367  0.00  0.00     0.047 H 
ENDROOT
BRANCH   1  17
ATOM     17  C   LIG d   1       2.475   0.700  -6.069  0.00  0.00     0.027 C 
ATOM     18  H   LIG d   1       2.725   1.736  -6.295  0.00  0.00     0.036 H 
ATOM     19  H   LIG d   1       1.404   0.547  -6.198  0.00  0.00     0.036 H 
BRANCH  17  20
ATOM     20  C   LIG d   1       2.859   0.392  -4.644  0.00  0.00     0.213 C 
ATOM     21  N   LIG d   1       2.598  -0.824  -4.123  0.00  0.00    -0.315 N 
ATOM     22  H   LIG d   1       2.164  -1.501  -4.666  0.00  0.00     0.149 HD
ATOM     23  O   LIG d   1       3.403   1.238  -3.965  0.00  0.00    -0.276 OA
BRANCH  21  24
ATOM     24  C   LIG d   1       2.972  -1.123  -2.739  0.00  0.00     0.011 C 
ATOM     25  H   LIG d   1       3.393  -0.232  -2.275  0.00  0.00     0.046 H 
ATOM     26  H   LIG d   1       2.088  -1.438  -2.185  0.00  0.00     0.046 H 
BRANCH  24  27
ATOM     27  C   LIG d   1       4.011  -2.246  -2.722  0.00  0.00    -0.040 C 
ATOM     28  H   LIG d   1       3.950  -2.782  -1.775  0.00  0.00     0.028 H 
ATOM     29  H   LIG d   1       3.814  -2.935  -3.544  0.00  0.00     0.028 H 
BRANCH  27  30
ATOM     30  C   LIG d   1       5.410  -1.648  -2.882  0.00  0.00    -0.064 C 
ATOM     31  H   LIG d   1       5.440  -1.025  -3.775  0.00  0.00     0.023 H 
ATOM     32  H   LIG d   1       5.648  -1.041  -2.007  0.00  0.00     0.023 H 
ATOM     33  H   LIG d   1       6.141  -2.452  -2.975  0.00  0.00     0.023 H 
ENDBRANCH  27  30
ENDBRANCH  24  27
ENDBRANCH  21  24
ENDBRANCH  17  20
ENDBRANCH   1  17
BRANCH   7  34
ATOM     34  C   LIG d   1       3.622   1.662  -8.605  0.00  0.00    -0.051 C 
ATOM     35  H   LIG d   1       3.045   2.352  -7.989  0.00  0.00     0.027 H 
ATOM     36  H   LIG d   1       4.664   1.671  -8.283  0.00  0.00     0.027 H 
BRANCH  34  37
ATOM     37  C   LIG d   1       3.539   2.094 -10.071  0.00  0.00    -0.065 C 
ATOM     38  H   LIG d   1       2.819   1.465 -10.595  0.00  0.00     0.023 H 
ATOM     39  H   LIG d   1       3.219   3.135 -10.125  0.00  0.00     0.023 H 
ATOM     40  H   LIG d   1       4.519   1.991 -10.536  0.00  0.00     0.023 H 
ENDBRANCH  34  37
ENDBRANCH   7  34
BRANCH   9  41
ATOM     41  C   LIG d   1       7.626  -0.549  -9.369  0.00  0.00     0.039 C 
BRANCH  41  42
ATOM     42  C   LIG d   1       8.563  -0.371 -10.566  0.00  0.00    -0.052 C 
ATOM     43  H   LIG d   1       8.317   0.556 -11.086  0.00  0.00     0.024 H 
ATOM     44  H   LIG d   1       9.595  -0.327 -10.216  0.00  0.00     0.024 H 
ATOM     45  H   LIG d   1       8.447  -1.212 -11.247  0.00  0.00     0.024 H 
ENDBRANCH  41  42
BRANCH  41  46
ATOM     46  C   LIG d   1       7.828   0.606  -8.387  0.00  0.00    -0.052 C 
ATOM     47  H   LIG d   1       8.860   0.609  -8.036  0.00  0.00     0.024 H 
ATOM     48  H   LIG d   1       7.610   1.550  -8.886  0.00  0.00     0.024 H 
ATOM     49  H   LIG d   1       7.157   0.481  -7.537  0.00  0.00     0.024 H 
ENDBRANCH  41  46
BRANCH  41  50
ATOM     50  C   LIG d   1       7.938  -1.874  -8.670  0.00  0.00    -0.052 C 
ATOM     51  H   LIG d   1       7.665  -1.802  -7.617  0.00  0.00     0.024 H 
ATOM     52  H   LIG d   1       7.367  -2.675  -9.139  0.00  0.00     0.024 H 
ATOM     53  H   LIG d   1       9.003  -2.088  -8.755  0.00  0.00     0.024 H 
ENDBRANCH  41  50
ENDBRANCH   9  41
TORSDOF 11
ENDMDL
MODEL 8
REMARK VINA RESULT:      -4.7      5.189      8.057
REMARK  11 active torsions:
REMARK  status: ('A' for Active; 'I' for Inactive)
REMARK    1  A    between atoms: C_1  and  C_2 
REMARK    2  A    between atoms: C_2  and  C_3 
REMARK    3  A    between atoms: C_3  and  N_4 
REMARK       I    between atoms: N_4  and  C_5 
REMARK    4  A    between atoms: C_5  and  C_7 
REMARK    5  A    between atoms: C_7  and  C_8 
REMARK       I    between atoms: N_12  and  C_18 
REMARK    6  A    between atoms: C_14  and  C_16 
REMARK    7  A    between atoms: C_16  and  C_17 
REMARK    8  A    between atoms: C_18  and  C_20 
REMARK    9  A    between atoms: C_20  and  C_21 
REMARK   10  A    between atoms: C_20  and  C_22 
REMARK   11  A    between atoms: C_20  and  C_23 
ROOT
ATOM      1  C   LIG d   1       8.267  -2.244  -4.615  0.00  0.00    -0.027 C 
ATOM      2  H   LIG d   1       8.914  -1.366  -4.619  0.00  0.00     0.031 H 
ATOM      3  C   LIG d   1       7.462  -2.277  -3.313  0.00  0.00    -0.034 C 
ATOM      4  C   LIG d   1       6.633  -0.993  -3.197  0.00  0.00     0.015 C 
ATOM      5  N   LIG d   1       5.816  -0.846  -4.410  0.00  0.00    -0.301 N 
ATOM      6  C   LIG d   1       6.480  -0.892  -5.719  0.00  0.00     0.018 C 
ATOM      7  C   LIG d   1       7.310  -2.176  -5.807  0.00  0.00    -0.022 C 
ATOM      8  H   LIG d   1       7.883  -2.176  -6.734  0.00  0.00     0.032 H 
ATOM      9  C   LIG d   1       4.483  -0.674  -4.321  0.00  0.00     0.221 C 
ATOM     10  O   LIG d   1       3.831  -0.462  -5.323  0.00  0.00    -0.275 OA
ATOM     11  H   LIG d   1       8.143  -2.348  -2.465  0.00  0.00     0.028 H 
ATOM     12  H   LIG d   1       6.797  -3.140  -3.319  0.00  0.00     0.028 H 
ATOM     13  H   LIG d   1       7.299  -0.136  -3.100  0.00  0.00     0.046 H 
ATOM     14  H   LIG d   1       5.983  -1.055  -2.324  0.00  0.00     0.046 H 
ATOM     15  H   LIG d   1       5.729  -0.887  -6.510  0.00  0.00     0.047 H 
ATOM     16  H   LIG d   1       7.134  -0.026  -5.828  0.00  0.00     0.047 H 
ENDROOT
BRANCH   1  17
ATOM     17  C   LIG d   1       9.122  -3.508  -4.718  0.00  0.00     0.027 C 
ATOM     18  H   LIG d   1       8.675  -4.299  -4.115  0.00  0.00     0.036 H 
ATOM     19  H   LIG d   1       9.173  -3.828  -5.758  0.00  0.00     0.036 H 
BRANCH  17  20
ATOM     20  C   LIG d   1      10.512  -3.218  -4.212  0.00  0.00     0.213 C 
ATOM     21  N   LIG d   1      11.132  -2.074  -4.564  0.00  0.00    -0.315 N 
ATOM     22  H   LIG d   1      10.684  -1.437  -5.142  0.00  0.00     0.149 HD
ATOM     23  O   LIG d   1      11.072  -4.013  -3.487  0.00  0.00    -0.276 OA
BRANCH  21  24
ATOM     24  C   LIG d   1      12.482  -1.791  -4.071  0.00  0.00     0.011 C 
ATOM     25  H   LIG d   1      12.584  -2.169  -3.054  0.00  0.00     0.046 H 
ATOM     26  H   LIG d   1      13.213  -2.280  -4.715  0.00  0.00     0.046 H 
BRANCH  24  27
ATOM     27  C   LIG d   1      12.723  -0.281  -4.082  0.00  0.00    -0.040 C 
ATOM     28  H   LIG d   1      12.826   0.077  -3.057  0.00  0.00     0.028 H 
ATOM     29  H   LIG d   1      13.635  -0.062  -4.637  0.00  0.00     0.028 H 
BRANCH  27  30
ATOM     30  C   LIG d   1      11.538   0.421  -4.750  0.00  0.00    -0.064 C 
ATOM     31  H   LIG d   1      10.689   0.426  -4.069  0.00  0.00     0.023 H 
ATOM     32  H   LIG d   1      11.815   1.447  -4.995  0.00  0.00     0.023 H 
ATOM     33  H   LIG d   1      11.269  -0.111  -5.663  0.00  0.00     0.023 H 
ENDBRANCH  27  30
ENDBRANCH  24  27
ENDBRANCH  21  24
ENDBRANCH  17  20
ENDBRANCH   1  17
BRANCH   7  34
ATOM     34  C   LIG d   1       6.379  -3.389  -5.782  0.00  0.00    -0.051 C 
ATOM     35  H   LIG d   1       6.970  -4.303  -5.839  0.00  0.00     0.027 H 
ATOM     36  H   LIG d   1       5.802  -3.386  -4.858  0.00  0.00     0.027 H 
BRANCH  34  37
ATOM     37  C   LIG d   1       5.425  -3.324  -6.978  0.00  0.00    -0.065 C 
ATOM     38  H   LIG d   1       5.882  -2.740  -7.776  0.00  0.00     0.023 H 
ATOM     39  H   LIG d   1       5.223  -4.334  -7.336  0.00  0.00     0.023 H 
ATOM     40  H   LIG d   1       4.491  -2.854  -6.672  0.00  0.00     0.023 H 
ENDBRANCH  34  37
ENDBRANCH   7  34
BRANCH   9  41
ATOM     41  C   LIG d   1       3.800  -0.744  -2.979  0.00  0.00     0.039 C 
BRANCH  41  42
ATOM     42  C   LIG d   1       4.007  -2.133  -2.373  0.00  0.00    -0.052 C 
ATOM     43  H   LIG d   1       3.756  -2.894  -3.114  0.00  0.00     0.024 H 
ATOM     44  H   LIG d   1       5.050  -2.248  -2.075  0.00  0.00     0.024 H 
ATOM     45  H   LIG d   1       3.365  -2.249  -1.501  0.00  0.00     0.024 H 
ENDBRANCH  41  42
BRANCH  41  46
ATOM     46  C   LIG d   1       4.397   0.313  -2.048  0.00  0.00    -0.052 C 
ATOM     47  H   LIG d   1       4.106   1.306  -2.391  0.00  0.00     0.024 H 
ATOM     48  H   LIG d   1       4.027   0.155  -1.035  0.00  0.00     0.024 H 
ATOM     49  H   LIG d   1       5.484   0.231  -2.055  0.00  0.00     0.024 H 
ENDBRANCH  41  46
BRANCH  41  50
ATOM     50  C   LIG d   1       2.303  -0.481  -3.155  0.00  0.00    -0.052 C 
ATOM     51  H   LIG d   1       1.959   0.196  -2.374  0.00  0.00     0.024 H 
ATOM     52  H   LIG d   1       2.125  -0.031  -4.131  0.00  0.00     0.024 H 
ATOM     53  H   LIG d   1       1.758  -1.423  -3.084  0.00  0.00     0.024 H 
ENDBRANCH  41  50
ENDBRANCH   9  41
TORSDOF 11
ENDMDL
MODEL 9
REMARK VINA RESULT:      -4.7      2.719      7.523
REMARK  11 active torsions:
REMARK  status: ('A' for Active; 'I' for Inactive)
REMARK    1  A    between atoms: C_1  and  C_2 
REMARK    2  A    between atoms: C_2  and  C_3 
REMARK    3  A    between atoms: C_3  and  N_4 
REMARK       I    between atoms: N_4  and  C_5 
REMARK    4  A    between atoms: C_5  and  C_7 
REMARK    5  A    between atoms: C_7  and  C_8 
REMARK       I    between atoms: N_12  and  C_18 
REMARK    6  A    between atoms: C_14  and  C_16 
REMARK    7  A    between atoms: C_16  and  C_17 
REMARK    8  A    between atoms: C_18  and  C_20 
REMARK    9  A    between atoms: C_20  and  C_21 
REMARK   10  A    between atoms: C_20  and  C_22 
REMARK   11  A    between atoms: C_20  and  C_23 
ROOT
ATOM      1  C   LIG d   1       4.686  -1.927  -7.115  0.00  0.00    -0.027 C 
ATOM      2  H   LIG d   1       3.657  -2.235  -7.299  0.00  0.00     0.031 H 
ATOM      3  C   LIG d   1       4.706  -0.472  -6.642  0.00  0.00    -0.034 C 
ATOM      4  C   LIG d   1       3.867  -0.342  -5.367  0.00  0.00     0.015 C 
ATOM      5  N   LIG d   1       4.361  -1.306  -4.375  0.00  0.00    -0.301 N 
ATOM      6  C   LIG d   1       4.469  -2.720  -4.756  0.00  0.00     0.018 C 
ATOM      7  C   LIG d   1       5.301  -2.824  -6.038  0.00  0.00    -0.022 C 
ATOM      8  H   LIG d   1       5.308  -3.857  -6.385  0.00  0.00     0.032 H 
ATOM      9  C   LIG d   1       4.710  -0.900  -3.138  0.00  0.00     0.221 C 
ATOM     10  O   LIG d   1       5.030  -1.716  -2.299  0.00  0.00    -0.275 OA
ATOM     11  H   LIG d   1       4.289   0.169  -7.419  0.00  0.00     0.028 H 
ATOM     12  H   LIG d   1       5.733  -0.171  -6.434  0.00  0.00     0.028 H 
ATOM     13  H   LIG d   1       2.822  -0.555  -5.594  0.00  0.00     0.046 H 
ATOM     14  H   LIG d   1       3.958   0.670  -4.971  0.00  0.00     0.046 H 
ATOM     15  H   LIG d   1       4.957  -3.279  -3.957  0.00  0.00     0.047 H 
ATOM     16  H   LIG d   1       3.473  -3.128  -4.933  0.00  0.00     0.047 H 
ENDROOT
BRANCH   1  17
ATOM     17  C   LIG d   1       5.495  -2.055  -8.407  0.00  0.00     0.027 C 
ATOM     18  H   LIG d   1       6.489  -1.633  -8.257  0.00  0.00     0.036 H 
ATOM     19  H   LIG d   1       5.583  -3.107  -8.678  0.00  0.00     0.036 H 
BRANCH  17  20
ATOM     20  C   LIG d   1       4.796  -1.307  -9.514  0.00  0.00     0.213 C 
ATOM     21  N   LIG d   1       5.280  -0.122  -9.937  0.00  0.00    -0.315 N 
ATOM     22  H   LIG d   1       6.078   0.249  -9.529  0.00  0.00     0.149 HD
ATOM     23  O   LIG d   1       3.798  -1.772 -10.024  0.00  0.00    -0.276 OA
BRANCH  21  24
ATOM     24  C   LIG d   1       4.601   0.603 -11.012  0.00  0.00     0.011 C 
ATOM     25  H   LIG d   1       5.343   1.064 -11.665  0.00  0.00     0.046 H 
ATOM     26  H   LIG d   1       3.990  -0.090 -11.590  0.00  0.00     0.046 H 
BRANCH  24  27
ATOM     27  C   LIG d   1       3.708   1.690 -10.410  0.00  0.00    -0.040 C 
ATOM     28  H   LIG d   1       3.419   2.395 -11.190  0.00  0.00     0.028 H 
ATOM     29  H   LIG d   1       2.816   1.232  -9.984  0.00  0.00     0.028 H 
BRANCH  27  30
ATOM     30  C   LIG d   1       4.476   2.431  -9.313  0.00  0.00    -0.064 C 
ATOM     31  H   LIG d   1       3.771   2.938  -8.656  0.00  0.00     0.023 H 
ATOM     32  H   LIG d   1       5.064   1.717  -8.735  0.00  0.00     0.023 H 
ATOM     33  H   LIG d   1       5.142   3.165  -9.768  0.00  0.00     0.023 H 
ENDBRANCH  27  30
ENDBRANCH  24  27
ENDBRANCH  21  24
ENDBRANCH  17  20
ENDBRANCH   1  17
BRANCH   7  34
ATOM     34  C   LIG d   1       6.734  -2.370  -5.754  0.00  0.00    -0.051 C 
ATOM     35  H   LIG d   1       7.329  -2.456  -6.663  0.00  0.00     0.027 H 
ATOM     36  H   LIG d   1       6.728  -1.333  -5.420  0.00  0.00     0.027 H 
BRANCH  34  37
ATOM     37  C   LIG d   1       7.342  -3.254  -4.662  0.00  0.00    -0.065 C 
ATOM     38  H   LIG d   1       7.058  -2.868  -3.683  0.00  0.00     0.023 H 
ATOM     39  H   LIG d   1       6.971  -4.273  -4.772  0.00  0.00     0.023 H 
ATOM     40  H   LIG d   1       8.427  -3.251  -4.754  0.00  0.00     0.023 H 
ENDBRANCH  34  37
ENDBRANCH   7  34
BRANCH   9  41
ATOM     41  C   LIG d   1       4.704   0.568  -2.797  0.00  0.00     0.039 C 
BRANCH  41  42
ATOM     42  C   LIG d   1       4.679   0.738  -1.277  0.00  0.00    -0.052 C 
ATOM     43  H   LIG d   1       3.673   0.537  -0.905  0.00  0.00     0.024 H 
ATOM     44  H   LIG d   1       5.381   0.040  -0.821  0.00  0.00     0.024 H 
ATOM     45  H   LIG d   1       4.964   1.758  -1.020  0.00  0.00     0.024 H 
ENDBRANCH  41  42
BRANCH  41  46
ATOM     46  C   LIG d   1       5.962   1.229  -3.364  0.00  0.00    -0.052 C 
ATOM     47  H   LIG d   1       6.821   0.582  -3.192  0.00  0.00     0.024 H 
ATOM     48  H   LIG d   1       5.836   1.392  -4.434  0.00  0.00     0.024 H 
ATOM     49  H   LIG d   1       6.124   2.186  -2.867  0.00  0.00     0.024 H 
ENDBRANCH  41  46
BRANCH  41  50
ATOM     50  C   LIG d   1       3.463   1.228  -3.405  0.00  0.00    -0.052 C 
ATOM     51  H   LIG d   1       3.768   2.060  -4.038  0.00  0.00     0.024 H 
ATOM     52  H   LIG d   1       2.919   0.497  -4.002  0.00  0.00     0.024 H 
ATOM     53  H   LIG d   1       2.820   1.596  -2.606  0.00  0.00     0.024 H 
ENDBRANCH  41  50
ENDBRANCH   9  41
TORSDOF 11
ENDMDL
MODEL 10
REMARK VINA RESULT:      -4.7      1.986      2.377
REMARK  11 active torsions:
REMARK  status: ('A' for Active; 'I' for Inactive)
REMARK    1  A    between atoms: C_1  and  C_2 
REMARK    2  A    between atoms: C_2  and  C_3 
REMARK    3  A    between atoms: C_3  and  N_4 
REMARK       I    between atoms: N_4  and  C_5 
REMARK    4  A    between atoms: C_5  and  C_7 
REMARK    5  A    between atoms: C_7  and  C_8 
REMARK       I    between atoms: N_12  and  C_18 
REMARK    6  A    between atoms: C_14  and  C_16 
REMARK    7  A    between atoms: C_16  and  C_17 
REMARK    8  A    between atoms: C_18  and  C_20 
REMARK    9  A    between atoms: C_20  and  C_21 
REMARK   10  A    between atoms: C_20  and  C_22 
REMARK   11  A    between atoms: C_20  and  C_23 
ROOT
ATOM      1  C   LIG d   1       4.157  -1.243  -7.078  0.00  0.00    -0.027 C 
ATOM      2  H   LIG d   1       3.260  -0.865  -6.587  0.00  0.00     0.031 H 
ATOM      3  C   LIG d   1       3.759  -2.236  -8.172  0.00  0.00    -0.034 C 
ATOM      4  C   LIG d   1       2.843  -1.536  -9.183  0.00  0.00     0.015 C 
ATOM      5  N   LIG d   1       3.521  -0.330  -9.678  0.00  0.00    -0.301 N 
ATOM      6  C   LIG d   1       4.026   0.647  -8.706  0.00  0.00     0.018 C 
ATOM      7  C   LIG d   1       4.927  -0.077  -7.700  0.00  0.00    -0.022 C 
ATOM      8  H   LIG d   1       5.231   0.618  -6.918  0.00  0.00     0.032 H 
ATOM      9  C   LIG d   1       3.677  -0.126 -11.001  0.00  0.00     0.221 C 
ATOM     10  O   LIG d   1       4.156   0.915 -11.402  0.00  0.00    -0.275 OA
ATOM     11  H   LIG d   1       3.230  -3.078  -7.726  0.00  0.00     0.028 H 
ATOM     12  H   LIG d   1       4.653  -2.596  -8.680  0.00  0.00     0.028 H 
ATOM     13  H   LIG d   1       1.909  -1.256  -8.696  0.00  0.00     0.046 H 
ATOM     14  H   LIG d   1       2.637  -2.208 -10.016  0.00  0.00     0.046 H 
ATOM     15  H   LIG d   1       4.600   1.416  -9.223  0.00  0.00     0.047 H 
ATOM     16  H   LIG d   1       3.188   1.106  -8.180  0.00  0.00     0.047 H 
ENDROOT
BRANCH   1  17
ATOM     17  C   LIG d   1       5.043  -1.948  -6.048  0.00  0.00     0.027 C 
ATOM     18  H   LIG d   1       5.101  -3.010  -6.286  0.00  0.00     0.036 H 
ATOM     19  H   LIG d   1       6.042  -1.514  -6.072  0.00  0.00     0.036 H 
BRANCH  17  20
ATOM     20  C   LIG d   1       4.451  -1.773  -4.673  0.00  0.00     0.213 C 
ATOM     21  N   LIG d   1       3.448  -0.895  -4.477  0.00  0.00    -0.315 N 
ATOM     22  H   LIG d   1       3.106  -0.375  -5.221  0.00  0.00     0.149 HD
ATOM     23  O   LIG d   1       4.878  -2.424  -3.742  0.00  0.00    -0.276 OA
BRANCH  21  24
ATOM     24  C   LIG d   1       2.873  -0.726  -3.141  0.00  0.00     0.011 C 
ATOM     25  H   LIG d   1       1.788  -0.809  -3.199  0.00  0.00     0.046 H 
ATOM     26  H   LIG d   1       3.262  -1.499  -2.478  0.00  0.00     0.046 H 
BRANCH  24  27
ATOM     27  C   LIG d   1       3.250   0.652  -2.594  0.00  0.00    -0.040 C 
ATOM     28  H   LIG d   1       3.404   1.342  -3.423  0.00  0.00     0.028 H 
ATOM     29  H   LIG d   1       2.447   1.022  -1.957  0.00  0.00     0.028 H 
BRANCH  27  30
ATOM     30  C   LIG d   1       4.539   0.542  -1.776  0.00  0.00    -0.064 C 
ATOM     31  H   LIG d   1       4.641  -0.473  -1.394  0.00  0.00     0.023 H 
ATOM     32  H   LIG d   1       5.393   0.779  -2.412  0.00  0.00     0.023 H 
ATOM     33  H   LIG d   1       4.502   1.243  -0.942  0.00  0.00     0.023 H 
ENDBRANCH  27  30
ENDBRANCH  24  27
ENDBRANCH  21  24
ENDBRANCH  17  20
ENDBRANCH   1  17
BRANCH   7  34
ATOM     34  C   LIG d   1       6.168  -0.611  -8.419  0.00  0.00    -0.051 C 
ATOM     35  H   LIG d   1       6.805  -1.132  -7.706  0.00  0.00     0.027 H 
ATOM     36  H   LIG d   1       5.863  -1.301  -9.207  0.00  0.00     0.027 H 
BRANCH  34  37
ATOM     37  C   LIG d   1       6.941   0.557  -9.037  0.00  0.00    -0.065 C 
ATOM     38  H   LIG d   1       6.680   0.649 -10.091  0.00  0.00     0.023 H 
ATOM     39  H   LIG d   1       6.683   1.479  -8.516  0.00  0.00     0.023 H 
ATOM     40  H   LIG d   1       8.011   0.374  -8.942  0.00  0.00     0.023 H 
ENDBRANCH  34  37
ENDBRANCH   7  34
BRANCH   9  41
ATOM     41  C   LIG d   1       3.257  -1.190 -11.983  0.00  0.00     0.039 C 
BRANCH  41  42
ATOM     42  C   LIG d   1       3.922  -2.517 -11.613  0.00  0.00    -0.052 C 
ATOM     43  H   LIG d   1       3.253  -3.341 -11.862  0.00  0.00     0.024 H 
ATOM     44  H   LIG d   1       4.854  -2.625 -12.169  0.00  0.00     0.024 H 
ATOM     45  H   LIG d   1       4.134  -2.532 -10.544  0.00  0.00     0.024 H 
ENDBRANCH  41  42
BRANCH  41  46
ATOM     46  C   LIG d   1       1.737  -1.352 -11.942  0.00  0.00    -0.052 C 
ATOM     47  H   LIG d   1       1.297  -0.880 -12.820  0.00  0.00     0.024 H 
ATOM     48  H   LIG d   1       1.484  -2.412 -11.932  0.00  0.00     0.024 H 
ATOM     49  H   LIG d   1       1.345  -0.877 -11.042  0.00  0.00     0.024 H 
ENDBRANCH  41  46
BRANCH  41  50
ATOM     50  C   LIG d   1       3.688  -0.780 -13.394  0.00  0.00    -0.052 C 
ATOM     51  H   LIG d   1       4.399  -1.508 -13.782  0.00  0.00     0.024 H 
ATOM     52  H   LIG d   1       2.814  -0.743 -14.044  0.00  0.00     0.024 H 
ATOM     53  H   LIG d   1       4.157   0.203 -13.359  0.00  0.00     0.024 H 
ENDBRANCH  41  50
ENDBRANCH   9  41
TORSDOF 11
ENDMDL
