MODEL 1
REMARK VINA RESULT:      -7.6      0.000      0.000
REMARK  9 active torsions:
REMARK  status: ('A' for Active; 'I' for Inactive)
REMARK    1  A    between atoms: C_1  and  C_2 
REMARK    2  A    between atoms: C_2  and  O_3 
REMARK    3  A    between atoms: O_3  and  C_4 
REMARK    4  A    between atoms: C_4  and  C_6 
REMARK    5  A    between atoms: C_7  and  N_18 
REMARK    6  A    between atoms: C_10  and  O_16 
REMARK    7  A    between atoms: O_16  and  C_17 
REMARK       I    between atoms: N_18  and  C_19 
REMARK    8  A    between atoms: C_19  and  C_21 
REMARK    9  A    between atoms: C_21  and  N_62 
ROOT
ATOM      1  N   LIG d   1       2.605   0.844  -7.784  0.00  0.00    -0.279 N 
ATOM      2  C   LIG d   1       3.138   0.224  -6.713  0.00  0.00     0.262 C 
ATOM      3  O   LIG d   1       4.073  -0.535  -6.856  0.00  0.00    -0.270 OA
ATOM      4  H   LIG d   1       1.895   1.495  -7.664  0.00  0.00     0.155 HD
ENDROOT
BRANCH   2   5
ATOM      5  C   LIG d   1       2.573   0.474  -5.339  0.00  0.00     0.046 C 
ATOM      6  H   LIG d   1       1.667  -0.119  -5.205  0.00  0.00     0.091 H 
ATOM      7  H   LIG d   1       2.335   1.532  -5.231  0.00  0.00     0.091 H 
BRANCH   5   8
ATOM      8  N   LIG d   1       3.574   0.062  -4.330  0.00  0.00     0.242 N 
ATOM      9  C   LIG d   1       3.136  -1.163  -3.658  0.00  0.00    -0.027 C 
ATOM     10  C   LIG d   1       4.170  -1.631  -2.644  0.00  0.00     0.018 C 
ATOM     11  H   LIG d   1       2.998  -1.937  -4.412  0.00  0.00     0.082 H 
ATOM     12  H   LIG d   1       2.189  -0.986  -3.149  0.00  0.00     0.082 H 
ATOM     13  H   LIG d   1       3.762  -2.489  -2.110  0.00  0.00     0.037 H 
ATOM     14  C   LIG d   1       5.467  -2.054  -3.314  0.00  0.00     0.034 C 
ATOM     15  C   LIG d   1       4.459  -0.522  -1.628  0.00  0.00    -0.031 C 
ATOM     16  N   LIG d   1       6.258  -0.909  -3.765  0.00  0.00    -0.311 N 
ATOM     17  H   LIG d   1       6.058  -2.633  -2.604  0.00  0.00     0.050 H 
ATOM     18  H   LIG d   1       5.232  -2.681  -4.173  0.00  0.00     0.050 H 
ATOM     19  C   LIG d   1       6.091   0.345  -3.285  0.00  0.00     0.030 A 
ATOM     20  C   LIG d   1       7.209  -1.149  -4.702  0.00  0.00     0.252 A 
ATOM     21  C   LIG d   1       4.914   0.716  -2.410  0.00  0.00     0.040 C 
ATOM     22  C   LIG d   1       6.957   1.336  -3.620  0.00  0.00    -0.042 A 
ATOM     23  H   LIG d   1       5.181   1.527  -1.734  0.00  0.00     0.042 H 
ATOM     24  C   LIG d   1       3.763   1.141  -3.337  0.00  0.00    -0.023 C 
ATOM     25  H   LIG d   1       2.856   1.295  -2.753  0.00  0.00     0.082 H 
ATOM     26  H   LIG d   1       4.029   2.064  -3.853  0.00  0.00     0.082 H 
ATOM     27  C   LIG d   1       7.994   1.096  -4.529  0.00  0.00    -0.055 A 
ATOM     28  H   LIG d   1       6.843   2.318  -3.184  0.00  0.00     0.064 H 
ATOM     29  C   LIG d   1       8.111  -0.147  -5.080  0.00  0.00     0.003 A 
ATOM     30  H   LIG d   1       8.689   1.880  -4.788  0.00  0.00     0.062 H 
ATOM     31  H   LIG d   1       8.890  -0.354  -5.798  0.00  0.00     0.067 H 
ATOM     32  O   LIG d   1       7.279  -2.251  -5.222  0.00  0.00    -0.268 OA
ATOM     33  H   LIG d   1       3.555  -0.292  -1.065  0.00  0.00     0.028 H 
ATOM     34  H   LIG d   1       5.248  -0.841  -0.948  0.00  0.00     0.028 H 
ATOM     35  H   LIG d   1       4.469  -0.117  -4.802  0.00  0.00     0.204 HD
ENDBRANCH   5   8
ENDBRANCH   2   5
BRANCH   1  36
ATOM     36  C   LIG d   1       3.071   0.551  -9.062  0.00  0.00     0.073 A 
ATOM     37  C   LIG d   1       4.043   1.236  -9.761  0.00  0.00     0.147 A 
ATOM     38  N   LIG d   1       4.220   0.630 -10.997  0.00  0.00    -0.347 N 
ATOM     39  C   LIG d   1       3.370  -0.448 -11.115  0.00  0.00     0.049 A 
ATOM     40  H   LIG d   1       4.847   0.922 -11.676  0.00  0.00     0.166 HD
ATOM     41  C   LIG d   1       2.629  -0.548  -9.924  0.00  0.00     0.025 A 
ATOM     42  C   LIG d   1       3.156  -1.373 -12.134  0.00  0.00    -0.034 A 
ATOM     43  C   LIG d   1       1.676  -1.561  -9.776  0.00  0.00    -0.009 A 
ATOM     44  C   LIG d   1       1.480  -2.467 -10.799  0.00  0.00     0.121 A 
ATOM     45  H   LIG d   1       1.101  -1.638  -8.866  0.00  0.00     0.066 H 
ATOM     46  C   LIG d   1       2.221  -2.370 -11.975  0.00  0.00    -0.018 A 
ATOM     47  H   LIG d   1       2.058  -3.083 -12.769  0.00  0.00     0.066 H 
ATOM     48  H   LIG d   1       3.724  -1.308 -13.051  0.00  0.00     0.064 H 
BRANCH  37  49
ATOM     49  C   LIG d   1       4.748   2.373  -9.293  0.00  0.00     0.357 C 
ATOM     50  O   LIG d   1       4.138   3.332  -8.860  0.00  0.00    -0.243 OA
BRANCH  49  51
ATOM     51  O   LIG d   1       6.098   2.393  -9.328  0.00  0.00    -0.460 OA
BRANCH  51  52
ATOM     52  C   LIG d   1       6.782   1.552  -8.398  0.00  0.00     0.090 C 
ATOM     53  H   LIG d   1       6.227   1.519  -7.460  0.00  0.00     0.070 H 
ATOM     54  H   LIG d   1       6.864   0.545  -8.808  0.00  0.00     0.070 H 
BRANCH  52  55
ATOM     55  C   LIG d   1       8.183   2.111  -8.140  0.00  0.00    -0.031 C 
ATOM     56  H   LIG d   1       8.842   1.306  -7.815  0.00  0.00     0.026 H 
ATOM     57  H   LIG d   1       8.574   2.552  -9.058  0.00  0.00     0.026 H 
ATOM     58  H   LIG d   1       8.132   2.876  -7.364  0.00  0.00     0.026 H 
ENDBRANCH  52  55
ENDBRANCH  51  52
ENDBRANCH  49  51
ENDBRANCH  37  49
BRANCH  44  59
ATOM     59  O   LIG d   1       0.560  -3.459 -10.658  0.00  0.00    -0.495 OA
BRANCH  59  60
ATOM     60  C   LIG d   1       0.254  -4.229 -11.821  0.00  0.00     0.079 C 
ATOM     61  H   LIG d   1       0.931  -5.082 -11.881  0.00  0.00     0.066 H 
ATOM     62  H   LIG d   1      -0.774  -4.585 -11.762  0.00  0.00     0.066 H 
ATOM     63  H   LIG d   1       0.373  -3.608 -12.710  0.00  0.00     0.066 H 
ENDBRANCH  59  60
ENDBRANCH  44  59
ENDBRANCH   1  36
TORSDOF 9
ENDMDL
MODEL 2
REMARK VINA RESULT:      -7.6      2.396      2.663
REMARK  9 active torsions:
REMARK  status: ('A' for Active; 'I' for Inactive)
REMARK    1  A    between atoms: C_1  and  C_2 
REMARK    2  A    between atoms: C_2  and  O_3 
REMARK    3  A    between atoms: O_3  and  C_4 
REMARK    4  A    between atoms: C_4  and  C_6 
REMARK    5  A    between atoms: C_7  and  N_18 
REMARK    6  A    between atoms: C_10  and  O_16 
REMARK    7  A    between atoms: O_16  and  C_17 
REMARK       I    between atoms: N_18  and  C_19 
REMARK    8  A    between atoms: C_19  and  C_21 
REMARK    9  A    between atoms: C_21  and  N_62 
ROOT
ATOM      1  N   LIG d   1       4.342  -0.674  -6.614  0.00  0.00    -0.279 N 
ATOM      2  C   LIG d   1       3.115  -0.117  -6.570  0.00  0.00     0.262 C 
ATOM      3  O   LIG d   1       2.398  -0.153  -7.547  0.00  0.00    -0.270 OA
ATOM      4  H   LIG d   1       4.893  -0.697  -5.815  0.00  0.00     0.155 HD
ENDROOT
BRANCH   2   5
ATOM      5  C   LIG d   1       2.635   0.549  -5.306  0.00  0.00     0.046 C 
ATOM      6  H   LIG d   1       1.660   0.144  -5.030  0.00  0.00     0.091 H 
ATOM      7  H   LIG d   1       2.548   1.622  -5.472  0.00  0.00     0.091 H 
BRANCH   5   8
ATOM      8  N   LIG d   1       3.602   0.268  -4.222  0.00  0.00     0.242 N 
ATOM      9  C   LIG d   1       3.087  -0.792  -3.352  0.00  0.00    -0.027 C 
ATOM     10  C   LIG d   1       4.083  -1.129  -2.253  0.00  0.00     0.018 C 
ATOM     11  H   LIG d   1       2.910  -1.679  -3.960  0.00  0.00     0.082 H 
ATOM     12  H   LIG d   1       2.147  -0.475  -2.900  0.00  0.00     0.082 H 
ATOM     13  H   LIG d   1       3.622  -1.855  -1.582  0.00  0.00     0.037 H 
ATOM     14  C   LIG d   1       5.359  -1.736  -2.812  0.00  0.00     0.034 C 
ATOM     15  C   LIG d   1       4.427   0.125  -1.443  0.00  0.00    -0.031 C 
ATOM     16  N   LIG d   1       6.219  -0.736  -3.444  0.00  0.00    -0.311 N 
ATOM     17  H   LIG d   1       5.909  -2.212  -2.000  0.00  0.00     0.050 H 
ATOM     18  H   LIG d   1       5.095  -2.492  -3.551  0.00  0.00     0.050 H 
ATOM     19  C   LIG d   1       6.121   0.592  -3.197  0.00  0.00     0.030 A 
ATOM     20  C   LIG d   1       7.162  -1.191  -4.306  0.00  0.00     0.252 A 
ATOM     21  C   LIG d   1       4.960   1.176  -2.423  0.00  0.00     0.040 C 
ATOM     22  C   LIG d   1       7.046   1.457  -3.686  0.00  0.00    -0.042 A 
ATOM     23  H   LIG d   1       5.269   2.079  -1.896  0.00  0.00     0.042 H 
ATOM     24  C   LIG d   1       3.845   1.494  -3.433  0.00  0.00    -0.023 C 
ATOM     25  H   LIG d   1       2.943   1.800  -2.902  0.00  0.00     0.082 H 
ATOM     26  H   LIG d   1       4.168   2.294  -4.099  0.00  0.00     0.082 H 
ATOM     27  C   LIG d   1       8.075   1.002  -4.518  0.00  0.00    -0.055 A 
ATOM     28  H   LIG d   1       6.986   2.505  -3.433  0.00  0.00     0.064 H 
ATOM     29  C   LIG d   1       8.125  -0.324  -4.839  0.00  0.00     0.003 A 
ATOM     30  H   LIG d   1       8.817   1.687  -4.899  0.00  0.00     0.062 H 
ATOM     31  H   LIG d   1       8.896  -0.698  -5.494  0.00  0.00     0.067 H 
ATOM     32  O   LIG d   1       7.172  -2.370  -4.621  0.00  0.00    -0.268 OA
ATOM     33  H   LIG d   1       3.533   0.502  -0.947  0.00  0.00     0.028 H 
ATOM     34  H   LIG d   1       5.191  -0.112  -0.703  0.00  0.00     0.028 H 
ATOM     35  H   LIG d   1       4.488  -0.042  -4.638  0.00  0.00     0.204 HD
ENDBRANCH   5   8
ENDBRANCH   2   5
BRANCH   1  36
ATOM     36  C   LIG d   1       4.818  -1.215  -7.804  0.00  0.00     0.073 A 
ATOM     37  C   LIG d   1       5.519  -0.551  -8.789  0.00  0.00     0.147 A 
ATOM     38  N   LIG d   1       5.810  -1.442  -9.812  0.00  0.00    -0.347 N 
ATOM     39  C   LIG d   1       5.306  -2.687  -9.506  0.00  0.00     0.049 A 
ATOM     40  H   LIG d   1       6.296  -1.222 -10.622  0.00  0.00     0.166 HD
ATOM     41  C   LIG d   1       4.677  -2.604  -8.251  0.00  0.00     0.025 A 
ATOM     42  C   LIG d   1       5.326  -3.905 -10.182  0.00  0.00    -0.034 A 
ATOM     43  C   LIG d   1       4.067  -3.734  -7.698  0.00  0.00    -0.009 A 
ATOM     44  C   LIG d   1       4.098  -4.931  -8.385  0.00  0.00     0.121 A 
ATOM     45  H   LIG d   1       3.578  -3.673  -6.737  0.00  0.00     0.066 H 
ATOM     46  C   LIG d   1       4.727  -5.012  -9.625  0.00  0.00    -0.018 A 
ATOM     47  H   LIG d   1       4.745  -5.953 -10.154  0.00  0.00     0.066 H 
ATOM     48  H   LIG d   1       5.810  -3.981 -11.144  0.00  0.00     0.064 H 
BRANCH  37  49
ATOM     49  C   LIG d   1       5.883   0.818  -8.761  0.00  0.00     0.357 C 
ATOM     50  O   LIG d   1       6.458   1.276  -7.791  0.00  0.00    -0.243 OA
BRANCH  49  51
ATOM     51  O   LIG d   1       5.590   1.616  -9.810  0.00  0.00    -0.460 OA
BRANCH  51  52
ATOM     52  C   LIG d   1       4.209   1.759 -10.150  0.00  0.00     0.090 C 
ATOM     53  H   LIG d   1       4.123   2.173 -11.155  0.00  0.00     0.070 H 
ATOM     54  H   LIG d   1       3.723   0.785 -10.114  0.00  0.00     0.070 H 
BRANCH  52  55
ATOM     55  C   LIG d   1       3.533   2.702  -9.152  0.00  0.00    -0.031 C 
ATOM     56  H   LIG d   1       2.591   3.058  -9.568  0.00  0.00     0.026 H 
ATOM     57  H   LIG d   1       3.341   2.169  -8.220  0.00  0.00     0.026 H 
ATOM     58  H   LIG d   1       4.187   3.553  -8.955  0.00  0.00     0.026 H 
ENDBRANCH  52  55
ENDBRANCH  51  52
ENDBRANCH  49  51
ENDBRANCH  37  49
BRANCH  44  59
ATOM     59  O   LIG d   1       3.512  -6.035  -7.849  0.00  0.00    -0.495 OA
BRANCH  59  60
ATOM     60  C   LIG d   1       4.375  -7.109  -7.473  0.00  0.00     0.079 C 
ATOM     61  H   LIG d   1       4.183  -7.970  -8.114  0.00  0.00     0.066 H 
ATOM     62  H   LIG d   1       5.413  -6.798  -7.585  0.00  0.00     0.066 H 
ATOM     63  H   LIG d   1       4.187  -7.380  -6.434  0.00  0.00     0.066 H 
ENDBRANCH  59  60
ENDBRANCH  44  59
ENDBRANCH   1  36
TORSDOF 9
ENDMDL
MODEL 3
REMARK VINA RESULT:      -7.1      2.433      6.440
REMARK  9 active torsions:
REMARK  status: ('A' for Active; 'I' for Inactive)
REMARK    1  A    between atoms: C_1  and  C_2 
REMARK    2  A    between atoms: C_2  and  O_3 
REMARK    3  A    between atoms: O_3  and  C_4 
REMARK    4  A    between atoms: C_4  and  C_6 
REMARK    5  A    between atoms: C_7  and  N_18 
REMARK    6  A    between atoms: C_10  and  O_16 
REMARK    7  A    between atoms: O_16  and  C_17 
REMARK       I    between atoms: N_18  and  C_19 
REMARK    8  A    between atoms: C_19  and  C_21 
REMARK    9  A    between atoms: C_21  and  N_62 
ROOT
ATOM      1  N   LIG d   1       5.171  -0.152  -5.723  0.00  0.00    -0.279 N 
ATOM      2  C   LIG d   1       3.868  -0.373  -5.461  0.00  0.00     0.262 C 
ATOM      3  O   LIG d   1       3.548  -1.106  -4.549  0.00  0.00    -0.270 OA
ATOM      4  H   LIG d   1       5.427   0.478  -6.415  0.00  0.00     0.155 HD
ENDROOT
BRANCH   2   5
ATOM      5  C   LIG d   1       2.807   0.290  -6.303  0.00  0.00     0.046 C 
ATOM      6  H   LIG d   1       2.516   1.235  -5.842  0.00  0.00     0.091 H 
ATOM      7  H   LIG d   1       1.938  -0.363  -6.372  0.00  0.00     0.091 H 
BRANCH   5   8
ATOM      8  N   LIG d   1       3.364   0.557  -7.647  0.00  0.00     0.242 N 
ATOM      9  C   LIG d   1       2.884   1.849  -8.142  0.00  0.00    -0.027 C 
ATOM     10  C   LIG d   1       3.476   2.167  -9.507  0.00  0.00     0.018 C 
ATOM     11  H   LIG d   1       3.183   2.621  -7.433  0.00  0.00     0.082 H 
ATOM     12  H   LIG d   1       1.797   1.835  -8.217  0.00  0.00     0.082 H 
ATOM     13  H   LIG d   1       3.024   3.090  -9.871  0.00  0.00     0.037 H 
ATOM     14  C   LIG d   1       4.981   2.365  -9.437  0.00  0.00     0.034 C 
ATOM     15  C   LIG d   1       3.155   1.047 -10.500  0.00  0.00    -0.031 C 
ATOM     16  N   LIG d   1       5.702   1.101  -9.290  0.00  0.00    -0.311 N 
ATOM     17  H   LIG d   1       5.315   2.857 -10.351  0.00  0.00     0.050 H 
ATOM     18  H   LIG d   1       5.214   3.005  -8.586  0.00  0.00     0.050 H 
ATOM     19  C   LIG d   1       5.165  -0.101  -9.603  0.00  0.00     0.030 A 
ATOM     20  C   LIG d   1       6.975   1.169  -8.828  0.00  0.00     0.252 A 
ATOM     21  C   LIG d   1       3.693  -0.263  -9.911  0.00  0.00     0.040 C 
ATOM     22  C   LIG d   1       5.930  -1.224  -9.599  0.00  0.00    -0.042 A 
ATOM     23  H   LIG d   1       3.536  -1.093 -10.599  0.00  0.00     0.042 H 
ATOM     24  C   LIG d   1       2.967  -0.519  -8.580  0.00  0.00    -0.023 C 
ATOM     25  H   LIG d   1       1.889  -0.515  -8.742  0.00  0.00     0.082 H 
ATOM     26  H   LIG d   1       3.274  -1.482  -8.173  0.00  0.00     0.082 H 
ATOM     27  C   LIG d   1       7.270  -1.169  -9.198  0.00  0.00    -0.055 A 
ATOM     28  H   LIG d   1       5.500  -2.166  -9.906  0.00  0.00     0.064 H 
ATOM     29  C   LIG d   1       7.789   0.028  -8.799  0.00  0.00     0.003 A 
ATOM     30  H   LIG d   1       7.881  -2.058  -9.205  0.00  0.00     0.062 H 
ATOM     31  H   LIG d   1       8.814   0.095  -8.466  0.00  0.00     0.067 H 
ATOM     32  O   LIG d   1       7.418   2.235  -8.432  0.00  0.00    -0.268 OA
ATOM     33  H   LIG d   1       2.077   0.974 -10.640  0.00  0.00     0.028 H 
ATOM     34  H   LIG d   1       3.640   1.249 -11.455  0.00  0.00     0.028 H 
ATOM     35  H   LIG d   1       4.388   0.583  -7.584  0.00  0.00     0.204 HD
ENDBRANCH   5   8
ENDBRANCH   2   5
BRANCH   1  36
ATOM     36  C   LIG d   1       6.150  -0.828  -5.001  0.00  0.00     0.073 A 
ATOM     37  C   LIG d   1       6.955  -0.301  -4.012  0.00  0.00     0.147 A 
ATOM     38  N   LIG d   1       7.799  -1.296  -3.541  0.00  0.00    -0.347 N 
ATOM     39  C   LIG d   1       7.554  -2.474  -4.213  0.00  0.00     0.049 A 
ATOM     40  H   LIG d   1       8.463  -1.181  -2.843  0.00  0.00     0.166 HD
ATOM     41  C   LIG d   1       6.521  -2.238  -5.138  0.00  0.00     0.025 A 
ATOM     42  C   LIG d   1       8.114  -3.746  -4.121  0.00  0.00    -0.034 A 
ATOM     43  C   LIG d   1       6.075  -3.273  -5.966  0.00  0.00    -0.009 A 
ATOM     44  C   LIG d   1       6.644  -4.526  -5.860  0.00  0.00     0.121 A 
ATOM     45  H   LIG d   1       5.286  -3.095  -6.682  0.00  0.00     0.066 H 
ATOM     46  C   LIG d   1       7.662  -4.758  -4.937  0.00  0.00    -0.018 A 
ATOM     47  H   LIG d   1       8.101  -5.742  -4.863  0.00  0.00     0.066 H 
ATOM     48  H   LIG d   1       8.904  -3.939  -3.411  0.00  0.00     0.064 H 
BRANCH  37  49
ATOM     49  C   LIG d   1       6.925   1.040  -3.552  0.00  0.00     0.357 C 
ATOM     50  O   LIG d   1       7.961   1.667  -3.437  0.00  0.00    -0.243 OA
BRANCH  49  51
ATOM     51  O   LIG d   1       5.747   1.620  -3.241  0.00  0.00    -0.460 OA
BRANCH  51  52
ATOM     52  C   LIG d   1       5.002   1.040  -2.169  0.00  0.00     0.090 C 
ATOM     53  H   LIG d   1       5.105  -0.045  -2.200  0.00  0.00     0.070 H 
ATOM     54  H   LIG d   1       5.380   1.414  -1.218  0.00  0.00     0.070 H 
BRANCH  52  55
ATOM     55  C   LIG d   1       3.525   1.415  -2.312  0.00  0.00    -0.031 C 
ATOM     56  H   LIG d   1       2.905   0.567  -2.021  0.00  0.00     0.026 H 
ATOM     57  H   LIG d   1       3.302   2.266  -1.669  0.00  0.00     0.026 H 
ATOM     58  H   LIG d   1       3.316   1.678  -3.350  0.00  0.00     0.026 H 
ENDBRANCH  52  55
ENDBRANCH  51  52
ENDBRANCH  49  51
ENDBRANCH  37  49
BRANCH  44  59
ATOM     59  O   LIG d   1       6.209  -5.537  -6.658  0.00  0.00    -0.495 OA
BRANCH  59  60
ATOM     60  C   LIG d   1       5.137  -5.241  -7.554  0.00  0.00     0.079 C 
ATOM     61  H   LIG d   1       5.315  -5.735  -8.510  0.00  0.00     0.066 H 
ATOM     62  H   LIG d   1       4.199  -5.598  -7.129  0.00  0.00     0.066 H 
ATOM     63  H   LIG d   1       5.079  -4.162  -7.707  0.00  0.00     0.066 H 
ENDBRANCH  59  60
ENDBRANCH  44  59
ENDBRANCH   1  36
TORSDOF 9
ENDMDL
MODEL 4
REMARK VINA RESULT:      -7.0      1.616      4.519
REMARK  9 active torsions:
REMARK  status: ('A' for Active; 'I' for Inactive)
REMARK    1  A    between atoms: C_1  and  C_2 
REMARK    2  A    between atoms: C_2  and  O_3 
REMARK    3  A    between atoms: O_3  and  C_4 
REMARK    4  A    between atoms: C_4  and  C_6 
REMARK    5  A    between atoms: C_7  and  N_18 
REMARK    6  A    between atoms: C_10  and  O_16 
REMARK    7  A    between atoms: O_16  and  C_17 
REMARK       I    between atoms: N_18  and  C_19 
REMARK    8  A    between atoms: C_19  and  C_21 
REMARK    9  A    between atoms: C_21  and  N_62 
ROOT
ATOM      1  N   LIG d   1       4.220  -0.728  -6.735  0.00  0.00    -0.279 N 
ATOM      2  C   LIG d   1       3.236   0.184  -6.611  0.00  0.00     0.262 C 
ATOM      3  O   LIG d   1       2.879   0.827  -7.576  0.00  0.00    -0.270 OA
ATOM      4  H   LIG d   1       4.466  -1.283  -5.978  0.00  0.00     0.155 HD
ENDROOT
BRANCH   2   5
ATOM      5  C   LIG d   1       2.577   0.404  -5.273  0.00  0.00     0.046 C 
ATOM      6  H   LIG d   1       1.725  -0.269  -5.173  0.00  0.00     0.091 H 
ATOM      7  H   LIG d   1       2.235   1.436  -5.203  0.00  0.00     0.091 H 
BRANCH   5   8
ATOM      8  N   LIG d   1       3.557   0.108  -4.205  0.00  0.00     0.242 N 
ATOM      9  C   LIG d   1       3.080  -1.002  -3.379  0.00  0.00    -0.027 C 
ATOM     10  C   LIG d   1       4.091  -1.353  -2.297  0.00  0.00     0.018 C 
ATOM     11  H   LIG d   1       2.927  -1.868  -4.021  0.00  0.00     0.082 H 
ATOM     12  H   LIG d   1       2.133  -0.733  -2.910  0.00  0.00     0.082 H 
ATOM     13  H   LIG d   1       3.655  -2.120  -1.656  0.00  0.00     0.037 H 
ATOM     14  C   LIG d   1       5.382  -1.897  -2.886  0.00  0.00     0.034 C 
ATOM     15  C   LIG d   1       4.400  -0.124  -1.438  0.00  0.00    -0.031 C 
ATOM     16  N   LIG d   1       6.208  -0.845  -3.479  0.00  0.00    -0.311 N 
ATOM     17  H   LIG d   1       5.950  -2.388  -2.097  0.00  0.00     0.050 H 
ATOM     18  H   LIG d   1       5.138  -2.629  -3.655  0.00  0.00     0.050 H 
ATOM     19  C   LIG d   1       6.070   0.467  -3.176  0.00  0.00     0.030 A 
ATOM     20  C   LIG d   1       7.160  -1.235  -4.362  0.00  0.00     0.252 A 
ATOM     21  C   LIG d   1       4.896   0.983  -2.375  0.00  0.00     0.040 C 
ATOM     22  C   LIG d   1       6.966   1.381  -3.633  0.00  0.00    -0.042 A 
ATOM     23  H   LIG d   1       5.179   1.873  -1.812  0.00  0.00     0.042 H 
ATOM     24  C   LIG d   1       3.766   1.308  -3.366  0.00  0.00    -0.023 C 
ATOM     25  H   LIG d   1       2.858   1.563  -2.820  0.00  0.00     0.082 H 
ATOM     26  H   LIG d   1       4.061   2.145  -4.000  0.00  0.00     0.082 H 
ATOM     27  C   LIG d   1       8.005   0.992  -4.486  0.00  0.00    -0.055 A 
ATOM     28  H   LIG d   1       6.875   2.415  -3.335  0.00  0.00     0.064 H 
ATOM     29  C   LIG d   1       8.093  -0.317  -4.862  0.00  0.00     0.003 A 
ATOM     30  H   LIG d   1       8.723   1.715  -4.841  0.00  0.00     0.062 H 
ATOM     31  H   LIG d   1       8.873  -0.640  -5.535  0.00  0.00     0.067 H 
ATOM     32  O   LIG d   1       7.205  -2.399  -4.726  0.00  0.00    -0.268 OA
ATOM     33  H   LIG d   1       3.497   0.204  -0.923  0.00  0.00     0.028 H 
ATOM     34  H   LIG d   1       5.174  -0.367  -0.711  0.00  0.00     0.028 H 
ATOM     35  H   LIG d   1       4.450  -0.157  -4.637  0.00  0.00     0.204 HD
ENDBRANCH   5   8
ENDBRANCH   2   5
BRANCH   1  36
ATOM     36  C   LIG d   1       4.885  -0.873  -7.949  0.00  0.00     0.073 A 
ATOM     37  C   LIG d   1       4.612  -1.803  -8.932  0.00  0.00     0.147 A 
ATOM     38  N   LIG d   1       5.498  -1.619  -9.983  0.00  0.00    -0.347 N 
ATOM     39  C   LIG d   1       6.351  -0.576  -9.699  0.00  0.00     0.049 A 
ATOM     40  H   LIG d   1       5.514  -2.146 -10.797  0.00  0.00     0.166 HD
ATOM     41  C   LIG d   1       6.007  -0.065  -8.434  0.00  0.00     0.025 A 
ATOM     42  C   LIG d   1       7.402   0.003 -10.408  0.00  0.00    -0.034 A 
ATOM     43  C   LIG d   1       6.726   1.004  -7.893  0.00  0.00    -0.009 A 
ATOM     44  C   LIG d   1       7.763   1.563  -8.611  0.00  0.00     0.121 A 
ATOM     45  H   LIG d   1       6.468   1.395  -6.920  0.00  0.00     0.066 H 
ATOM     46  C   LIG d   1       8.098   1.060  -9.867  0.00  0.00    -0.018 A 
ATOM     47  H   LIG d   1       8.912   1.504 -10.420  0.00  0.00     0.066 H 
ATOM     48  H   LIG d   1       7.671  -0.377 -11.381  0.00  0.00     0.064 H 
BRANCH  37  49
ATOM     49  C   LIG d   1       3.591  -2.785  -8.876  0.00  0.00     0.357 C 
ATOM     50  O   LIG d   1       3.608  -3.631  -8.003  0.00  0.00    -0.243 OA
BRANCH  49  51
ATOM     51  O   LIG d   1       2.600  -2.781  -9.793  0.00  0.00    -0.460 OA
BRANCH  51  52
ATOM     52  C   LIG d   1       1.744  -1.638  -9.818  0.00  0.00     0.090 C 
ATOM     53  H   LIG d   1       0.721  -1.944  -9.600  0.00  0.00     0.070 H 
ATOM     54  H   LIG d   1       2.076  -0.918  -9.070  0.00  0.00     0.070 H 
BRANCH  52  55
ATOM     55  C   LIG d   1       1.797  -0.991 -11.204  0.00  0.00    -0.031 C 
ATOM     56  H   LIG d   1       2.663  -1.369 -11.749  0.00  0.00     0.026 H 
ATOM     57  H   LIG d   1       0.887  -1.234 -11.754  0.00  0.00     0.026 H 
ATOM     58  H   LIG d   1       1.879   0.091 -11.097  0.00  0.00     0.026 H 
ENDBRANCH  52  55
ENDBRANCH  51  52
ENDBRANCH  49  51
ENDBRANCH  37  49
BRANCH  44  59
ATOM     59  O   LIG d   1       8.461   2.608  -8.092  0.00  0.00    -0.495 OA
BRANCH  59  60
ATOM     60  C   LIG d   1       8.825   3.656  -8.992  0.00  0.00     0.079 C 
ATOM     61  H   LIG d   1       8.844   3.268 -10.011  0.00  0.00     0.066 H 
ATOM     62  H   LIG d   1       8.098   4.463  -8.924  0.00  0.00     0.066 H 
ATOM     63  H   LIG d   1       9.814   4.034  -8.728  0.00  0.00     0.066 H 
ENDBRANCH  59  60
ENDBRANCH  44  59
ENDBRANCH   1  36
TORSDOF 9
ENDMDL
MODEL 5
REMARK VINA RESULT:      -6.7      2.842      7.890
REMARK  9 active torsions:
REMARK  status: ('A' for Active; 'I' for Inactive)
REMARK    1  A    between atoms: C_1  and  C_2 
REMARK    2  A    between atoms: C_2  and  O_3 
REMARK    3  A    between atoms: O_3  and  C_4 
REMARK    4  A    between atoms: C_4  and  C_6 
REMARK    5  A    between atoms: C_7  and  N_18 
REMARK    6  A    between atoms: C_10  and  O_16 
REMARK    7  A    between atoms: O_16  and  C_17 
REMARK       I    between atoms: N_18  and  C_19 
REMARK    8  A    between atoms: C_19  and  C_21 
REMARK    9  A    between atoms: C_21  and  N_62 
ROOT
ATOM      1  N   LIG d   1       5.317  -2.121  -7.475  0.00  0.00    -0.279 N 
ATOM      2  C   LIG d   1       6.541  -2.431  -7.947  0.00  0.00     0.262 C 
ATOM      3  O   LIG d   1       7.332  -3.018  -7.241  0.00  0.00    -0.270 OA
ATOM      4  H   LIG d   1       4.664  -1.702  -8.058  0.00  0.00     0.155 HD
ENDROOT
BRANCH   2   5
ATOM      5  C   LIG d   1       6.925  -2.046  -9.353  0.00  0.00     0.046 C 
ATOM      6  H   LIG d   1       7.308  -2.923  -9.877  0.00  0.00     0.091 H 
ATOM      7  H   LIG d   1       7.697  -1.277  -9.321  0.00  0.00     0.091 H 
BRANCH   5   8
ATOM      8  N   LIG d   1       5.723  -1.547 -10.056  0.00  0.00     0.242 N 
ATOM      9  C   LIG d   1       4.944  -2.670 -10.578  0.00  0.00    -0.027 C 
ATOM     10  C   LIG d   1       3.679  -2.184 -11.270  0.00  0.00     0.018 C 
ATOM     11  H   LIG d   1       4.670  -3.316  -9.744  0.00  0.00     0.082 H 
ATOM     12  H   LIG d   1       5.544  -3.239 -11.288  0.00  0.00     0.082 H 
ATOM     13  H   LIG d   1       3.180  -3.044 -11.717  0.00  0.00     0.037 H 
ATOM     14  C   LIG d   1       2.718  -1.526 -10.295  0.00  0.00     0.034 C 
ATOM     15  C   LIG d   1       4.029  -1.195 -12.386  0.00  0.00    -0.031 C 
ATOM     16  N   LIG d   1       3.156  -0.187  -9.901  0.00  0.00    -0.311 N 
ATOM     17  H   LIG d   1       1.736  -1.452 -10.762  0.00  0.00     0.050 H 
ATOM     18  H   LIG d   1       2.640  -2.147  -9.403  0.00  0.00     0.050 H 
ATOM     19  C   LIG d   1       4.045   0.544 -10.615  0.00  0.00     0.030 A 
ATOM     20  C   LIG d   1       2.619   0.328  -8.768  0.00  0.00     0.252 A 
ATOM     21  C   LIG d   1       4.836  -0.054 -11.757  0.00  0.00     0.040 C 
ATOM     22  C   LIG d   1       4.294   1.839 -10.292  0.00  0.00    -0.042 A 
ATOM     23  H   LIG d   1       5.075   0.709 -12.497  0.00  0.00     0.042 H 
ATOM     24  C   LIG d   1       6.123  -0.653 -11.164  0.00  0.00    -0.023 C 
ATOM     25  H   LIG d   1       6.662  -1.204 -11.934  0.00  0.00     0.082 H 
ATOM     26  H   LIG d   1       6.754   0.146 -10.774  0.00  0.00     0.082 H 
ATOM     27  C   LIG d   1       3.694   2.420  -9.169  0.00  0.00    -0.055 A 
ATOM     28  H   LIG d   1       4.961   2.426 -10.906  0.00  0.00     0.064 H 
ATOM     29  C   LIG d   1       2.865   1.658  -8.398  0.00  0.00     0.003 A 
ATOM     30  H   LIG d   1       3.883   3.452  -8.917  0.00  0.00     0.062 H 
ATOM     31  H   LIG d   1       2.404   2.074  -7.515  0.00  0.00     0.067 H 
ATOM     32  O   LIG d   1       1.914  -0.374  -8.060  0.00  0.00    -0.268 OA
ATOM     33  H   LIG d   1       4.627  -1.694 -13.149  0.00  0.00     0.028 H 
ATOM     34  H   LIG d   1       3.116  -0.801 -12.831  0.00  0.00     0.028 H 
ATOM     35  H   LIG d   1       5.145  -1.018  -9.393  0.00  0.00     0.204 HD
ENDBRANCH   5   8
ENDBRANCH   2   5
BRANCH   1  36
ATOM     36  C   LIG d   1       4.990  -2.401  -6.152  0.00  0.00     0.073 A 
ATOM     37  C   LIG d   1       4.395  -3.552  -5.676  0.00  0.00     0.147 A 
ATOM     38  N   LIG d   1       4.238  -3.442  -4.302  0.00  0.00    -0.347 N 
ATOM     39  C   LIG d   1       4.725  -2.227  -3.871  0.00  0.00     0.049 A 
ATOM     40  H   LIG d   1       3.843  -4.118  -3.730  0.00  0.00     0.166 HD
ATOM     41  C   LIG d   1       5.217  -1.535  -4.992  0.00  0.00     0.025 A 
ATOM     42  C   LIG d   1       4.805  -1.636  -2.612  0.00  0.00    -0.034 A 
ATOM     43  C   LIG d   1       5.766  -0.258  -4.840  0.00  0.00    -0.009 A 
ATOM     44  C   LIG d   1       5.836   0.309  -3.584  0.00  0.00     0.121 A 
ATOM     45  H   LIG d   1       6.140   0.279  -5.698  0.00  0.00     0.066 H 
ATOM     46  C   LIG d   1       5.354  -0.382  -2.474  0.00  0.00    -0.018 A 
ATOM     47  H   LIG d   1       5.412   0.072  -1.495  0.00  0.00     0.066 H 
ATOM     48  H   LIG d   1       4.435  -2.161  -1.744  0.00  0.00     0.064 H 
BRANCH  37  49
ATOM     49  C   LIG d   1       4.008  -4.665  -6.463  0.00  0.00     0.357 C 
ATOM     50  O   LIG d   1       3.739  -4.515  -7.640  0.00  0.00    -0.243 OA
BRANCH  49  51
ATOM     51  O   LIG d   1       3.938  -5.893  -5.906  0.00  0.00    -0.460 OA
BRANCH  51  52
ATOM     52  C   LIG d   1       5.167  -6.603  -5.743  0.00  0.00     0.090 C 
ATOM     53  H   LIG d   1       5.734  -6.567  -6.674  0.00  0.00     0.070 H 
ATOM     54  H   LIG d   1       5.749  -6.143  -4.945  0.00  0.00     0.070 H 
BRANCH  52  55
ATOM     55  C   LIG d   1       4.871  -8.060  -5.383  0.00  0.00    -0.031 C 
ATOM     56  H   LIG d   1       4.225  -8.499  -6.144  0.00  0.00     0.026 H 
ATOM     57  H   LIG d   1       5.805  -8.620  -5.333  0.00  0.00     0.026 H 
ATOM     58  H   LIG d   1       4.371  -8.101  -4.415  0.00  0.00     0.026 H 
ENDBRANCH  52  55
ENDBRANCH  51  52
ENDBRANCH  49  51
ENDBRANCH  37  49
BRANCH  44  59
ATOM     59  O   LIG d   1       6.376   1.548  -3.429  0.00  0.00    -0.495 OA
BRANCH  59  60
ATOM     60  C   LIG d   1       7.738   1.715  -3.825  0.00  0.00     0.079 C 
ATOM     61  H   LIG d   1       8.393   1.293  -3.062  0.00  0.00     0.066 H 
ATOM     62  H   LIG d   1       7.906   1.204  -4.772  0.00  0.00     0.066 H 
ATOM     63  H   LIG d   1       7.954   2.778  -3.942  0.00  0.00     0.066 H 
ENDBRANCH  59  60
ENDBRANCH  44  59
ENDBRANCH   1  36
TORSDOF 9
ENDMDL
MODEL 6
REMARK VINA RESULT:      -6.6      2.805      5.640
REMARK  9 active torsions:
REMARK  status: ('A' for Active; 'I' for Inactive)
REMARK    1  A    between atoms: C_1  and  C_2 
REMARK    2  A    between atoms: C_2  and  O_3 
REMARK    3  A    between atoms: O_3  and  C_4 
REMARK    4  A    between atoms: C_4  and  C_6 
REMARK    5  A    between atoms: C_7  and  N_18 
REMARK    6  A    between atoms: C_10  and  O_16 
REMARK    7  A    between atoms: O_16  and  C_17 
REMARK       I    between atoms: N_18  and  C_19 
REMARK    8  A    between atoms: C_19  and  C_21 
REMARK    9  A    between atoms: C_21  and  N_62 
ROOT
ATOM      1  N   LIG d   1       7.356   0.596  -5.996  0.00  0.00    -0.279 N 
ATOM      2  C   LIG d   1       8.035   1.236  -5.024  0.00  0.00     0.262 C 
ATOM      3  O   LIG d   1       9.192   1.555  -5.201  0.00  0.00    -0.270 OA
ATOM      4  H   LIG d   1       6.415   0.393  -5.878  0.00  0.00     0.155 HD
ENDROOT
BRANCH   2   5
ATOM      5  C   LIG d   1       7.357   1.556  -3.717  0.00  0.00     0.046 C 
ATOM      6  H   LIG d   1       7.100   2.616  -3.691  0.00  0.00     0.091 H 
ATOM      7  H   LIG d   1       8.031   1.325  -2.892  0.00  0.00     0.091 H 
BRANCH   5   8
ATOM      8  N   LIG d   1       6.118   0.754  -3.614  0.00  0.00     0.242 N 
ATOM      9  C   LIG d   1       5.160   1.420  -2.730  0.00  0.00    -0.027 C 
ATOM     10  C   LIG d   1       3.860   0.635  -2.641  0.00  0.00     0.018 C 
ATOM     11  H   LIG d   1       4.953   2.412  -3.133  0.00  0.00     0.082 H 
ATOM     12  H   LIG d   1       5.586   1.522  -1.732  0.00  0.00     0.082 H 
ATOM     13  H   LIG d   1       3.215   1.121  -1.907  0.00  0.00     0.037 H 
ATOM     14  C   LIG d   1       3.129   0.600  -3.972  0.00  0.00     0.034 C 
ATOM     15  C   LIG d   1       4.133  -0.796  -2.171  0.00  0.00    -0.031 C 
ATOM     16  N   LIG d   1       3.753  -0.319  -4.925  0.00  0.00    -0.311 N 
ATOM     17  H   LIG d   1       2.099   0.285  -3.802  0.00  0.00     0.050 H 
ATOM     18  H   LIG d   1       3.125   1.602  -4.400  0.00  0.00     0.050 H 
ATOM     19  C   LIG d   1       4.590  -1.316  -4.555  0.00  0.00     0.030 A 
ATOM     20  C   LIG d   1       3.448  -0.147  -6.235  0.00  0.00     0.252 A 
ATOM     21  C   LIG d   1       5.136  -1.420  -3.148  0.00  0.00     0.040 C 
ATOM     22  C   LIG d   1       5.014  -2.236  -5.460  0.00  0.00    -0.042 A 
ATOM     23  H   LIG d   1       5.335  -2.461  -2.892  0.00  0.00     0.042 H 
ATOM     24  C   LIG d   1       6.432  -0.594  -3.092  0.00  0.00    -0.023 C 
ATOM     25  H   LIG d   1       6.790  -0.539  -2.064  0.00  0.00     0.082 H 
ATOM     26  H   LIG d   1       7.191  -1.057  -3.722  0.00  0.00     0.082 H 
ATOM     27  C   LIG d   1       4.652  -2.125  -6.808  0.00  0.00    -0.055 A 
ATOM     28  H   LIG d   1       5.635  -3.058  -5.138  0.00  0.00     0.064 H 
ATOM     29  C   LIG d   1       3.878  -1.071  -7.197  0.00  0.00     0.003 A 
ATOM     30  H   LIG d   1       4.979  -2.862  -7.526  0.00  0.00     0.062 H 
ATOM     31  H   LIG d   1       3.601  -0.951  -8.233  0.00  0.00     0.067 H 
ATOM     32  O   LIG d   1       2.792   0.822  -6.581  0.00  0.00    -0.268 OA
ATOM     33  H   LIG d   1       4.556  -0.782  -1.167  0.00  0.00     0.028 H 
ATOM     34  H   LIG d   1       3.207  -1.370  -2.176  0.00  0.00     0.028 H 
ATOM     35  H   LIG d   1       5.703   0.661  -4.548  0.00  0.00     0.204 HD
ENDBRANCH   5   8
ENDBRANCH   2   5
BRANCH   1  36
ATOM     36  C   LIG d   1       8.005   0.228  -7.171  0.00  0.00     0.073 A 
ATOM     37  C   LIG d   1       7.866   0.820  -8.409  0.00  0.00     0.147 A 
ATOM     38  N   LIG d   1       8.681   0.159  -9.317  0.00  0.00    -0.347 N 
ATOM     39  C   LIG d   1       9.354  -0.863  -8.685  0.00  0.00     0.049 A 
ATOM     40  H   LIG d   1       8.765   0.384 -10.257  0.00  0.00     0.166 HD
ATOM     41  C   LIG d   1       8.971  -0.862  -7.332  0.00  0.00     0.025 A 
ATOM     42  C   LIG d   1      10.275  -1.806  -9.135  0.00  0.00    -0.034 A 
ATOM     43  C   LIG d   1       9.503  -1.812  -6.454  0.00  0.00    -0.009 A 
ATOM     44  C   LIG d   1      10.414  -2.738  -6.921  0.00  0.00     0.121 A 
ATOM     45  H   LIG d   1       9.207  -1.818  -5.415  0.00  0.00     0.066 H 
ATOM     46  C   LIG d   1      10.796  -2.732  -8.260  0.00  0.00    -0.018 A 
ATOM     47  H   LIG d   1      11.509  -3.462  -8.615  0.00  0.00     0.066 H 
ATOM     48  H   LIG d   1      10.579  -1.813 -10.171  0.00  0.00     0.064 H 
BRANCH  37  49
ATOM     49  C   LIG d   1       7.029   1.924  -8.705  0.00  0.00     0.357 C 
ATOM     50  O   LIG d   1       7.499   2.930  -9.202  0.00  0.00    -0.243 OA
BRANCH  49  51
ATOM     51  O   LIG d   1       5.707   1.861  -8.435  0.00  0.00    -0.460 OA
BRANCH  51  52
ATOM     52  C   LIG d   1       4.828   1.659  -9.542  0.00  0.00     0.090 C 
ATOM     53  H   LIG d   1       5.376   1.806 -10.474  0.00  0.00     0.070 H 
ATOM     54  H   LIG d   1       4.430   0.645  -9.511  0.00  0.00     0.070 H 
BRANCH  52  55
ATOM     55  C   LIG d   1       3.674   2.661  -9.467  0.00  0.00    -0.031 C 
ATOM     56  H   LIG d   1       2.938   2.427 -10.237  0.00  0.00     0.026 H 
ATOM     57  H   LIG d   1       3.204   2.602  -8.486  0.00  0.00     0.026 H 
ATOM     58  H   LIG d   1       4.058   3.670  -9.626  0.00  0.00     0.026 H 
ENDBRANCH  52  55
ENDBRANCH  51  52
ENDBRANCH  49  51
ENDBRANCH  37  49
BRANCH  44  59
ATOM     59  O   LIG d   1      10.939  -3.659  -6.070  0.00  0.00    -0.495 OA
BRANCH  59  60
ATOM     60  C   LIG d   1      10.045  -4.643  -5.547  0.00  0.00     0.079 C 
ATOM     61  H   LIG d   1      10.537  -5.616  -5.542  0.00  0.00     0.066 H 
ATOM     62  H   LIG d   1       9.763  -4.374  -4.529  0.00  0.00     0.066 H 
ATOM     63  H   LIG d   1       9.151  -4.690  -6.170  0.00  0.00     0.066 H 
ENDBRANCH  59  60
ENDBRANCH  44  59
ENDBRANCH   1  36
TORSDOF 9
ENDMDL
MODEL 7
REMARK VINA RESULT:      -6.6      3.157      7.320
REMARK  9 active torsions:
REMARK  status: ('A' for Active; 'I' for Inactive)
REMARK    1  A    between atoms: C_1  and  C_2 
REMARK    2  A    between atoms: C_2  and  O_3 
REMARK    3  A    between atoms: O_3  and  C_4 
REMARK    4  A    between atoms: C_4  and  C_6 
REMARK    5  A    between atoms: C_7  and  N_18 
REMARK    6  A    between atoms: C_10  and  O_16 
REMARK    7  A    between atoms: O_16  and  C_17 
REMARK       I    between atoms: N_18  and  C_19 
REMARK    8  A    between atoms: C_19  and  C_21 
REMARK    9  A    between atoms: C_21  and  N_62 
ROOT
ATOM      1  N   LIG d   1       8.994   1.451  -4.582  0.00  0.00    -0.279 N 
ATOM      2  C   LIG d   1       7.739   0.990  -4.412  0.00  0.00     0.262 C 
ATOM      3  O   LIG d   1       6.888   1.228  -5.243  0.00  0.00    -0.270 OA
ATOM      4  H   LIG d   1       9.689   1.213  -3.948  0.00  0.00     0.155 HD
ENDROOT
BRANCH   2   5
ATOM      5  C   LIG d   1       7.393   0.181  -3.189  0.00  0.00     0.046 C 
ATOM      6  H   LIG d   1       7.387   0.831  -2.313  0.00  0.00     0.091 H 
ATOM      7  H   LIG d   1       8.135  -0.606  -3.052  0.00  0.00     0.091 H 
BRANCH   5   8
ATOM      8  N   LIG d   1       6.045  -0.402  -3.369  0.00  0.00     0.242 N 
ATOM      9  C   LIG d   1       5.130   0.124  -2.354  0.00  0.00    -0.027 C 
ATOM     10  C   LIG d   1       3.726  -0.429  -2.544  0.00  0.00     0.018 C 
ATOM     11  H   LIG d   1       5.103   1.210  -2.446  0.00  0.00     0.082 H 
ATOM     12  H   LIG d   1       5.489  -0.141  -1.360  0.00  0.00     0.082 H 
ATOM     13  H   LIG d   1       3.105  -0.081  -1.718  0.00  0.00     0.037 H 
ATOM     14  C   LIG d   1       3.103   0.047  -3.845  0.00  0.00     0.034 C 
ATOM     15  C   LIG d   1       3.748  -1.960  -2.519  0.00  0.00    -0.031 C 
ATOM     16  N   LIG d   1       3.656  -0.643  -5.011  0.00  0.00    -0.311 N 
ATOM     17  H   LIG d   1       2.028  -0.132  -3.808  0.00  0.00     0.050 H 
ATOM     18  H   LIG d   1       3.279   1.116  -3.952  0.00  0.00     0.050 H 
ATOM     19  C   LIG d   1       4.307  -1.827  -4.934  0.00  0.00     0.030 A 
ATOM     20  C   LIG d   1       3.482  -0.049  -6.217  0.00  0.00     0.252 A 
ATOM     21  C   LIG d   1       4.721  -2.426  -3.608  0.00  0.00     0.040 C 
ATOM     22  C   LIG d   1       4.658  -2.499  -6.061  0.00  0.00    -0.042 A 
ATOM     23  H   LIG d   1       4.743  -3.514  -3.671  0.00  0.00     0.042 H 
ATOM     24  C   LIG d   1       6.116  -1.876  -3.267  0.00  0.00    -0.023 C 
ATOM     25  H   LIG d   1       6.398  -2.183  -2.261  0.00  0.00     0.082 H 
ATOM     26  H   LIG d   1       6.845  -2.253  -3.985  0.00  0.00     0.082 H 
ATOM     27  C   LIG d   1       4.422  -1.942  -7.323  0.00  0.00    -0.055 A 
ATOM     28  H   LIG d   1       5.125  -3.469  -5.982  0.00  0.00     0.064 H 
ATOM     29  C   LIG d   1       3.844  -0.708  -7.400  0.00  0.00     0.003 A 
ATOM     30  H   LIG d   1       4.691  -2.479  -8.219  0.00  0.00     0.062 H 
ATOM     31  H   LIG d   1       3.668  -0.246  -8.360  0.00  0.00     0.067 H 
ATOM     32  O   LIG d   1       3.005   1.073  -6.275  0.00  0.00    -0.268 OA
ATOM     33  H   LIG d   1       4.090  -2.309  -1.544  0.00  0.00     0.028 H 
ATOM     34  H   LIG d   1       2.751  -2.348  -2.723  0.00  0.00     0.028 H 
ATOM     35  H   LIG d   1       5.694  -0.149  -4.300  0.00  0.00     0.204 HD
ENDBRANCH   5   8
ENDBRANCH   2   5
BRANCH   1  36
ATOM     36  C   LIG d   1       9.294   2.267  -5.669  0.00  0.00     0.073 A 
ATOM     37  C   LIG d   1       9.510   1.861  -6.970  0.00  0.00     0.147 A 
ATOM     38  N   LIG d   1       9.781   2.976  -7.750  0.00  0.00    -0.347 N 
ATOM     39  C   LIG d   1       9.745   4.112  -6.971  0.00  0.00     0.049 A 
ATOM     40  H   LIG d   1       9.968   2.959  -8.701  0.00  0.00     0.166 HD
ATOM     41  C   LIG d   1       9.437   3.725  -5.654  0.00  0.00     0.025 A 
ATOM     42  C   LIG d   1       9.943   5.460  -7.260  0.00  0.00    -0.034 A 
ATOM     43  C   LIG d   1       9.346   4.689  -4.645  0.00  0.00    -0.009 A 
ATOM     44  C   LIG d   1       9.545   6.020  -4.953  0.00  0.00     0.121 A 
ATOM     45  H   LIG d   1       9.115   4.396  -3.632  0.00  0.00     0.066 H 
ATOM     46  C   LIG d   1       9.843   6.401  -6.260  0.00  0.00    -0.018 A 
ATOM     47  H   LIG d   1       9.999   7.444  -6.489  0.00  0.00     0.066 H 
ATOM     48  H   LIG d   1      10.175   5.768  -8.268  0.00  0.00     0.064 H 
BRANCH  37  49
ATOM     49  C   LIG d   1       9.461   0.523  -7.434  0.00  0.00     0.357 C 
ATOM     50  O   LIG d   1       9.995  -0.363  -6.795  0.00  0.00    -0.243 OA
BRANCH  49  51
ATOM     51  O   LIG d   1       8.822   0.232  -8.588  0.00  0.00    -0.460 OA
BRANCH  51  52
ATOM     52  C   LIG d   1       7.415  -0.003  -8.508  0.00  0.00     0.090 C 
ATOM     53  H   LIG d   1       7.159  -0.884  -9.098  0.00  0.00     0.070 H 
ATOM     54  H   LIG d   1       7.132  -0.167  -7.468  0.00  0.00     0.070 H 
BRANCH  52  55
ATOM     55  C   LIG d   1       6.663   1.212  -9.055  0.00  0.00    -0.031 C 
ATOM     56  H   LIG d   1       5.883   0.879  -9.739  0.00  0.00     0.026 H 
ATOM     57  H   LIG d   1       6.212   1.763  -8.230  0.00  0.00     0.026 H 
ATOM     58  H   LIG d   1       7.360   1.861  -9.587  0.00  0.00     0.026 H 
ENDBRANCH  52  55
ENDBRANCH  51  52
ENDBRANCH  49  51
ENDBRANCH  37  49
BRANCH  44  59
ATOM     59  O   LIG d   1       9.450   6.962  -3.977  0.00  0.00    -0.495 OA
BRANCH  59  60
ATOM     60  C   LIG d   1       9.597   6.516  -2.628  0.00  0.00     0.079 C 
ATOM     61  H   LIG d   1       9.439   7.354  -1.949  0.00  0.00     0.066 H 
ATOM     62  H   LIG d   1       8.865   5.737  -2.421  0.00  0.00     0.066 H 
ATOM     63  H   LIG d   1      10.602   6.117  -2.485  0.00  0.00     0.066 H 
ENDBRANCH  59  60
ENDBRANCH  44  59
ENDBRANCH   1  36
TORSDOF 9
ENDMDL
MODEL 8
REMARK VINA RESULT:      -6.6      3.549      6.387
REMARK  9 active torsions:
REMARK  status: ('A' for Active; 'I' for Inactive)
REMARK    1  A    between atoms: C_1  and  C_2 
REMARK    2  A    between atoms: C_2  and  O_3 
REMARK    3  A    between atoms: O_3  and  C_4 
REMARK    4  A    between atoms: C_4  and  C_6 
REMARK    5  A    between atoms: C_7  and  N_18 
REMARK    6  A    between atoms: C_10  and  O_16 
REMARK    7  A    between atoms: O_16  and  C_17 
REMARK       I    between atoms: N_18  and  C_19 
REMARK    8  A    between atoms: C_19  and  C_21 
REMARK    9  A    between atoms: C_21  and  N_62 
ROOT
ATOM      1  N   LIG d   1       5.862  -2.302  -5.635  0.00  0.00    -0.279 N 
ATOM      2  C   LIG d   1       7.069  -1.874  -5.213  0.00  0.00     0.262 C 
ATOM      3  O   LIG d   1       7.206  -0.733  -4.825  0.00  0.00    -0.270 OA
ATOM      4  H   LIG d   1       5.738  -3.229  -5.891  0.00  0.00     0.155 HD
ENDROOT
BRANCH   2   5
ATOM      5  C   LIG d   1       8.247  -2.813  -5.225  0.00  0.00     0.046 C 
ATOM      6  H   LIG d   1       8.579  -2.992  -4.202  0.00  0.00     0.091 H 
ATOM      7  H   LIG d   1       9.061  -2.368  -5.798  0.00  0.00     0.091 H 
BRANCH   5   8
ATOM      8  N   LIG d   1       7.828  -4.096  -5.831  0.00  0.00     0.242 N 
ATOM      9  C   LIG d   1       8.113  -5.201  -4.914  0.00  0.00    -0.027 C 
ATOM     10  C   LIG d   1       7.652  -6.529  -5.498  0.00  0.00     0.018 C 
ATOM     11  H   LIG d   1       7.584  -5.018  -3.980  0.00  0.00     0.082 H 
ATOM     12  H   LIG d   1       9.184  -5.250  -4.715  0.00  0.00     0.082 H 
ATOM     13  H   LIG d   1       7.964  -7.327  -4.823  0.00  0.00     0.037 H 
ATOM     14  C   LIG d   1       6.141  -6.587  -5.644  0.00  0.00     0.034 C 
ATOM     15  C   LIG d   1       8.306  -6.767  -6.862  0.00  0.00    -0.031 C 
ATOM     16  N   LIG d   1       5.661  -5.792  -6.774  0.00  0.00    -0.311 N 
ATOM     17  H   LIG d   1       5.841  -7.625  -5.790  0.00  0.00     0.050 H 
ATOM     18  H   LIG d   1       5.683  -6.213  -4.729  0.00  0.00     0.050 H 
ATOM     19  C   LIG d   1       6.453  -5.409  -7.803  0.00  0.00     0.030 A 
ATOM     20  C   LIG d   1       4.349  -5.447  -6.771  0.00  0.00     0.252 A 
ATOM     21  C   LIG d   1       7.956  -5.573  -7.757  0.00  0.00     0.040 C 
ATOM     22  C   LIG d   1       5.922  -4.811  -8.900  0.00  0.00    -0.042 A 
ATOM     23  H   LIG d   1       8.356  -5.708  -8.762  0.00  0.00     0.042 H 
ATOM     24  C   LIG d   1       8.540  -4.306  -7.110  0.00  0.00    -0.023 C 
ATOM     25  H   LIG d   1       9.609  -4.436  -6.943  0.00  0.00     0.082 H 
ATOM     26  H   LIG d   1       8.372  -3.449  -7.762  0.00  0.00     0.082 H 
ATOM     27  C   LIG d   1       4.556  -4.511  -8.955  0.00  0.00    -0.055 A 
ATOM     28  H   LIG d   1       6.559  -4.564  -9.737  0.00  0.00     0.064 H 
ATOM     29  C   LIG d   1       3.771  -4.819  -7.882  0.00  0.00     0.003 A 
ATOM     30  H   LIG d   1       4.131  -4.046  -9.831  0.00  0.00     0.062 H 
ATOM     31  H   LIG d   1       2.718  -4.581  -7.889  0.00  0.00     0.067 H 
ATOM     32  O   LIG d   1       3.665  -5.687  -5.789  0.00  0.00    -0.268 OA
ATOM     33  H   LIG d   1       9.388  -6.838  -6.747  0.00  0.00     0.028 H 
ATOM     34  H   LIG d   1       7.919  -7.685  -7.302  0.00  0.00     0.028 H 
ATOM     35  H   LIG d   1       6.818  -4.064  -6.013  0.00  0.00     0.204 HD
ENDBRANCH   5   8
ENDBRANCH   2   5
BRANCH   1  36
ATOM     36  C   LIG d   1       4.794  -1.413  -5.702  0.00  0.00     0.073 A 
ATOM     37  C   LIG d   1       3.858  -1.172  -4.716  0.00  0.00     0.147 A 
ATOM     38  N   LIG d   1       2.959  -0.220  -5.173  0.00  0.00    -0.347 N 
ATOM     39  C   LIG d   1       3.296   0.168  -6.451  0.00  0.00     0.049 A 
ATOM     40  H   LIG d   1       2.205   0.122  -4.667  0.00  0.00     0.166 HD
ATOM     41  C   LIG d   1       4.446  -0.547  -6.832  0.00  0.00     0.025 A 
ATOM     42  C   LIG d   1       2.729   1.078  -7.341  0.00  0.00    -0.034 A 
ATOM     43  C   LIG d   1       5.003  -0.350  -8.099  0.00  0.00    -0.009 A 
ATOM     44  C   LIG d   1       4.427   0.556  -8.965  0.00  0.00     0.121 A 
ATOM     45  H   LIG d   1       5.883  -0.901  -8.397  0.00  0.00     0.066 H 
ATOM     46  C   LIG d   1       3.291   1.267  -8.583  0.00  0.00    -0.018 A 
ATOM     47  H   LIG d   1       2.847   1.973  -9.269  0.00  0.00     0.066 H 
ATOM     48  H   LIG d   1       1.849   1.635  -7.057  0.00  0.00     0.064 H 
BRANCH  37  49
ATOM     49  C   LIG d   1       3.823  -1.797  -3.444  0.00  0.00     0.357 C 
ATOM     50  O   LIG d   1       4.044  -2.989  -3.345  0.00  0.00    -0.243 OA
BRANCH  49  51
ATOM     51  O   LIG d   1       3.543  -1.068  -2.343  0.00  0.00    -0.460 OA
BRANCH  51  52
ATOM     52  C   LIG d   1       4.570  -0.199  -1.862  0.00  0.00     0.090 C 
ATOM     53  H   LIG d   1       4.775  -0.421  -0.815  0.00  0.00     0.070 H 
ATOM     54  H   LIG d   1       5.476  -0.346  -2.450  0.00  0.00     0.070 H 
BRANCH  52  55
ATOM     55  C   LIG d   1       4.111   1.255  -1.993  0.00  0.00    -0.031 C 
ATOM     56  H   LIG d   1       4.778   1.900  -1.421  0.00  0.00     0.026 H 
ATOM     57  H   LIG d   1       4.131   1.550  -3.042  0.00  0.00     0.026 H 
ATOM     58  H   LIG d   1       3.094   1.351  -1.608  0.00  0.00     0.026 H 
ENDBRANCH  52  55
ENDBRANCH  51  52
ENDBRANCH  49  51
ENDBRANCH  37  49
BRANCH  44  59
ATOM     59  O   LIG d   1       4.969   0.756 -10.196  0.00  0.00    -0.495 OA
BRANCH  59  60
ATOM     60  C   LIG d   1       4.069   0.773 -11.305  0.00  0.00     0.079 C 
ATOM     61  H   LIG d   1       3.627  -0.216 -11.431  0.00  0.00     0.066 H 
ATOM     62  H   LIG d   1       3.280   1.502 -11.123  0.00  0.00     0.066 H 
ATOM     63  H   LIG d   1       4.613   1.046 -12.211  0.00  0.00     0.066 H 
ENDBRANCH  59  60
ENDBRANCH  44  59
ENDBRANCH   1  36
TORSDOF 9
ENDMDL
MODEL 9
REMARK VINA RESULT:      -6.6      8.906     12.512
REMARK  9 active torsions:
REMARK  status: ('A' for Active; 'I' for Inactive)
REMARK    1  A    between atoms: C_1  and  C_2 
REMARK    2  A    between atoms: C_2  and  O_3 
REMARK    3  A    between atoms: O_3  and  C_4 
REMARK    4  A    between atoms: C_4  and  C_6 
REMARK    5  A    between atoms: C_7  and  N_18 
REMARK    6  A    between atoms: C_10  and  O_16 
REMARK    7  A    between atoms: O_16  and  C_17 
REMARK       I    between atoms: N_18  and  C_19 
REMARK    8  A    between atoms: C_19  and  C_21 
REMARK    9  A    between atoms: C_21  and  N_62 
ROOT
ATOM      1  N   LIG d   1      10.381   8.101  -1.374  0.00  0.00    -0.279 N 
ATOM      2  C   LIG d   1       9.150   8.594  -1.134  0.00  0.00     0.262 C 
ATOM      3  O   LIG d   1       8.249   7.847  -0.816  0.00  0.00    -0.270 OA
ATOM      4  H   LIG d   1      11.116   8.704  -1.571  0.00  0.00     0.155 HD
ENDROOT
BRANCH   2   5
ATOM      5  C   LIG d   1       8.894  10.074  -1.259  0.00  0.00     0.046 C 
ATOM      6  H   LIG d   1       9.238  10.580  -0.356  0.00  0.00     0.091 H 
ATOM      7  H   LIG d   1       7.825  10.248  -1.387  0.00  0.00     0.091 H 
BRANCH   5   8
ATOM      8  N   LIG d   1       9.647  10.592  -2.422  0.00  0.00     0.242 N 
ATOM      9  C   LIG d   1      10.717  11.483  -1.972  0.00  0.00    -0.027 C 
ATOM     10  C   LIG d   1      11.534  11.996  -3.149  0.00  0.00     0.018 C 
ATOM     11  H   LIG d   1      11.368  10.926  -1.300  0.00  0.00     0.082 H 
ATOM     12  H   LIG d   1      10.290  12.331  -1.435  0.00  0.00     0.082 H 
ATOM     13  H   LIG d   1      12.257  12.721  -2.775  0.00  0.00     0.037 H 
ATOM     14  C   LIG d   1      12.291  10.876  -3.841  0.00  0.00     0.034 C 
ATOM     15  C   LIG d   1      10.625  12.699  -4.162  0.00  0.00    -0.031 C 
ATOM     16  N   LIG d   1      11.418  10.039  -4.664  0.00  0.00    -0.311 N 
ATOM     17  H   LIG d   1      13.062  11.312  -4.477  0.00  0.00     0.050 H 
ATOM     18  H   LIG d   1      12.768  10.252  -3.086  0.00  0.00     0.050 H 
ATOM     19  C   LIG d   1      10.201  10.441  -5.101  0.00  0.00     0.030 A 
ATOM     20  C   LIG d   1      11.881   8.810  -5.001  0.00  0.00     0.252 A 
ATOM     21  C   LIG d   1       9.542  11.700  -4.583  0.00  0.00     0.040 C 
ATOM     22  C   LIG d   1       9.502   9.689  -5.991  0.00  0.00    -0.042 A 
ATOM     23  H   LIG d   1       8.889  12.129  -5.343  0.00  0.00     0.042 H 
ATOM     24  C   LIG d   1       8.734  11.318  -3.331  0.00  0.00    -0.023 C 
ATOM     25  H   LIG d   1       8.346  12.218  -2.854  0.00  0.00     0.082 H 
ATOM     26  H   LIG d   1       7.908  10.665  -3.611  0.00  0.00     0.082 H 
ATOM     27  C   LIG d   1       9.994   8.449  -6.414  0.00  0.00    -0.055 A 
ATOM     28  H   LIG d   1       8.560  10.051  -6.373  0.00  0.00     0.064 H 
ATOM     29  C   LIG d   1      11.180   8.004  -5.907  0.00  0.00     0.003 A 
ATOM     30  H   LIG d   1       9.445   7.856  -7.129  0.00  0.00     0.062 H 
ATOM     31  H   LIG d   1      11.573   7.042  -6.201  0.00  0.00     0.067 H 
ATOM     32  O   LIG d   1      12.921   8.402  -4.509  0.00  0.00    -0.268 OA
ATOM     33  H   LIG d   1      10.163  13.572  -3.701  0.00  0.00     0.028 H 
ATOM     34  H   LIG d   1      11.207  13.003  -5.031  0.00  0.00     0.028 H 
ATOM     35  H   LIG d   1      10.062   9.801  -2.929  0.00  0.00     0.204 HD
ENDBRANCH   5   8
ENDBRANCH   2   5
BRANCH   1  36
ATOM     36  C   LIG d   1      10.599   6.727  -1.339  0.00  0.00     0.073 A 
ATOM     37  C   LIG d   1      11.082   5.996  -0.274  0.00  0.00     0.147 A 
ATOM     38  N   LIG d   1      11.155   4.660  -0.641  0.00  0.00    -0.347 N 
ATOM     39  C   LIG d   1      10.724   4.508  -1.940  0.00  0.00     0.049 A 
ATOM     40  H   LIG d   1      11.464   3.941  -0.068  0.00  0.00     0.166 HD
ATOM     41  C   LIG d   1      10.356   5.775  -2.426  0.00  0.00     0.025 A 
ATOM     42  C   LIG d   1      10.601   3.394  -2.768  0.00  0.00    -0.034 A 
ATOM     43  C   LIG d   1       9.885   5.912  -3.736  0.00  0.00    -0.009 A 
ATOM     44  C   LIG d   1       9.771   4.796  -4.540  0.00  0.00     0.121 A 
ATOM     45  H   LIG d   1       9.607   6.884  -4.115  0.00  0.00     0.066 H 
ATOM     46  C   LIG d   1      10.130   3.541  -4.053  0.00  0.00    -0.018 A 
ATOM     47  H   LIG d   1      10.038   2.674  -4.691  0.00  0.00     0.066 H 
ATOM     48  H   LIG d   1      10.875   2.416  -2.403  0.00  0.00     0.064 H 
BRANCH  37  49
ATOM     49  C   LIG d   1      11.444   6.524   0.991  0.00  0.00     0.357 C 
ATOM     50  O   LIG d   1      11.146   5.927   2.008  0.00  0.00    -0.243 OA
BRANCH  49  51
ATOM     51  O   LIG d   1      12.119   7.692   1.067  0.00  0.00    -0.460 OA
BRANCH  51  52
ATOM     52  C   LIG d   1      11.621   8.669   1.982  0.00  0.00     0.090 C 
ATOM     53  H   LIG d   1      10.580   8.449   2.221  0.00  0.00     0.070 H 
ATOM     54  H   LIG d   1      12.216   8.650   2.895  0.00  0.00     0.070 H 
BRANCH  52  55
ATOM     55  C   LIG d   1      11.713  10.058   1.345  0.00  0.00    -0.031 C 
ATOM     56  H   LIG d   1      12.313  10.002   0.436  0.00  0.00     0.026 H 
ATOM     57  H   LIG d   1      10.712  10.412   1.098  0.00  0.00     0.026 H 
ATOM     58  H   LIG d   1      12.180  10.750   2.047  0.00  0.00     0.026 H 
ENDBRANCH  52  55
ENDBRANCH  51  52
ENDBRANCH  49  51
ENDBRANCH  37  49
BRANCH  44  59
ATOM     59  O   LIG d   1       9.307   4.922  -5.812  0.00  0.00    -0.495 OA
BRANCH  59  60
ATOM     60  C   LIG d   1      10.117   4.376  -6.854  0.00  0.00     0.079 C 
ATOM     61  H   LIG d   1      11.049   4.000  -6.431  0.00  0.00     0.066 H 
ATOM     62  H   LIG d   1       9.583   3.561  -7.340  0.00  0.00     0.066 H 
ATOM     63  H   LIG d   1      10.338   5.153  -7.588  0.00  0.00     0.066 H 
ENDBRANCH  59  60
ENDBRANCH  44  59
ENDBRANCH   1  36
TORSDOF 9
ENDMDL
