MODEL 1
REMARK VINA RESULT:      -6.0      0.000      0.000
REMARK  11 active torsions:
REMARK  status: ('A' for Active; 'I' for Inactive)
REMARK    1  A    between atoms: C_1  and  O_2 
REMARK    2  A    between atoms: O_2  and  C_3 
REMARK    3  A    between atoms: C_6  and  C_11 
REMARK    4  A    between atoms: C_8  and  O_9 
REMARK    5  A    between atoms: O_9  and  C_10 
REMARK    6  A    between atoms: C_14  and  N_34 
REMARK    7  A    between atoms: C_16  and  C_17 
REMARK    8  A    between atoms: C_20  and  O_24 
REMARK    9  A    between atoms: C_22  and  O_23 
REMARK   10  A    between atoms: O_24  and  C_25 
REMARK   11  A    between atoms: C_25  and  C_26 
ROOT
ATOM      1  C   LIG d   1       8.804  -3.129  -3.931  0.00  0.00     0.027 A 
ATOM      2  C   LIG d   1       9.397  -3.955  -2.975  0.00  0.00     0.041 A 
ATOM      3  N   LIG d   1      10.697  -4.188  -3.043  0.00  0.00    -0.223 NA
ATOM      4  C   LIG d   1      11.440  -3.653  -4.003  0.00  0.00     0.213 A 
ATOM      5  N   LIG d   1      10.923  -2.868  -4.934  0.00  0.00    -0.214 NA
ATOM      6  C   LIG d   1       9.623  -2.583  -4.938  0.00  0.00     0.087 A 
ATOM      7  H   LIG d   1       8.803  -4.397  -2.188  0.00  0.00     0.084 H 
ENDROOT
BRANCH   6   8
ATOM      8  C   LIG d   1       9.048  -1.704  -5.979  0.00  0.00     0.043 A 
ATOM      9  C   LIG d   1       9.039  -0.315  -5.800  0.00  0.00     0.130 A 
ATOM     10  C   LIG d   1       8.499   0.502  -6.779  0.00  0.00     0.022 A 
ATOM     11  C   LIG d   1       7.969  -0.055  -7.934  0.00  0.00     0.124 A 
ATOM     12  H   LIG d   1       8.492   1.573  -6.644  0.00  0.00     0.069 H 
ATOM     13  C   LIG d   1       7.972  -1.434  -8.110  0.00  0.00    -0.019 A 
ATOM     14  C   LIG d   1       8.512  -2.256  -7.145  0.00  0.00    -0.046 A 
ATOM     15  H   LIG d   1       7.554  -1.862  -9.009  0.00  0.00     0.065 H 
ATOM     16  H   LIG d   1       8.517  -3.326  -7.287  0.00  0.00     0.063 H 
BRANCH   9  17
ATOM     17  O   LIG d   1       9.560   0.229  -4.671  0.00  0.00    -0.506 OA
ATOM     18  H   LIG d   1      10.386  -0.183  -4.380  0.00  0.00     0.292 HD
ENDBRANCH   9  17
BRANCH  11  19
ATOM     19  O   LIG d   1       7.440   0.749  -8.892  0.00  0.00    -0.487 OA
BRANCH  19  20
ATOM     20  C   LIG d   1       6.333   1.568  -8.511  0.00  0.00     0.116 C 
ATOM     21  H   LIG d   1       6.462   2.568  -8.923  0.00  0.00     0.075 H 
ATOM     22  H   LIG d   1       6.281   1.626  -7.423  0.00  0.00     0.075 H 
BRANCH  20  23
ATOM     23  C   LIG d   1       5.057   0.966  -9.042  0.00  0.00     0.008 A 
ATOM     24  C   LIG d   1       4.298   0.134  -8.239  0.00  0.00     0.049 A 
ATOM     25  C   LIG d   1       3.129  -0.421  -8.728  0.00  0.00    -0.025 A 
ATOM     26 CL   LIG d   1       4.814  -0.217  -6.619  0.00  0.00    -0.083 Cl
ATOM     27  C   LIG d   1       2.717  -0.140 -10.019  0.00  0.00     0.042 A 
ATOM     28  H   LIG d   1       2.538  -1.075  -8.103  0.00  0.00     0.065 H 
ATOM     29  C   LIG d   1       3.475   0.696 -10.819  0.00  0.00    -0.043 A 
ATOM     30 CL   LIG d   1       1.251  -0.837 -10.633  0.00  0.00    -0.084 Cl
ATOM     31  C   LIG d   1       4.642   1.251 -10.329  0.00  0.00    -0.053 A 
ATOM     32  H   LIG d   1       3.155   0.916 -11.827  0.00  0.00     0.063 H 
ATOM     33  H   LIG d   1       5.233   1.905 -10.955  0.00  0.00     0.062 H 
ENDBRANCH  20  23
ENDBRANCH  19  20
ENDBRANCH  11  19
ENDBRANCH   6   8
BRANCH   1  34
ATOM     34  C   LIG d   1       7.352  -2.839  -3.887  0.00  0.00    -0.011 A 
ATOM     35  C   LIG d   1       6.877  -1.760  -3.142  0.00  0.00    -0.050 A 
ATOM     36  C   LIG d   1       5.524  -1.489  -3.103  0.00  0.00    -0.016 A 
ATOM     37  H   LIG d   1       7.568  -1.136  -2.595  0.00  0.00     0.062 H 
ATOM     38  C   LIG d   1       4.634  -2.289  -3.804  0.00  0.00     0.162 A 
ATOM     39  H   LIG d   1       5.158  -0.653  -2.525  0.00  0.00     0.066 H 
ATOM     40  C   LIG d   1       5.103  -3.367  -4.551  0.00  0.00     0.162 A 
ATOM     41  C   LIG d   1       6.458  -3.639  -4.598  0.00  0.00    -0.009 A 
ATOM     42  H   LIG d   1       6.823  -4.472  -5.180  0.00  0.00     0.066 H 
BRANCH  38  43
ATOM     43  O   LIG d   1       3.302  -2.018  -3.763  0.00  0.00    -0.491 OA
BRANCH  43  44
ATOM     44  C   LIG d   1       2.904  -0.822  -3.092  0.00  0.00     0.079 C 
ATOM     45  H   LIG d   1       2.015  -1.020  -2.492  0.00  0.00     0.066 H 
ATOM     46  H   LIG d   1       3.712  -0.484  -2.442  0.00  0.00     0.066 H 
ATOM     47  H   LIG d   1       2.681  -0.049  -3.827  0.00  0.00     0.066 H 
ENDBRANCH  43  44
ENDBRANCH  38  43
BRANCH  40  48
ATOM     48  O   LIG d   1       4.227  -4.149  -5.238  0.00  0.00    -0.491 OA
BRANCH  48  49
ATOM     49  C   LIG d   1       4.693  -5.436  -5.650  0.00  0.00     0.079 C 
ATOM     50  H   LIG d   1       5.743  -5.368  -5.934  0.00  0.00     0.066 H 
ATOM     51  H   LIG d   1       4.583  -6.142  -4.827  0.00  0.00     0.066 H 
ATOM     52  H   LIG d   1       4.107  -5.778  -6.504  0.00  0.00     0.066 H 
ENDBRANCH  48  49
ENDBRANCH  40  48
ENDBRANCH   1  34
BRANCH   4  53
ATOM     53  N   LIG d   1      12.796  -3.925  -4.032  0.00  0.00    -0.328 N 
ATOM     54  H   LIG d   1      13.362  -3.655  -3.292  0.00  0.00     0.145 HD
ATOM     55  H   LIG d   1      13.181  -4.388  -4.794  0.00  0.00     0.145 HD
ENDBRANCH   4  53
TORSDOF 11
ENDMDL
MODEL 2
REMARK VINA RESULT:      -5.9      6.199      8.488
REMARK  11 active torsions:
REMARK  status: ('A' for Active; 'I' for Inactive)
REMARK    1  A    between atoms: C_1  and  O_2 
REMARK    2  A    between atoms: O_2  and  C_3 
REMARK    3  A    between atoms: C_6  and  C_11 
REMARK    4  A    between atoms: C_8  and  O_9 
REMARK    5  A    between atoms: O_9  and  C_10 
REMARK    6  A    between atoms: C_14  and  N_34 
REMARK    7  A    between atoms: C_16  and  C_17 
REMARK    8  A    between atoms: C_20  and  O_24 
REMARK    9  A    between atoms: C_22  and  O_23 
REMARK   10  A    between atoms: O_24  and  C_25 
REMARK   11  A    between atoms: C_25  and  C_26 
ROOT
ATOM      1  C   LIG d   1      12.789   5.344  -3.763  0.00  0.00     0.027 A 
ATOM      2  C   LIG d   1      14.089   5.849  -3.766  0.00  0.00     0.041 A 
ATOM      3  N   LIG d   1      15.020   5.229  -4.471  0.00  0.00    -0.223 NA
ATOM      4  C   LIG d   1      14.736   4.138  -5.170  0.00  0.00     0.213 A 
ATOM      5  N   LIG d   1      13.519   3.618  -5.195  0.00  0.00    -0.214 NA
ATOM      6  C   LIG d   1      12.525   4.181  -4.512  0.00  0.00     0.087 A 
ATOM      7  H   LIG d   1      14.333   6.737  -3.201  0.00  0.00     0.084 H 
ENDROOT
BRANCH   6   8
ATOM      8  C   LIG d   1      11.166   3.599  -4.543  0.00  0.00     0.043 A 
ATOM      9  C   LIG d   1      10.798   2.622  -3.609  0.00  0.00     0.130 A 
ATOM     10  C   LIG d   1       9.524   2.081  -3.644  0.00  0.00     0.022 A 
ATOM     11  C   LIG d   1       8.616   2.506  -4.602  0.00  0.00     0.124 A 
ATOM     12  H   LIG d   1       9.238   1.329  -2.925  0.00  0.00     0.069 H 
ATOM     13  C   LIG d   1       8.981   3.472  -5.534  0.00  0.00    -0.019 A 
ATOM     14  C   LIG d   1      10.245   4.020  -5.504  0.00  0.00    -0.046 A 
ATOM     15  H   LIG d   1       8.271   3.795  -6.280  0.00  0.00     0.065 H 
ATOM     16  H   LIG d   1      10.524   4.773  -6.227  0.00  0.00     0.063 H 
BRANCH   9  17
ATOM     17  O   LIG d   1      11.688   2.209  -2.671  0.00  0.00    -0.506 OA
ATOM     18  H   LIG d   1      11.417   1.411  -2.196  0.00  0.00     0.292 HD
ENDBRANCH   9  17
BRANCH  11  19
ATOM     19  O   LIG d   1       7.367   1.973  -4.635  0.00  0.00    -0.487 OA
BRANCH  19  20
ATOM     20  C   LIG d   1       6.894   1.359  -3.435  0.00  0.00     0.116 C 
ATOM     21  H   LIG d   1       6.087   1.959  -3.013  0.00  0.00     0.075 H 
ATOM     22  H   LIG d   1       7.710   1.289  -2.715  0.00  0.00     0.075 H 
BRANCH  20  23
ATOM     23  C   LIG d   1       6.381  -0.024  -3.747  0.00  0.00     0.008 A 
ATOM     24  C   LIG d   1       5.347  -0.562  -3.003  0.00  0.00     0.049 A 
ATOM     25  C   LIG d   1       4.880  -1.834  -3.286  0.00  0.00    -0.025 A 
ATOM     26 CL   LIG d   1       4.638   0.354  -1.710  0.00  0.00    -0.083 Cl
ATOM     27  C   LIG d   1       5.444  -2.563  -4.317  0.00  0.00     0.042 A 
ATOM     28  H   LIG d   1       4.075  -2.256  -2.702  0.00  0.00     0.065 H 
ATOM     29  C   LIG d   1       6.475  -2.021  -5.063  0.00  0.00    -0.043 A 
ATOM     30 CL   LIG d   1       4.859  -4.159  -4.672  0.00  0.00    -0.084 Cl
ATOM     31  C   LIG d   1       6.941  -0.752  -4.780  0.00  0.00    -0.053 A 
ATOM     32  H   LIG d   1       6.917  -2.591  -5.868  0.00  0.00     0.063 H 
ATOM     33  H   LIG d   1       7.746  -0.328  -5.364  0.00  0.00     0.062 H 
ENDBRANCH  20  23
ENDBRANCH  19  20
ENDBRANCH  11  19
ENDBRANCH   6   8
BRANCH   1  34
ATOM     34  C   LIG d   1      11.716   6.013  -2.989  0.00  0.00    -0.011 A 
ATOM     35  C   LIG d   1      10.899   6.961  -3.604  0.00  0.00    -0.050 A 
ATOM     36  C   LIG d   1       9.898   7.582  -2.884  0.00  0.00    -0.016 A 
ATOM     37  H   LIG d   1      11.048   7.209  -4.645  0.00  0.00     0.062 H 
ATOM     38  C   LIG d   1       9.704   7.265  -1.548  0.00  0.00     0.162 A 
ATOM     39  H   LIG d   1       9.267   8.316  -3.361  0.00  0.00     0.066 H 
ATOM     40  C   LIG d   1      10.517   6.319  -0.929  0.00  0.00     0.162 A 
ATOM     41  C   LIG d   1      11.516   5.689  -1.648  0.00  0.00    -0.009 A 
ATOM     42  H   LIG d   1      12.144   4.952  -1.170  0.00  0.00     0.066 H 
BRANCH  38  43
ATOM     43  O   LIG d   1       8.718   7.879  -0.841  0.00  0.00    -0.491 OA
BRANCH  43  44
ATOM     44  C   LIG d   1       8.750   9.307  -0.789  0.00  0.00     0.079 C 
ATOM     45  H   LIG d   1       9.542   9.628  -0.112  0.00  0.00     0.066 H 
ATOM     46  H   LIG d   1       8.944   9.703  -1.787  0.00  0.00     0.066 H 
ATOM     47  H   LIG d   1       7.792   9.680  -0.430  0.00  0.00     0.066 H 
ENDBRANCH  43  44
ENDBRANCH  38  43
BRANCH  40  48
ATOM     48  O   LIG d   1      10.323   6.009   0.381  0.00  0.00    -0.491 OA
BRANCH  48  49
ATOM     49  C   LIG d   1      11.184   6.641   1.331  0.00  0.00     0.079 C 
ATOM     50  H   LIG d   1      12.175   6.190   1.279  0.00  0.00     0.066 H 
ATOM     51  H   LIG d   1      11.257   7.705   1.103  0.00  0.00     0.066 H 
ATOM     52  H   LIG d   1      10.777   6.511   2.334  0.00  0.00     0.066 H 
ENDBRANCH  48  49
ENDBRANCH  40  48
ENDBRANCH   1  34
BRANCH   4  53
ATOM     53  N   LIG d   1      15.743   3.523  -5.894  0.00  0.00    -0.328 N 
ATOM     54  H   LIG d   1      16.592   3.974  -6.023  0.00  0.00     0.145 HD
ATOM     55  H   LIG d   1      15.599   2.641  -6.271  0.00  0.00     0.145 HD
ENDBRANCH   4  53
TORSDOF 11
ENDMDL
MODEL 3
REMARK VINA RESULT:      -5.8      6.355      8.642
REMARK  11 active torsions:
REMARK  status: ('A' for Active; 'I' for Inactive)
REMARK    1  A    between atoms: C_1  and  O_2 
REMARK    2  A    between atoms: O_2  and  C_3 
REMARK    3  A    between atoms: C_6  and  C_11 
REMARK    4  A    between atoms: C_8  and  O_9 
REMARK    5  A    between atoms: O_9  and  C_10 
REMARK    6  A    between atoms: C_14  and  N_34 
REMARK    7  A    between atoms: C_16  and  C_17 
REMARK    8  A    between atoms: C_20  and  O_24 
REMARK    9  A    between atoms: C_22  and  O_23 
REMARK   10  A    between atoms: O_24  and  C_25 
REMARK   11  A    between atoms: C_25  and  C_26 
ROOT
ATOM      1  C   LIG d   1      12.924   5.646  -3.566  0.00  0.00     0.027 A 
ATOM      2  C   LIG d   1      14.213   6.173  -3.484  0.00  0.00     0.041 A 
ATOM      3  N   LIG d   1      15.199   5.568  -4.126  0.00  0.00    -0.223 NA
ATOM      4  C   LIG d   1      14.980   4.471  -4.840  0.00  0.00     0.213 A 
ATOM      5  N   LIG d   1      13.777   3.931  -4.944  0.00  0.00    -0.214 NA
ATOM      6  C   LIG d   1      12.730   4.478  -4.329  0.00  0.00     0.087 A 
ATOM      7  H   LIG d   1      14.405   7.065  -2.906  0.00  0.00     0.084 H 
ENDROOT
BRANCH   6   8
ATOM      8  C   LIG d   1      11.386   3.872  -4.448  0.00  0.00     0.043 A 
ATOM      9  C   LIG d   1      11.031   2.784  -3.641  0.00  0.00     0.130 A 
ATOM     10  C   LIG d   1       9.772   2.222  -3.759  0.00  0.00     0.022 A 
ATOM     11  C   LIG d   1       8.864   2.737  -4.673  0.00  0.00     0.124 A 
ATOM     12  H   LIG d   1       9.495   1.384  -3.137  0.00  0.00     0.069 H 
ATOM     13  C   LIG d   1       9.217   3.813  -5.479  0.00  0.00    -0.019 A 
ATOM     14  C   LIG d   1      10.467   4.383  -5.366  0.00  0.00    -0.046 A 
ATOM     15  H   LIG d   1       8.509   4.207  -6.192  0.00  0.00     0.065 H 
ATOM     16  H   LIG d   1      10.736   5.222  -5.991  0.00  0.00     0.063 H 
BRANCH   9  17
ATOM     17  O   LIG d   1      11.920   2.283  -2.745  0.00  0.00    -0.506 OA
ATOM     18  H   LIG d   1      11.728   2.519  -1.827  0.00  0.00     0.292 HD
ENDBRANCH   9  17
BRANCH  11  19
ATOM     19  O   LIG d   1       7.630   2.183  -4.786  0.00  0.00    -0.487 OA
BRANCH  19  20
ATOM     20  C   LIG d   1       7.560   0.857  -5.314  0.00  0.00     0.116 C 
ATOM     21  H   LIG d   1       8.546   0.396  -5.268  0.00  0.00     0.075 H 
ATOM     22  H   LIG d   1       7.223   0.895  -6.350  0.00  0.00     0.075 H 
BRANCH  20  23
ATOM     23  C   LIG d   1       6.587   0.043  -4.499  0.00  0.00     0.008 A 
ATOM     24  C   LIG d   1       6.248  -1.236  -4.902  0.00  0.00     0.049 A 
ATOM     25  C   LIG d   1       5.351  -1.981  -4.158  0.00  0.00    -0.025 A 
ATOM     26 CL   LIG d   1       6.943  -1.904  -6.346  0.00  0.00    -0.083 Cl
ATOM     27  C   LIG d   1       4.797  -1.448  -3.007  0.00  0.00     0.042 A 
ATOM     28  H   LIG d   1       5.082  -2.978  -4.475  0.00  0.00     0.065 H 
ATOM     29  C   LIG d   1       5.141  -0.170  -2.602  0.00  0.00    -0.043 A 
ATOM     30 CL   LIG d   1       3.671  -2.382  -2.073  0.00  0.00    -0.084 Cl
ATOM     31  C   LIG d   1       6.038   0.573  -3.346  0.00  0.00    -0.053 A 
ATOM     32  H   LIG d   1       4.710   0.247  -1.704  0.00  0.00     0.063 H 
ATOM     33  H   LIG d   1       6.307   1.570  -3.030  0.00  0.00     0.062 H 
ENDBRANCH  20  23
ENDBRANCH  19  20
ENDBRANCH  11  19
ENDBRANCH   6   8
BRANCH   1  34
ATOM     34  C   LIG d   1      11.792   6.296  -2.866  0.00  0.00    -0.011 A 
ATOM     35  C   LIG d   1      11.002   7.231  -3.534  0.00  0.00    -0.050 A 
ATOM     36  C   LIG d   1       9.946   7.836  -2.883  0.00  0.00    -0.016 A 
ATOM     37  H   LIG d   1      11.216   7.482  -4.564  0.00  0.00     0.062 H 
ATOM     38  C   LIG d   1       9.668   7.516  -1.563  0.00  0.00     0.162 A 
ATOM     39  H   LIG d   1       9.335   8.559  -3.402  0.00  0.00     0.066 H 
ATOM     40  C   LIG d   1      10.454   6.583  -0.890  0.00  0.00     0.162 A 
ATOM     41  C   LIG d   1      11.509   5.970  -1.540  0.00  0.00    -0.009 A 
ATOM     42  H   LIG d   1      12.116   5.242  -1.022  0.00  0.00     0.066 H 
BRANCH  38  43
ATOM     43  O   LIG d   1       8.627   8.114  -0.924  0.00  0.00    -0.491 OA
BRANCH  43  44
ATOM     44  C   LIG d   1       8.732   9.520  -0.690  0.00  0.00     0.079 C 
ATOM     45  H   LIG d   1       8.360   9.750   0.309  0.00  0.00     0.066 H 
ATOM     46  H   LIG d   1       9.776   9.824  -0.767  0.00  0.00     0.066 H 
ATOM     47  H   LIG d   1       8.140  10.056  -1.431  0.00  0.00     0.066 H 
ENDBRANCH  43  44
ENDBRANCH  38  43
BRANCH  40  48
ATOM     48  O   LIG d   1      10.178   6.270   0.405  0.00  0.00    -0.491 OA
BRANCH  48  49
ATOM     49  C   LIG d   1      11.237   5.692   1.171  0.00  0.00     0.079 C 
ATOM     50  H   LIG d   1      11.459   4.696   0.789  0.00  0.00     0.066 H 
ATOM     51  H   LIG d   1      12.125   6.318   1.093  0.00  0.00     0.066 H 
ATOM     52  H   LIG d   1      10.932   5.621   2.216  0.00  0.00     0.066 H 
ENDBRANCH  48  49
ENDBRANCH  40  48
ENDBRANCH   1  34
BRANCH   4  53
ATOM     53  N   LIG d   1      16.043   3.874  -5.494  0.00  0.00    -0.328 N 
ATOM     54  H   LIG d   1      16.643   3.285  -5.010  0.00  0.00     0.145 HD
ATOM     55  H   LIG d   1      16.187   4.043  -6.439  0.00  0.00     0.145 HD
ENDBRANCH   4  53
TORSDOF 11
ENDMDL
MODEL 4
REMARK VINA RESULT:      -5.8      4.298      7.915
REMARK  11 active torsions:
REMARK  status: ('A' for Active; 'I' for Inactive)
REMARK    1  A    between atoms: C_1  and  O_2 
REMARK    2  A    between atoms: O_2  and  C_3 
REMARK    3  A    between atoms: C_6  and  C_11 
REMARK    4  A    between atoms: C_8  and  O_9 
REMARK    5  A    between atoms: O_9  and  C_10 
REMARK    6  A    between atoms: C_14  and  N_34 
REMARK    7  A    between atoms: C_16  and  C_17 
REMARK    8  A    between atoms: C_20  and  O_24 
REMARK    9  A    between atoms: C_22  and  O_23 
REMARK   10  A    between atoms: O_24  and  C_25 
REMARK   11  A    between atoms: C_25  and  C_26 
ROOT
ATOM      1  C   LIG d   1       2.330  -3.738 -10.121  0.00  0.00     0.027 A 
ATOM      2  C   LIG d   1       1.316  -4.248 -10.931  0.00  0.00     0.041 A 
ATOM      3  N   LIG d   1       1.055  -5.544 -10.897  0.00  0.00    -0.223 NA
ATOM      4  C   LIG d   1       1.741  -6.361 -10.109  0.00  0.00     0.213 A 
ATOM      5  N   LIG d   1       2.715  -5.925  -9.326  0.00  0.00    -0.214 NA
ATOM      6  C   LIG d   1       3.042  -4.635  -9.301  0.00  0.00     0.087 A 
ATOM      7  H   LIG d   1       0.750  -3.594 -11.578  0.00  0.00     0.084 H 
ENDROOT
BRANCH   6   8
ATOM      8  C   LIG d   1       4.130  -4.151  -8.424  0.00  0.00     0.043 A 
ATOM      9  C   LIG d   1       4.079  -4.388  -7.045  0.00  0.00     0.130 A 
ATOM     10  C   LIG d   1       5.101  -3.932  -6.229  0.00  0.00     0.022 A 
ATOM     11  C   LIG d   1       6.172  -3.242  -6.779  0.00  0.00     0.124 A 
ATOM     12  H   LIG d   1       5.065  -4.114  -5.166  0.00  0.00     0.069 H 
ATOM     13  C   LIG d   1       6.221  -3.001  -8.147  0.00  0.00    -0.019 A 
ATOM     14  C   LIG d   1       5.212  -3.455  -8.968  0.00  0.00    -0.046 A 
ATOM     15  H   LIG d   1       7.054  -2.459  -8.568  0.00  0.00     0.065 H 
ATOM     16  H   LIG d   1       5.255  -3.270 -10.031  0.00  0.00     0.063 H 
BRANCH   9  17
ATOM     17  O   LIG d   1       3.031  -5.065  -6.509  0.00  0.00    -0.506 OA
ATOM     18  H   LIG d   1       2.236  -5.060  -7.060  0.00  0.00     0.292 HD
ENDBRANCH   9  17
BRANCH  11  19
ATOM     19  O   LIG d   1       7.172  -2.795  -5.976  0.00  0.00    -0.487 OA
BRANCH  19  20
ATOM     20  C   LIG d   1       7.090  -3.131  -4.590  0.00  0.00     0.116 C 
ATOM     21  H   LIG d   1       8.093  -3.270  -4.190  0.00  0.00     0.075 H 
ATOM     22  H   LIG d   1       6.519  -4.053  -4.473  0.00  0.00     0.075 H 
BRANCH  20  23
ATOM     23  C   LIG d   1       6.400  -2.017  -3.844  0.00  0.00     0.008 A 
ATOM     24  C   LIG d   1       6.925  -0.738  -3.871  0.00  0.00     0.049 A 
ATOM     25  C   LIG d   1       6.294   0.283  -3.181  0.00  0.00    -0.025 A 
ATOM     26 CL   LIG d   1       8.377  -0.414  -4.765  0.00  0.00    -0.083 Cl
ATOM     27  C   LIG d   1       5.137   0.024  -2.469  0.00  0.00     0.042 A 
ATOM     28  H   LIG d   1       6.706   1.281  -3.198  0.00  0.00     0.065 H 
ATOM     29  C   LIG d   1       4.611  -1.255  -2.447  0.00  0.00    -0.043 A 
ATOM     30 CL   LIG d   1       4.346   1.304  -1.604  0.00  0.00    -0.084 Cl
ATOM     31  C   LIG d   1       5.240  -2.274  -3.136  0.00  0.00    -0.053 A 
ATOM     32  H   LIG d   1       3.707  -1.459  -1.891  0.00  0.00     0.063 H 
ATOM     33  H   LIG d   1       4.828  -3.273  -3.119  0.00  0.00     0.062 H 
ENDBRANCH  20  23
ENDBRANCH  19  20
ENDBRANCH  11  19
ENDBRANCH   6   8
BRANCH   1  34
ATOM     34  C   LIG d   1       2.652  -2.291 -10.126  0.00  0.00    -0.011 A 
ATOM     35  C   LIG d   1       2.256  -1.484  -9.060  0.00  0.00    -0.050 A 
ATOM     36  C   LIG d   1       2.557  -0.137  -9.064  0.00  0.00    -0.016 A 
ATOM     37  H   LIG d   1       1.715  -1.913  -8.229  0.00  0.00     0.062 H 
ATOM     38  C   LIG d   1       3.252   0.417 -10.129  0.00  0.00     0.162 A 
ATOM     39  H   LIG d   1       2.250   0.487  -8.238  0.00  0.00     0.066 H 
ATOM     40  C   LIG d   1       3.649  -0.384 -11.196  0.00  0.00     0.162 A 
ATOM     41  C   LIG d   1       3.356  -1.735 -11.194  0.00  0.00    -0.009 A 
ATOM     42  H   LIG d   1       3.668  -2.359 -12.019  0.00  0.00     0.066 H 
BRANCH  38  43
ATOM     43  O   LIG d   1       3.546   1.745 -10.130  0.00  0.00    -0.491 OA
BRANCH  43  44
ATOM     44  C   LIG d   1       4.644   2.166  -9.319  0.00  0.00     0.079 C 
ATOM     45  H   LIG d   1       4.797   3.238  -9.443  0.00  0.00     0.066 H 
ATOM     46  H   LIG d   1       4.427   1.950  -8.272  0.00  0.00     0.066 H 
ATOM     47  H   LIG d   1       5.545   1.633  -9.622  0.00  0.00     0.066 H 
ENDBRANCH  43  44
ENDBRANCH  38  43
BRANCH  40  48
ATOM     48  O   LIG d   1       4.332   0.162 -12.239  0.00  0.00    -0.491 OA
BRANCH  48  49
ATOM     49  C   LIG d   1       4.367  -0.588 -13.454  0.00  0.00     0.079 C 
ATOM     50  H   LIG d   1       3.356  -0.901 -13.717  0.00  0.00     0.066 H 
ATOM     51  H   LIG d   1       4.775   0.032 -14.252  0.00  0.00     0.066 H 
ATOM     52  H   LIG d   1       4.996  -1.469 -13.320  0.00  0.00     0.066 H 
ENDBRANCH  48  49
ENDBRANCH  40  48
ENDBRANCH   1  34
BRANCH   4  53
ATOM     53  N   LIG d   1       1.431  -7.709 -10.106  0.00  0.00    -0.328 N 
ATOM     54  H   LIG d   1       1.748  -8.279  -9.388  0.00  0.00     0.145 HD
ATOM     55  H   LIG d   1       0.896  -8.085 -10.823  0.00  0.00     0.145 HD
ENDBRANCH   4  53
TORSDOF 11
ENDMDL
MODEL 5
REMARK VINA RESULT:      -5.7     10.588     12.652
REMARK  11 active torsions:
REMARK  status: ('A' for Active; 'I' for Inactive)
REMARK    1  A    between atoms: C_1  and  O_2 
REMARK    2  A    between atoms: O_2  and  C_3 
REMARK    3  A    between atoms: C_6  and  C_11 
REMARK    4  A    between atoms: C_8  and  O_9 
REMARK    5  A    between atoms: O_9  and  C_10 
REMARK    6  A    between atoms: C_14  and  N_34 
REMARK    7  A    between atoms: C_16  and  C_17 
REMARK    8  A    between atoms: C_20  and  O_24 
REMARK    9  A    between atoms: C_22  and  O_23 
REMARK   10  A    between atoms: O_24  and  C_25 
REMARK   11  A    between atoms: C_25  and  C_26 
ROOT
ATOM      1  C   LIG d   1      10.386  10.882  -0.227  0.00  0.00     0.027 A 
ATOM      2  C   LIG d   1      10.364  11.449   1.047  0.00  0.00     0.041 A 
ATOM      3  N   LIG d   1      10.278  12.764   1.166  0.00  0.00    -0.223 NA
ATOM      4  C   LIG d   1      10.215  13.545   0.096  0.00  0.00     0.213 A 
ATOM      5  N   LIG d   1      10.237  13.054  -1.133  0.00  0.00    -0.214 NA
ATOM      6  C   LIG d   1      10.322  11.742  -1.340  0.00  0.00     0.087 A 
ATOM      7  H   LIG d   1      10.415  10.824   1.927  0.00  0.00     0.084 H 
ENDROOT
BRANCH   6   8
ATOM      8  C   LIG d   1      10.345  11.197  -2.714  0.00  0.00     0.043 A 
ATOM      9  C   LIG d   1       9.167  11.140  -3.468  0.00  0.00     0.130 A 
ATOM     10  C   LIG d   1       9.195  10.628  -4.754  0.00  0.00     0.022 A 
ATOM     11  C   LIG d   1      10.390  10.173  -5.293  0.00  0.00     0.124 A 
ATOM     12  H   LIG d   1       8.288  10.584  -5.337  0.00  0.00     0.069 H 
ATOM     13  C   LIG d   1      11.560  10.224  -4.544  0.00  0.00    -0.019 A 
ATOM     14  C   LIG d   1      11.543  10.737  -3.265  0.00  0.00    -0.046 A 
ATOM     15  H   LIG d   1      12.486   9.864  -4.968  0.00  0.00     0.065 H 
ATOM     16  H   LIG d   1      12.454  10.778  -2.688  0.00  0.00     0.063 H 
BRANCH   9  17
ATOM     17  O   LIG d   1       7.999  11.588  -2.939  0.00  0.00    -0.506 OA
ATOM     18  H   LIG d   1       7.839  12.531  -3.079  0.00  0.00     0.292 HD
ENDBRANCH   9  17
BRANCH  11  19
ATOM     19  O   LIG d   1      10.414   9.671  -6.555  0.00  0.00    -0.487 OA
BRANCH  19  20
ATOM     20  C   LIG d   1       9.283   8.903  -6.968  0.00  0.00     0.116 C 
ATOM     21  H   LIG d   1       9.170   8.976  -8.050  0.00  0.00     0.075 H 
ATOM     22  H   LIG d   1       8.385   9.286  -6.482  0.00  0.00     0.075 H 
BRANCH  20  23
ATOM     23  C   LIG d   1       9.486   7.460  -6.580  0.00  0.00     0.008 A 
ATOM     24  C   LIG d   1       9.983   6.559  -7.504  0.00  0.00     0.049 A 
ATOM     25  C   LIG d   1      10.165   5.234  -7.149  0.00  0.00    -0.025 A 
ATOM     26 CL   LIG d   1      10.374   7.088  -9.111  0.00  0.00    -0.083 Cl
ATOM     27  C   LIG d   1       9.854   4.812  -5.869  0.00  0.00     0.042 A 
ATOM     28  H   LIG d   1      10.548   4.529  -7.871  0.00  0.00     0.065 H 
ATOM     29  C   LIG d   1       9.361   5.717  -4.944  0.00  0.00    -0.043 A 
ATOM     30 CL   LIG d   1      10.081   3.150  -5.423  0.00  0.00    -0.084 Cl
ATOM     31  C   LIG d   1       9.181   7.040  -5.299  0.00  0.00    -0.053 A 
ATOM     32  H   LIG d   1       9.118   5.389  -3.944  0.00  0.00     0.063 H 
ATOM     33  H   LIG d   1       8.797   7.746  -4.576  0.00  0.00     0.062 H 
ENDBRANCH  20  23
ENDBRANCH  19  20
ENDBRANCH  11  19
ENDBRANCH   6   8
BRANCH   1  34
ATOM     34  C   LIG d   1      10.477   9.413  -0.403  0.00  0.00    -0.011 A 
ATOM     35  C   LIG d   1       9.410   8.709  -0.960  0.00  0.00    -0.050 A 
ATOM     36  C   LIG d   1       9.495   7.341  -1.125  0.00  0.00    -0.016 A 
ATOM     37  H   LIG d   1       8.516   9.234  -1.263  0.00  0.00     0.062 H 
ATOM     38  C   LIG d   1      10.642   6.664  -0.737  0.00  0.00     0.162 A 
ATOM     39  H   LIG d   1       8.668   6.798  -1.556  0.00  0.00     0.066 H 
ATOM     40  C   LIG d   1      11.711   7.362  -0.181  0.00  0.00     0.162 A 
ATOM     41  C   LIG d   1      11.632   8.733  -0.019  0.00  0.00    -0.009 A 
ATOM     42  H   LIG d   1      12.462   9.276   0.409  0.00  0.00     0.066 H 
BRANCH  38  43
ATOM     43  O   LIG d   1      10.722   5.317  -0.901  0.00  0.00    -0.491 OA
BRANCH  43  44
ATOM     44  C   LIG d   1      11.202   4.845  -2.162  0.00  0.00     0.079 C 
ATOM     45  H   LIG d   1      12.230   5.177  -2.307  0.00  0.00     0.066 H 
ATOM     46  H   LIG d   1      11.168   3.755  -2.178  0.00  0.00     0.066 H 
ATOM     47  H   LIG d   1      10.576   5.241  -2.961  0.00  0.00     0.066 H 
ENDBRANCH  43  44
ENDBRANCH  38  43
BRANCH  40  48
ATOM     48  O   LIG d   1      12.834   6.696   0.198  0.00  0.00    -0.491 OA
BRANCH  48  49
ATOM     49  C   LIG d   1      13.982   6.831  -0.642  0.00  0.00     0.079 C 
ATOM     50  H   LIG d   1      14.089   5.937  -1.256  0.00  0.00     0.066 H 
ATOM     51  H   LIG d   1      13.861   7.702  -1.285  0.00  0.00     0.066 H 
ATOM     52  H   LIG d   1      14.872   6.956  -0.024  0.00  0.00     0.066 H 
ENDBRANCH  48  49
ENDBRANCH  40  48
ENDBRANCH   1  34
BRANCH   4  53
ATOM     53  N   LIG d   1      10.125  14.915   0.270  0.00  0.00    -0.328 N 
ATOM     54  H   LIG d   1      10.627  15.349   0.977  0.00  0.00     0.145 HD
ATOM     55  H   LIG d   1       9.559  15.442  -0.317  0.00  0.00     0.145 HD
ENDBRANCH   4  53
TORSDOF 11
ENDMDL
MODEL 6
REMARK VINA RESULT:      -5.7      4.926      8.458
REMARK  11 active torsions:
REMARK  status: ('A' for Active; 'I' for Inactive)
REMARK    1  A    between atoms: C_1  and  O_2 
REMARK    2  A    between atoms: O_2  and  C_3 
REMARK    3  A    between atoms: C_6  and  C_11 
REMARK    4  A    between atoms: C_8  and  O_9 
REMARK    5  A    between atoms: O_9  and  C_10 
REMARK    6  A    between atoms: C_14  and  N_34 
REMARK    7  A    between atoms: C_16  and  C_17 
REMARK    8  A    between atoms: C_20  and  O_24 
REMARK    9  A    between atoms: C_22  and  O_23 
REMARK   10  A    between atoms: O_24  and  C_25 
REMARK   11  A    between atoms: C_25  and  C_26 
ROOT
ATOM      1  C   LIG d   1       3.931  -1.769  -7.706  0.00  0.00     0.027 A 
ATOM      2  C   LIG d   1       3.070  -0.970  -8.459  0.00  0.00     0.041 A 
ATOM      3  N   LIG d   1       2.374  -1.519  -9.440  0.00  0.00    -0.223 NA
ATOM      4  C   LIG d   1       2.486  -2.811  -9.719  0.00  0.00     0.213 A 
ATOM      5  N   LIG d   1       3.292  -3.608  -9.038  0.00  0.00    -0.214 NA
ATOM      6  C   LIG d   1       4.028  -3.135  -8.034  0.00  0.00     0.087 A 
ATOM      7  H   LIG d   1       2.970   0.084  -8.242  0.00  0.00     0.084 H 
ENDROOT
BRANCH   6   8
ATOM      8  C   LIG d   1       4.927  -4.029  -7.273  0.00  0.00     0.043 A 
ATOM      9  C   LIG d   1       4.394  -4.975  -6.389  0.00  0.00     0.130 A 
ATOM     10  C   LIG d   1       5.242  -5.809  -5.679  0.00  0.00     0.022 A 
ATOM     11  C   LIG d   1       6.615  -5.706  -5.846  0.00  0.00     0.124 A 
ATOM     12  H   LIG d   1       4.834  -6.539  -4.997  0.00  0.00     0.069 H 
ATOM     13  C   LIG d   1       7.146  -4.764  -6.720  0.00  0.00    -0.019 A 
ATOM     14  C   LIG d   1       6.311  -3.933  -7.434  0.00  0.00    -0.046 A 
ATOM     15  H   LIG d   1       8.216  -4.686  -6.842  0.00  0.00     0.065 H 
ATOM     16  H   LIG d   1       6.726  -3.205  -8.115  0.00  0.00     0.063 H 
BRANCH   9  17
ATOM     17  O   LIG d   1       3.050  -5.075  -6.228  0.00  0.00    -0.506 OA
ATOM     18  H   LIG d   1       2.571  -5.281  -7.043  0.00  0.00     0.292 HD
ENDBRANCH   9  17
BRANCH  11  19
ATOM     19  O   LIG d   1       7.445  -6.525  -5.148  0.00  0.00    -0.487 OA
BRANCH  19  20
ATOM     20  C   LIG d   1       7.445  -7.907  -5.510  0.00  0.00     0.116 C 
ATOM     21  H   LIG d   1       8.429  -8.183  -5.888  0.00  0.00     0.075 H 
ATOM     22  H   LIG d   1       6.695  -8.082  -6.282  0.00  0.00     0.075 H 
BRANCH  20  23
ATOM     23  C   LIG d   1       7.120  -8.743  -4.298  0.00  0.00     0.008 A 
ATOM     24  C   LIG d   1       5.934  -9.452  -4.244  0.00  0.00     0.049 A 
ATOM     25  C   LIG d   1       5.634 -10.216  -3.130  0.00  0.00    -0.025 A 
ATOM     26 CL   LIG d   1       4.819  -9.380  -5.573  0.00  0.00    -0.083 Cl
ATOM     27  C   LIG d   1       6.523 -10.274  -2.072  0.00  0.00     0.042 A 
ATOM     28  H   LIG d   1       4.706 -10.766  -3.086  0.00  0.00     0.065 H 
ATOM     29  C   LIG d   1       7.712  -9.568  -2.129  0.00  0.00    -0.043 A 
ATOM     30 CL   LIG d   1       6.148 -11.231  -0.674  0.00  0.00    -0.084 Cl
ATOM     31  C   LIG d   1       8.011  -8.806  -3.242  0.00  0.00    -0.053 A 
ATOM     32  H   LIG d   1       8.407  -9.612  -1.303  0.00  0.00     0.063 H 
ATOM     33  H   LIG d   1       8.940  -8.255  -3.287  0.00  0.00     0.062 H 
ENDBRANCH  20  23
ENDBRANCH  19  20
ENDBRANCH  11  19
ENDBRANCH   6   8
BRANCH   1  34
ATOM     34  C   LIG d   1       4.725  -1.194  -6.595  0.00  0.00    -0.011 A 
ATOM     35  C   LIG d   1       5.939  -0.562  -6.858  0.00  0.00    -0.050 A 
ATOM     36  C   LIG d   1       6.678  -0.024  -5.823  0.00  0.00    -0.016 A 
ATOM     37  H   LIG d   1       6.303  -0.492  -7.873  0.00  0.00     0.062 H 
ATOM     38  C   LIG d   1       6.214  -0.112  -4.519  0.00  0.00     0.162 A 
ATOM     39  H   LIG d   1       7.618   0.464  -6.028  0.00  0.00     0.066 H 
ATOM     40  C   LIG d   1       5.001  -0.742  -4.250  0.00  0.00     0.162 A 
ATOM     41  C   LIG d   1       4.255  -1.276  -5.285  0.00  0.00    -0.009 A 
ATOM     42  H   LIG d   1       3.312  -1.761  -5.078  0.00  0.00     0.066 H 
BRANCH  38  43
ATOM     43  O   LIG d   1       6.944   0.418  -3.502  0.00  0.00    -0.491 OA
BRANCH  43  44
ATOM     44  C   LIG d   1       7.706   1.590  -3.794  0.00  0.00     0.079 C 
ATOM     45  H   LIG d   1       8.009   2.067  -2.861  0.00  0.00     0.066 H 
ATOM     46  H   LIG d   1       8.593   1.314  -4.365  0.00  0.00     0.066 H 
ATOM     47  H   LIG d   1       7.100   2.283  -4.376  0.00  0.00     0.066 H 
ENDBRANCH  43  44
ENDBRANCH  38  43
BRANCH  40  48
ATOM     48  O   LIG d   1       4.548  -0.826  -2.971  0.00  0.00    -0.491 OA
BRANCH  48  49
ATOM     49  C   LIG d   1       3.985  -2.075  -2.563  0.00  0.00     0.079 C 
ATOM     50  H   LIG d   1       3.020  -1.901  -2.088  0.00  0.00     0.066 H 
ATOM     51  H   LIG d   1       3.852  -2.715  -3.434  0.00  0.00     0.066 H 
ATOM     52  H   LIG d   1       4.657  -2.561  -1.853  0.00  0.00     0.066 H 
ENDBRANCH  48  49
ENDBRANCH  40  48
ENDBRANCH   1  34
BRANCH   4  53
ATOM     53  N   LIG d   1       1.737  -3.341 -10.755  0.00  0.00    -0.328 N 
ATOM     54  H   LIG d   1       2.004  -4.176 -11.170  0.00  0.00     0.145 HD
ATOM     55  H   LIG d   1       0.944  -2.876 -11.067  0.00  0.00     0.145 HD
ENDBRANCH   4  53
TORSDOF 11
ENDMDL
MODEL 7
REMARK VINA RESULT:      -5.6      2.539      4.029
REMARK  11 active torsions:
REMARK  status: ('A' for Active; 'I' for Inactive)
REMARK    1  A    between atoms: C_1  and  O_2 
REMARK    2  A    between atoms: O_2  and  C_3 
REMARK    3  A    between atoms: C_6  and  C_11 
REMARK    4  A    between atoms: C_8  and  O_9 
REMARK    5  A    between atoms: O_9  and  C_10 
REMARK    6  A    between atoms: C_14  and  N_34 
REMARK    7  A    between atoms: C_16  and  C_17 
REMARK    8  A    between atoms: C_20  and  O_24 
REMARK    9  A    between atoms: C_22  and  O_23 
REMARK   10  A    between atoms: O_24  and  C_25 
REMARK   11  A    between atoms: C_25  and  C_26 
ROOT
ATOM      1  C   LIG d   1       7.165  -3.022  -4.863  0.00  0.00     0.027 A 
ATOM      2  C   LIG d   1       8.046  -3.926  -4.269  0.00  0.00     0.041 A 
ATOM      3  N   LIG d   1       8.638  -4.838  -5.023  0.00  0.00    -0.223 NA
ATOM      4  C   LIG d   1       8.404  -4.905  -6.327  0.00  0.00     0.213 A 
ATOM      5  N   LIG d   1       7.574  -4.073  -6.934  0.00  0.00    -0.214 NA
ATOM      6  C   LIG d   1       6.937  -3.126  -6.249  0.00  0.00     0.087 A 
ATOM      7  H   LIG d   1       8.245  -3.881  -3.209  0.00  0.00     0.084 H 
ENDROOT
BRANCH   6   8
ATOM      8  C   LIG d   1       6.011  -2.197  -6.931  0.00  0.00     0.043 A 
ATOM      9  C   LIG d   1       4.651  -2.515  -7.042  0.00  0.00     0.130 A 
ATOM     10  C   LIG d   1       3.790  -1.641  -7.682  0.00  0.00     0.022 A 
ATOM     11  C   LIG d   1       4.273  -0.453  -8.211  0.00  0.00     0.124 A 
ATOM     12  H   LIG d   1       2.741  -1.883  -7.768  0.00  0.00     0.069 H 
ATOM     13  C   LIG d   1       5.623  -0.139  -8.107  0.00  0.00    -0.019 A 
ATOM     14  C   LIG d   1       6.488  -0.999  -7.467  0.00  0.00    -0.046 A 
ATOM     15  H   LIG d   1       5.994   0.785  -8.525  0.00  0.00     0.065 H 
ATOM     16  H   LIG d   1       7.535  -0.750  -7.384  0.00  0.00     0.063 H 
BRANCH   9  17
ATOM     17  O   LIG d   1       4.180  -3.677  -6.522  0.00  0.00    -0.506 OA
ATOM     18  H   LIG d   1       4.591  -3.928  -5.683  0.00  0.00     0.292 HD
ENDBRANCH   9  17
BRANCH  11  19
ATOM     19  O   LIG d   1       3.425   0.402  -8.839  0.00  0.00    -0.487 OA
BRANCH  19  20
ATOM     20  C   LIG d   1       3.709   0.708 -10.205  0.00  0.00     0.116 C 
ATOM     21  H   LIG d   1       4.776   0.596 -10.389  0.00  0.00     0.075 H 
ATOM     22  H   LIG d   1       3.408   1.735 -10.418  0.00  0.00     0.075 H 
BRANCH  20  23
ATOM     23  C   LIG d   1       2.943  -0.233 -11.100  0.00  0.00     0.008 A 
ATOM     24  C   LIG d   1       3.572  -0.828 -12.179  0.00  0.00     0.049 A 
ATOM     25  C   LIG d   1       2.868  -1.688 -13.002  0.00  0.00    -0.025 A 
ATOM     26 CL   LIG d   1       5.244  -0.491 -12.502  0.00  0.00    -0.083 Cl
ATOM     27  C   LIG d   1       1.536  -1.956 -12.744  0.00  0.00     0.042 A 
ATOM     28  H   LIG d   1       3.357  -2.149 -13.848  0.00  0.00     0.065 H 
ATOM     29  C   LIG d   1       0.909  -1.365 -11.662  0.00  0.00    -0.043 A 
ATOM     30 CL   LIG d   1       0.651  -3.035 -13.778  0.00  0.00    -0.084 Cl
ATOM     31  C   LIG d   1       1.613  -0.506 -10.839  0.00  0.00    -0.053 A 
ATOM     32  H   LIG d   1      -0.132  -1.573 -11.459  0.00  0.00     0.063 H 
ATOM     33  H   LIG d   1       1.123  -0.045  -9.994  0.00  0.00     0.062 H 
ENDBRANCH  20  23
ENDBRANCH  19  20
ENDBRANCH  11  19
ENDBRANCH   6   8
BRANCH   1  34
ATOM     34  C   LIG d   1       6.485  -1.982  -4.055  0.00  0.00    -0.011 A 
ATOM     35  C   LIG d   1       5.327  -2.294  -3.346  0.00  0.00    -0.050 A 
ATOM     36  C   LIG d   1       4.695  -1.326  -2.592  0.00  0.00    -0.016 A 
ATOM     37  H   LIG d   1       4.923  -3.296  -3.385  0.00  0.00     0.062 H 
ATOM     38  C   LIG d   1       5.210  -0.040  -2.539  0.00  0.00     0.162 A 
ATOM     39  H   LIG d   1       3.797  -1.570  -2.044  0.00  0.00     0.066 H 
ATOM     40  C   LIG d   1       6.368   0.279  -3.245  0.00  0.00     0.162 A 
ATOM     41  C   LIG d   1       7.008  -0.690  -3.997  0.00  0.00    -0.009 A 
ATOM     42  H   LIG d   1       7.908  -0.446  -4.541  0.00  0.00     0.066 H 
BRANCH  38  43
ATOM     43  O   LIG d   1       4.585   0.911  -1.796  0.00  0.00    -0.491 OA
BRANCH  43  44
ATOM     44  C   LIG d   1       3.460   1.563  -2.390  0.00  0.00     0.079 C 
ATOM     45  H   LIG d   1       2.651   0.845  -2.519  0.00  0.00     0.066 H 
ATOM     46  H   LIG d   1       3.126   2.374  -1.742  0.00  0.00     0.066 H 
ATOM     47  H   LIG d   1       3.746   1.967  -3.361  0.00  0.00     0.066 H 
ENDBRANCH  43  44
ENDBRANCH  38  43
BRANCH  40  48
ATOM     48  O   LIG d   1       6.871   1.541  -3.190  0.00  0.00    -0.491 OA
BRANCH  48  49
ATOM     49  C   LIG d   1       8.101   1.778  -3.879  0.00  0.00     0.079 C 
ATOM     50  H   LIG d   1       8.923   1.337  -3.316  0.00  0.00     0.066 H 
ATOM     51  H   LIG d   1       8.055   1.327  -4.870  0.00  0.00     0.066 H 
ATOM     52  H   LIG d   1       8.261   2.853  -3.975  0.00  0.00     0.066 H 
ENDBRANCH  48  49
ENDBRANCH  40  48
ENDBRANCH   1  34
BRANCH   4  53
ATOM     53  N   LIG d   1       9.047  -5.876  -7.074  0.00  0.00    -0.328 N 
ATOM     54  H   LIG d   1       9.366  -5.670  -7.967  0.00  0.00     0.145 HD
ATOM     55  H   LIG d   1       9.180  -6.764  -6.705  0.00  0.00     0.145 HD
ENDBRANCH   4  53
TORSDOF 11
ENDMDL
MODEL 8
REMARK VINA RESULT:      -5.6      3.422      4.999
REMARK  11 active torsions:
REMARK  status: ('A' for Active; 'I' for Inactive)
REMARK    1  A    between atoms: C_1  and  O_2 
REMARK    2  A    between atoms: O_2  and  C_3 
REMARK    3  A    between atoms: C_6  and  C_11 
REMARK    4  A    between atoms: C_8  and  O_9 
REMARK    5  A    between atoms: O_9  and  C_10 
REMARK    6  A    between atoms: C_14  and  N_34 
REMARK    7  A    between atoms: C_16  and  C_17 
REMARK    8  A    between atoms: C_20  and  O_24 
REMARK    9  A    between atoms: C_22  and  O_23 
REMARK   10  A    between atoms: O_24  and  C_25 
REMARK   11  A    between atoms: C_25  and  C_26 
ROOT
ATOM      1  C   LIG d   1       5.030  -1.851  -4.039  0.00  0.00     0.027 A 
ATOM      2  C   LIG d   1       4.941  -1.936  -2.650  0.00  0.00     0.041 A 
ATOM      3  N   LIG d   1       4.648  -0.849  -1.956  0.00  0.00    -0.223 NA
ATOM      4  C   LIG d   1       4.443   0.315  -2.558  0.00  0.00     0.213 A 
ATOM      5  N   LIG d   1       4.522   0.447  -3.873  0.00  0.00    -0.214 NA
ATOM      6  C   LIG d   1       4.811  -0.598  -4.645  0.00  0.00     0.087 A 
ATOM      7  H   LIG d   1       5.105  -2.877  -2.147  0.00  0.00     0.084 H 
ENDROOT
BRANCH   6   8
ATOM      8  C   LIG d   1       4.897  -0.448  -6.114  0.00  0.00     0.043 A 
ATOM      9  C   LIG d   1       3.731  -0.291  -6.874  0.00  0.00     0.130 A 
ATOM     10  C   LIG d   1       3.819  -0.151  -8.248  0.00  0.00     0.022 A 
ATOM     11  C   LIG d   1       5.059  -0.166  -8.870  0.00  0.00     0.124 A 
ATOM     12  H   LIG d   1       2.921  -0.030  -8.836  0.00  0.00     0.069 H 
ATOM     13  C   LIG d   1       6.217  -0.326  -8.117  0.00  0.00    -0.019 A 
ATOM     14  C   LIG d   1       6.141  -0.461  -6.748  0.00  0.00    -0.046 A 
ATOM     15  H   LIG d   1       7.179  -0.341  -8.607  0.00  0.00     0.065 H 
ATOM     16  H   LIG d   1       7.043  -0.581  -6.166  0.00  0.00     0.063 H 
BRANCH   9  17
ATOM     17  O   LIG d   1       2.518  -0.276  -6.263  0.00  0.00    -0.506 OA
ATOM     18  H   LIG d   1       1.874   0.310  -6.684  0.00  0.00     0.292 HD
ENDBRANCH   9  17
BRANCH  11  19
ATOM     19  O   LIG d   1       5.141  -0.029 -10.218  0.00  0.00    -0.487 OA
BRANCH  19  20
ATOM     20  C   LIG d   1       4.018   0.556 -10.880  0.00  0.00     0.116 C 
ATOM     21  H   LIG d   1       4.305   1.519 -11.301  0.00  0.00     0.075 H 
ATOM     22  H   LIG d   1       3.207   0.697 -10.164  0.00  0.00     0.075 H 
BRANCH  20  23
ATOM     23  C   LIG d   1       3.556  -0.358 -11.987  0.00  0.00     0.008 A 
ATOM     24  C   LIG d   1       2.326  -0.984 -11.898  0.00  0.00     0.049 A 
ATOM     25  C   LIG d   1       1.904  -1.826 -12.912  0.00  0.00    -0.025 A 
ATOM     26 CL   LIG d   1       1.314  -0.718 -10.513  0.00  0.00    -0.083 Cl
ATOM     27  C   LIG d   1       2.710  -2.038 -14.015  0.00  0.00     0.042 A 
ATOM     28  H   LIG d   1       0.945  -2.319 -12.841  0.00  0.00     0.065 H 
ATOM     29  C   LIG d   1       3.939  -1.407 -14.105  0.00  0.00    -0.043 A 
ATOM     30 CL   LIG d   1       2.182  -3.095 -15.287  0.00  0.00    -0.084 Cl
ATOM     31  C   LIG d   1       4.359  -0.565 -13.093  0.00  0.00    -0.053 A 
ATOM     32  H   LIG d   1       4.569  -1.572 -14.966  0.00  0.00     0.063 H 
ATOM     33  H   LIG d   1       5.318  -0.072 -13.163  0.00  0.00     0.062 H 
ENDBRANCH  20  23
ENDBRANCH  19  20
ENDBRANCH  11  19
ENDBRANCH   6   8
BRANCH   1  34
ATOM     34  C   LIG d   1       5.350  -3.046  -4.855  0.00  0.00    -0.011 A 
ATOM     35  C   LIG d   1       6.660  -3.521  -4.913  0.00  0.00    -0.050 A 
ATOM     36  C   LIG d   1       6.958  -4.635  -5.671  0.00  0.00    -0.016 A 
ATOM     37  H   LIG d   1       7.443  -3.017  -4.365  0.00  0.00     0.062 H 
ATOM     38  C   LIG d   1       5.956  -5.285  -6.377  0.00  0.00     0.162 A 
ATOM     39  H   LIG d   1       7.973  -5.002  -5.716  0.00  0.00     0.066 H 
ATOM     40  C   LIG d   1       4.646  -4.815  -6.322  0.00  0.00     0.162 A 
ATOM     41  C   LIG d   1       4.342  -3.703  -5.559  0.00  0.00    -0.009 A 
ATOM     42  H   LIG d   1       3.325  -3.340  -5.511  0.00  0.00     0.066 H 
BRANCH  38  43
ATOM     43  O   LIG d   1       6.253  -6.382  -7.123  0.00  0.00    -0.491 OA
BRANCH  43  44
ATOM     44  C   LIG d   1       7.055  -6.176  -8.288  0.00  0.00     0.079 C 
ATOM     45  H   LIG d   1       6.407  -6.009  -9.149  0.00  0.00     0.066 H 
ATOM     46  H   LIG d   1       7.693  -5.305  -8.140  0.00  0.00     0.066 H 
ATOM     47  H   LIG d   1       7.674  -7.056  -8.463  0.00  0.00     0.066 H 
ENDBRANCH  43  44
ENDBRANCH  38  43
BRANCH  40  48
ATOM     48  O   LIG d   1       3.665  -5.454  -7.014  0.00  0.00    -0.491 OA
BRANCH  48  49
ATOM     49  C   LIG d   1       3.436  -5.027  -8.358  0.00  0.00     0.079 C 
ATOM     50  H   LIG d   1       2.816  -5.761  -8.872  0.00  0.00     0.066 H 
ATOM     51  H   LIG d   1       2.929  -4.062  -8.351  0.00  0.00     0.066 H 
ATOM     52  H   LIG d   1       4.391  -4.932  -8.876  0.00  0.00     0.066 H 
ENDBRANCH  48  49
ENDBRANCH  40  48
ENDBRANCH   1  34
BRANCH   4  53
ATOM     53  N   LIG d   1       4.139   1.424  -1.790  0.00  0.00    -0.328 N 
ATOM     54  H   LIG d   1       3.529   2.098  -2.129  0.00  0.00     0.145 HD
ATOM     55  H   LIG d   1       4.537   1.528  -0.910  0.00  0.00     0.145 HD
ENDBRANCH   4  53
TORSDOF 11
ENDMDL
MODEL 9
REMARK VINA RESULT:      -5.5      4.593      8.415
REMARK  11 active torsions:
REMARK  status: ('A' for Active; 'I' for Inactive)
REMARK    1  A    between atoms: C_1  and  O_2 
REMARK    2  A    between atoms: O_2  and  C_3 
REMARK    3  A    between atoms: C_6  and  C_11 
REMARK    4  A    between atoms: C_8  and  O_9 
REMARK    5  A    between atoms: O_9  and  C_10 
REMARK    6  A    between atoms: C_14  and  N_34 
REMARK    7  A    between atoms: C_16  and  C_17 
REMARK    8  A    between atoms: C_20  and  O_24 
REMARK    9  A    between atoms: C_22  and  O_23 
REMARK   10  A    between atoms: O_24  and  C_25 
REMARK   11  A    between atoms: C_25  and  C_26 
ROOT
ATOM      1  C   LIG d   1       3.883  -1.740  -7.686  0.00  0.00     0.027 A 
ATOM      2  C   LIG d   1       2.982  -0.958  -8.409  0.00  0.00     0.041 A 
ATOM      3  N   LIG d   1       2.289  -1.513  -9.389  0.00  0.00    -0.223 NA
ATOM      4  C   LIG d   1       2.440  -2.795  -9.695  0.00  0.00     0.213 A 
ATOM      5  N   LIG d   1       3.285  -3.576  -9.041  0.00  0.00    -0.214 NA
ATOM      6  C   LIG d   1       4.021  -3.096  -8.041  0.00  0.00     0.087 A 
ATOM      7  H   LIG d   1       2.850   0.088  -8.170  0.00  0.00     0.084 H 
ENDROOT
BRANCH   6   8
ATOM      8  C   LIG d   1       4.964  -3.972  -7.312  0.00  0.00     0.043 A 
ATOM      9  C   LIG d   1       4.481  -4.921  -6.403  0.00  0.00     0.130 A 
ATOM     10  C   LIG d   1       5.369  -5.738  -5.724  0.00  0.00     0.022 A 
ATOM     11  C   LIG d   1       6.733  -5.616  -5.945  0.00  0.00     0.124 A 
ATOM     12  H   LIG d   1       4.999  -6.471  -5.022  0.00  0.00     0.069 H 
ATOM     13  C   LIG d   1       7.214  -4.670  -6.843  0.00  0.00    -0.019 A 
ATOM     14  C   LIG d   1       6.338  -3.856  -7.528  0.00  0.00    -0.046 A 
ATOM     15  H   LIG d   1       8.277  -4.576  -7.008  0.00  0.00     0.065 H 
ATOM     16  H   LIG d   1       6.715  -3.126  -8.229  0.00  0.00     0.063 H 
BRANCH   9  17
ATOM     17  O   LIG d   1       3.145  -5.041  -6.189  0.00  0.00    -0.506 OA
ATOM     18  H   LIG d   1       2.907  -5.755  -5.582  0.00  0.00     0.292 HD
ENDBRANCH   9  17
BRANCH  11  19
ATOM     19  O   LIG d   1       7.601  -6.418  -5.277  0.00  0.00    -0.487 OA
BRANCH  19  20
ATOM     20  C   LIG d   1       8.694  -5.779  -4.614  0.00  0.00     0.116 C 
ATOM     21  H   LIG d   1       8.367  -4.818  -4.219  0.00  0.00     0.075 H 
ATOM     22  H   LIG d   1       9.509  -5.625  -5.322  0.00  0.00     0.075 H 
BRANCH  20  23
ATOM     23  C   LIG d   1       9.173  -6.651  -3.481  0.00  0.00     0.008 A 
ATOM     24  C   LIG d   1       9.869  -6.093  -2.425  0.00  0.00     0.049 A 
ATOM     25  C   LIG d   1      10.313  -6.894  -1.388  0.00  0.00    -0.025 A 
ATOM     26 CL   LIG d   1      10.192  -4.387  -2.403  0.00  0.00    -0.083 Cl
ATOM     27  C   LIG d   1      10.056  -8.253  -1.406  0.00  0.00     0.042 A 
ATOM     28  H   LIG d   1      10.861  -6.459  -0.565  0.00  0.00     0.065 H 
ATOM     29  C   LIG d   1       9.355  -8.810  -2.461  0.00  0.00    -0.043 A 
ATOM     30 CL   LIG d   1      10.613  -9.260  -0.106  0.00  0.00    -0.084 Cl
ATOM     31  C   LIG d   1       8.911  -8.009  -3.496  0.00  0.00    -0.053 A 
ATOM     32  H   LIG d   1       9.153  -9.871  -2.476  0.00  0.00     0.063 H 
ATOM     33  H   LIG d   1       8.363  -8.444  -4.319  0.00  0.00     0.062 H 
ENDBRANCH  20  23
ENDBRANCH  19  20
ENDBRANCH  11  19
ENDBRANCH   6   8
BRANCH   1  34
ATOM     34  C   LIG d   1       4.675  -1.158  -6.577  0.00  0.00    -0.011 A 
ATOM     35  C   LIG d   1       5.883  -0.514  -6.843  0.00  0.00    -0.050 A 
ATOM     36  C   LIG d   1       6.619   0.029  -5.811  0.00  0.00    -0.016 A 
ATOM     37  H   LIG d   1       6.242  -0.440  -7.860  0.00  0.00     0.062 H 
ATOM     38  C   LIG d   1       6.161  -0.065  -4.505  0.00  0.00     0.162 A 
ATOM     39  H   LIG d   1       7.555   0.527  -6.019  0.00  0.00     0.066 H 
ATOM     40  C   LIG d   1       4.955  -0.706  -4.233  0.00  0.00     0.162 A 
ATOM     41  C   LIG d   1       4.210  -1.247  -5.265  0.00  0.00    -0.009 A 
ATOM     42  H   LIG d   1       3.273  -1.740  -5.056  0.00  0.00     0.066 H 
BRANCH  38  43
ATOM     43  O   LIG d   1       6.889   0.471  -3.490  0.00  0.00    -0.491 OA
BRANCH  43  44
ATOM     44  C   LIG d   1       7.728   1.584  -3.811  0.00  0.00     0.079 C 
ATOM     45  H   LIG d   1       7.732   2.287  -2.978  0.00  0.00     0.066 H 
ATOM     46  H   LIG d   1       8.743   1.232  -3.993  0.00  0.00     0.066 H 
ATOM     47  H   LIG d   1       7.348   2.080  -4.704  0.00  0.00     0.066 H 
ENDBRANCH  43  44
ENDBRANCH  38  43
BRANCH  40  48
ATOM     48  O   LIG d   1       4.507  -0.795  -2.952  0.00  0.00    -0.491 OA
BRANCH  48  49
ATOM     49  C   LIG d   1       3.968  -2.053  -2.540  0.00  0.00     0.079 C 
ATOM     50  H   LIG d   1       4.126  -2.183  -1.469  0.00  0.00     0.066 H 
ATOM     51  H   LIG d   1       2.900  -2.078  -2.755  0.00  0.00     0.066 H 
ATOM     52  H   LIG d   1       4.467  -2.857  -3.082  0.00  0.00     0.066 H 
ENDBRANCH  48  49
ENDBRANCH  40  48
ENDBRANCH   1  34
BRANCH   4  53
ATOM     53  N   LIG d   1       1.693  -3.331 -10.728  0.00  0.00    -0.328 N 
ATOM     54  H   LIG d   1       2.127  -3.599 -11.553  0.00  0.00     0.145 HD
ATOM     55  H   LIG d   1       0.734  -3.439 -10.627  0.00  0.00     0.145 HD
ENDBRANCH   4  53
TORSDOF 11
ENDMDL
MODEL 10
REMARK VINA RESULT:      -5.5      6.864      9.706
REMARK  11 active torsions:
REMARK  status: ('A' for Active; 'I' for Inactive)
REMARK    1  A    between atoms: C_1  and  O_2 
REMARK    2  A    between atoms: O_2  and  C_3 
REMARK    3  A    between atoms: C_6  and  C_11 
REMARK    4  A    between atoms: C_8  and  O_9 
REMARK    5  A    between atoms: O_9  and  C_10 
REMARK    6  A    between atoms: C_14  and  N_34 
REMARK    7  A    between atoms: C_16  and  C_17 
REMARK    8  A    between atoms: C_20  and  O_24 
REMARK    9  A    between atoms: C_22  and  O_23 
REMARK   10  A    between atoms: O_24  and  C_25 
REMARK   11  A    between atoms: C_25  and  C_26 
ROOT
ATOM      1  C   LIG d   1      10.155   7.710  -4.633  0.00  0.00     0.027 A 
ATOM      2  C   LIG d   1      10.119   9.067  -4.954  0.00  0.00     0.041 A 
ATOM      3  N   LIG d   1       9.661   9.437  -6.139  0.00  0.00    -0.223 NA
ATOM      4  C   LIG d   1       9.241   8.540  -7.021  0.00  0.00     0.213 A 
ATOM      5  N   LIG d   1       9.261   7.242  -6.765  0.00  0.00    -0.214 NA
ATOM      6  C   LIG d   1       9.707   6.786  -5.596  0.00  0.00     0.087 A 
ATOM      7  H   LIG d   1      10.458   9.808  -4.244  0.00  0.00     0.084 H 
ENDROOT
BRANCH   6   8
ATOM      8  C   LIG d   1       9.726   5.335  -5.313  0.00  0.00     0.043 A 
ATOM      9  C   LIG d   1      10.594   4.492  -6.018  0.00  0.00     0.130 A 
ATOM     10  C   LIG d   1      10.606   3.134  -5.748  0.00  0.00     0.022 A 
ATOM     11  C   LIG d   1       9.761   2.612  -4.780  0.00  0.00     0.124 A 
ATOM     12  H   LIG d   1      11.274   2.482  -6.290  0.00  0.00     0.069 H 
ATOM     13  C   LIG d   1       8.896   3.446  -4.082  0.00  0.00    -0.019 A 
ATOM     14  C   LIG d   1       8.879   4.800  -4.340  0.00  0.00    -0.046 A 
ATOM     15  H   LIG d   1       8.237   3.033  -3.333  0.00  0.00     0.065 H 
ATOM     16  H   LIG d   1       8.208   5.446  -3.793  0.00  0.00     0.063 H 
BRANCH   9  17
ATOM     17  O   LIG d   1      11.421   5.005  -6.965  0.00  0.00    -0.506 OA
ATOM     18  H   LIG d   1      11.849   4.337  -7.518  0.00  0.00     0.292 HD
ENDBRANCH   9  17
BRANCH  11  19
ATOM     19  O   LIG d   1       9.776   1.279  -4.517  0.00  0.00    -0.487 OA
BRANCH  19  20
ATOM     20  C   LIG d   1       8.924   0.453  -5.313  0.00  0.00     0.116 C 
ATOM     21  H   LIG d   1       9.498  -0.382  -5.712  0.00  0.00     0.075 H 
ATOM     22  H   LIG d   1       8.513   1.040  -6.135  0.00  0.00     0.075 H 
BRANCH  20  23
ATOM     23  C   LIG d   1       7.797  -0.074  -4.461  0.00  0.00     0.008 A 
ATOM     24  C   LIG d   1       7.642  -1.437  -4.285  0.00  0.00     0.049 A 
ATOM     25  C   LIG d   1       6.605  -1.921  -3.507  0.00  0.00    -0.025 A 
ATOM     26 CL   LIG d   1       8.746  -2.542  -5.044  0.00  0.00    -0.083 Cl
ATOM     27  C   LIG d   1       5.726  -1.041  -2.902  0.00  0.00     0.042 A 
ATOM     28  H   LIG d   1       6.481  -2.985  -3.373  0.00  0.00     0.065 H 
ATOM     29  C   LIG d   1       5.885   0.323  -3.075  0.00  0.00    -0.043 A 
ATOM     30 CL   LIG d   1       4.424  -1.647  -1.927  0.00  0.00    -0.084 Cl
ATOM     31  C   LIG d   1       6.922   0.805  -3.851  0.00  0.00    -0.053 A 
ATOM     32  H   LIG d   1       5.200   1.011  -2.603  0.00  0.00     0.063 H 
ATOM     33  H   LIG d   1       7.046   1.870  -3.986  0.00  0.00     0.062 H 
ENDBRANCH  20  23
ENDBRANCH  19  20
ENDBRANCH  11  19
ENDBRANCH   6   8
BRANCH   1  34
ATOM     34  C   LIG d   1      10.657   7.255  -3.315  0.00  0.00    -0.011 A 
ATOM     35  C   LIG d   1       9.828   7.313  -2.195  0.00  0.00    -0.050 A 
ATOM     36  C   LIG d   1      10.294   6.887  -0.967  0.00  0.00    -0.016 A 
ATOM     37  H   LIG d   1       8.820   7.691  -2.287  0.00  0.00     0.062 H 
ATOM     38  C   LIG d   1      11.588   6.401  -0.845  0.00  0.00     0.162 A 
ATOM     39  H   LIG d   1       9.652   6.933  -0.101  0.00  0.00     0.066 H 
ATOM     40  C   LIG d   1      12.419   6.340  -1.961  0.00  0.00     0.162 A 
ATOM     41  C   LIG d   1      11.955   6.760  -3.194  0.00  0.00    -0.009 A 
ATOM     42  H   LIG d   1      12.597   6.709  -4.060  0.00  0.00     0.066 H 
BRANCH  38  43
ATOM     43  O   LIG d   1      12.044   5.983   0.365  0.00  0.00    -0.491 OA
BRANCH  43  44
ATOM     44  C   LIG d   1      11.088   5.901   1.425  0.00  0.00     0.079 C 
ATOM     45  H   LIG d   1      10.111   5.647   1.014  0.00  0.00     0.066 H 
ATOM     46  H   LIG d   1      11.396   5.130   2.133  0.00  0.00     0.066 H 
ATOM     47  H   LIG d   1      11.029   6.862   1.936  0.00  0.00     0.066 H 
ENDBRANCH  43  44
ENDBRANCH  38  43
BRANCH  40  48
ATOM     48  O   LIG d   1      13.687   5.862  -1.838  0.00  0.00    -0.491 OA
BRANCH  48  49
ATOM     49  C   LIG d   1      14.745   6.822  -1.847  0.00  0.00     0.079 C 
ATOM     50  H   LIG d   1      14.570   7.548  -2.641  0.00  0.00     0.066 H 
ATOM     51  H   LIG d   1      14.778   7.335  -0.887  0.00  0.00     0.066 H 
ATOM     52  H   LIG d   1      15.695   6.314  -2.021  0.00  0.00     0.066 H 
ENDBRANCH  48  49
ENDBRANCH  40  48
ENDBRANCH   1  34
BRANCH   4  53
ATOM     53  N   LIG d   1       8.770   8.975  -8.247  0.00  0.00    -0.328 N 
ATOM     54  H   LIG d   1       7.858   8.781  -8.514  0.00  0.00     0.145 HD
ATOM     55  H   LIG d   1       9.353   9.475  -8.841  0.00  0.00     0.145 HD
ENDBRANCH   4  53
TORSDOF 11
ENDMDL
