MODEL 1
REMARK VINA RESULT:      -6.3      0.000      0.000
REMARK  8 active torsions:
REMARK  status: ('A' for Active; 'I' for Inactive)
REMARK    1  A    between atoms: C_1  and  C_2 
REMARK    2  A    between atoms: C_2  and  O_3 
REMARK    3  A    between atoms: O_3  and  P_4 
REMARK    4  A    between atoms: P_4  and  N_6 
REMARK    5  A    between atoms: P_4  and  O_25 
REMARK    6  A    between atoms: N_6  and  C_7 
REMARK    7  A    between atoms: O_25  and  C_26 
REMARK    8  A    between atoms: C_26  and  C_27 
ROOT
ATOM      1  C   LIG d   1       5.301  -0.370  -6.907  0.00  0.00     0.141 C 
ATOM      2  S   LIG d   1       3.627  -0.611  -7.174  0.00  0.00    -0.018 SA
ATOM      3  N   LIG d   1       6.016  -1.293  -6.234  0.00  0.00    -0.311 N 
ATOM      4  C   LIG d   1       7.422  -1.049  -5.891  0.00  0.00     0.018 C 
ATOM      5  C   LIG d   1       7.659  -1.325  -4.414  0.00  0.00    -0.006 C 
ATOM      6  H   LIG d   1       8.735  -1.334  -4.239  0.00  0.00     0.033 H 
ATOM      7  C   LIG d   1       7.103  -2.691  -4.013  0.00  0.00    -0.037 C 
ATOM      8  C   LIG d   1       5.600  -2.705  -4.307  0.00  0.00     0.016 C 
ATOM      9  H   LIG d   1       5.158  -3.637  -3.954  0.00  0.00     0.038 H 
ATOM     10  C   LIG d   1       5.402  -2.565  -5.822  0.00  0.00     0.022 C 
ATOM     11  C   LIG d   1       4.938  -1.527  -3.632  0.00  0.00     0.027 C 
ATOM     12  C   LIG d   1       3.627  -1.655  -3.293  0.00  0.00    -0.042 C 
ATOM     13  C   LIG d   1       2.931  -0.583  -2.726  0.00  0.00    -0.055 C 
ATOM     14  C   LIG d   1       3.581   0.602  -2.542  0.00  0.00     0.003 C 
ATOM     15  C   LIG d   1       4.931   0.702  -2.906  0.00  0.00     0.252 C 
ATOM     16  O   LIG d   1       5.507   1.774  -2.805  0.00  0.00    -0.268 OA
ATOM     17  N   LIG d   1       5.605  -0.380  -3.366  0.00  0.00    -0.312 N 
ATOM     18  C   LIG d   1       7.048  -0.254  -3.529  0.00  0.00     0.031 C 
ATOM     19  H   LIG d   1       8.058  -1.703  -6.488  0.00  0.00     0.047 H 
ATOM     20  H   LIG d   1       7.672  -0.011  -6.110  0.00  0.00     0.047 H 
ATOM     21  H   LIG d   1       7.597  -3.472  -4.590  0.00  0.00     0.028 H 
ATOM     22  H   LIG d   1       7.270  -2.858  -2.949  0.00  0.00     0.028 H 
ATOM     23  H   LIG d   1       4.338  -2.557  -6.056  0.00  0.00     0.047 H 
ATOM     24  H   LIG d   1       5.889  -3.396  -6.334  0.00  0.00     0.047 H 
ATOM     25  H   LIG d   1       3.119  -2.593  -3.463  0.00  0.00     0.064 H 
ATOM     26  H   LIG d   1       1.895  -0.691  -2.438  0.00  0.00     0.062 H 
ATOM     27  H   LIG d   1       3.063   1.452  -2.122  0.00  0.00     0.067 H 
ATOM     28  H   LIG d   1       7.497  -0.317  -2.537  0.00  0.00     0.050 H 
ATOM     29  H   LIG d   1       7.273   0.725  -3.953  0.00  0.00     0.050 H 
ENDROOT
BRANCH   1  30
ATOM     30  N   LIG d   1       5.903   0.743  -7.370  0.00  0.00    -0.234 N 
ATOM     31  H   LIG d   1       6.061   1.493  -6.776  0.00  0.00     0.159 HD
BRANCH  30  32
ATOM     32  P   LIG d   1       6.369   0.830  -8.941  0.00  0.00     0.428 P 
ATOM     33  O   LIG d   1       6.165  -0.484  -9.589  0.00  0.00    -0.236 OA
BRANCH  32  34
ATOM     34  O   LIG d   1       7.926   1.231  -9.018  0.00  0.00    -0.294 OA
BRANCH  34  35
ATOM     35  C   LIG d   1       8.513   2.235  -8.187  0.00  0.00     0.056 C 
ATOM     36  H   LIG d   1       9.478   1.885  -7.821  0.00  0.00     0.056 H 
ATOM     37  H   LIG d   1       7.854   2.438  -7.343  0.00  0.00     0.056 H 
BRANCH  35  38
ATOM     38  C   LIG d   1       8.710   3.517  -8.998  0.00  0.00    -0.041 C 
ATOM     39  H   LIG d   1       9.712   3.909  -8.822  0.00  0.00     0.025 H 
ATOM     40  H   LIG d   1       8.589   3.298 -10.060  0.00  0.00     0.025 H 
ATOM     41  H   LIG d   1       7.971   4.257  -8.693  0.00  0.00     0.025 H 
ENDBRANCH  35  38
ENDBRANCH  34  35
ENDBRANCH  32  34
BRANCH  32  42
ATOM     42  O   LIG d   1       5.489   1.945  -9.699  0.00  0.00    -0.294 OA
BRANCH  42  43
ATOM     43  C   LIG d   1       4.153   1.709 -10.150  0.00  0.00     0.056 C 
ATOM     44  H   LIG d   1       4.034   2.108 -11.157  0.00  0.00     0.056 H 
ATOM     45  H   LIG d   1       3.959   0.636 -10.160  0.00  0.00     0.056 H 
BRANCH  43  46
ATOM     46  C   LIG d   1       3.167   2.399  -9.207  0.00  0.00    -0.041 C 
ATOM     47  H   LIG d   1       3.167   1.887  -8.245  0.00  0.00     0.025 H 
ATOM     48  H   LIG d   1       3.466   3.438  -9.066  0.00  0.00     0.025 H 
ATOM     49  H   LIG d   1       2.167   2.363  -9.638  0.00  0.00     0.025 H 
ENDBRANCH  43  46
ENDBRANCH  42  43
ENDBRANCH  32  42
ENDBRANCH  30  32
ENDBRANCH   1  30
TORSDOF 8
ENDMDL
MODEL 2
REMARK VINA RESULT:      -6.2      1.187      1.948
REMARK  8 active torsions:
REMARK  status: ('A' for Active; 'I' for Inactive)
REMARK    1  A    between atoms: C_1  and  C_2 
REMARK    2  A    between atoms: C_2  and  O_3 
REMARK    3  A    between atoms: O_3  and  P_4 
REMARK    4  A    between atoms: P_4  and  N_6 
REMARK    5  A    between atoms: P_4  and  O_25 
REMARK    6  A    between atoms: N_6  and  C_7 
REMARK    7  A    between atoms: O_25  and  C_26 
REMARK    8  A    between atoms: C_26  and  C_27 
ROOT
ATOM      1  C   LIG d   1       5.313  -0.377  -6.918  0.00  0.00     0.141 C 
ATOM      2  S   LIG d   1       3.629  -0.498  -7.196  0.00  0.00    -0.018 SA
ATOM      3  N   LIG d   1       5.956  -1.349  -6.241  0.00  0.00    -0.311 N 
ATOM      4  C   LIG d   1       7.373  -1.206  -5.888  0.00  0.00     0.018 C 
ATOM      5  C   LIG d   1       7.580  -1.499  -4.409  0.00  0.00    -0.006 C 
ATOM      6  H   LIG d   1       8.651  -1.585  -4.226  0.00  0.00     0.033 H 
ATOM      7  C   LIG d   1       6.925  -2.823  -4.013  0.00  0.00    -0.037 C 
ATOM      8  C   LIG d   1       5.427  -2.729  -4.318  0.00  0.00     0.016 C 
ATOM      9  H   LIG d   1       4.917  -3.627  -3.969  0.00  0.00     0.038 H 
ATOM     10  C   LIG d   1       5.251  -2.575  -5.834  0.00  0.00     0.022 C 
ATOM     11  C   LIG d   1       4.846  -1.507  -3.646  0.00  0.00     0.027 C 
ATOM     12  C   LIG d   1       3.527  -1.542  -3.317  0.00  0.00    -0.042 C 
ATOM     13  C   LIG d   1       2.905  -0.423  -2.753  0.00  0.00    -0.055 C 
ATOM     14  C   LIG d   1       3.636   0.712  -2.563  0.00  0.00     0.003 C 
ATOM     15  C   LIG d   1       4.993   0.716  -2.918  0.00  0.00     0.252 C 
ATOM     16  O   LIG d   1       5.643   1.744  -2.812  0.00  0.00    -0.268 OA
ATOM     17  N   LIG d   1       5.591  -0.411  -3.375  0.00  0.00    -0.312 N 
ATOM     18  C   LIG d   1       7.041  -0.388  -3.527  0.00  0.00     0.031 C 
ATOM     19  H   LIG d   1       7.966  -1.904  -6.480  0.00  0.00     0.047 H 
ATOM     20  H   LIG d   1       7.698  -0.189  -6.103  0.00  0.00     0.047 H 
ATOM     21  H   LIG d   1       7.366  -3.637  -4.588  0.00  0.00     0.028 H 
ATOM     22  H   LIG d   1       7.072  -3.001  -2.948  0.00  0.00     0.028 H 
ATOM     23  H   LIG d   1       4.191  -2.491  -6.075  0.00  0.00     0.047 H 
ATOM     24  H   LIG d   1       5.680  -3.437  -6.344  0.00  0.00     0.047 H 
ATOM     25  H   LIG d   1       2.955  -2.441  -3.491  0.00  0.00     0.064 H 
ATOM     26  H   LIG d   1       1.862  -0.457  -2.473  0.00  0.00     0.062 H 
ATOM     27  H   LIG d   1       3.178   1.597  -2.147  0.00  0.00     0.067 H 
ATOM     28  H   LIG d   1       7.477  -0.483  -2.532  0.00  0.00     0.050 H 
ATOM     29  H   LIG d   1       7.337   0.573  -3.949  0.00  0.00     0.050 H 
ENDROOT
BRANCH   1  30
ATOM     30  N   LIG d   1       5.997   0.690  -7.375  0.00  0.00    -0.234 N 
ATOM     31  H   LIG d   1       6.166   1.446  -6.791  0.00  0.00     0.159 HD
BRANCH  30  32
ATOM     32  P   LIG d   1       6.542   0.713  -8.922  0.00  0.00     0.428 P 
ATOM     33  O   LIG d   1       7.986   1.034  -8.932  0.00  0.00    -0.236 OA
BRANCH  32  34
ATOM     34  O   LIG d   1       5.738   1.830  -9.758  0.00  0.00    -0.294 OA
BRANCH  34  35
ATOM     35  C   LIG d   1       4.669   2.598  -9.203  0.00  0.00     0.056 C 
ATOM     36  H   LIG d   1       4.866   3.659  -9.353  0.00  0.00     0.056 H 
ATOM     37  H   LIG d   1       4.588   2.389  -8.136  0.00  0.00     0.056 H 
BRANCH  35  38
ATOM     38  C   LIG d   1       3.357   2.220  -9.895  0.00  0.00    -0.041 C 
ATOM     39  H   LIG d   1       3.574   1.759 -10.858  0.00  0.00     0.025 H 
ATOM     40  H   LIG d   1       2.806   1.516  -9.271  0.00  0.00     0.025 H 
ATOM     41  H   LIG d   1       2.757   3.117 -10.048  0.00  0.00     0.025 H 
ENDBRANCH  35  38
ENDBRANCH  34  35
ENDBRANCH  32  34
BRANCH  32  42
ATOM     42  O   LIG d   1       6.308  -0.731  -9.594  0.00  0.00    -0.294 OA
BRANCH  42  43
ATOM     43  C   LIG d   1       5.823  -0.899 -10.929  0.00  0.00     0.056 C 
ATOM     44  H   LIG d   1       5.958   0.029 -11.484  0.00  0.00     0.056 H 
ATOM     45  H   LIG d   1       6.380  -1.699 -11.419  0.00  0.00     0.056 H 
BRANCH  43  46
ATOM     46  C   LIG d   1       4.337  -1.261 -10.891  0.00  0.00    -0.041 C 
ATOM     47  H   LIG d   1       4.229  -2.341 -10.797  0.00  0.00     0.025 H 
ATOM     48  H   LIG d   1       3.867  -0.773 -10.036  0.00  0.00     0.025 H 
ATOM     49  H   LIG d   1       3.859  -0.925 -11.810  0.00  0.00     0.025 H 
ENDBRANCH  43  46
ENDBRANCH  42  43
ENDBRANCH  32  42
ENDBRANCH  30  32
ENDBRANCH   1  30
TORSDOF 8
ENDMDL
MODEL 3
REMARK VINA RESULT:      -6.2      0.940      2.556
REMARK  8 active torsions:
REMARK  status: ('A' for Active; 'I' for Inactive)
REMARK    1  A    between atoms: C_1  and  C_2 
REMARK    2  A    between atoms: C_2  and  O_3 
REMARK    3  A    between atoms: O_3  and  P_4 
REMARK    4  A    between atoms: P_4  and  N_6 
REMARK    5  A    between atoms: P_4  and  O_25 
REMARK    6  A    between atoms: N_6  and  C_7 
REMARK    7  A    between atoms: O_25  and  C_26 
REMARK    8  A    between atoms: C_26  and  C_27 
ROOT
ATOM      1  C   LIG d   1       4.979  -0.062  -7.108  0.00  0.00     0.141 C 
ATOM      2  S   LIG d   1       3.274   0.050  -7.220  0.00  0.00    -0.018 SA
ATOM      3  N   LIG d   1       5.548  -1.159  -6.570  0.00  0.00    -0.311 N 
ATOM      4  C   LIG d   1       6.998  -1.223  -6.354  0.00  0.00     0.018 C 
ATOM      5  C   LIG d   1       7.300  -1.662  -4.929  0.00  0.00    -0.006 C 
ATOM      6  H   LIG d   1       8.363  -1.895  -4.863  0.00  0.00     0.033 H 
ATOM      7  C   LIG d   1       6.515  -2.922  -4.563  0.00  0.00    -0.037 C 
ATOM      8  C   LIG d   1       5.021  -2.618  -4.706  0.00  0.00     0.016 C 
ATOM      9  H   LIG d   1       4.431  -3.472  -4.371  0.00  0.00     0.038 H 
ATOM     10  C   LIG d   1       4.727  -2.317  -6.181  0.00  0.00     0.022 C 
ATOM     11  C   LIG d   1       4.670  -1.393  -3.894  0.00  0.00     0.027 C 
ATOM     12  C   LIG d   1       3.394  -1.292  -3.435  0.00  0.00    -0.042 C 
ATOM     13  C   LIG d   1       2.980  -0.155  -2.732  0.00  0.00    -0.055 C 
ATOM     14  C   LIG d   1       3.868   0.861  -2.538  0.00  0.00     0.003 C 
ATOM     15  C   LIG d   1       5.175   0.726  -3.029  0.00  0.00     0.252 C 
ATOM     16  O   LIG d   1       5.962   1.653  -2.918  0.00  0.00    -0.268 OA
ATOM     17  N   LIG d   1       5.575  -0.425  -3.623  0.00  0.00    -0.312 N 
ATOM     18  C   LIG d   1       6.995  -0.569  -3.920  0.00  0.00     0.031 C 
ATOM     19  H   LIG d   1       7.436  -1.937  -7.052  0.00  0.00     0.047 H 
ATOM     20  H   LIG d   1       7.432  -0.240  -6.530  0.00  0.00     0.047 H 
ATOM     21  H   LIG d   1       6.790  -3.733  -5.235  0.00  0.00     0.028 H 
ATOM     22  H   LIG d   1       6.735  -3.205  -3.534  0.00  0.00     0.028 H 
ATOM     23  H   LIG d   1       3.670  -2.082  -6.306  0.00  0.00     0.047 H 
ATOM     24  H   LIG d   1       4.991  -3.181  -6.792  0.00  0.00     0.047 H 
ATOM     25  H   LIG d   1       2.695  -2.095  -3.612  0.00  0.00     0.064 H 
ATOM     26  H   LIG d   1       1.971  -0.082  -2.350  0.00  0.00     0.062 H 
ATOM     27  H   LIG d   1       3.571   1.758  -2.016  0.00  0.00     0.067 H 
ATOM     28  H   LIG d   1       7.504  -0.800  -2.984  0.00  0.00     0.050 H 
ATOM     29  H   LIG d   1       7.375   0.379  -4.301  0.00  0.00     0.050 H 
ENDROOT
BRANCH   1  30
ATOM     30  N   LIG d   1       5.752   0.947  -7.556  0.00  0.00    -0.234 N 
ATOM     31  H   LIG d   1       6.307   1.445  -6.937  0.00  0.00     0.159 HD
BRANCH  30  32
ATOM     32  P   LIG d   1       5.753   1.332  -9.150  0.00  0.00     0.428 P 
ATOM     33  O   LIG d   1       5.036   2.612  -9.349  0.00  0.00    -0.236 OA
BRANCH  32  34
ATOM     34  O   LIG d   1       5.016   0.169  -9.985  0.00  0.00    -0.294 OA
BRANCH  34  35
ATOM     35  C   LIG d   1       4.289   0.417 -11.189  0.00  0.00     0.056 C 
ATOM     36  H   LIG d   1       4.839   0.011 -12.038  0.00  0.00     0.056 H 
ATOM     37  H   LIG d   1       4.158   1.492 -11.320  0.00  0.00     0.056 H 
BRANCH  35  38
ATOM     38  C   LIG d   1       2.917  -0.255 -11.104  0.00  0.00    -0.041 C 
ATOM     39  H   LIG d   1       2.870  -1.079 -11.816  0.00  0.00     0.025 H 
ATOM     40  H   LIG d   1       2.762  -0.639 -10.095  0.00  0.00     0.025 H 
ATOM     41  H   LIG d   1       2.140   0.473 -11.339  0.00  0.00     0.025 H 
ENDBRANCH  35  38
ENDBRANCH  34  35
ENDBRANCH  32  34
BRANCH  32  42
ATOM     42  O   LIG d   1       7.271   1.482  -9.665  0.00  0.00    -0.294 OA
BRANCH  42  43
ATOM     43  C   LIG d   1       8.350   1.857  -8.806  0.00  0.00     0.056 C 
ATOM     44  H   LIG d   1       8.090   1.627  -7.773  0.00  0.00     0.056 H 
ATOM     45  H   LIG d   1       9.246   1.303  -9.086  0.00  0.00     0.056 H 
BRANCH  43  46
ATOM     46  C   LIG d   1       8.614   3.358  -8.943  0.00  0.00    -0.041 C 
ATOM     47  H   LIG d   1       9.436   3.643  -8.286  0.00  0.00     0.025 H 
ATOM     48  H   LIG d   1       8.879   3.586  -9.976  0.00  0.00     0.025 H 
ATOM     49  H   LIG d   1       7.718   3.911  -8.666  0.00  0.00     0.025 H 
ENDBRANCH  43  46
ENDBRANCH  42  43
ENDBRANCH  32  42
ENDBRANCH  30  32
ENDBRANCH   1  30
TORSDOF 8
ENDMDL
MODEL 4
REMARK VINA RESULT:      -5.7      3.103      4.785
REMARK  8 active torsions:
REMARK  status: ('A' for Active; 'I' for Inactive)
REMARK    1  A    between atoms: C_1  and  C_2 
REMARK    2  A    between atoms: C_2  and  O_3 
REMARK    3  A    between atoms: O_3  and  P_4 
REMARK    4  A    between atoms: P_4  and  N_6 
REMARK    5  A    between atoms: P_4  and  O_25 
REMARK    6  A    between atoms: N_6  and  C_7 
REMARK    7  A    between atoms: O_25  and  C_26 
REMARK    8  A    between atoms: C_26  and  C_27 
ROOT
ATOM      1  C   LIG d   1       7.188   0.301  -4.165  0.00  0.00     0.141 C 
ATOM      2  S   LIG d   1       8.140  -0.646  -5.226  0.00  0.00    -0.018 SA
ATOM      3  N   LIG d   1       6.347  -0.298  -3.298  0.00  0.00    -0.311 N 
ATOM      4  C   LIG d   1       5.435   0.496  -2.467  0.00  0.00     0.018 C 
ATOM      5  C   LIG d   1       4.016  -0.042  -2.578  0.00  0.00    -0.006 C 
ATOM      6  H   LIG d   1       3.412   0.431  -1.803  0.00  0.00     0.033 H 
ATOM      7  C   LIG d   1       3.981  -1.553  -2.349  0.00  0.00    -0.037 C 
ATOM      8  C   LIG d   1       4.872  -2.221  -3.401  0.00  0.00     0.016 C 
ATOM      9  H   LIG d   1       4.802  -3.306  -3.317  0.00  0.00     0.038 H 
ATOM     10  C   LIG d   1       6.318  -1.764  -3.170  0.00  0.00     0.022 C 
ATOM     11  C   LIG d   1       4.450  -1.778  -4.782  0.00  0.00     0.027 C 
ATOM     12  C   LIG d   1       4.695  -2.629  -5.814  0.00  0.00    -0.042 C 
ATOM     13  C   LIG d   1       4.392  -2.258  -7.128  0.00  0.00    -0.055 C 
ATOM     14  C   LIG d   1       3.871  -1.019  -7.361  0.00  0.00     0.003 C 
ATOM     15  C   LIG d   1       3.634  -0.165  -6.274  0.00  0.00     0.252 C 
ATOM     16  O   LIG d   1       3.227   0.969  -6.474  0.00  0.00    -0.268 OA
ATOM     17  N   LIG d   1       3.850  -0.586  -5.004  0.00  0.00    -0.312 N 
ATOM     18  C   LIG d   1       3.390   0.277  -3.923  0.00  0.00     0.031 C 
ATOM     19  H   LIG d   1       5.759   0.447  -1.427  0.00  0.00     0.047 H 
ATOM     20  H   LIG d   1       5.455   1.533  -2.798  0.00  0.00     0.047 H 
ATOM     21  H   LIG d   1       4.356  -1.782  -1.352  0.00  0.00     0.028 H 
ATOM     22  H   LIG d   1       2.959  -1.916  -2.451  0.00  0.00     0.028 H 
ATOM     23  H   LIG d   1       6.971  -2.215  -3.917  0.00  0.00     0.047 H 
ATOM     24  H   LIG d   1       6.641  -2.056  -2.170  0.00  0.00     0.047 H 
ATOM     25  H   LIG d   1       5.127  -3.599  -5.618  0.00  0.00     0.064 H 
ATOM     26  H   LIG d   1       4.568  -2.941  -7.947  0.00  0.00     0.062 H 
ATOM     27  H   LIG d   1       3.644  -0.699  -8.367  0.00  0.00     0.067 H 
ATOM     28  H   LIG d   1       2.309   0.159  -3.847  0.00  0.00     0.050 H 
ATOM     29  H   LIG d   1       3.612   1.314  -4.179  0.00  0.00     0.050 H 
ENDROOT
BRANCH   1  30
ATOM     30  N   LIG d   1       7.278   1.645  -4.195  0.00  0.00    -0.234 N 
ATOM     31  H   LIG d   1       6.477   2.187  -4.126  0.00  0.00     0.159 HD
BRANCH  30  32
ATOM     32  P   LIG d   1       8.744   2.365  -4.351  0.00  0.00     0.428 P 
ATOM     33  O   LIG d   1       9.810   1.379  -4.067  0.00  0.00    -0.236 OA
BRANCH  32  34
ATOM     34  O   LIG d   1       8.854   3.590  -3.312  0.00  0.00    -0.294 OA
BRANCH  34  35
ATOM     35  C   LIG d   1      10.088   3.996  -2.717  0.00  0.00     0.056 C 
ATOM     36  H   LIG d   1      10.912   3.762  -3.391  0.00  0.00     0.056 H 
ATOM     37  H   LIG d   1      10.227   3.467  -1.773  0.00  0.00     0.056 H 
BRANCH  35  38
ATOM     38  C   LIG d   1      10.056   5.503  -2.455  0.00  0.00    -0.041 C 
ATOM     39  H   LIG d   1      10.655   5.732  -1.574  0.00  0.00     0.025 H 
ATOM     40  H   LIG d   1      10.463   6.030  -3.319  0.00  0.00     0.025 H 
ATOM     41  H   LIG d   1       9.026   5.821  -2.288  0.00  0.00     0.025 H 
ENDBRANCH  35  38
ENDBRANCH  34  35
ENDBRANCH  32  34
BRANCH  32  42
ATOM     42  O   LIG d   1       8.912   2.919  -5.853  0.00  0.00    -0.294 OA
BRANCH  42  43
ATOM     43  C   LIG d   1      10.108   3.545  -6.323  0.00  0.00     0.056 C 
ATOM     44  H   LIG d   1      10.930   3.309  -5.648  0.00  0.00     0.056 H 
ATOM     45  H   LIG d   1      10.342   3.177  -7.322  0.00  0.00     0.056 H 
BRANCH  43  46
ATOM     46  C   LIG d   1       9.905   5.061  -6.371  0.00  0.00    -0.041 C 
ATOM     47  H   LIG d   1       9.675   5.364  -7.392  0.00  0.00     0.025 H 
ATOM     48  H   LIG d   1       9.079   5.337  -5.715  0.00  0.00     0.025 H 
ATOM     49  H   LIG d   1      10.815   5.559  -6.040  0.00  0.00     0.025 H 
ENDBRANCH  43  46
ENDBRANCH  42  43
ENDBRANCH  32  42
ENDBRANCH  30  32
ENDBRANCH   1  30
TORSDOF 8
ENDMDL
MODEL 5
REMARK VINA RESULT:      -5.7      2.892      4.886
REMARK  8 active torsions:
REMARK  status: ('A' for Active; 'I' for Inactive)
REMARK    1  A    between atoms: C_1  and  C_2 
REMARK    2  A    between atoms: C_2  and  O_3 
REMARK    3  A    between atoms: O_3  and  P_4 
REMARK    4  A    between atoms: P_4  and  N_6 
REMARK    5  A    between atoms: P_4  and  O_25 
REMARK    6  A    between atoms: N_6  and  C_7 
REMARK    7  A    between atoms: O_25  and  C_26 
REMARK    8  A    between atoms: C_26  and  C_27 
ROOT
ATOM      1  C   LIG d   1       7.260   0.470  -4.266  0.00  0.00     0.141 C 
ATOM      2  S   LIG d   1       8.220  -0.604  -5.191  0.00  0.00    -0.018 SA
ATOM      3  N   LIG d   1       6.423  -0.014  -3.326  0.00  0.00    -0.311 N 
ATOM      4  C   LIG d   1       5.506   0.878  -2.608  0.00  0.00     0.018 C 
ATOM      5  C   LIG d   1       4.091   0.320  -2.645  0.00  0.00    -0.006 C 
ATOM      6  H   LIG d   1       3.483   0.888  -1.941  0.00  0.00     0.033 H 
ATOM      7  C   LIG d   1       4.066  -1.147  -2.216  0.00  0.00    -0.037 C 
ATOM      8  C   LIG d   1       4.963  -1.944  -3.169  0.00  0.00     0.016 C 
ATOM      9  H   LIG d   1       4.900  -3.008  -2.941  0.00  0.00     0.038 H 
ATOM     10  C   LIG d   1       6.405  -1.449  -3.003  0.00  0.00     0.022 C 
ATOM     11  C   LIG d   1       4.538  -1.692  -4.597  0.00  0.00     0.027 C 
ATOM     12  C   LIG d   1       4.790  -2.672  -5.506  0.00  0.00    -0.042 C 
ATOM     13  C   LIG d   1       4.484  -2.483  -6.858  0.00  0.00    -0.055 C 
ATOM     14  C   LIG d   1       3.954  -1.290  -7.254  0.00  0.00     0.003 C 
ATOM     15  C   LIG d   1       3.711  -0.300  -6.292  0.00  0.00     0.252 C 
ATOM     16  O   LIG d   1       3.296   0.794  -6.641  0.00  0.00    -0.268 OA
ATOM     17  N   LIG d   1       3.929  -0.545  -4.976  0.00  0.00    -0.312 N 
ATOM     18  C   LIG d   1       3.463   0.452  -4.021  0.00  0.00     0.031 C 
ATOM     19  H   LIG d   1       5.830   0.971  -1.571  0.00  0.00     0.047 H 
ATOM     20  H   LIG d   1       5.519   1.862  -3.076  0.00  0.00     0.047 H 
ATOM     21  H   LIG d   1       4.443  -1.238  -1.198  0.00  0.00     0.028 H 
ATOM     22  H   LIG d   1       3.047  -1.528  -2.268  0.00  0.00     0.028 H 
ATOM     23  H   LIG d   1       7.062  -1.992  -3.684  0.00  0.00     0.047 H 
ATOM     24  H   LIG d   1       6.730  -1.602  -1.973  0.00  0.00     0.047 H 
ATOM     25  H   LIG d   1       5.228  -3.604  -5.182  0.00  0.00     0.064 H 
ATOM     26  H   LIG d   1       4.665  -3.268  -7.578  0.00  0.00     0.062 H 
ATOM     27  H   LIG d   1       3.725  -1.110  -8.294  0.00  0.00     0.067 H 
ATOM     28  H   LIG d   1       2.382   0.337  -3.928  0.00  0.00     0.050 H 
ATOM     29  H   LIG d   1       3.677   1.446  -4.413  0.00  0.00     0.050 H 
ENDROOT
BRANCH   1  30
ATOM     30  N   LIG d   1       7.341   1.798  -4.476  0.00  0.00    -0.234 N 
ATOM     31  H   LIG d   1       6.532   2.327  -4.560  0.00  0.00     0.159 HD
BRANCH  30  32
ATOM     32  P   LIG d   1       8.808   2.522  -4.592  0.00  0.00     0.428 P 
ATOM     33  O   LIG d   1       8.637   3.992  -4.558  0.00  0.00    -0.236 OA
BRANCH  32  34
ATOM     34  O   LIG d   1       9.510   2.095  -5.976  0.00  0.00    -0.294 OA
BRANCH  34  35
ATOM     35  C   LIG d   1       9.321   2.810  -7.198  0.00  0.00     0.056 C 
ATOM     36  H   LIG d   1      10.253   2.820  -7.763  0.00  0.00     0.056 H 
ATOM     37  H   LIG d   1       9.018   3.834  -6.976  0.00  0.00     0.056 H 
BRANCH  35  38
ATOM     38  C   LIG d   1       8.231   2.125  -8.026  0.00  0.00    -0.041 C 
ATOM     39  H   LIG d   1       7.680   1.427  -7.395  0.00  0.00     0.025 H 
ATOM     40  H   LIG d   1       7.546   2.878  -8.418  0.00  0.00     0.025 H 
ATOM     41  H   LIG d   1       8.690   1.584  -8.853  0.00  0.00     0.025 H 
ENDBRANCH  35  38
ENDBRANCH  34  35
ENDBRANCH  32  34
BRANCH  32  42
ATOM     42  O   LIG d   1       9.732   2.061  -3.357  0.00  0.00    -0.294 OA
BRANCH  42  43
ATOM     43  C   LIG d   1      10.686   2.925  -2.734  0.00  0.00     0.056 C 
ATOM     44  H   LIG d   1      10.265   3.926  -2.642  0.00  0.00     0.056 H 
ATOM     45  H   LIG d   1      10.930   2.541  -1.742  0.00  0.00     0.056 H 
BRANCH  43  46
ATOM     46  C   LIG d   1      11.956   2.982  -3.585  0.00  0.00    -0.041 C 
ATOM     47  H   LIG d   1      12.825   2.800  -2.953  0.00  0.00     0.025 H 
ATOM     48  H   LIG d   1      11.906   2.218  -4.362  0.00  0.00     0.025 H 
ATOM     49  H   LIG d   1      12.040   3.965  -4.046  0.00  0.00     0.025 H 
ENDBRANCH  43  46
ENDBRANCH  42  43
ENDBRANCH  32  42
ENDBRANCH  30  32
ENDBRANCH   1  30
TORSDOF 8
ENDMDL
MODEL 6
REMARK VINA RESULT:      -5.3      1.964      2.953
REMARK  8 active torsions:
REMARK  status: ('A' for Active; 'I' for Inactive)
REMARK    1  A    between atoms: C_1  and  C_2 
REMARK    2  A    between atoms: C_2  and  O_3 
REMARK    3  A    between atoms: O_3  and  P_4 
REMARK    4  A    between atoms: P_4  and  N_6 
REMARK    5  A    between atoms: P_4  and  O_25 
REMARK    6  A    between atoms: N_6  and  C_7 
REMARK    7  A    between atoms: O_25  and  C_26 
REMARK    8  A    between atoms: C_26  and  C_27 
ROOT
ATOM      1  C   LIG d   1       5.728  -2.043  -6.673  0.00  0.00     0.141 C 
ATOM      2  S   LIG d   1       4.608  -3.337  -6.612  0.00  0.00    -0.018 SA
ATOM      3  N   LIG d   1       6.667  -1.919  -5.713  0.00  0.00    -0.311 N 
ATOM      4  C   LIG d   1       7.556  -0.752  -5.681  0.00  0.00     0.018 C 
ATOM      5  C   LIG d   1       7.565  -0.134  -4.291  0.00  0.00    -0.006 C 
ATOM      6  H   LIG d   1       8.378   0.591  -4.247  0.00  0.00     0.033 H 
ATOM      7  C   LIG d   1       7.817  -1.194  -3.219  0.00  0.00    -0.037 C 
ATOM      8  C   LIG d   1       6.708  -2.246  -3.311  0.00  0.00     0.016 C 
ATOM      9  H   LIG d   1       6.812  -2.972  -2.504  0.00  0.00     0.038 H 
ATOM     10  C   LIG d   1       6.817  -2.946  -4.671  0.00  0.00     0.022 C 
ATOM     11  C   LIG d   1       5.358  -1.572  -3.232  0.00  0.00     0.027 C 
ATOM     12  C   LIG d   1       4.322  -2.302  -2.740  0.00  0.00    -0.042 C 
ATOM     13  C   LIG d   1       3.031  -1.766  -2.699  0.00  0.00    -0.055 C 
ATOM     14  C   LIG d   1       2.822  -0.509  -3.185  0.00  0.00     0.003 C 
ATOM     15  C   LIG d   1       3.912   0.215  -3.690  0.00  0.00     0.252 C 
ATOM     16  O   LIG d   1       3.729   1.316  -4.186  0.00  0.00    -0.268 OA
ATOM     17  N   LIG d   1       5.167  -0.293  -3.631  0.00  0.00    -0.312 N 
ATOM     18  C   LIG d   1       6.269   0.594  -3.983  0.00  0.00     0.031 C 
ATOM     19  H   LIG d   1       8.568  -1.062  -5.945  0.00  0.00     0.047 H 
ATOM     20  H   LIG d   1       7.209  -0.014  -6.403  0.00  0.00     0.047 H 
ATOM     21  H   LIG d   1       8.784  -1.665  -3.389  0.00  0.00     0.028 H 
ATOM     22  H   LIG d   1       7.801  -0.730  -2.233  0.00  0.00     0.028 H 
ATOM     23  H   LIG d   1       6.027  -3.691  -4.767  0.00  0.00     0.047 H 
ATOM     24  H   LIG d   1       7.792  -3.426  -4.760  0.00  0.00     0.047 H 
ATOM     25  H   LIG d   1       4.497  -3.304  -2.376  0.00  0.00     0.064 H 
ATOM     26  H   LIG d   1       2.210  -2.338  -2.289  0.00  0.00     0.062 H 
ATOM     27  H   LIG d   1       1.833  -0.077  -3.183  0.00  0.00     0.067 H 
ATOM     28  H   LIG d   1       6.432   1.265  -3.140  0.00  0.00     0.050 H 
ATOM     29  H   LIG d   1       5.982   1.187  -4.852  0.00  0.00     0.050 H 
ENDROOT
BRANCH   1  30
ATOM     30  N   LIG d   1       5.671  -1.150  -7.680  0.00  0.00    -0.234 N 
ATOM     31  H   LIG d   1       6.458  -0.976  -8.220  0.00  0.00     0.159 HD
BRANCH  30  32
ATOM     32  P   LIG d   1       4.272  -0.354  -7.993  0.00  0.00     0.428 P 
ATOM     33  O   LIG d   1       3.308  -0.602  -6.897  0.00  0.00    -0.236 OA
BRANCH  32  34
ATOM     34  O   LIG d   1       3.653  -0.882  -9.382  0.00  0.00    -0.294 OA
BRANCH  34  35
ATOM     35  C   LIG d   1       2.401  -1.566  -9.466  0.00  0.00     0.056 C 
ATOM     36  H   LIG d   1       2.141  -1.970  -8.488  0.00  0.00     0.056 H 
ATOM     37  H   LIG d   1       2.480  -2.380 -10.187  0.00  0.00     0.056 H 
BRANCH  35  38
ATOM     38  C   LIG d   1       1.315  -0.588  -9.920  0.00  0.00    -0.041 C 
ATOM     39  H   LIG d   1       1.641   0.434  -9.725  0.00  0.00     0.025 H 
ATOM     40  H   LIG d   1       1.135  -0.714 -10.988  0.00  0.00     0.025 H 
ATOM     41  H   LIG d   1       0.395  -0.787  -9.370  0.00  0.00     0.025 H 
ENDBRANCH  35  38
ENDBRANCH  34  35
ENDBRANCH  32  34
BRANCH  32  42
ATOM     42  O   LIG d   1       4.566   1.225  -8.102  0.00  0.00    -0.294 OA
BRANCH  42  43
ATOM     43  C   LIG d   1       4.836   1.883  -9.342  0.00  0.00     0.056 C 
ATOM     44  H   LIG d   1       5.575   2.667  -9.183  0.00  0.00     0.056 H 
ATOM     45  H   LIG d   1       5.224   1.158 -10.059  0.00  0.00     0.056 H 
BRANCH  43  46
ATOM     46  C   LIG d   1       3.545   2.499  -9.885  0.00  0.00    -0.041 C 
ATOM     47  H   LIG d   1       2.774   2.460  -9.116  0.00  0.00     0.025 H 
ATOM     48  H   LIG d   1       3.729   3.537 -10.164  0.00  0.00     0.025 H 
ATOM     49  H   LIG d   1       3.216   1.940 -10.759  0.00  0.00     0.025 H 
ENDBRANCH  43  46
ENDBRANCH  42  43
ENDBRANCH  32  42
ENDBRANCH  30  32
ENDBRANCH   1  30
TORSDOF 8
ENDMDL
MODEL 7
REMARK VINA RESULT:      -5.2      3.142      6.487
REMARK  8 active torsions:
REMARK  status: ('A' for Active; 'I' for Inactive)
REMARK    1  A    between atoms: C_1  and  C_2 
REMARK    2  A    between atoms: C_2  and  O_3 
REMARK    3  A    between atoms: O_3  and  P_4 
REMARK    4  A    between atoms: P_4  and  N_6 
REMARK    5  A    between atoms: P_4  and  O_25 
REMARK    6  A    between atoms: N_6  and  C_7 
REMARK    7  A    between atoms: O_25  and  C_26 
REMARK    8  A    between atoms: C_26  and  C_27 
ROOT
ATOM      1  C   LIG d   1       4.116  -0.897  -6.270  0.00  0.00     0.141 C 
ATOM      2  S   LIG d   1       2.859   0.257  -6.133  0.00  0.00    -0.018 SA
ATOM      3  N   LIG d   1       5.090  -0.728  -7.187  0.00  0.00    -0.311 N 
ATOM      4  C   LIG d   1       6.106  -1.764  -7.402  0.00  0.00     0.018 C 
ATOM      5  C   LIG d   1       6.224  -2.088  -8.884  0.00  0.00    -0.006 C 
ATOM      6  H   LIG d   1       7.115  -2.700  -9.028  0.00  0.00     0.033 H 
ATOM      7  C   LIG d   1       6.384  -0.815  -9.715  0.00  0.00    -0.037 C 
ATOM      8  C   LIG d   1       5.160   0.075  -9.475  0.00  0.00     0.016 C 
ATOM      9  H   LIG d   1       5.204   0.953 -10.118  0.00  0.00     0.038 H 
ATOM     10  C   LIG d   1       5.151   0.497  -8.000  0.00  0.00     0.022 C 
ATOM     11  C   LIG d   1       3.899  -0.710  -9.750  0.00  0.00     0.027 C 
ATOM     12  C   LIG d   1       2.800  -0.009 -10.142  0.00  0.00    -0.042 C 
ATOM     13  C   LIG d   1       1.580  -0.660 -10.351  0.00  0.00    -0.055 C 
ATOM     14  C   LIG d   1       1.502  -2.004 -10.130  0.00  0.00     0.003 C 
ATOM     15  C   LIG d   1       2.653  -2.695  -9.723  0.00  0.00     0.252 C 
ATOM     16  O   LIG d   1       2.582  -3.885  -9.461  0.00  0.00    -0.268 OA
ATOM     17  N   LIG d   1       3.843  -2.055  -9.619  0.00  0.00    -0.312 N 
ATOM     18  C   LIG d   1       5.028  -2.873  -9.392  0.00  0.00     0.031 C 
ATOM     19  H   LIG d   1       7.068  -1.408  -7.033  0.00  0.00     0.047 H 
ATOM     20  H   LIG d   1       5.825  -2.664  -6.856  0.00  0.00     0.047 H 
ATOM     21  H   LIG d   1       7.286  -0.288  -9.408  0.00  0.00     0.028 H 
ATOM     22  H   LIG d   1       6.448  -1.072 -10.772  0.00  0.00     0.028 H 
ATOM     23  H   LIG d   1       4.280   1.120  -7.800  0.00  0.00     0.047 H 
ATOM     24  H   LIG d   1       6.063   1.049  -7.771  0.00  0.00     0.047 H 
ATOM     25  H   LIG d   1       2.871   1.057 -10.294  0.00  0.00     0.064 H 
ATOM     26  H   LIG d   1       0.712  -0.108 -10.681  0.00  0.00     0.062 H 
ATOM     27  H   LIG d   1       0.568  -2.529 -10.266  0.00  0.00     0.067 H 
ATOM     28  H   LIG d   1       5.290  -3.342 -10.341  0.00  0.00     0.050 H 
ATOM     29  H   LIG d   1       4.786  -3.654  -8.671  0.00  0.00     0.050 H 
ENDROOT
BRANCH   1  30
ATOM     30  N   LIG d   1       4.133  -1.974  -5.461  0.00  0.00    -0.234 N 
ATOM     31  H   LIG d   1       3.813  -2.831  -5.785  0.00  0.00     0.159 HD
BRANCH  30  32
ATOM     32  P   LIG d   1       4.695  -1.838  -3.926  0.00  0.00     0.428 P 
ATOM     33  O   LIG d   1       3.650  -2.282  -2.977  0.00  0.00    -0.236 OA
BRANCH  32  34
ATOM     34  O   LIG d   1       5.074  -0.302  -3.627  0.00  0.00    -0.294 OA
BRANCH  34  35
ATOM     35  C   LIG d   1       4.928   0.299  -2.339  0.00  0.00     0.056 C 
ATOM     36  H   LIG d   1       5.827   0.867  -2.099  0.00  0.00     0.056 H 
ATOM     37  H   LIG d   1       4.778  -0.479  -1.590  0.00  0.00     0.056 H 
BRANCH  35  38
ATOM     38  C   LIG d   1       3.720   1.237  -2.347  0.00  0.00    -0.041 C 
ATOM     39  H   LIG d   1       4.053   2.261  -2.178  0.00  0.00     0.025 H 
ATOM     40  H   LIG d   1       3.217   1.174  -3.313  0.00  0.00     0.025 H 
ATOM     41  H   LIG d   1       3.028   0.945  -1.557  0.00  0.00     0.025 H 
ENDBRANCH  35  38
ENDBRANCH  34  35
ENDBRANCH  32  34
BRANCH  32  42
ATOM     42  O   LIG d   1       6.005  -2.757  -3.750  0.00  0.00    -0.294 OA
BRANCH  42  43
ATOM     43  C   LIG d   1       7.331  -2.225  -3.722  0.00  0.00     0.056 C 
ATOM     44  H   LIG d   1       7.395  -1.372  -4.398  0.00  0.00     0.056 H 
ATOM     45  H   LIG d   1       7.572  -1.903  -2.708  0.00  0.00     0.056 H 
BRANCH  43  46
ATOM     46  C   LIG d   1       8.323  -3.302  -4.165  0.00  0.00    -0.041 C 
ATOM     47  H   LIG d   1       7.807  -4.040  -4.778  0.00  0.00     0.025 H 
ATOM     48  H   LIG d   1       9.122  -2.842  -4.747  0.00  0.00     0.025 H 
ATOM     49  H   LIG d   1       8.745  -3.789  -3.287  0.00  0.00     0.025 H 
ENDBRANCH  43  46
ENDBRANCH  42  43
ENDBRANCH  32  42
ENDBRANCH  30  32
ENDBRANCH   1  30
TORSDOF 8
ENDMDL
MODEL 8
REMARK VINA RESULT:      -5.2      3.108      4.674
REMARK  8 active torsions:
REMARK  status: ('A' for Active; 'I' for Inactive)
REMARK    1  A    between atoms: C_1  and  C_2 
REMARK    2  A    between atoms: C_2  and  O_3 
REMARK    3  A    between atoms: O_3  and  P_4 
REMARK    4  A    between atoms: P_4  and  N_6 
REMARK    5  A    between atoms: P_4  and  O_25 
REMARK    6  A    between atoms: N_6  and  C_7 
REMARK    7  A    between atoms: O_25  and  C_26 
REMARK    8  A    between atoms: C_26  and  C_27 
ROOT
ATOM      1  C   LIG d   1       7.279   0.557  -5.477  0.00  0.00     0.141 C 
ATOM      2  S   LIG d   1       7.588   0.557  -7.161  0.00  0.00    -0.018 SA
ATOM      3  N   LIG d   1       6.931  -0.587  -4.856  0.00  0.00    -0.311 N 
ATOM      4  C   LIG d   1       6.545  -0.585  -3.441  0.00  0.00     0.018 C 
ATOM      5  C   LIG d   1       5.227  -1.322  -3.252  0.00  0.00    -0.006 C 
ATOM      6  H   LIG d   1       5.075  -1.479  -2.184  0.00  0.00     0.033 H 
ATOM      7  C   LIG d   1       5.260  -2.691  -3.932  0.00  0.00    -0.037 C 
ATOM      8  C   LIG d   1       5.528  -2.482  -5.425  0.00  0.00     0.016 C 
ATOM      9  H   LIG d   1       5.475  -3.435  -5.953  0.00  0.00     0.038 H 
ATOM     10  C   LIG d   1       6.924  -1.866  -5.585  0.00  0.00     0.022 C 
ATOM     11  C   LIG d   1       4.516  -1.515  -5.994  0.00  0.00     0.027 C 
ATOM     12  C   LIG d   1       4.219  -1.627  -7.316  0.00  0.00    -0.042 C 
ATOM     13  C   LIG d   1       3.341  -0.725  -7.926  0.00  0.00    -0.055 C 
ATOM     14  C   LIG d   1       2.807   0.284  -7.179  0.00  0.00     0.003 C 
ATOM     15  C   LIG d   1       3.138   0.373  -5.819  0.00  0.00     0.252 C 
ATOM     16  O   LIG d   1       2.718   1.307  -5.154  0.00  0.00    -0.268 OA
ATOM     17  N   LIG d   1       3.917  -0.570  -5.234  0.00  0.00    -0.312 N 
ATOM     18  C   LIG d   1       4.048  -0.526  -3.783  0.00  0.00     0.031 C 
ATOM     19  H   LIG d   1       7.321  -1.077  -2.854  0.00  0.00     0.047 H 
ATOM     20  H   LIG d   1       6.436   0.443  -3.098  0.00  0.00     0.047 H 
ATOM     21  H   LIG d   1       6.055  -3.297  -3.498  0.00  0.00     0.028 H 
ATOM     22  H   LIG d   1       4.301  -3.191  -3.798  0.00  0.00     0.028 H 
ATOM     23  H   LIG d   1       7.132  -1.693  -6.641  0.00  0.00     0.047 H 
ATOM     24  H   LIG d   1       7.672  -2.538  -5.164  0.00  0.00     0.047 H 
ATOM     25  H   LIG d   1       4.663  -2.418  -7.901  0.00  0.00     0.064 H 
ATOM     26  H   LIG d   1       3.089  -0.824  -8.972  0.00  0.00     0.062 H 
ATOM     27  H   LIG d   1       2.141   1.006  -7.627  0.00  0.00     0.067 H 
ATOM     28  H   LIG d   1       3.129  -0.931  -3.358  0.00  0.00     0.050 H 
ATOM     29  H   LIG d   1       4.153   0.512  -3.467  0.00  0.00     0.050 H 
ENDROOT
BRANCH   1  30
ATOM     30  N   LIG d   1       7.383   1.701  -4.773  0.00  0.00    -0.234 N 
ATOM     31  H   LIG d   1       6.584   2.164  -4.477  0.00  0.00     0.159 HD
BRANCH  30  32
ATOM     32  P   LIG d   1       8.863   2.312  -4.417  0.00  0.00     0.428 P 
ATOM     33  O   LIG d   1       8.837   2.908  -3.062  0.00  0.00    -0.236 OA
BRANCH  32  34
ATOM     34  O   LIG d   1       9.250   3.445  -5.494  0.00  0.00    -0.294 OA
BRANCH  34  35
ATOM     35  C   LIG d   1       9.542   4.796  -5.131  0.00  0.00     0.056 C 
ATOM     36  H   LIG d   1      10.375   4.812  -4.428  0.00  0.00     0.056 H 
ATOM     37  H   LIG d   1       8.664   5.245  -4.667  0.00  0.00     0.056 H 
BRANCH  35  38
ATOM     38  C   LIG d   1       9.918   5.590  -6.384  0.00  0.00    -0.041 C 
ATOM     39  H   LIG d   1       9.526   6.604  -6.303  0.00  0.00     0.025 H 
ATOM     40  H   LIG d   1      11.004   5.627  -6.478  0.00  0.00     0.025 H 
ATOM     41  H   LIG d   1       9.493   5.104  -7.263  0.00  0.00     0.025 H 
ENDBRANCH  35  38
ENDBRANCH  34  35
ENDBRANCH  32  34
BRANCH  32  42
ATOM     42  O   LIG d   1       9.956   1.132  -4.464  0.00  0.00    -0.294 OA
BRANCH  42  43
ATOM     43  C   LIG d   1      11.288   1.323  -4.949  0.00  0.00     0.056 C 
ATOM     44  H   LIG d   1      11.697   0.366  -5.273  0.00  0.00     0.056 H 
ATOM     45  H   LIG d   1      11.271   2.014  -5.791  0.00  0.00     0.056 H 
BRANCH  43  46
ATOM     46  C   LIG d   1      12.160   1.899  -3.832  0.00  0.00    -0.041 C 
ATOM     47  H   LIG d   1      12.103   1.252  -2.957  0.00  0.00     0.025 H 
ATOM     48  H   LIG d   1      13.193   1.959  -4.173  0.00  0.00     0.025 H 
ATOM     49  H   LIG d   1      11.804   2.895  -3.571  0.00  0.00     0.025 H 
ENDBRANCH  43  46
ENDBRANCH  42  43
ENDBRANCH  32  42
ENDBRANCH  30  32
ENDBRANCH   1  30
TORSDOF 8
ENDMDL
MODEL 9
REMARK VINA RESULT:      -5.0      3.258      6.671
REMARK  8 active torsions:
REMARK  status: ('A' for Active; 'I' for Inactive)
REMARK    1  A    between atoms: C_1  and  C_2 
REMARK    2  A    between atoms: C_2  and  O_3 
REMARK    3  A    between atoms: O_3  and  P_4 
REMARK    4  A    between atoms: P_4  and  N_6 
REMARK    5  A    between atoms: P_4  and  O_25 
REMARK    6  A    between atoms: N_6  and  C_7 
REMARK    7  A    between atoms: O_25  and  C_26 
REMARK    8  A    between atoms: C_26  and  C_27 
ROOT
ATOM      1  C   LIG d   1       5.109  -1.696  -6.830  0.00  0.00     0.141 C 
ATOM      2  S   LIG d   1       6.191  -0.379  -6.989  0.00  0.00    -0.018 SA
ATOM      3  N   LIG d   1       5.178  -2.732  -7.690  0.00  0.00    -0.311 N 
ATOM      4  C   LIG d   1       4.184  -3.811  -7.645  0.00  0.00     0.018 C 
ATOM      5  C   LIG d   1       3.618  -4.064  -9.035  0.00  0.00    -0.006 C 
ATOM      6  H   LIG d   1       3.046  -4.992  -9.004  0.00  0.00     0.033 H 
ATOM      7  C   LIG d   1       4.737  -4.231 -10.063  0.00  0.00    -0.037 C 
ATOM      8  C   LIG d   1       5.578  -2.951 -10.072  0.00  0.00     0.016 C 
ATOM      9  H   LIG d   1       6.334  -3.005 -10.855  0.00  0.00     0.038 H 
ATOM     10  C   LIG d   1       6.246  -2.802  -8.699  0.00  0.00     0.022 C 
ATOM     11  C   LIG d   1       4.683  -1.754 -10.295  0.00  0.00     0.027 C 
ATOM     12  C   LIG d   1       5.237  -0.660 -10.883  0.00  0.00    -0.042 C 
ATOM     13  C   LIG d   1       4.487   0.507 -11.061  0.00  0.00    -0.055 C 
ATOM     14  C   LIG d   1       3.199   0.539 -10.614  0.00  0.00     0.003 C 
ATOM     15  C   LIG d   1       2.660  -0.606 -10.009  0.00  0.00     0.252 C 
ATOM     16  O   LIG d   1       1.530  -0.571  -9.547  0.00  0.00    -0.268 OA
ATOM     17  N   LIG d   1       3.379  -1.752  -9.934  0.00  0.00    -0.312 N 
ATOM     18  C   LIG d   1       2.686  -2.952  -9.481  0.00  0.00     0.031 C 
ATOM     19  H   LIG d   1       4.656  -4.722  -7.276  0.00  0.00     0.047 H 
ATOM     20  H   LIG d   1       3.375  -3.529  -6.971  0.00  0.00     0.047 H 
ATOM     21  H   LIG d   1       5.363  -5.079  -9.789  0.00  0.00     0.028 H 
ATOM     22  H   LIG d   1       4.306  -4.393 -11.051  0.00  0.00     0.028 H 
ATOM     23  H   LIG d   1       6.840  -1.888  -8.675  0.00  0.00     0.047 H 
ATOM     24  H   LIG d   1       6.884  -3.664  -8.505  0.00  0.00     0.047 H 
ATOM     25  H   LIG d   1       6.264  -0.692 -11.214  0.00  0.00     0.064 H 
ATOM     26  H   LIG d   1       4.920   1.371 -11.545  0.00  0.00     0.062 H 
ATOM     27  H   LIG d   1       2.602   1.432 -10.722  0.00  0.00     0.067 H 
ATOM     28  H   LIG d   1       2.078  -3.313 -10.312  0.00  0.00     0.050 H 
ATOM     29  H   LIG d   1       2.027  -2.690  -8.653  0.00  0.00     0.050 H 
ENDROOT
BRANCH   1  30
ATOM     30  N   LIG d   1       4.190  -1.698  -5.844  0.00  0.00    -0.234 N 
ATOM     31  H   LIG d   1       3.248  -1.620  -6.059  0.00  0.00     0.159 HD
BRANCH  30  32
ATOM     32  P   LIG d   1       4.666  -1.832  -4.280  0.00  0.00     0.428 P 
ATOM     33  O   LIG d   1       3.604  -2.504  -3.498  0.00  0.00    -0.236 OA
BRANCH  32  34
ATOM     34  O   LIG d   1       4.933  -0.365  -3.673  0.00  0.00    -0.294 OA
BRANCH  34  35
ATOM     35  C   LIG d   1       3.934   0.383  -2.978  0.00  0.00     0.056 C 
ATOM     36  H   LIG d   1       3.099  -0.270  -2.726  0.00  0.00     0.056 H 
ATOM     37  H   LIG d   1       3.582   1.197  -3.613  0.00  0.00     0.056 H 
BRANCH  35  38
ATOM     38  C   LIG d   1       4.532   0.963  -1.694  0.00  0.00    -0.041 C 
ATOM     39  H   LIG d   1       5.127   1.845  -1.936  0.00  0.00     0.025 H 
ATOM     40  H   LIG d   1       3.728   1.243  -1.013  0.00  0.00     0.025 H 
ATOM     41  H   LIG d   1       5.168   0.215  -1.220  0.00  0.00     0.025 H 
ENDBRANCH  35  38
ENDBRANCH  34  35
ENDBRANCH  32  34
BRANCH  32  42
ATOM     42  O   LIG d   1       6.020  -2.699  -4.204  0.00  0.00    -0.294 OA
BRANCH  42  43
ATOM     43  C   LIG d   1       7.242  -2.188  -3.667  0.00  0.00     0.056 C 
ATOM     44  H   LIG d   1       7.525  -1.283  -4.205  0.00  0.00     0.056 H 
ATOM     45  H   LIG d   1       7.105  -1.953  -2.611  0.00  0.00     0.056 H 
BRANCH  43  46
ATOM     46  C   LIG d   1       8.345  -3.238  -3.818  0.00  0.00    -0.041 C 
ATOM     47  H   LIG d   1       8.360  -3.876  -2.935  0.00  0.00     0.025 H 
ATOM     48  H   LIG d   1       8.149  -3.845  -4.702  0.00  0.00     0.025 H 
ATOM     49  H   LIG d   1       9.308  -2.740  -3.924  0.00  0.00     0.025 H 
ENDBRANCH  43  46
ENDBRANCH  42  43
ENDBRANCH  32  42
ENDBRANCH  30  32
ENDBRANCH   1  30
TORSDOF 8
ENDMDL
MODEL 10
REMARK VINA RESULT:      -4.9      2.573      4.309
REMARK  8 active torsions:
REMARK  status: ('A' for Active; 'I' for Inactive)
REMARK    1  A    between atoms: C_1  and  C_2 
REMARK    2  A    between atoms: C_2  and  O_3 
REMARK    3  A    between atoms: O_3  and  P_4 
REMARK    4  A    between atoms: P_4  and  N_6 
REMARK    5  A    between atoms: P_4  and  O_25 
REMARK    6  A    between atoms: N_6  and  C_7 
REMARK    7  A    between atoms: O_25  and  C_26 
REMARK    8  A    between atoms: C_26  and  C_27 
ROOT
ATOM      1  C   LIG d   1       5.424  -0.893  -6.799  0.00  0.00     0.141 C 
ATOM      2  S   LIG d   1       6.934  -0.462  -7.481  0.00  0.00    -0.018 SA
ATOM      3  N   LIG d   1       5.224  -0.765  -5.472  0.00  0.00    -0.311 N 
ATOM      4  C   LIG d   1       3.982  -1.241  -4.852  0.00  0.00     0.018 C 
ATOM      5  C   LIG d   1       4.296  -2.120  -3.650  0.00  0.00    -0.006 C 
ATOM      6  H   LIG d   1       3.370  -2.285  -3.099  0.00  0.00     0.033 H 
ATOM      7  C   LIG d   1       5.289  -1.434  -2.712  0.00  0.00    -0.037 C 
ATOM      8  C   LIG d   1       6.574  -1.149  -3.495  0.00  0.00     0.016 C 
ATOM      9  H   LIG d   1       7.334  -0.736  -2.831  0.00  0.00     0.038 H 
ATOM     10  C   LIG d   1       6.248  -0.151  -4.613  0.00  0.00     0.022 C 
ATOM     11  C   LIG d   1       7.077  -2.424  -4.130  0.00  0.00     0.027 C 
ATOM     12  C   LIG d   1       8.413  -2.522  -4.364  0.00  0.00    -0.042 C 
ATOM     13  C   LIG d   1       8.942  -3.645  -5.009  0.00  0.00    -0.055 C 
ATOM     14  C   LIG d   1       8.093  -4.628  -5.424  0.00  0.00     0.003 C 
ATOM     15  C   LIG d   1       6.720  -4.494  -5.171  0.00  0.00     0.252 C 
ATOM     16  O   LIG d   1       5.942  -5.336  -5.592  0.00  0.00    -0.268 OA
ATOM     17  N   LIG d   1       6.247  -3.440  -4.461  0.00  0.00    -0.312 N 
ATOM     18  C   LIG d   1       4.846  -3.473  -4.062  0.00  0.00     0.031 C 
ATOM     19  H   LIG d   1       3.389  -0.385  -4.528  0.00  0.00     0.047 H 
ATOM     20  H   LIG d   1       3.412  -1.816  -5.581  0.00  0.00     0.047 H 
ATOM     21  H   LIG d   1       4.866  -0.498  -2.349  0.00  0.00     0.028 H 
ATOM     22  H   LIG d   1       5.511  -2.089  -1.870  0.00  0.00     0.028 H 
ATOM     23  H   LIG d   1       7.146   0.057  -5.195  0.00  0.00     0.047 H 
ATOM     24  H   LIG d   1       5.864   0.774  -4.179  0.00  0.00     0.047 H 
ATOM     25  H   LIG d   1       9.072  -1.727  -4.048  0.00  0.00     0.064 H 
ATOM     26  H   LIG d   1      10.006  -3.732  -5.178  0.00  0.00     0.062 H 
ATOM     27  H   LIG d   1       8.471  -5.498  -5.941  0.00  0.00     0.067 H 
ATOM     28  H   LIG d   1       4.760  -4.161  -3.220  0.00  0.00     0.050 H 
ATOM     29  H   LIG d   1       4.251  -3.858  -4.891  0.00  0.00     0.050 H 
ENDROOT
BRANCH   1  30
ATOM     30  N   LIG d   1       4.437  -1.359  -7.588  0.00  0.00    -0.234 N 
ATOM     31  H   LIG d   1       4.202  -2.300  -7.567  0.00  0.00     0.159 HD
BRANCH  30  32
ATOM     32  P   LIG d   1       3.631  -0.336  -8.585  0.00  0.00     0.428 P 
ATOM     33  O   LIG d   1       4.348  -0.240  -9.876  0.00  0.00    -0.236 OA
BRANCH  32  34
ATOM     34  O   LIG d   1       3.550   1.122  -7.906  0.00  0.00    -0.294 OA
BRANCH  34  35
ATOM     35  C   LIG d   1       2.924   2.240  -8.539  0.00  0.00     0.056 C 
ATOM     36  H   LIG d   1       2.473   2.881  -7.781  0.00  0.00     0.056 H 
ATOM     37  H   LIG d   1       2.153   1.886  -9.223  0.00  0.00     0.056 H 
BRANCH  35  38
ATOM     38  C   LIG d   1       3.972   3.035  -9.321  0.00  0.00    -0.041 C 
ATOM     39  H   LIG d   1       4.682   2.348  -9.780  0.00  0.00     0.025 H 
ATOM     40  H   LIG d   1       3.479   3.620 -10.098  0.00  0.00     0.025 H 
ATOM     41  H   LIG d   1       4.501   3.705  -8.642  0.00  0.00     0.025 H 
ENDBRANCH  35  38
ENDBRANCH  34  35
ENDBRANCH  32  34
BRANCH  32  42
ATOM     42  O   LIG d   1       2.142  -0.894  -8.837  0.00  0.00    -0.294 OA
BRANCH  42  43
ATOM     43  C   LIG d   1       1.812  -1.768  -9.919  0.00  0.00     0.056 C 
ATOM     44  H   LIG d   1       2.715  -2.265 -10.273  0.00  0.00     0.056 H 
ATOM     45  H   LIG d   1       1.097  -2.516  -9.576  0.00  0.00     0.056 H 
BRANCH  43  46
ATOM     46  C   LIG d   1       1.194  -0.956 -11.060  0.00  0.00    -0.041 C 
ATOM     47  H   LIG d   1       0.109  -0.957 -10.959  0.00  0.00     0.025 H 
ATOM     48  H   LIG d   1       1.562   0.069 -11.016  0.00  0.00     0.025 H 
ATOM     49  H   LIG d   1       1.471  -1.403 -12.014  0.00  0.00     0.025 H 
ENDBRANCH  43  46
ENDBRANCH  42  43
ENDBRANCH  32  42
ENDBRANCH  30  32
ENDBRANCH   1  30
TORSDOF 8
ENDMDL
