MODEL 1
REMARK VINA RESULT:      -5.7      0.000      0.000
REMARK  6 active torsions:
REMARK  status: ('A' for Active; 'I' for Inactive)
REMARK    1  A    between atoms: C_1  and  C_2 
REMARK    2  A    between atoms: C_2  and  C_3 
REMARK    3  A    between atoms: C_3  and  C_4 
REMARK    4  A    between atoms: C_5  and  C_6 
REMARK    5  A    between atoms: C_6  and  N_7 
REMARK    6  A    between atoms: C_12  and  C_14 
ROOT
ATOM      1  N   LIG d   1       4.280  -0.833  -4.480  0.00  0.00    -0.284 N 
ATOM      2  C   LIG d   1       3.055  -0.061  -4.241  0.00  0.00     0.000 C 
ATOM      3  C   LIG d   1       2.898   0.198  -2.741  0.00  0.00    -0.040 C 
ATOM      4  C   LIG d   1       4.119   0.970  -2.232  0.00  0.00    -0.050 C 
ATOM      5  C   LIG d   1       5.386   0.166  -2.536  0.00  0.00    -0.033 C 
ATOM      6  C   LIG d   1       5.470  -0.092  -4.043  0.00  0.00     0.038 C 
ATOM      7  H   LIG d   1       5.520   0.859  -4.572  0.00  0.00     0.051 H 
ATOM      8  H   LIG d   1       3.116   0.890  -4.770  0.00  0.00     0.043 H 
ATOM      9  H   LIG d   1       2.194  -0.623  -4.604  0.00  0.00     0.043 H 
ATOM     10  H   LIG d   1       1.997   0.786  -2.565  0.00  0.00     0.028 H 
ATOM     11  H   LIG d   1       2.823  -0.753  -2.213  0.00  0.00     0.028 H 
ATOM     12  H   LIG d   1       4.172   1.938  -2.731  0.00  0.00     0.027 H 
ATOM     13  H   LIG d   1       4.032   1.119  -1.155  0.00  0.00     0.027 H 
ATOM     14  H   LIG d   1       6.261   0.731  -2.215  0.00  0.00     0.028 H 
ATOM     15  H   LIG d   1       5.349  -0.785  -2.006  0.00  0.00     0.028 H 
ENDROOT
BRANCH   1  16
ATOM     16  C   LIG d   1       4.391  -1.220  -5.894  0.00  0.00     0.061 C 
ATOM     17  H   LIG d   1       3.846  -2.149  -6.061  0.00  0.00     0.056 H 
ATOM     18  H   LIG d   1       5.441  -1.364  -6.149  0.00  0.00     0.056 H 
BRANCH  16  19
ATOM     19  C   LIG d   1       3.822  -0.158  -6.740  0.00  0.00    -0.087 C 
ATOM     20  C   LIG d   1       3.369   0.688  -7.414  0.00  0.00    -0.101 C 
BRANCH  20  21
ATOM     21  C   LIG d   1       2.800   1.750  -8.260  0.00  0.00     0.009 C 
ATOM     22  H   LIG d   1       2.398   2.543  -7.627  0.00  0.00     0.040 H 
ATOM     23  H   LIG d   1       2.001   1.336  -8.874  0.00  0.00     0.040 H 
BRANCH  21  24
ATOM     24  C   LIG d   1       3.893   2.324  -9.164  0.00  0.00    -0.045 C 
ATOM     25  H   LIG d   1       4.859   2.234  -8.667  0.00  0.00     0.027 H 
ATOM     26  H   LIG d   1       3.684   3.374  -9.365  0.00  0.00     0.027 H 
BRANCH  24  27
ATOM     27  C   LIG d   1       3.923   1.548 -10.482  0.00  0.00    -0.064 C 
ATOM     28  H   LIG d   1       2.937   1.127 -10.679  0.00  0.00     0.023 H 
ATOM     29  H   LIG d   1       4.200   2.221 -11.294  0.00  0.00     0.023 H 
ATOM     30  H   LIG d   1       4.654   0.742 -10.412  0.00  0.00     0.023 H 
ENDBRANCH  24  27
ENDBRANCH  21  24
ENDBRANCH  20  21
ENDBRANCH  16  19
ENDBRANCH   1  16
BRANCH   6  31
ATOM     31  C   LIG d   1       6.705  -0.900  -4.345  0.00  0.00    -0.012 A 
ATOM     32  C   LIG d   1       7.642  -0.434  -5.247  0.00  0.00     0.032 A 
ATOM     33  N   LIG d   1       8.730  -1.132  -5.513  0.00  0.00    -0.263 NA
ATOM     34  H   LIG d   1       7.485   0.516  -5.738  0.00  0.00     0.083 H 
ATOM     35  C   LIG d   1       8.960  -2.299  -4.943  0.00  0.00     0.028 A 
ATOM     36  C   LIG d   1       8.064  -2.832  -4.034  0.00  0.00    -0.043 A 
ATOM     37  H   LIG d   1       9.859  -2.845  -5.188  0.00  0.00     0.083 H 
ATOM     38  C   LIG d   1       6.914  -2.123  -3.726  0.00  0.00    -0.054 A 
ATOM     39  H   LIG d   1       8.260  -3.787  -3.571  0.00  0.00     0.063 H 
ATOM     40  H   LIG d   1       6.196  -2.514  -3.019  0.00  0.00     0.062 H 
ENDBRANCH   6  31
TORSDOF 6
ENDMDL
MODEL 2
REMARK VINA RESULT:      -5.7      1.440      3.629
REMARK  6 active torsions:
REMARK  status: ('A' for Active; 'I' for Inactive)
REMARK    1  A    between atoms: C_1  and  C_2 
REMARK    2  A    between atoms: C_2  and  C_3 
REMARK    3  A    between atoms: C_3  and  C_4 
REMARK    4  A    between atoms: C_5  and  C_6 
REMARK    5  A    between atoms: C_6  and  N_7 
REMARK    6  A    between atoms: C_12  and  C_14 
ROOT
ATOM      1  N   LIG d   1       5.710  -0.913  -6.147  0.00  0.00    -0.284 N 
ATOM      2  C   LIG d   1       6.235  -1.652  -7.301  0.00  0.00     0.000 C 
ATOM      3  C   LIG d   1       7.751  -1.457  -7.387  0.00  0.00    -0.040 C 
ATOM      4  C   LIG d   1       8.399  -1.963  -6.095  0.00  0.00    -0.050 C 
ATOM      5  C   LIG d   1       7.800  -1.211  -4.904  0.00  0.00    -0.033 C 
ATOM      6  C   LIG d   1       6.283  -1.413  -4.890  0.00  0.00     0.038 C 
ATOM      7  H   LIG d   1       6.059  -2.474  -4.786  0.00  0.00     0.051 H 
ATOM      8  H   LIG d   1       6.011  -2.713  -7.186  0.00  0.00     0.043 H 
ATOM      9  H   LIG d   1       5.769  -1.280  -8.214  0.00  0.00     0.043 H 
ATOM     10  H   LIG d   1       8.143  -2.020  -8.235  0.00  0.00     0.028 H 
ATOM     11  H   LIG d   1       7.975  -0.398  -7.516  0.00  0.00     0.028 H 
ATOM     12  H   LIG d   1       8.209  -3.031  -5.986  0.00  0.00     0.027 H 
ATOM     13  H   LIG d   1       9.474  -1.787  -6.134  0.00  0.00     0.027 H 
ATOM     14  H   LIG d   1       8.227  -1.597  -3.978  0.00  0.00     0.028 H 
ATOM     15  H   LIG d   1       8.024  -0.148  -4.995  0.00  0.00     0.028 H 
ENDROOT
BRANCH   1  16
ATOM     16  C   LIG d   1       4.242  -0.963  -6.113  0.00  0.00     0.061 C 
ATOM     17  H   LIG d   1       3.895  -0.775  -5.096  0.00  0.00     0.056 H 
ATOM     18  H   LIG d   1       3.905  -1.948  -6.435  0.00  0.00     0.056 H 
BRANCH  16  19
ATOM     19  C   LIG d   1       3.695   0.063  -7.016  0.00  0.00    -0.087 C 
ATOM     20  C   LIG d   1       3.259   0.880  -7.736  0.00  0.00    -0.101 C 
BRANCH  20  21
ATOM     21  C   LIG d   1       2.712   1.905  -8.640  0.00  0.00     0.009 C 
ATOM     22  H   LIG d   1       2.366   2.758  -8.054  0.00  0.00     0.040 H 
ATOM     23  H   LIG d   1       1.876   1.487  -9.200  0.00  0.00     0.040 H 
BRANCH  21  24
ATOM     24  C   LIG d   1       3.801   2.362  -9.612  0.00  0.00    -0.045 C 
ATOM     25  H   LIG d   1       4.756   2.414  -9.089  0.00  0.00     0.027 H 
ATOM     26  H   LIG d   1       3.547   3.347 -10.005  0.00  0.00     0.027 H 
BRANCH  24  27
ATOM     27  C   LIG d   1       3.905   1.364 -10.767  0.00  0.00    -0.064 C 
ATOM     28  H   LIG d   1       4.316   0.424 -10.398  0.00  0.00     0.023 H 
ATOM     29  H   LIG d   1       2.914   1.188 -11.186  0.00  0.00     0.023 H 
ATOM     30  H   LIG d   1       4.559   1.768 -11.539  0.00  0.00     0.023 H 
ENDBRANCH  24  27
ENDBRANCH  21  24
ENDBRANCH  20  21
ENDBRANCH  16  19
ENDBRANCH   1  16
BRANCH   6  31
ATOM     31  C   LIG d   1       5.686  -0.658  -3.731  0.00  0.00    -0.012 A 
ATOM     32  C   LIG d   1       6.010   0.669  -3.519  0.00  0.00     0.032 A 
ATOM     33  N   LIG d   1       5.488   1.339  -2.509  0.00  0.00    -0.263 NA
ATOM     34  H   LIG d   1       6.696   1.164  -4.190  0.00  0.00     0.083 H 
ATOM     35  C   LIG d   1       4.652   0.773  -1.662  0.00  0.00     0.028 A 
ATOM     36  C   LIG d   1       4.286  -0.553  -1.807  0.00  0.00    -0.043 A 
ATOM     37  H   LIG d   1       4.247   1.351  -0.844  0.00  0.00     0.083 H 
ATOM     38  C   LIG d   1       4.810  -1.286  -2.860  0.00  0.00    -0.054 A 
ATOM     39  H   LIG d   1       3.599  -1.009  -1.109  0.00  0.00     0.063 H 
ATOM     40  H   LIG d   1       4.541  -2.324  -2.998  0.00  0.00     0.062 H 
ENDBRANCH   6  31
TORSDOF 6
ENDMDL
MODEL 3
REMARK VINA RESULT:      -5.6      2.000      2.219
REMARK  6 active torsions:
REMARK  status: ('A' for Active; 'I' for Inactive)
REMARK    1  A    between atoms: C_1  and  C_2 
REMARK    2  A    between atoms: C_2  and  C_3 
REMARK    3  A    between atoms: C_3  and  C_4 
REMARK    4  A    between atoms: C_5  and  C_6 
REMARK    5  A    between atoms: C_6  and  N_7 
REMARK    6  A    between atoms: C_12  and  C_14 
ROOT
ATOM      1  N   LIG d   1       4.170  -1.328  -5.117  0.00  0.00    -0.284 N 
ATOM      2  C   LIG d   1       3.576  -0.093  -4.593  0.00  0.00     0.000 C 
ATOM      3  C   LIG d   1       2.706  -0.421  -3.377  0.00  0.00    -0.040 C 
ATOM      4  C   LIG d   1       3.569  -1.090  -2.303  0.00  0.00    -0.050 C 
ATOM      5  C   LIG d   1       4.215  -2.348  -2.890  0.00  0.00    -0.033 C 
ATOM      6  C   LIG d   1       5.041  -1.964  -4.121  0.00  0.00     0.038 C 
ATOM      7  H   LIG d   1       5.827  -1.268  -3.828  0.00  0.00     0.051 H 
ATOM      8  H   LIG d   1       4.368   0.595  -4.298  0.00  0.00     0.043 H 
ATOM      9  H   LIG d   1       2.961   0.371  -5.364  0.00  0.00     0.043 H 
ATOM     10  H   LIG d   1       2.277   0.499  -2.977  0.00  0.00     0.028 H 
ATOM     11  H   LIG d   1       1.905  -1.097  -3.673  0.00  0.00     0.028 H 
ATOM     12  H   LIG d   1       4.347  -0.399  -1.978  0.00  0.00     0.027 H 
ATOM     13  H   LIG d   1       2.945  -1.364  -1.453  0.00  0.00     0.027 H 
ATOM     14  H   LIG d   1       4.865  -2.805  -2.144  0.00  0.00     0.028 H 
ATOM     15  H   LIG d   1       3.438  -3.054  -3.181  0.00  0.00     0.028 H 
ENDROOT
BRANCH   1  16
ATOM     16  C   LIG d   1       4.900  -1.072  -6.367  0.00  0.00     0.061 C 
ATOM     17  H   LIG d   1       5.042  -2.011  -6.904  0.00  0.00     0.056 H 
ATOM     18  H   LIG d   1       5.871  -0.634  -6.137  0.00  0.00     0.056 H 
BRANCH  16  19
ATOM     19  C   LIG d   1       4.127  -0.140  -7.205  0.00  0.00    -0.087 C 
ATOM     20  C   LIG d   1       3.511   0.603  -7.871  0.00  0.00    -0.101 C 
BRANCH  20  21
ATOM     21  C   LIG d   1       2.738   1.535  -8.709  0.00  0.00     0.009 C 
ATOM     22  H   LIG d   1       2.276   2.294  -8.077  0.00  0.00     0.040 H 
ATOM     23  H   LIG d   1       1.962   0.986  -9.243  0.00  0.00     0.040 H 
BRANCH  21  24
ATOM     24  C   LIG d   1       3.671   2.209  -9.717  0.00  0.00    -0.045 C 
ATOM     25  H   LIG d   1       4.608   2.472  -9.225  0.00  0.00     0.027 H 
ATOM     26  H   LIG d   1       3.197   3.111 -10.103  0.00  0.00     0.027 H 
BRANCH  24  27
ATOM     27  C   LIG d   1       3.954   1.247 -10.873  0.00  0.00    -0.064 C 
ATOM     28  H   LIG d   1       4.129   0.246 -10.477  0.00  0.00     0.023 H 
ATOM     29  H   LIG d   1       3.098   1.227 -11.547  0.00  0.00     0.023 H 
ATOM     30  H   LIG d   1       4.837   1.582 -11.416  0.00  0.00     0.023 H 
ENDBRANCH  24  27
ENDBRANCH  21  24
ENDBRANCH  20  21
ENDBRANCH  16  19
ENDBRANCH   1  16
BRANCH   6  31
ATOM     31  C   LIG d   1       5.663  -3.202  -4.714  0.00  0.00    -0.012 A 
ATOM     32  C   LIG d   1       7.037  -3.317  -4.812  0.00  0.00     0.032 A 
ATOM     33  N   LIG d   1       7.590  -4.400  -5.323  0.00  0.00    -0.263 NA
ATOM     34  H   LIG d   1       7.666  -2.511  -4.461  0.00  0.00     0.083 H 
ATOM     35  C   LIG d   1       6.861  -5.404  -5.769  0.00  0.00     0.028 A 
ATOM     36  C   LIG d   1       5.480  -5.358  -5.710  0.00  0.00    -0.043 A 
ATOM     37  H   LIG d   1       7.348  -6.273  -6.186  0.00  0.00     0.083 H 
ATOM     38  C   LIG d   1       4.865  -4.239  -5.172  0.00  0.00    -0.054 A 
ATOM     39  H   LIG d   1       4.890  -6.185  -6.076  0.00  0.00     0.063 H 
ATOM     40  H   LIG d   1       3.788  -4.175  -5.112  0.00  0.00     0.062 H 
ENDBRANCH   6  31
TORSDOF 6
ENDMDL
MODEL 4
REMARK VINA RESULT:      -5.2      3.580      6.050
REMARK  6 active torsions:
REMARK  status: ('A' for Active; 'I' for Inactive)
REMARK    1  A    between atoms: C_1  and  C_2 
REMARK    2  A    between atoms: C_2  and  C_3 
REMARK    3  A    between atoms: C_3  and  C_4 
REMARK    4  A    between atoms: C_5  and  C_6 
REMARK    5  A    between atoms: C_6  and  N_7 
REMARK    6  A    between atoms: C_12  and  C_14 
ROOT
ATOM      1  N   LIG d   1       7.791   1.411  -5.211  0.00  0.00    -0.284 N 
ATOM      2  C   LIG d   1       7.317   0.456  -6.220  0.00  0.00     0.000 C 
ATOM      3  C   LIG d   1       7.210   1.156  -7.577  0.00  0.00    -0.040 C 
ATOM      4  C   LIG d   1       8.583   1.707  -7.972  0.00  0.00    -0.050 C 
ATOM      5  C   LIG d   1       9.074   2.663  -6.881  0.00  0.00    -0.033 C 
ATOM      6  C   LIG d   1       9.128   1.918  -5.544  0.00  0.00     0.038 C 
ATOM      7  H   LIG d   1       9.823   1.083  -5.622  0.00  0.00     0.051 H 
ATOM      8  H   LIG d   1       8.022  -0.373  -6.294  0.00  0.00     0.043 H 
ATOM      9  H   LIG d   1       6.338   0.075  -5.929  0.00  0.00     0.043 H 
ATOM     10  H   LIG d   1       6.874   0.442  -8.329  0.00  0.00     0.028 H 
ATOM     11  H   LIG d   1       6.495   1.976  -7.507  0.00  0.00     0.028 H 
ATOM     12  H   LIG d   1       9.289   0.883  -8.080  0.00  0.00     0.027 H 
ATOM     13  H   LIG d   1       8.502   2.244  -8.917  0.00  0.00     0.027 H 
ATOM     14  H   LIG d   1      10.070   3.024  -7.136  0.00  0.00     0.028 H 
ATOM     15  H   LIG d   1       8.388   3.506  -6.800  0.00  0.00     0.028 H 
ENDROOT
BRANCH   1  16
ATOM     16  C   LIG d   1       7.774   0.812  -3.869  0.00  0.00     0.061 C 
ATOM     17  H   LIG d   1       8.488   1.332  -3.230  0.00  0.00     0.056 H 
ATOM     18  H   LIG d   1       8.047  -0.241  -3.938  0.00  0.00     0.056 H 
BRANCH  16  19
ATOM     19  C   LIG d   1       6.424   0.932  -3.295  0.00  0.00    -0.087 C 
ATOM     20  C   LIG d   1       5.348   1.027  -2.838  0.00  0.00    -0.101 C 
BRANCH  20  21
ATOM     21  C   LIG d   1       3.997   1.147  -2.263  0.00  0.00     0.009 C 
ATOM     22  H   LIG d   1       3.541   2.079  -2.599  0.00  0.00     0.040 H 
ATOM     23  H   LIG d   1       4.064   1.147  -1.175  0.00  0.00     0.040 H 
BRANCH  21  24
ATOM     24  C   LIG d   1       3.141  -0.035  -2.721  0.00  0.00    -0.045 C 
ATOM     25  H   LIG d   1       3.036  -0.008  -3.806  0.00  0.00     0.027 H 
ATOM     26  H   LIG d   1       2.156   0.030  -2.259  0.00  0.00     0.027 H 
BRANCH  24  27
ATOM     27  C   LIG d   1       3.815  -1.344  -2.306  0.00  0.00    -0.064 C 
ATOM     28  H   LIG d   1       4.715  -1.123  -1.732  0.00  0.00     0.023 H 
ATOM     29  H   LIG d   1       3.128  -1.929  -1.695  0.00  0.00     0.023 H 
ATOM     30  H   LIG d   1       4.084  -1.912  -3.197  0.00  0.00     0.023 H 
ENDBRANCH  24  27
ENDBRANCH  21  24
ENDBRANCH  20  21
ENDBRANCH  16  19
ENDBRANCH   1  16
BRANCH   6  31
ATOM     31  C   LIG d   1       9.592   2.860  -4.463  0.00  0.00    -0.012 A 
ATOM     32  C   LIG d   1      10.406   2.407  -3.443  0.00  0.00     0.032 A 
ATOM     33  N   LIG d   1      10.821   3.227  -2.496  0.00  0.00    -0.263 NA
ATOM     34  H   LIG d   1      10.708   1.370  -3.421  0.00  0.00     0.083 H 
ATOM     35  C   LIG d   1      10.473   4.498  -2.479  0.00  0.00     0.028 A 
ATOM     36  C   LIG d   1       9.655   5.021  -3.464  0.00  0.00    -0.043 A 
ATOM     37  H   LIG d   1      10.829   5.138  -1.685  0.00  0.00     0.083 H 
ATOM     38  C   LIG d   1       9.205   4.191  -4.478  0.00  0.00    -0.054 A 
ATOM     39  H   LIG d   1       9.375   6.064  -3.444  0.00  0.00     0.063 H 
ATOM     40  H   LIG d   1       8.566   4.573  -5.262  0.00  0.00     0.062 H 
ENDBRANCH   6  31
TORSDOF 6
ENDMDL
MODEL 5
REMARK VINA RESULT:      -5.1      2.563      5.125
REMARK  6 active torsions:
REMARK  status: ('A' for Active; 'I' for Inactive)
REMARK    1  A    between atoms: C_1  and  C_2 
REMARK    2  A    between atoms: C_2  and  C_3 
REMARK    3  A    between atoms: C_3  and  C_4 
REMARK    4  A    between atoms: C_5  and  C_6 
REMARK    5  A    between atoms: C_6  and  N_7 
REMARK    6  A    between atoms: C_12  and  C_14 
ROOT
ATOM      1  N   LIG d   1       5.365  -0.160  -4.174  0.00  0.00    -0.284 N 
ATOM      2  C   LIG d   1       5.808  -0.388  -2.794  0.00  0.00     0.000 C 
ATOM      3  C   LIG d   1       4.596  -0.377  -1.859  0.00  0.00    -0.040 C 
ATOM      4  C   LIG d   1       3.617  -1.474  -2.289  0.00  0.00    -0.050 C 
ATOM      5  C   LIG d   1       3.208  -1.240  -3.746  0.00  0.00    -0.033 C 
ATOM      6  C   LIG d   1       4.461  -1.225  -4.626  0.00  0.00     0.038 C 
ATOM      7  H   LIG d   1       4.968  -2.187  -4.551  0.00  0.00     0.051 H 
ATOM      8  H   LIG d   1       6.309  -1.354  -2.728  0.00  0.00     0.043 H 
ATOM      9  H   LIG d   1       6.501   0.401  -2.498  0.00  0.00     0.043 H 
ATOM     10  H   LIG d   1       4.924  -0.564  -0.836  0.00  0.00     0.028 H 
ATOM     11  H   LIG d   1       4.102   0.593  -1.913  0.00  0.00     0.028 H 
ATOM     12  H   LIG d   1       4.097  -2.448  -2.197  0.00  0.00     0.027 H 
ATOM     13  H   LIG d   1       2.732  -1.442  -1.653  0.00  0.00     0.027 H 
ATOM     14  H   LIG d   1       2.545  -2.041  -4.071  0.00  0.00     0.028 H 
ATOM     15  H   LIG d   1       2.694  -0.282  -3.830  0.00  0.00     0.028 H 
ENDROOT
BRANCH   1  16
ATOM     16  C   LIG d   1       6.514  -0.024  -5.081  0.00  0.00     0.061 C 
ATOM     17  H   LIG d   1       6.163   0.265  -6.071  0.00  0.00     0.056 H 
ATOM     18  H   LIG d   1       7.039  -0.977  -5.146  0.00  0.00     0.056 H 
BRANCH  16  19
ATOM     19  C   LIG d   1       7.429   1.006  -4.563  0.00  0.00    -0.087 C 
ATOM     20  C   LIG d   1       8.158   1.827  -4.150  0.00  0.00    -0.101 C 
BRANCH  20  21
ATOM     21  C   LIG d   1       9.073   2.857  -3.633  0.00  0.00     0.009 C 
ATOM     22  H   LIG d   1      10.043   2.407  -3.417  0.00  0.00     0.040 H 
ATOM     23  H   LIG d   1       8.661   3.284  -2.719  0.00  0.00     0.040 H 
BRANCH  21  24
ATOM     24  C   LIG d   1       9.244   3.961  -4.678  0.00  0.00    -0.045 C 
ATOM     25  H   LIG d   1       8.283   4.165  -5.151  0.00  0.00     0.027 H 
ATOM     26  H   LIG d   1       9.959   3.637  -5.435  0.00  0.00     0.027 H 
BRANCH  24  27
ATOM     27  C   LIG d   1       9.759   5.232  -4.000  0.00  0.00    -0.064 C 
ATOM     28  H   LIG d   1       9.090   5.505  -3.184  0.00  0.00     0.023 H 
ATOM     29  H   LIG d   1      10.760   5.053  -3.606  0.00  0.00     0.023 H 
ATOM     30  H   LIG d   1       9.794   6.043  -4.728  0.00  0.00     0.023 H 
ENDBRANCH  24  27
ENDBRANCH  21  24
ENDBRANCH  20  21
ENDBRANCH  16  19
ENDBRANCH   1  16
BRANCH   6  31
ATOM     31  C   LIG d   1       4.065  -0.975  -6.058  0.00  0.00    -0.012 A 
ATOM     32  C   LIG d   1       4.535  -1.794  -7.067  0.00  0.00     0.032 A 
ATOM     33  N   LIG d   1       4.189  -1.586  -8.323  0.00  0.00    -0.263 NA
ATOM     34  H   LIG d   1       5.191  -2.618  -6.824  0.00  0.00     0.083 H 
ATOM     35  C   LIG d   1       3.396  -0.590  -8.666  0.00  0.00     0.028 A 
ATOM     36  C   LIG d   1       2.892   0.275  -7.712  0.00  0.00    -0.043 A 
ATOM     37  H   LIG d   1       3.137  -0.448  -9.705  0.00  0.00     0.083 H 
ATOM     38  C   LIG d   1       3.230   0.083  -6.382  0.00  0.00    -0.054 A 
ATOM     39  H   LIG d   1       2.242   1.088  -8.001  0.00  0.00     0.063 H 
ATOM     40  H   LIG d   1       2.850   0.742  -5.615  0.00  0.00     0.062 H 
ENDBRANCH   6  31
TORSDOF 6
ENDMDL
MODEL 6
REMARK VINA RESULT:      -5.1      2.680      5.755
REMARK  6 active torsions:
REMARK  status: ('A' for Active; 'I' for Inactive)
REMARK    1  A    between atoms: C_1  and  C_2 
REMARK    2  A    between atoms: C_2  and  C_3 
REMARK    3  A    between atoms: C_3  and  C_4 
REMARK    4  A    between atoms: C_5  and  C_6 
REMARK    5  A    between atoms: C_6  and  N_7 
REMARK    6  A    between atoms: C_12  and  C_14 
ROOT
ATOM      1  N   LIG d   1       7.579  -0.482  -4.561  0.00  0.00    -0.284 N 
ATOM      2  C   LIG d   1       8.566  -1.302  -5.274  0.00  0.00     0.000 C 
ATOM      3  C   LIG d   1       8.779  -2.617  -4.520  0.00  0.00    -0.040 C 
ATOM      4  C   LIG d   1       7.445  -3.363  -4.419  0.00  0.00    -0.050 C 
ATOM      5  C   LIG d   1       6.421  -2.468  -3.715  0.00  0.00    -0.033 C 
ATOM      6  C   LIG d   1       6.277  -1.157  -4.493  0.00  0.00     0.038 C 
ATOM      7  H   LIG d   1       5.925  -1.371  -5.502  0.00  0.00     0.051 H 
ATOM      8  H   LIG d   1       8.204  -1.515  -6.280  0.00  0.00     0.043 H 
ATOM      9  H   LIG d   1       9.511  -0.762  -5.336  0.00  0.00     0.043 H 
ATOM     10  H   LIG d   1       9.500  -3.233  -5.059  0.00  0.00     0.028 H 
ATOM     11  H   LIG d   1       9.155  -2.406  -3.519  0.00  0.00     0.028 H 
ATOM     12  H   LIG d   1       7.089  -3.609  -5.419  0.00  0.00     0.027 H 
ATOM     13  H   LIG d   1       7.583  -4.280  -3.845  0.00  0.00     0.027 H 
ATOM     14  H   LIG d   1       5.458  -2.977  -3.679  0.00  0.00     0.028 H 
ATOM     15  H   LIG d   1       6.761  -2.254  -2.702  0.00  0.00     0.028 H 
ENDROOT
BRANCH   1  16
ATOM     16  C   LIG d   1       7.452   0.845  -5.179  0.00  0.00     0.061 C 
ATOM     17  H   LIG d   1       6.408   1.159  -5.154  0.00  0.00     0.056 H 
ATOM     18  H   LIG d   1       7.792   0.798  -6.214  0.00  0.00     0.056 H 
BRANCH  16  19
ATOM     19  C   LIG d   1       8.274   1.814  -4.436  0.00  0.00    -0.087 C 
ATOM     20  C   LIG d   1       8.930   2.585  -3.844  0.00  0.00    -0.101 C 
BRANCH  20  21
ATOM     21  C   LIG d   1       9.753   3.554  -3.101  0.00  0.00     0.009 C 
ATOM     22  H   LIG d   1      10.541   3.025  -2.563  0.00  0.00     0.040 H 
ATOM     23  H   LIG d   1       9.127   4.092  -2.389  0.00  0.00     0.040 H 
BRANCH  21  24
ATOM     24  C   LIG d   1      10.381   4.548  -4.080  0.00  0.00    -0.045 C 
ATOM     25  H   LIG d   1      10.896   4.002  -4.871  0.00  0.00     0.027 H 
ATOM     26  H   LIG d   1      11.095   5.178  -3.549  0.00  0.00     0.027 H 
BRANCH  24  27
ATOM     27  C   LIG d   1       9.285   5.422  -4.693  0.00  0.00    -0.064 C 
ATOM     28  H   LIG d   1       8.318   5.133  -4.281  0.00  0.00     0.023 H 
ATOM     29  H   LIG d   1       9.482   6.468  -4.459  0.00  0.00     0.023 H 
ATOM     30  H   LIG d   1       9.275   5.286  -5.774  0.00  0.00     0.023 H 
ENDBRANCH  24  27
ENDBRANCH  21  24
ENDBRANCH  20  21
ENDBRANCH  16  19
ENDBRANCH   1  16
BRANCH   6  31
ATOM     31  C   LIG d   1       5.284  -0.265  -3.793  0.00  0.00    -0.012 A 
ATOM     32  C   LIG d   1       4.165   0.194  -4.460  0.00  0.00     0.032 A 
ATOM     33  N   LIG d   1       3.288   0.970  -3.853  0.00  0.00    -0.263 NA
ATOM     34  H   LIG d   1       4.004  -0.090  -5.490  0.00  0.00     0.083 H 
ATOM     35  C   LIG d   1       3.447   1.345  -2.599  0.00  0.00     0.028 A 
ATOM     36  C   LIG d   1       4.546   0.930  -1.870  0.00  0.00    -0.043 A 
ATOM     37  H   LIG d   1       2.710   1.985  -2.136  0.00  0.00     0.083 H 
ATOM     38  C   LIG d   1       5.485   0.109  -2.473  0.00  0.00    -0.054 A 
ATOM     39  H   LIG d   1       4.669   1.241  -0.843  0.00  0.00     0.063 H 
ATOM     40  H   LIG d   1       6.353  -0.232  -1.927  0.00  0.00     0.062 H 
ENDBRANCH   6  31
TORSDOF 6
ENDMDL
MODEL 7
REMARK VINA RESULT:      -4.9      1.615      5.661
REMARK  6 active torsions:
REMARK  status: ('A' for Active; 'I' for Inactive)
REMARK    1  A    between atoms: C_1  and  C_2 
REMARK    2  A    between atoms: C_2  and  C_3 
REMARK    3  A    between atoms: C_3  and  C_4 
REMARK    4  A    between atoms: C_5  and  C_6 
REMARK    5  A    between atoms: C_6  and  N_7 
REMARK    6  A    between atoms: C_12  and  C_14 
ROOT
ATOM      1  N   LIG d   1       5.437  -0.111  -4.330  0.00  0.00    -0.284 N 
ATOM      2  C   LIG d   1       5.852  -0.183  -2.924  0.00  0.00     0.000 C 
ATOM      3  C   LIG d   1       4.694   0.256  -2.025  0.00  0.00    -0.040 C 
ATOM      4  C   LIG d   1       3.491  -0.659  -2.269  0.00  0.00    -0.050 C 
ATOM      5  C   LIG d   1       3.108  -0.602  -3.750  0.00  0.00    -0.033 C 
ATOM      6  C   LIG d   1       4.313  -1.016  -4.599  0.00  0.00     0.038 C 
ATOM      7  H   LIG d   1       4.600  -2.037  -4.348  0.00  0.00     0.051 H 
ATOM      8  H   LIG d   1       6.133  -1.208  -2.680  0.00  0.00     0.043 H 
ATOM      9  H   LIG d   1       6.707   0.475  -2.762  0.00  0.00     0.043 H 
ATOM     10  H   LIG d   1       4.998   0.186  -0.980  0.00  0.00     0.028 H 
ATOM     11  H   LIG d   1       4.422   1.285  -2.258  0.00  0.00     0.028 H 
ATOM     12  H   LIG d   1       3.750  -1.683  -1.998  0.00  0.00     0.027 H 
ATOM     13  H   LIG d   1       2.649  -0.323  -1.662  0.00  0.00     0.027 H 
ATOM     14  H   LIG d   1       2.279  -1.284  -3.938  0.00  0.00     0.028 H 
ATOM     15  H   LIG d   1       2.812   0.414  -4.011  0.00  0.00     0.028 H 
ENDROOT
BRANCH   1  16
ATOM     16  C   LIG d   1       6.566  -0.392  -5.228  0.00  0.00     0.061 C 
ATOM     17  H   LIG d   1       7.309   0.400  -5.135  0.00  0.00     0.056 H 
ATOM     18  H   LIG d   1       6.209  -0.436  -6.257  0.00  0.00     0.056 H 
BRANCH  16  19
ATOM     19  C   LIG d   1       7.174  -1.682  -4.863  0.00  0.00    -0.087 C 
ATOM     20  C   LIG d   1       7.659  -2.710  -4.573  0.00  0.00    -0.101 C 
BRANCH  20  21
ATOM     21  C   LIG d   1       8.267  -4.000  -4.209  0.00  0.00     0.009 C 
ATOM     22  H   LIG d   1       8.854  -4.375  -5.048  0.00  0.00     0.040 H 
ATOM     23  H   LIG d   1       7.482  -4.716  -3.966  0.00  0.00     0.040 H 
BRANCH  21  24
ATOM     24  C   LIG d   1       9.177  -3.810  -2.994  0.00  0.00    -0.045 C 
ATOM     25  H   LIG d   1       9.021  -4.630  -2.292  0.00  0.00     0.027 H 
ATOM     26  H   LIG d   1       8.939  -2.864  -2.506  0.00  0.00     0.027 H 
BRANCH  24  27
ATOM     27  C   LIG d   1      10.638  -3.797  -3.447  0.00  0.00    -0.064 C 
ATOM     28  H   LIG d   1      10.686  -3.975  -4.522  0.00  0.00     0.023 H 
ATOM     29  H   LIG d   1      11.081  -2.828  -3.219  0.00  0.00     0.023 H 
ATOM     30  H   LIG d   1      11.187  -4.580  -2.925  0.00  0.00     0.023 H 
ENDBRANCH  24  27
ENDBRANCH  21  24
ENDBRANCH  20  21
ENDBRANCH  16  19
ENDBRANCH   1  16
BRANCH   6  31
ATOM     31  C   LIG d   1       3.947  -0.943  -6.059  0.00  0.00    -0.012 A 
ATOM     32  C   LIG d   1       4.340  -1.941  -6.930  0.00  0.00     0.032 A 
ATOM     33  N   LIG d   1       4.018  -1.888  -8.208  0.00  0.00    -0.263 NA
ATOM     34  H   LIG d   1       4.914  -2.778  -6.558  0.00  0.00     0.083 H 
ATOM     35  C   LIG d   1       3.325  -0.883  -8.706  0.00  0.00     0.028 A 
ATOM     36  C   LIG d   1       2.902   0.155  -7.896  0.00  0.00    -0.043 A 
ATOM     37  H   LIG d   1       3.084  -0.871  -9.759  0.00  0.00     0.083 H 
ATOM     38  C   LIG d   1       3.216   0.129  -6.547  0.00  0.00    -0.054 A 
ATOM     39  H   LIG d   1       2.333   0.974  -8.312  0.00  0.00     0.063 H 
ATOM     40  H   LIG d   1       2.898   0.927  -5.890  0.00  0.00     0.062 H 
ENDBRANCH   6  31
TORSDOF 6
ENDMDL
MODEL 8
REMARK VINA RESULT:      -4.9      2.815      5.420
REMARK  6 active torsions:
REMARK  status: ('A' for Active; 'I' for Inactive)
REMARK    1  A    between atoms: C_1  and  C_2 
REMARK    2  A    between atoms: C_2  and  C_3 
REMARK    3  A    between atoms: C_3  and  C_4 
REMARK    4  A    between atoms: C_5  and  C_6 
REMARK    5  A    between atoms: C_6  and  N_7 
REMARK    6  A    between atoms: C_12  and  C_14 
ROOT
ATOM      1  N   LIG d   1       7.359   0.070  -5.627  0.00  0.00    -0.284 N 
ATOM      2  C   LIG d   1       6.654  -0.653  -6.692  0.00  0.00     0.000 C 
ATOM      3  C   LIG d   1       6.131   0.346  -7.728  0.00  0.00    -0.040 C 
ATOM      4  C   LIG d   1       7.309   1.132  -8.311  0.00  0.00    -0.050 C 
ATOM      5  C   LIG d   1       8.055   1.837  -7.174  0.00  0.00    -0.033 C 
ATOM      6  C   LIG d   1       8.522   0.795  -6.154  0.00  0.00     0.038 C 
ATOM      7  H   LIG d   1       9.199   0.091  -6.639  0.00  0.00     0.051 H 
ATOM      8  H   LIG d   1       7.340  -1.350  -7.173  0.00  0.00     0.043 H 
ATOM      9  H   LIG d   1       5.817  -1.205  -6.265  0.00  0.00     0.043 H 
ATOM     10  H   LIG d   1       5.622  -0.193  -8.528  0.00  0.00     0.028 H 
ATOM     11  H   LIG d   1       5.435   1.034  -7.251  0.00  0.00     0.028 H 
ATOM     12  H   LIG d   1       7.987   0.448  -8.823  0.00  0.00     0.027 H 
ATOM     13  H   LIG d   1       6.937   1.874  -9.018  0.00  0.00     0.027 H 
ATOM     14  H   LIG d   1       8.920   2.363  -7.578  0.00  0.00     0.028 H 
ATOM     15  H   LIG d   1       7.388   2.548  -6.688  0.00  0.00     0.028 H 
ENDROOT
BRANCH   1  16
ATOM     16  C   LIG d   1       7.754  -0.842  -4.544  0.00  0.00     0.061 C 
ATOM     17  H   LIG d   1       8.623  -0.436  -4.026  0.00  0.00     0.056 H 
ATOM     18  H   LIG d   1       8.004  -1.816  -4.963  0.00  0.00     0.056 H 
BRANCH  16  19
ATOM     19  C   LIG d   1       6.640  -0.988  -3.593  0.00  0.00    -0.087 C 
ATOM     20  C   LIG d   1       5.752  -1.104  -2.836  0.00  0.00    -0.101 C 
BRANCH  20  21
ATOM     21  C   LIG d   1       4.637  -1.250  -1.885  0.00  0.00     0.009 C 
ATOM     22  H   LIG d   1       4.387  -0.275  -1.465  0.00  0.00     0.040 H 
ATOM     23  H   LIG d   1       4.930  -1.926  -1.082  0.00  0.00     0.040 H 
BRANCH  21  24
ATOM     24  C   LIG d   1       3.418  -1.820  -2.612  0.00  0.00    -0.045 C 
ATOM     25  H   LIG d   1       2.796  -2.368  -1.904  0.00  0.00     0.027 H 
ATOM     26  H   LIG d   1       3.749  -2.494  -3.402  0.00  0.00     0.027 H 
BRANCH  24  27
ATOM     27  C   LIG d   1       2.607  -0.676  -3.224  0.00  0.00    -0.064 C 
ATOM     28  H   LIG d   1       2.648  -0.743  -4.311  0.00  0.00     0.023 H 
ATOM     29  H   LIG d   1       1.571  -0.748  -2.894  0.00  0.00     0.023 H 
ATOM     30  H   LIG d   1       3.026   0.277  -2.903  0.00  0.00     0.023 H 
ENDBRANCH  24  27
ENDBRANCH  21  24
ENDBRANCH  20  21
ENDBRANCH  16  19
ENDBRANCH   1  16
BRANCH   6  31
ATOM     31  C   LIG d   1       9.239   1.486  -5.024  0.00  0.00    -0.012 A 
ATOM     32  C   LIG d   1       8.564   2.367  -4.202  0.00  0.00     0.032 A 
ATOM     33  N   LIG d   1       9.183   2.972  -3.206  0.00  0.00    -0.263 NA
ATOM     34  H   LIG d   1       7.515   2.561  -4.374  0.00  0.00     0.083 H 
ATOM     35  C   LIG d   1      10.463   2.771  -2.963  0.00  0.00     0.028 A 
ATOM     36  C   LIG d   1      11.205   1.906  -3.747  0.00  0.00    -0.043 A 
ATOM     37  H   LIG d   1      10.938   3.287  -2.142  0.00  0.00     0.083 H 
ATOM     38  C   LIG d   1      10.586   1.249  -4.798  0.00  0.00    -0.054 A 
ATOM     39  H   LIG d   1      12.253   1.746  -3.540  0.00  0.00     0.063 H 
ATOM     40  H   LIG d   1      11.141   0.567  -5.427  0.00  0.00     0.062 H 
ENDBRANCH   6  31
TORSDOF 6
ENDMDL
MODEL 9
REMARK VINA RESULT:      -4.8      2.308      5.905
REMARK  6 active torsions:
REMARK  status: ('A' for Active; 'I' for Inactive)
REMARK    1  A    between atoms: C_1  and  C_2 
REMARK    2  A    between atoms: C_2  and  C_3 
REMARK    3  A    between atoms: C_3  and  C_4 
REMARK    4  A    between atoms: C_5  and  C_6 
REMARK    5  A    between atoms: C_6  and  N_7 
REMARK    6  A    between atoms: C_12  and  C_14 
ROOT
ATOM      1  N   LIG d   1       6.088  -0.427  -6.998  0.00  0.00    -0.284 N 
ATOM      2  C   LIG d   1       6.808  -0.519  -5.723  0.00  0.00     0.000 C 
ATOM      3  C   LIG d   1       8.281  -0.167  -5.941  0.00  0.00    -0.040 C 
ATOM      4  C   LIG d   1       8.383   1.253  -6.505  0.00  0.00    -0.050 C 
ATOM      5  C   LIG d   1       7.584   1.334  -7.809  0.00  0.00    -0.033 C 
ATOM      6  C   LIG d   1       6.131   0.938  -7.537  0.00  0.00     0.038 C 
ATOM      7  H   LIG d   1       5.697   1.627  -6.813  0.00  0.00     0.051 H 
ATOM      8  H   LIG d   1       6.370   0.177  -5.008  0.00  0.00     0.043 H 
ATOM      9  H   LIG d   1       6.732  -1.535  -5.334  0.00  0.00     0.043 H 
ATOM     10  H   LIG d   1       8.813  -0.219  -4.990  0.00  0.00     0.028 H 
ATOM     11  H   LIG d   1       8.724  -0.871  -6.645  0.00  0.00     0.028 H 
ATOM     12  H   LIG d   1       7.976   1.962  -5.784  0.00  0.00     0.027 H 
ATOM     13  H   LIG d   1       9.428   1.493  -6.703  0.00  0.00     0.027 H 
ATOM     14  H   LIG d   1       7.617   2.354  -8.193  0.00  0.00     0.028 H 
ATOM     15  H   LIG d   1       8.015   0.653  -8.543  0.00  0.00     0.028 H 
ENDROOT
BRANCH   1  16
ATOM     16  C   LIG d   1       4.701  -0.893  -6.855  0.00  0.00     0.061 C 
ATOM     17  H   LIG d   1       4.677  -1.982  -6.897  0.00  0.00     0.056 H 
ATOM     18  H   LIG d   1       4.096  -0.485  -7.664  0.00  0.00     0.056 H 
BRANCH  16  19
ATOM     19  C   LIG d   1       4.162  -0.440  -5.562  0.00  0.00    -0.087 C 
ATOM     20  C   LIG d   1       3.732  -0.079  -4.532  0.00  0.00    -0.101 C 
BRANCH  20  21
ATOM     21  C   LIG d   1       3.193   0.374  -3.240  0.00  0.00     0.009 C 
ATOM     22  H   LIG d   1       2.258  -0.147  -3.032  0.00  0.00     0.040 H 
ATOM     23  H   LIG d   1       3.009   1.448  -3.279  0.00  0.00     0.040 H 
BRANCH  21  24
ATOM     24  C   LIG d   1       4.203   0.071  -2.131  0.00  0.00    -0.045 C 
ATOM     25  H   LIG d   1       3.861   0.519  -1.197  0.00  0.00     0.027 H 
ATOM     26  H   LIG d   1       5.173   0.488  -2.400  0.00  0.00     0.027 H 
BRANCH  24  27
ATOM     27  C   LIG d   1       4.328  -1.444  -1.955  0.00  0.00    -0.064 C 
ATOM     28  H   LIG d   1       4.215  -1.697  -0.901  0.00  0.00     0.023 H 
ATOM     29  H   LIG d   1       3.552  -1.942  -2.535  0.00  0.00     0.023 H 
ATOM     30  H   LIG d   1       5.308  -1.769  -2.303  0.00  0.00     0.023 H 
ENDBRANCH  24  27
ENDBRANCH  21  24
ENDBRANCH  20  21
ENDBRANCH  16  19
ENDBRANCH   1  16
BRANCH   6  31
ATOM     31  C   LIG d   1       5.345   0.997  -8.821  0.00  0.00    -0.012 A 
ATOM     32  C   LIG d   1       5.661   0.158  -9.873  0.00  0.00     0.032 A 
ATOM     33  N   LIG d   1       4.974   0.199 -10.999  0.00  0.00    -0.263 NA
ATOM     34  H   LIG d   1       6.477  -0.543  -9.771  0.00  0.00     0.083 H 
ATOM     35  C   LIG d   1       3.975   1.042 -11.170  0.00  0.00     0.028 A 
ATOM     36  C   LIG d   1       3.606   1.916 -10.164  0.00  0.00    -0.043 A 
ATOM     37  H   LIG d   1       3.438   1.051 -12.107  0.00  0.00     0.083 H 
ATOM     38  C   LIG d   1       4.300   1.896  -8.965  0.00  0.00    -0.054 A 
ATOM     39  H   LIG d   1       2.785   2.603 -10.311  0.00  0.00     0.063 H 
ATOM     40  H   LIG d   1       4.033   2.567  -8.161  0.00  0.00     0.062 H 
ENDBRANCH   6  31
TORSDOF 6
ENDMDL
MODEL 10
REMARK VINA RESULT:      -4.8      2.810      6.412
REMARK  6 active torsions:
REMARK  status: ('A' for Active; 'I' for Inactive)
REMARK    1  A    between atoms: C_1  and  C_2 
REMARK    2  A    between atoms: C_2  and  C_3 
REMARK    3  A    between atoms: C_3  and  C_4 
REMARK    4  A    between atoms: C_5  and  C_6 
REMARK    5  A    between atoms: C_6  and  N_7 
REMARK    6  A    between atoms: C_12  and  C_14 
ROOT
ATOM      1  N   LIG d   1       5.367  -0.535  -8.028  0.00  0.00    -0.284 N 
ATOM      2  C   LIG d   1       6.369   0.082  -7.149  0.00  0.00     0.000 C 
ATOM      3  C   LIG d   1       7.347   0.906  -7.990  0.00  0.00    -0.040 C 
ATOM      4  C   LIG d   1       6.573   1.986  -8.751  0.00  0.00    -0.050 C 
ATOM      5  C   LIG d   1       5.504   1.320  -9.621  0.00  0.00    -0.033 C 
ATOM      6  C   LIG d   1       4.579   0.483  -8.733  0.00  0.00     0.038 C 
ATOM      7  H   LIG d   1       4.090   1.131  -8.007  0.00  0.00     0.051 H 
ATOM      8  H   LIG d   1       5.870   0.731  -6.430  0.00  0.00     0.043 H 
ATOM      9  H   LIG d   1       6.915  -0.697  -6.617  0.00  0.00     0.043 H 
ATOM     10  H   LIG d   1       8.081   1.378  -7.335  0.00  0.00     0.028 H 
ATOM     11  H   LIG d   1       7.856   0.255  -8.700  0.00  0.00     0.028 H 
ATOM     12  H   LIG d   1       6.095   2.662  -8.040  0.00  0.00     0.027 H 
ATOM     13  H   LIG d   1       7.259   2.549  -9.383  0.00  0.00     0.027 H 
ATOM     14  H   LIG d   1       4.921   2.086 -10.132  0.00  0.00     0.028 H 
ATOM     15  H   LIG d   1       5.984   0.674 -10.356  0.00  0.00     0.028 H 
ENDROOT
BRANCH   1  16
ATOM     16  C   LIG d   1       4.495  -1.447  -7.273  0.00  0.00     0.061 C 
ATOM     17  H   LIG d   1       5.068  -2.317  -6.953  0.00  0.00     0.056 H 
ATOM     18  H   LIG d   1       3.670  -1.769  -7.909  0.00  0.00     0.056 H 
BRANCH  16  19
ATOM     19  C   LIG d   1       3.960  -0.749  -6.092  0.00  0.00    -0.087 C 
ATOM     20  C   LIG d   1       3.533  -0.192  -5.152  0.00  0.00    -0.101 C 
BRANCH  20  21
ATOM     21  C   LIG d   1       2.999   0.505  -3.971  0.00  0.00     0.009 C 
ATOM     22  H   LIG d   1       1.920   0.356  -3.918  0.00  0.00     0.040 H 
ATOM     23  H   LIG d   1       3.214   1.571  -4.050  0.00  0.00     0.040 H 
BRANCH  21  24
ATOM     24  C   LIG d   1       3.654  -0.054  -2.707  0.00  0.00    -0.045 C 
ATOM     25  H   LIG d   1       3.232   0.438  -1.831  0.00  0.00     0.027 H 
ATOM     26  H   LIG d   1       4.728   0.128  -2.744  0.00  0.00     0.027 H 
BRANCH  24  27
ATOM     27  C   LIG d   1       3.395  -1.560  -2.621  0.00  0.00    -0.064 C 
ATOM     28  H   LIG d   1       2.764  -1.867  -3.455  0.00  0.00     0.023 H 
ATOM     29  H   LIG d   1       4.343  -2.095  -2.666  0.00  0.00     0.023 H 
ATOM     30  H   LIG d   1       2.892  -1.788  -1.681  0.00  0.00     0.023 H 
ENDBRANCH  24  27
ENDBRANCH  21  24
ENDBRANCH  20  21
ENDBRANCH  16  19
ENDBRANCH   1  16
BRANCH   6  31
ATOM     31  C   LIG d   1       3.538  -0.191  -9.589  0.00  0.00    -0.012 A 
ATOM     32  C   LIG d   1       3.912  -0.937 -10.690  0.00  0.00     0.032 A 
ATOM     33  N   LIG d   1       3.007  -1.535 -11.440  0.00  0.00    -0.263 NA
ATOM     34  H   LIG d   1       4.960  -1.035 -10.937  0.00  0.00     0.083 H 
ATOM     35  C   LIG d   1       1.718  -1.438 -11.180  0.00  0.00     0.028 A 
ATOM     36  C   LIG d   1       1.268  -0.703 -10.098  0.00  0.00    -0.043 A 
ATOM     37  H   LIG d   1       1.006  -1.937 -11.819  0.00  0.00     0.083 H 
ATOM     38  C   LIG d   1       2.191  -0.067  -9.284  0.00  0.00    -0.054 A 
ATOM     39  H   LIG d   1       0.211  -0.629  -9.891  0.00  0.00     0.063 H 
ATOM     40  H   LIG d   1       1.868   0.514  -8.431  0.00  0.00     0.062 H 
ENDBRANCH   6  31
TORSDOF 6
ENDMDL
