MODEL 1
REMARK VINA RESULT:      -4.5      0.000      0.000
REMARK  1 active torsions:
REMARK  status: ('A' for Active; 'I' for Inactive)
REMARK    1  A    between atoms: C_1  and  N_2 
ROOT
ATOM      1  N   LIG d   1       5.873  -2.377  -3.885  0.00  0.00    -0.302 N 
ATOM      2  C   LIG d   1       5.850  -1.225  -3.146  0.00  0.00     0.028 A 
ATOM      3  C   LIG d   1       4.666  -0.651  -2.840  0.00  0.00     0.098 A 
ATOM      4  C   LIG d   1       3.469  -1.257  -3.294  0.00  0.00     0.268 A 
ATOM      5  O   LIG d   1       2.390  -0.758  -3.031  0.00  0.00    -0.267 OA
ATOM      6  N   LIG d   1       3.535  -2.391  -4.019  0.00  0.00    -0.274 N 
ATOM      7  H   LIG d   1       2.694  -2.822  -4.346  0.00  0.00     0.173 HD
ATOM      8  C   LIG d   1       4.728  -2.945  -4.306  0.00  0.00     0.329 A 
ATOM      9  O   LIG d   1       4.772  -3.971  -4.956  0.00  0.00    -0.246 OA
ATOM     10 BR   LIG d   1       4.608   0.941  -1.821  0.00  0.00    -0.043 Br
ATOM     11  H   LIG d   1       6.773  -0.778  -2.809  0.00  0.00     0.082 H 
ENDROOT
BRANCH   1  12
ATOM     12  C   LIG d   1       7.157  -3.000  -4.216  0.00  0.00     0.016 C 
ATOM     13  H   LIG d   1       7.776  -3.053  -3.322  0.00  0.00     0.046 H 
ATOM     14  H   LIG d   1       6.984  -4.006  -4.598  0.00  0.00     0.046 H 
ATOM     15  H   LIG d   1       7.664  -2.405  -4.975  0.00  0.00     0.046 H 
ENDBRANCH   1  12
TORSDOF 1
ENDMDL
MODEL 2
REMARK VINA RESULT:      -4.2      2.023      3.430
REMARK  1 active torsions:
REMARK  status: ('A' for Active; 'I' for Inactive)
REMARK    1  A    between atoms: C_1  and  N_2 
ROOT
ATOM      1  N   LIG d   1       4.675  -0.408  -2.716  0.00  0.00    -0.302 N 
ATOM      2  C   LIG d   1       5.874  -0.990  -3.030  0.00  0.00     0.028 A 
ATOM      3  C   LIG d   1       5.894  -2.142  -3.734  0.00  0.00     0.098 A 
ATOM      4  C   LIG d   1       4.667  -2.727  -4.133  0.00  0.00     0.268 A 
ATOM      5  O   LIG d   1       4.659  -3.765  -4.768  0.00  0.00    -0.267 OA
ATOM      6  N   LIG d   1       3.508  -2.122  -3.805  0.00  0.00    -0.274 N 
ATOM      7  H   LIG d   1       2.637  -2.531  -4.080  0.00  0.00     0.173 HD
ATOM      8  C   LIG d   1       3.517  -0.971  -3.107  0.00  0.00     0.329 A 
ATOM      9  O   LIG d   1       2.464  -0.434  -2.822  0.00  0.00    -0.246 OA
ATOM     10 BR   LIG d   1       7.537  -2.966  -4.179  0.00  0.00    -0.043 Br
ATOM     11  H   LIG d   1       6.799  -0.530  -2.716  0.00  0.00     0.082 H 
ENDROOT
BRANCH   1  12
ATOM     12  C   LIG d   1       4.654   0.843  -1.954  0.00  0.00     0.016 C 
ATOM     13  H   LIG d   1       3.837   0.815  -1.234  0.00  0.00     0.046 H 
ATOM     14  H   LIG d   1       5.600   0.962  -1.425  0.00  0.00     0.046 H 
ATOM     15  H   LIG d   1       4.511   1.681  -2.635  0.00  0.00     0.046 H 
ENDBRANCH   1  12
TORSDOF 1
ENDMDL
MODEL 3
REMARK VINA RESULT:      -4.1      2.149      2.485
REMARK  1 active torsions:
REMARK  status: ('A' for Active; 'I' for Inactive)
REMARK    1  A    between atoms: C_1  and  N_2 
ROOT
ATOM      1  N   LIG d   1       5.264  -2.020  -3.761  0.00  0.00    -0.302 N 
ATOM      2  C   LIG d   1       6.175  -1.053  -4.093  0.00  0.00     0.028 A 
ATOM      3  C   LIG d   1       6.177   0.121  -3.427  0.00  0.00     0.098 A 
ATOM      4  C   LIG d   1       5.230   0.329  -2.394  0.00  0.00     0.268 A 
ATOM      5  O   LIG d   1       5.212   1.380  -1.780  0.00  0.00    -0.267 OA
ATOM      6  N   LIG d   1       4.350  -0.648  -2.098  0.00  0.00    -0.274 N 
ATOM      7  H   LIG d   1       3.676  -0.507  -1.372  0.00  0.00     0.173 HD
ATOM      8  C   LIG d   1       4.373  -1.811  -2.774  0.00  0.00     0.329 A 
ATOM      9  O   LIG d   1       3.577  -2.685  -2.492  0.00  0.00    -0.246 OA
ATOM     10 BR   LIG d   1       7.425   1.472  -3.869  0.00  0.00    -0.043 Br
ATOM     11  H   LIG d   1       6.889  -1.230  -4.884  0.00  0.00     0.082 H 
ENDROOT
BRANCH   1  12
ATOM     12  C   LIG d   1       5.263  -3.294  -4.483  0.00  0.00     0.016 C 
ATOM     13  H   LIG d   1       6.234  -3.447  -4.952  0.00  0.00     0.046 H 
ATOM     14  H   LIG d   1       5.065  -4.107  -3.784  0.00  0.00     0.046 H 
ATOM     15  H   LIG d   1       4.487  -3.278  -5.248  0.00  0.00     0.046 H 
ENDBRANCH   1  12
TORSDOF 1
ENDMDL
MODEL 4
REMARK VINA RESULT:      -3.9      3.094      3.562
REMARK  1 active torsions:
REMARK  status: ('A' for Active; 'I' for Inactive)
REMARK    1  A    between atoms: C_1  and  N_2 
ROOT
ATOM      1  N   LIG d   1       6.836  -0.137  -4.574  0.00  0.00    -0.302 N 
ATOM      2  C   LIG d   1       5.969  -1.075  -4.082  0.00  0.00     0.028 A 
ATOM      3  C   LIG d   1       5.108  -0.738  -3.097  0.00  0.00     0.098 A 
ATOM      4  C   LIG d   1       5.122   0.586  -2.592  0.00  0.00     0.268 A 
ATOM      5  O   LIG d   1       4.356   0.913  -1.705  0.00  0.00    -0.267 OA
ATOM      6  N   LIG d   1       5.992   1.479  -3.104  0.00  0.00    -0.274 N 
ATOM      7  H   LIG d   1       6.011   2.415  -2.750  0.00  0.00     0.173 HD
ATOM      8  C   LIG d   1       6.836   1.118  -4.089  0.00  0.00     0.329 A 
ATOM      9  O   LIG d   1       7.611   1.937  -4.544  0.00  0.00    -0.246 OA
ATOM     10 BR   LIG d   1       3.901  -2.016  -2.400  0.00  0.00    -0.043 Br
ATOM     11  H   LIG d   1       5.973  -2.079  -4.479  0.00  0.00     0.082 H 
ENDROOT
BRANCH   1  12
ATOM     12  C   LIG d   1       7.769  -0.502  -5.643  0.00  0.00     0.016 C 
ATOM     13  H   LIG d   1       8.077   0.395  -6.178  0.00  0.00     0.046 H 
ATOM     14  H   LIG d   1       8.645  -0.986  -5.210  0.00  0.00     0.046 H 
ATOM     15  H   LIG d   1       7.279  -1.188  -6.334  0.00  0.00     0.046 H 
ENDBRANCH   1  12
TORSDOF 1
ENDMDL
MODEL 5
REMARK VINA RESULT:      -3.9      2.850      3.380
REMARK  1 active torsions:
REMARK  status: ('A' for Active; 'I' for Inactive)
REMARK    1  A    between atoms: C_1  and  N_2 
ROOT
ATOM      1  N   LIG d   1       3.917  -0.804  -6.110  0.00  0.00    -0.302 N 
ATOM      2  C   LIG d   1       4.254  -1.427  -4.938  0.00  0.00     0.028 A 
ATOM      3  C   LIG d   1       3.978  -0.827  -3.760  0.00  0.00     0.098 A 
ATOM      4  C   LIG d   1       3.344   0.439  -3.763  0.00  0.00     0.268 A 
ATOM      5  O   LIG d   1       3.086   0.999  -2.713  0.00  0.00    -0.267 OA
ATOM      6  N   LIG d   1       3.028   1.018  -4.939  0.00  0.00    -0.274 N 
ATOM      7  H   LIG d   1       2.584   1.914  -4.949  0.00  0.00     0.173 HD
ATOM      8  C   LIG d   1       3.310   0.397  -6.099  0.00  0.00     0.329 A 
ATOM      9  O   LIG d   1       3.015   0.929  -7.151  0.00  0.00    -0.246 OA
ATOM     10 BR   LIG d   1       4.435  -1.667  -2.128  0.00  0.00    -0.043 Br
ATOM     11  H   LIG d   1       4.738  -2.392  -4.957  0.00  0.00     0.082 H 
ENDROOT
BRANCH   1  12
ATOM     12  C   LIG d   1       4.215  -1.455  -7.389  0.00  0.00     0.016 C 
ATOM     13  H   LIG d   1       4.332  -0.698  -8.163  0.00  0.00     0.046 H 
ATOM     14  H   LIG d   1       5.139  -2.027  -7.298  0.00  0.00     0.046 H 
ATOM     15  H   LIG d   1       3.398  -2.125  -7.655  0.00  0.00     0.046 H 
ENDBRANCH   1  12
TORSDOF 1
ENDMDL
MODEL 6
REMARK VINA RESULT:      -3.9      1.970      2.209
REMARK  1 active torsions:
REMARK  status: ('A' for Active; 'I' for Inactive)
REMARK    1  A    between atoms: C_1  and  N_2 
ROOT
ATOM      1  N   LIG d   1       4.523  -1.252  -6.020  0.00  0.00    -0.302 N 
ATOM      2  C   LIG d   1       4.321  -0.297  -5.061  0.00  0.00     0.028 A 
ATOM      3  C   LIG d   1       4.014  -0.670  -3.800  0.00  0.00     0.098 A 
ATOM      4  C   LIG d   1       3.905  -2.050  -3.497  0.00  0.00     0.268 A 
ATOM      5  O   LIG d   1       3.629  -2.411  -2.368  0.00  0.00    -0.267 OA
ATOM      6  N   LIG d   1       4.112  -2.959  -4.471  0.00  0.00    -0.274 N 
ATOM      7  H   LIG d   1       4.033  -3.935  -4.265  0.00  0.00     0.173 HD
ATOM      8  C   LIG d   1       4.422  -2.559  -5.718  0.00  0.00     0.329 A 
ATOM      9  O   LIG d   1       4.610  -3.391  -6.584  0.00  0.00    -0.246 OA
ATOM     10 BR   LIG d   1       3.729   0.631  -2.457  0.00  0.00    -0.043 Br
ATOM     11  H   LIG d   1       4.407   0.750  -5.311  0.00  0.00     0.082 H 
ENDROOT
BRANCH   1  12
ATOM     12  C   LIG d   1       4.857  -0.847  -7.388  0.00  0.00     0.016 C 
ATOM     13  H   LIG d   1       4.091  -0.171  -7.764  0.00  0.00     0.046 H 
ATOM     14  H   LIG d   1       5.822  -0.340  -7.390  0.00  0.00     0.046 H 
ATOM     15  H   LIG d   1       4.909  -1.730  -8.025  0.00  0.00     0.046 H 
ENDBRANCH   1  12
TORSDOF 1
ENDMDL
MODEL 7
REMARK VINA RESULT:      -3.8      3.132      3.904
REMARK  1 active torsions:
REMARK  status: ('A' for Active; 'I' for Inactive)
REMARK    1  A    between atoms: C_1  and  N_2 
ROOT
ATOM      1  N   LIG d   1       4.065  -0.826  -3.213  0.00  0.00    -0.302 N 
ATOM      2  C   LIG d   1       4.376  -1.488  -4.370  0.00  0.00     0.028 A 
ATOM      3  C   LIG d   1       4.046  -0.944  -5.561  0.00  0.00     0.098 A 
ATOM      4  C   LIG d   1       3.382   0.307  -5.587  0.00  0.00     0.268 A 
ATOM      5  O   LIG d   1       3.074   0.817  -6.648  0.00  0.00    -0.267 OA
ATOM      6  N   LIG d   1       3.093   0.927  -4.425  0.00  0.00    -0.274 N 
ATOM      7  H   LIG d   1       2.620   1.808  -4.435  0.00  0.00     0.173 HD
ATOM      8  C   LIG d   1       3.437   0.364  -3.252  0.00  0.00     0.329 A 
ATOM      9  O   LIG d   1       3.176   0.937  -2.212  0.00  0.00    -0.246 OA
ATOM     10 BR   LIG d   1       4.465  -1.840  -7.173  0.00  0.00    -0.043 Br
ATOM     11  H   LIG d   1       4.883  -2.441  -4.330  0.00  0.00     0.082 H 
ENDROOT
BRANCH   1  12
ATOM     12  C   LIG d   1       4.423  -1.416  -1.921  0.00  0.00     0.016 C 
ATOM     13  H   LIG d   1       4.035  -2.431  -1.865  0.00  0.00     0.046 H 
ATOM     14  H   LIG d   1       5.509  -1.436  -1.820  0.00  0.00     0.046 H 
ATOM     15  H   LIG d   1       3.995  -0.817  -1.117  0.00  0.00     0.046 H 
ENDBRANCH   1  12
TORSDOF 1
ENDMDL
MODEL 8
REMARK VINA RESULT:      -3.8      9.261     10.231
REMARK  1 active torsions:
REMARK  status: ('A' for Active; 'I' for Inactive)
REMARK    1  A    between atoms: C_1  and  N_2 
ROOT
ATOM      1  N   LIG d   1       9.800   7.055  -1.359  0.00  0.00    -0.302 N 
ATOM      2  C   LIG d   1       9.550   6.677  -2.650  0.00  0.00     0.028 A 
ATOM      3  C   LIG d   1       9.917   5.446  -3.070  0.00  0.00     0.098 A 
ATOM      4  C   LIG d   1      10.557   4.570  -2.159  0.00  0.00     0.268 A 
ATOM      5  O   LIG d   1      10.897   3.457  -2.514  0.00  0.00    -0.267 OA
ATOM      6  N   LIG d   1      10.784   4.981  -0.895  0.00  0.00    -0.274 N 
ATOM      7  H   LIG d   1      11.239   4.369  -0.248  0.00  0.00     0.173 HD
ATOM      8  C   LIG d   1      10.404   6.210  -0.502  0.00  0.00     0.329 A 
ATOM      9  O   LIG d   1      10.611   6.565   0.642  0.00  0.00    -0.246 OA
ATOM     10 BR   LIG d   1       9.583   4.902  -4.850  0.00  0.00    -0.043 Br
ATOM     11  H   LIG d   1       9.062   7.359  -3.330  0.00  0.00     0.082 H 
ENDROOT
BRANCH   1  12
ATOM     12  C   LIG d   1       9.401   8.388  -0.903  0.00  0.00     0.016 C 
ATOM     13  H   LIG d   1       8.606   8.298  -0.165  0.00  0.00     0.046 H 
ATOM     14  H   LIG d   1      10.259   8.890  -0.453  0.00  0.00     0.046 H 
ATOM     15  H   LIG d   1       9.045   8.971  -1.753  0.00  0.00     0.046 H 
ENDBRANCH   1  12
TORSDOF 1
ENDMDL
MODEL 9
REMARK VINA RESULT:      -3.6     10.404     11.124
REMARK  1 active torsions:
REMARK  status: ('A' for Active; 'I' for Inactive)
REMARK    1  A    between atoms: C_1  and  N_2 
ROOT
ATOM      1  N   LIG d   1      10.492   7.042  -1.810  0.00  0.00    -0.302 N 
ATOM      2  C   LIG d   1      10.883   8.023  -0.940  0.00  0.00     0.028 A 
ATOM      3  C   LIG d   1      11.166   7.706   0.342  0.00  0.00     0.098 A 
ATOM      4  C   LIG d   1      11.050   6.358   0.761  0.00  0.00     0.268 A 
ATOM      5  O   LIG d   1      11.299   6.048   1.911  0.00  0.00    -0.267 OA
ATOM      6  N   LIG d   1      10.662   5.421  -0.128  0.00  0.00    -0.274 N 
ATOM      7  H   LIG d   1      10.574   4.468   0.161  0.00  0.00     0.173 HD
ATOM      8  C   LIG d   1      10.391   5.764  -1.401  0.00  0.00     0.329 A 
ATOM      9  O   LIG d   1      10.047   4.907  -2.192  0.00  0.00    -0.246 OA
ATOM     10 BR   LIG d   1      11.707   9.046   1.564  0.00  0.00    -0.043 Br
ATOM     11  H   LIG d   1      10.965   9.046  -1.277  0.00  0.00     0.082 H 
ENDROOT
BRANCH   1  12
ATOM     12  C   LIG d   1      10.187   7.385  -3.201  0.00  0.00     0.016 C 
ATOM     13  H   LIG d   1      11.107   7.392  -3.784  0.00  0.00     0.046 H 
ATOM     14  H   LIG d   1       9.500   6.646  -3.615  0.00  0.00     0.046 H 
ATOM     15  H   LIG d   1       9.724   8.371  -3.238  0.00  0.00     0.046 H 
ENDBRANCH   1  12
TORSDOF 1
ENDMDL
MODEL 10
REMARK VINA RESULT:      -3.6     10.560     11.433
REMARK  1 active torsions:
REMARK  status: ('A' for Active; 'I' for Inactive)
REMARK    1  A    between atoms: C_1  and  N_2 
ROOT
ATOM      1  N   LIG d   1      11.184   7.663   0.583  0.00  0.00    -0.302 N 
ATOM      2  C   LIG d   1      10.977   8.018  -0.723  0.00  0.00     0.028 A 
ATOM      3  C   LIG d   1      10.652   7.071  -1.630  0.00  0.00     0.098 A 
ATOM      4  C   LIG d   1      10.533   5.724  -1.207  0.00  0.00     0.268 A 
ATOM      5  O   LIG d   1      10.241   4.853  -2.006  0.00  0.00    -0.267 OA
ATOM      6  N   LIG d   1      10.744   5.416   0.088  0.00  0.00    -0.274 N 
ATOM      7  H   LIG d   1      10.666   4.467   0.393  0.00  0.00     0.173 HD
ATOM      8  C   LIG d   1      11.062   6.380   0.972  0.00  0.00     0.329 A 
ATOM      9  O   LIG d   1      11.245   6.088   2.138  0.00  0.00    -0.246 OA
ATOM     10 BR   LIG d   1      10.362   7.536  -3.440  0.00  0.00    -0.043 Br
ATOM     11  H   LIG d   1      11.073   9.050  -1.027  0.00  0.00     0.082 H 
ENDROOT
BRANCH   1  12
ATOM     12  C   LIG d   1      11.535   8.690   1.566  0.00  0.00     0.016 C 
ATOM     13  H   LIG d   1      12.590   8.599   1.825  0.00  0.00     0.046 H 
ATOM     14  H   LIG d   1      11.349   9.677   1.143  0.00  0.00     0.046 H 
ATOM     15  H   LIG d   1      10.928   8.558   2.462  0.00  0.00     0.046 H 
ENDBRANCH   1  12
TORSDOF 1
ENDMDL
