MODEL 1
REMARK VINA RESULT:      -7.1      0.000      0.000
REMARK  7 active torsions:
REMARK  status: ('A' for Active; 'I' for Inactive)
REMARK    1  A    between atoms: C_1  and  C_2 
REMARK    2  A    between atoms: C_2  and  C_4 
REMARK    3  A    between atoms: C_2  and  N_14 
REMARK    4  A    between atoms: C_15  and  C_19 
REMARK    5  A    between atoms: C_26  and  O_27 
REMARK    6  A    between atoms: O_27  and  C_28 
REMARK    7  A    between atoms: N_34  and  C_35 
ROOT
ATOM      1  N   LIG d   1       7.267  -1.310  -5.345  0.00  0.00    -0.224 N 
ATOM      2  C   LIG d   1       7.101  -2.054  -6.453  0.00  0.00     0.173 A 
ATOM      3  N   LIG d   1       7.822  -3.136  -6.292  0.00  0.00    -0.111 NA
ATOM      4  N   LIG d   1       8.401  -3.060  -5.144  0.00  0.00    -0.023 NA
ATOM      5  N   LIG d   1       8.073  -1.955  -4.570  0.00  0.00    -0.044 NA
ENDROOT
BRANCH   1   6
ATOM      6  C   LIG d   1       6.653  -0.007  -5.070  0.00  0.00     0.059 C 
ATOM      7  H   LIG d   1       6.246   0.404  -5.993  0.00  0.00     0.055 H 
BRANCH   6   8
ATOM      8  C   LIG d   1       7.711   0.946  -4.510  0.00  0.00    -0.042 C 
ATOM      9  H   LIG d   1       8.665   0.425  -4.432  0.00  0.00     0.025 H 
ATOM     10  H   LIG d   1       7.818   1.803  -5.176  0.00  0.00     0.025 H 
ATOM     11  H   LIG d   1       7.403   1.291  -3.523  0.00  0.00     0.025 H 
ENDBRANCH   6   8
BRANCH   6  12
ATOM     12  C   LIG d   1       5.529  -0.178  -4.047  0.00  0.00    -0.006 C 
ATOM     13  C   LIG d   1       5.441  -1.646  -3.626  0.00  0.00    -0.043 C 
ATOM     14  C   LIG d   1       4.316  -1.816  -2.602  0.00  0.00    -0.040 C 
ATOM     15  H   LIG d   1       5.232  -2.262  -4.501  0.00  0.00     0.027 H 
ATOM     16  H   LIG d   1       6.386  -1.955  -3.181  0.00  0.00     0.027 H 
ATOM     17  C   LIG d   1       2.988  -1.383  -3.226  0.00  0.00    -0.047 C 
ATOM     18  C   LIG d   1       4.609  -0.951  -1.375  0.00  0.00    -0.047 C 
ATOM     19  H   LIG d   1       4.253  -2.862  -2.303  0.00  0.00     0.030 H 
ATOM     20  C   LIG d   1       3.077   0.086  -3.647  0.00  0.00    -0.040 C 
ATOM     21  H   LIG d   1       2.187  -1.504  -2.497  0.00  0.00     0.027 H 
ATOM     22  H   LIG d   1       2.779  -2.000  -4.101  0.00  0.00     0.027 H 
ATOM     23  C   LIG d   1       4.201   0.256  -4.670  0.00  0.00    -0.043 C 
ATOM     24  C   LIG d   1       3.370   0.951  -2.419  0.00  0.00    -0.047 C 
ATOM     25  H   LIG d   1       2.131   0.394  -4.091  0.00  0.00     0.030 H 
ATOM     26  H   LIG d   1       4.265   1.302  -4.971  0.00  0.00     0.027 H 
ATOM     27  H   LIG d   1       3.992  -0.361  -5.545  0.00  0.00     0.027 H 
ATOM     28  C   LIG d   1       4.698   0.518  -1.795  0.00  0.00    -0.040 C 
ATOM     29  H   LIG d   1       3.433   1.997  -2.719  0.00  0.00     0.027 H 
ATOM     30  H   LIG d   1       2.569   0.829  -1.690  0.00  0.00     0.027 H 
ATOM     31  C   LIG d   1       5.822   0.688  -2.819  0.00  0.00    -0.043 C 
ATOM     32  H   LIG d   1       4.906   1.134  -0.921  0.00  0.00     0.030 H 
ATOM     33  H   LIG d   1       6.768   0.379  -2.374  0.00  0.00     0.027 H 
ATOM     34  H   LIG d   1       5.885   1.734  -3.118  0.00  0.00     0.027 H 
ATOM     35  H   LIG d   1       3.808  -1.073  -0.646  0.00  0.00     0.027 H 
ATOM     36  H   LIG d   1       5.555  -1.259  -0.930  0.00  0.00     0.027 H 
ENDBRANCH   6  12
ENDBRANCH   1   6
BRANCH   2  37
ATOM     37  C   LIG d   1       6.248  -1.710  -7.648  0.00  0.00     0.101 C 
ATOM     38  H   LIG d   1       6.449  -2.422  -8.449  0.00  0.00     0.060 H 
ATOM     39  N   LIG d   1       4.834  -1.789  -7.272  0.00  0.00    -0.292 N 
ATOM     40  C   LIG d   1       3.986  -1.293  -8.369  0.00  0.00     0.004 C 
ATOM     41  C   LIG d   1       4.154   0.224  -8.462  0.00  0.00    -0.014 C 
ATOM     42  H   LIG d   1       2.944  -1.535  -8.164  0.00  0.00     0.043 H 
ATOM     43  H   LIG d   1       4.295  -1.754  -9.307  0.00  0.00     0.043 H 
ATOM     44  C   LIG d   1       5.619   0.577  -8.504  0.00  0.00    -0.034 A 
ATOM     45  H   LIG d   1       3.693   0.693  -7.592  0.00  0.00     0.033 H 
ATOM     46  H   LIG d   1       3.668   0.587  -9.367  0.00  0.00     0.033 H 
ATOM     47  C   LIG d   1       6.592  -0.322  -8.119  0.00  0.00     0.026 A 
ATOM     48  C   LIG d   1       5.979   1.844  -8.937  0.00  0.00    -0.012 A 
ATOM     49  C   LIG d   1       7.932   0.050  -8.164  0.00  0.00     0.171 A 
ATOM     50  C   LIG d   1       8.295   1.316  -8.597  0.00  0.00     0.208 A 
ATOM     51  C   LIG d   1       7.311   2.220  -8.986  0.00  0.00     0.170 A 
ATOM     52  O   LIG d   1       9.515   1.916  -8.732  0.00  0.00    -0.449 OA
ATOM     53  O   LIG d   1       7.912   3.385  -9.366  0.00  0.00    -0.453 OA
ATOM     54  C   LIG d   1       9.294   3.048  -9.593  0.00  0.00     0.233 C 
ATOM     55  H   LIG d   1       9.942   3.877  -9.309  0.00  0.00     0.117 H 
ATOM     56  H   LIG d   1       9.455   2.774 -10.635  0.00  0.00     0.117 H 
ATOM     57  H   LIG d   1       5.214   2.544  -9.239  0.00  0.00     0.066 H 
BRANCH  39  58
ATOM     58  C   LIG d   1       4.463  -3.162  -6.902  0.00  0.00    -0.012 C 
ATOM     59  H   LIG d   1       5.106  -3.866  -7.428  0.00  0.00     0.039 H 
ATOM     60  H   LIG d   1       4.584  -3.293  -5.827  0.00  0.00     0.039 H 
ATOM     61  H   LIG d   1       3.424  -3.344  -7.176  0.00  0.00     0.039 H 
ENDBRANCH  39  58
BRANCH  49  62
ATOM     62  O   LIG d   1       8.891  -0.836  -7.784  0.00  0.00    -0.491 OA
BRANCH  62  63
ATOM     63  C   LIG d   1       9.734  -1.362  -8.811  0.00  0.00     0.079 C 
ATOM     64  H   LIG d   1      10.416  -2.095  -8.381  0.00  0.00     0.066 H 
ATOM     65  H   LIG d   1       9.121  -1.839  -9.576  0.00  0.00     0.066 H 
ATOM     66  H   LIG d   1      10.308  -0.551  -9.260  0.00  0.00     0.066 H 
ENDBRANCH  62  63
ENDBRANCH  49  62
ENDBRANCH   2  37
TORSDOF 7
ENDMDL
MODEL 2
REMARK VINA RESULT:      -6.8      1.750      2.868
REMARK  7 active torsions:
REMARK  status: ('A' for Active; 'I' for Inactive)
REMARK    1  A    between atoms: C_1  and  C_2 
REMARK    2  A    between atoms: C_2  and  C_4 
REMARK    3  A    between atoms: C_2  and  N_14 
REMARK    4  A    between atoms: C_15  and  C_19 
REMARK    5  A    between atoms: C_26  and  O_27 
REMARK    6  A    between atoms: O_27  and  C_28 
REMARK    7  A    between atoms: N_34  and  C_35 
ROOT
ATOM      1  N   LIG d   1       5.021  -1.994  -6.631  0.00  0.00    -0.224 N 
ATOM      2  C   LIG d   1       4.612  -2.010  -7.913  0.00  0.00     0.173 A 
ATOM      3  N   LIG d   1       4.150  -3.214  -8.147  0.00  0.00    -0.111 NA
ATOM      4  N   LIG d   1       4.270  -3.902  -7.064  0.00  0.00    -0.023 NA
ATOM      5  N   LIG d   1       4.800  -3.170  -6.147  0.00  0.00    -0.044 NA
ENDROOT
BRANCH   1   6
ATOM      6  C   LIG d   1       5.612  -0.857  -5.919  0.00  0.00     0.059 C 
ATOM      7  H   LIG d   1       5.541   0.036  -6.539  0.00  0.00     0.055 H 
BRANCH   6   8
ATOM      8  C   LIG d   1       7.082  -1.153  -5.618  0.00  0.00    -0.042 C 
ATOM      9  H   LIG d   1       7.659  -1.106  -6.541  0.00  0.00     0.025 H 
ATOM     10  H   LIG d   1       7.464  -0.415  -4.911  0.00  0.00     0.025 H 
ATOM     11  H   LIG d   1       7.171  -2.150  -5.184  0.00  0.00     0.025 H 
ENDBRANCH   6   8
BRANCH   6  12
ATOM     12  C   LIG d   1       4.859  -0.630  -4.607  0.00  0.00    -0.006 C 
ATOM     13  C   LIG d   1       3.533   0.077  -4.896  0.00  0.00    -0.043 C 
ATOM     14  C   LIG d   1       2.780   0.304  -3.582  0.00  0.00    -0.040 C 
ATOM     15  H   LIG d   1       3.730   1.037  -5.372  0.00  0.00     0.027 H 
ATOM     16  H   LIG d   1       2.928  -0.541  -5.558  0.00  0.00     0.027 H 
ATOM     17  C   LIG d   1       3.629   1.172  -2.651  0.00  0.00    -0.047 C 
ATOM     18  C   LIG d   1       2.505  -1.044  -2.913  0.00  0.00    -0.047 C 
ATOM     19  H   LIG d   1       1.836   0.807  -3.788  0.00  0.00     0.030 H 
ATOM     20  C   LIG d   1       4.955   0.466  -2.363  0.00  0.00    -0.040 C 
ATOM     21  H   LIG d   1       3.093   1.334  -1.716  0.00  0.00     0.027 H 
ATOM     22  H   LIG d   1       3.825   2.133  -3.129  0.00  0.00     0.027 H 
ATOM     23  C   LIG d   1       5.708   0.238  -3.675  0.00  0.00    -0.043 C 
ATOM     24  C   LIG d   1       4.680  -0.883  -1.694  0.00  0.00    -0.047 C 
ATOM     25  H   LIG d   1       5.560   1.083  -1.700  0.00  0.00     0.030 H 
ATOM     26  H   LIG d   1       6.653  -0.265  -3.471  0.00  0.00     0.027 H 
ATOM     27  H   LIG d   1       5.904   1.199  -4.153  0.00  0.00     0.027 H 
ATOM     28  C   LIG d   1       3.831  -1.751  -2.625  0.00  0.00    -0.040 C 
ATOM     29  H   LIG d   1       5.625  -1.386  -1.488  0.00  0.00     0.027 H 
ATOM     30  H   LIG d   1       4.143  -0.721  -0.758  0.00  0.00     0.027 H 
ATOM     31  C   LIG d   1       4.583  -1.978  -3.937  0.00  0.00    -0.043 C 
ATOM     32  H   LIG d   1       3.635  -2.711  -2.147  0.00  0.00     0.030 H 
ATOM     33  H   LIG d   1       3.979  -2.596  -4.601  0.00  0.00     0.027 H 
ATOM     34  H   LIG d   1       5.529  -2.481  -3.731  0.00  0.00     0.027 H 
ATOM     35  H   LIG d   1       1.968  -0.882  -1.978  0.00  0.00     0.027 H 
ATOM     36  H   LIG d   1       1.900  -1.662  -3.576  0.00  0.00     0.027 H 
ENDBRANCH   6  12
ENDBRANCH   1   6
BRANCH   2  37
ATOM     37  C   LIG d   1       4.673  -0.863  -8.890  0.00  0.00     0.101 C 
ATOM     38  H   LIG d   1       4.280  -1.191  -9.853  0.00  0.00     0.060 H 
ATOM     39  N   LIG d   1       3.857   0.246  -8.387  0.00  0.00    -0.292 N 
ATOM     40  C   LIG d   1       4.036   1.436  -9.234  0.00  0.00     0.004 C 
ATOM     41  C   LIG d   1       5.436   1.999  -8.988  0.00  0.00    -0.014 C 
ATOM     42  H   LIG d   1       3.289   2.185  -8.975  0.00  0.00     0.043 H 
ATOM     43  H   LIG d   1       3.933   1.157 -10.283  0.00  0.00     0.043 H 
ATOM     44  C   LIG d   1       6.462   0.901  -9.111  0.00  0.00    -0.034 A 
ATOM     45  H   LIG d   1       5.483   2.428  -7.987  0.00  0.00     0.033 H 
ATOM     46  H   LIG d   1       5.648   2.776  -9.723  0.00  0.00     0.033 H 
ATOM     47  C   LIG d   1       6.105  -0.431  -9.060  0.00  0.00     0.026 A 
ATOM     48  C   LIG d   1       7.792   1.256  -9.273  0.00  0.00    -0.012 A 
ATOM     49  C   LIG d   1       7.085  -1.412  -9.168  0.00  0.00     0.171 A 
ATOM     50  C   LIG d   1       8.417  -1.060  -9.330  0.00  0.00     0.208 A 
ATOM     51  C   LIG d   1       8.772   0.284  -9.384  0.00  0.00     0.170 A 
ATOM     52  O   LIG d   1       9.548  -1.815  -9.458  0.00  0.00    -0.449 OA
ATOM     53  O   LIG d   1      10.124   0.373  -9.546  0.00  0.00    -0.453 OA
ATOM     54  C   LIG d   1      10.543  -0.927 -10.000  0.00  0.00     0.233 C 
ATOM     55  H   LIG d   1      11.530  -1.172  -9.605  0.00  0.00     0.117 H 
ATOM     56  H   LIG d   1      10.544  -0.971 -11.088  0.00  0.00     0.117 H 
ATOM     57  H   LIG d   1       8.066   2.300  -9.316  0.00  0.00     0.066 H 
BRANCH  39  58
ATOM     58  C   LIG d   1       2.441  -0.135  -8.308  0.00  0.00    -0.012 C 
ATOM     59  H   LIG d   1       2.196  -0.796  -9.139  0.00  0.00     0.039 H 
ATOM     60  H   LIG d   1       2.255  -0.651  -7.366  0.00  0.00     0.039 H 
ATOM     61  H   LIG d   1       1.820   0.760  -8.361  0.00  0.00     0.039 H 
ENDBRANCH  39  58
BRANCH  49  62
ATOM     62  O   LIG d   1       6.734  -2.725  -9.115  0.00  0.00    -0.491 OA
BRANCH  62  63
ATOM     63  C   LIG d   1       6.898  -3.489 -10.312  0.00  0.00     0.079 C 
ATOM     64  H   LIG d   1       6.002  -3.402 -10.925  0.00  0.00     0.066 H 
ATOM     65  H   LIG d   1       7.758  -3.115 -10.867  0.00  0.00     0.066 H 
ATOM     66  H   LIG d   1       7.061  -4.536 -10.055  0.00  0.00     0.066 H 
ENDBRANCH  62  63
ENDBRANCH  49  62
ENDBRANCH   2  37
TORSDOF 7
ENDMDL
MODEL 3
REMARK VINA RESULT:      -6.8      2.056      2.280
REMARK  7 active torsions:
REMARK  status: ('A' for Active; 'I' for Inactive)
REMARK    1  A    between atoms: C_1  and  C_2 
REMARK    2  A    between atoms: C_2  and  C_4 
REMARK    3  A    between atoms: C_2  and  N_14 
REMARK    4  A    between atoms: C_15  and  C_19 
REMARK    5  A    between atoms: C_26  and  O_27 
REMARK    6  A    between atoms: O_27  and  C_28 
REMARK    7  A    between atoms: N_34  and  C_35 
ROOT
ATOM      1  N   LIG d   1       6.909  -2.305  -5.135  0.00  0.00    -0.224 N 
ATOM      2  C   LIG d   1       6.965  -3.518  -5.713  0.00  0.00     0.173 A 
ATOM      3  N   LIG d   1       7.856  -4.212  -5.047  0.00  0.00    -0.111 NA
ATOM      4  N   LIG d   1       8.322  -3.463  -4.109  0.00  0.00    -0.023 NA
ATOM      5  N   LIG d   1       7.756  -2.308  -4.162  0.00  0.00    -0.044 NA
ENDROOT
BRANCH   1   6
ATOM      6  C   LIG d   1       6.051  -1.187  -5.538  0.00  0.00     0.059 C 
ATOM      7  H   LIG d   1       5.449  -1.483  -6.397  0.00  0.00     0.055 H 
BRANCH   6   8
ATOM      8  C   LIG d   1       6.921   0.013  -5.915  0.00  0.00    -0.042 C 
ATOM      9  H   LIG d   1       7.761   0.084  -5.224  0.00  0.00     0.025 H 
ATOM     10  H   LIG d   1       7.296  -0.114  -6.932  0.00  0.00     0.025 H 
ATOM     11  H   LIG d   1       6.326   0.925  -5.860  0.00  0.00     0.025 H 
ENDBRANCH   6   8
BRANCH   6  12
ATOM     12  C   LIG d   1       5.131  -0.805  -4.377  0.00  0.00    -0.006 C 
ATOM     13  C   LIG d   1       4.739  -2.063  -3.602  0.00  0.00    -0.043 C 
ATOM     14  C   LIG d   1       3.819  -1.679  -2.439  0.00  0.00    -0.040 C 
ATOM     15  H   LIG d   1       4.217  -2.752  -4.266  0.00  0.00     0.027 H 
ATOM     16  H   LIG d   1       5.635  -2.544  -3.211  0.00  0.00     0.027 H 
ATOM     17  C   LIG d   1       2.560  -1.005  -2.987  0.00  0.00    -0.047 C 
ATOM     18  C   LIG d   1       4.552  -0.713  -1.508  0.00  0.00    -0.047 C 
ATOM     19  H   LIG d   1       3.540  -2.577  -1.887  0.00  0.00     0.030 H 
ATOM     20  C   LIG d   1       2.952   0.254  -3.764  0.00  0.00    -0.040 C 
ATOM     21  H   LIG d   1       1.905  -0.732  -2.160  0.00  0.00     0.027 H 
ATOM     22  H   LIG d   1       2.038  -1.694  -3.652  0.00  0.00     0.027 H 
ATOM     23  C   LIG d   1       3.872  -0.129  -4.925  0.00  0.00    -0.043 C 
ATOM     24  C   LIG d   1       3.685   1.220  -2.831  0.00  0.00    -0.047 C 
ATOM     25  H   LIG d   1       2.056   0.735  -4.154  0.00  0.00     0.030 H 
ATOM     26  H   LIG d   1       4.152   0.767  -5.478  0.00  0.00     0.027 H 
ATOM     27  H   LIG d   1       3.350  -0.818  -5.589  0.00  0.00     0.027 H 
ATOM     28  C   LIG d   1       4.944   0.546  -2.283  0.00  0.00    -0.040 C 
ATOM     29  H   LIG d   1       3.965   2.118  -3.384  0.00  0.00     0.027 H 
ATOM     30  H   LIG d   1       3.030   1.493  -2.003  0.00  0.00     0.027 H 
ATOM     31  C   LIG d   1       5.863   0.163  -3.445  0.00  0.00    -0.043 C 
ATOM     32  H   LIG d   1       5.465   1.235  -1.619  0.00  0.00     0.030 H 
ATOM     33  H   LIG d   1       6.761  -0.318  -3.054  0.00  0.00     0.027 H 
ATOM     34  H   LIG d   1       6.143   1.060  -3.998  0.00  0.00     0.027 H 
ATOM     35  H   LIG d   1       3.896  -0.441  -0.680  0.00  0.00     0.027 H 
ATOM     36  H   LIG d   1       5.448  -1.194  -1.117  0.00  0.00     0.027 H 
ENDBRANCH   6  12
ENDBRANCH   1   6
BRANCH   2  37
ATOM     37  C   LIG d   1       6.159  -3.989  -6.897  0.00  0.00     0.101 C 
ATOM     38  H   LIG d   1       6.511  -4.975  -7.201  0.00  0.00     0.060 H 
ATOM     39  N   LIG d   1       4.746  -4.074  -6.518  0.00  0.00    -0.292 N 
ATOM     40  C   LIG d   1       3.918  -4.365  -7.699  0.00  0.00     0.004 C 
ATOM     41  C   LIG d   1       3.883  -3.119  -8.585  0.00  0.00    -0.014 C 
ATOM     42  H   LIG d   1       2.906  -4.619  -7.384  0.00  0.00     0.043 H 
ATOM     43  H   LIG d   1       4.351  -5.197  -8.254  0.00  0.00     0.043 H 
ATOM     44  C   LIG d   1       5.285  -2.622  -8.828  0.00  0.00    -0.034 A 
ATOM     45  H   LIG d   1       3.303  -2.340  -8.090  0.00  0.00     0.033 H 
ATOM     46  H   LIG d   1       3.416  -3.366  -9.538  0.00  0.00     0.033 H 
ATOM     47  C   LIG d   1       6.342  -3.023  -8.038  0.00  0.00     0.026 A 
ATOM     48  C   LIG d   1       5.498  -1.734  -9.871  0.00  0.00    -0.012 A 
ATOM     49  C   LIG d   1       7.619  -2.532  -8.291  0.00  0.00     0.171 A 
ATOM     50  C   LIG d   1       7.835  -1.644  -9.335  0.00  0.00     0.208 A 
ATOM     51  C   LIG d   1       6.767  -1.243 -10.130  0.00  0.00     0.170 A 
ATOM     52  O   LIG d   1       8.968  -1.026  -9.783  0.00  0.00    -0.449 OA
ATOM     53  O   LIG d   1       7.228  -0.376 -11.078  0.00  0.00    -0.453 OA
ATOM     54  C   LIG d   1       8.655  -0.566 -11.111  0.00  0.00     0.233 C 
ATOM     55  H   LIG d   1       9.163   0.376 -11.319  0.00  0.00     0.117 H 
ATOM     56  H   LIG d   1       8.924  -1.319 -11.851  0.00  0.00     0.117 H 
ATOM     57  H   LIG d   1       4.667  -1.425 -10.489  0.00  0.00     0.066 H 
BRANCH  39  58
ATOM     58  C   LIG d   1       4.542  -5.084  -5.471  0.00  0.00    -0.012 C 
ATOM     59  H   LIG d   1       3.543  -4.973  -5.050  0.00  0.00     0.039 H 
ATOM     60  H   LIG d   1       4.646  -6.079  -5.901  0.00  0.00     0.039 H 
ATOM     61  H   LIG d   1       5.284  -4.948  -4.684  0.00  0.00     0.039 H 
ENDBRANCH  39  58
BRANCH  49  62
ATOM     62  O   LIG d   1       8.661  -2.926  -7.511  0.00  0.00    -0.491 OA
BRANCH  62  63
ATOM     63  C   LIG d   1       9.650  -3.758  -8.122  0.00  0.00     0.079 C 
ATOM     64  H   LIG d   1       9.827  -4.632  -7.494  0.00  0.00     0.066 H 
ATOM     65  H   LIG d   1       9.300  -4.080  -9.103  0.00  0.00     0.066 H 
ATOM     66  H   LIG d   1      10.578  -3.198  -8.234  0.00  0.00     0.066 H 
ENDBRANCH  62  63
ENDBRANCH  49  62
ENDBRANCH   2  37
TORSDOF 7
ENDMDL
MODEL 4
REMARK VINA RESULT:      -6.7      2.999      4.768
REMARK  7 active torsions:
REMARK  status: ('A' for Active; 'I' for Inactive)
REMARK    1  A    between atoms: C_1  and  C_2 
REMARK    2  A    between atoms: C_2  and  C_4 
REMARK    3  A    between atoms: C_2  and  N_14 
REMARK    4  A    between atoms: C_15  and  C_19 
REMARK    5  A    between atoms: C_26  and  O_27 
REMARK    6  A    between atoms: O_27  and  C_28 
REMARK    7  A    between atoms: N_34  and  C_35 
ROOT
ATOM      1  N   LIG d   1       5.230  -0.213  -7.342  0.00  0.00    -0.224 N 
ATOM      2  C   LIG d   1       6.023  -0.890  -8.192  0.00  0.00     0.173 A 
ATOM      3  N   LIG d   1       6.955  -0.056  -8.583  0.00  0.00    -0.111 NA
ATOM      4  N   LIG d   1       6.745   1.075  -8.003  0.00  0.00    -0.023 NA
ATOM      5  N   LIG d   1       5.700   0.986  -7.256  0.00  0.00    -0.044 NA
ENDROOT
BRANCH   1   6
ATOM      6  C   LIG d   1       4.049  -0.735  -6.648  0.00  0.00     0.059 C 
ATOM      7  H   LIG d   1       3.813  -1.728  -7.032  0.00  0.00     0.055 H 
BRANCH   6   8
ATOM      8  C   LIG d   1       2.863   0.200  -6.887  0.00  0.00    -0.042 C 
ATOM      9  H   LIG d   1       2.192  -0.244  -7.623  0.00  0.00     0.025 H 
ATOM     10  H   LIG d   1       2.325   0.352  -5.950  0.00  0.00     0.025 H 
ATOM     11  H   LIG d   1       3.225   1.160  -7.256  0.00  0.00     0.025 H 
ENDBRANCH   6   8
BRANCH   6  12
ATOM     12  C   LIG d   1       4.335  -0.823  -5.148  0.00  0.00    -0.006 C 
ATOM     13  C   LIG d   1       3.267  -0.044  -4.379  0.00  0.00    -0.043 C 
ATOM     14  C   LIG d   1       3.554  -0.132  -2.878  0.00  0.00    -0.040 C 
ATOM     15  H   LIG d   1       3.283   1.001  -4.691  0.00  0.00     0.027 H 
ATOM     16  H   LIG d   1       2.286  -0.470  -4.587  0.00  0.00     0.027 H 
ATOM     17  C   LIG d   1       4.931   0.467  -2.586  0.00  0.00    -0.047 C 
ATOM     18  C   LIG d   1       3.531  -1.597  -2.440  0.00  0.00    -0.047 C 
ATOM     19  H   LIG d   1       2.792   0.423  -2.330  0.00  0.00     0.030 H 
ATOM     20  C   LIG d   1       6.000  -0.312  -3.356  0.00  0.00    -0.040 C 
ATOM     21  H   LIG d   1       5.135   0.404  -1.517  0.00  0.00     0.027 H 
ATOM     22  H   LIG d   1       4.946   1.511  -2.898  0.00  0.00     0.027 H 
ATOM     23  C   LIG d   1       5.714  -0.225  -4.856  0.00  0.00    -0.043 C 
ATOM     24  C   LIG d   1       5.977  -1.778  -2.917  0.00  0.00    -0.047 C 
ATOM     25  H   LIG d   1       6.980   0.114  -3.147  0.00  0.00     0.030 H 
ATOM     26  H   LIG d   1       6.474  -0.779  -5.405  0.00  0.00     0.027 H 
ATOM     27  H   LIG d   1       5.729   0.820  -5.168  0.00  0.00     0.027 H 
ATOM     28  C   LIG d   1       4.600  -2.377  -3.209  0.00  0.00    -0.040 C 
ATOM     29  H   LIG d   1       6.739  -2.333  -3.466  0.00  0.00     0.027 H 
ATOM     30  H   LIG d   1       6.181  -1.840  -1.848  0.00  0.00     0.027 H 
ATOM     31  C   LIG d   1       4.314  -2.289  -4.709  0.00  0.00    -0.043 C 
ATOM     32  H   LIG d   1       4.585  -3.421  -2.897  0.00  0.00     0.030 H 
ATOM     33  H   LIG d   1       3.332  -2.716  -4.918  0.00  0.00     0.027 H 
ATOM     34  H   LIG d   1       5.075  -2.844  -5.258  0.00  0.00     0.027 H 
ATOM     35  H   LIG d   1       3.735  -1.660  -1.371  0.00  0.00     0.027 H 
ATOM     36  H   LIG d   1       2.550  -2.024  -2.648  0.00  0.00     0.027 H 
ENDBRANCH   6  12
ENDBRANCH   1   6
BRANCH   2  37
ATOM     37  C   LIG d   1       5.869  -2.330  -8.612  0.00  0.00     0.101 C 
ATOM     38  H   LIG d   1       6.648  -2.579  -9.333  0.00  0.00     0.060 H 
ATOM     39  N   LIG d   1       6.003  -3.194  -7.436  0.00  0.00    -0.292 N 
ATOM     40  C   LIG d   1       5.687  -4.588  -7.789  0.00  0.00     0.004 C 
ATOM     41  C   LIG d   1       4.181  -4.696  -8.031  0.00  0.00    -0.014 C 
ATOM     42  H   LIG d   1       5.976  -5.247  -6.971  0.00  0.00     0.043 H 
ATOM     43  H   LIG d   1       6.225  -4.866  -8.696  0.00  0.00     0.043 H 
ATOM     44  C   LIG d   1       3.736  -3.621  -8.990  0.00  0.00    -0.034 A 
ATOM     45  H   LIG d   1       3.654  -4.580  -7.085  0.00  0.00     0.033 H 
ATOM     46  H   LIG d   1       3.953  -5.675  -8.453  0.00  0.00     0.033 H 
ATOM     47  C   LIG d   1       4.520  -2.518  -9.254  0.00  0.00     0.026 A 
ATOM     48  C   LIG d   1       2.502  -3.758  -9.606  0.00  0.00    -0.012 A 
ATOM     49  C   LIG d   1       4.065  -1.544 -10.138  0.00  0.00     0.171 A 
ATOM     50  C   LIG d   1       2.831  -1.678 -10.757  0.00  0.00     0.208 A 
ATOM     51  C   LIG d   1       2.044  -2.794 -10.488  0.00  0.00     0.170 A 
ATOM     52  O   LIG d   1       2.168  -0.881 -11.646  0.00  0.00    -0.449 OA
ATOM     53  O   LIG d   1       0.889  -2.698 -11.209  0.00  0.00    -0.453 OA
ATOM     54  C   LIG d   1       1.154  -1.718 -12.231  0.00  0.00     0.233 C 
ATOM     55  H   LIG d   1       0.257  -1.138 -12.447  0.00  0.00     0.117 H 
ATOM     56  H   LIG d   1       1.528  -2.199 -13.134  0.00  0.00     0.117 H 
ATOM     57  H   LIG d   1       1.892  -4.626  -9.397  0.00  0.00     0.066 H 
BRANCH  39  58
ATOM     58  C   LIG d   1       7.349  -3.091  -6.857  0.00  0.00    -0.012 C 
ATOM     59  H   LIG d   1       7.852  -2.213  -7.262  0.00  0.00     0.039 H 
ATOM     60  H   LIG d   1       7.273  -2.999  -5.774  0.00  0.00     0.039 H 
ATOM     61  H   LIG d   1       7.922  -3.984  -7.107  0.00  0.00     0.039 H 
ENDBRANCH  39  58
BRANCH  49  62
ATOM     62  O   LIG d   1       4.837  -0.455 -10.398  0.00  0.00    -0.491 OA
BRANCH  62  63
ATOM     63  C   LIG d   1       5.381  -0.344 -11.715  0.00  0.00     0.079 C 
ATOM     64  H   LIG d   1       4.638   0.101 -12.378  0.00  0.00     0.066 H 
ATOM     65  H   LIG d   1       6.270   0.286 -11.690  0.00  0.00     0.066 H 
ATOM     66  H   LIG d   1       5.648  -1.335 -12.083  0.00  0.00     0.066 H 
ENDBRANCH  62  63
ENDBRANCH  49  62
ENDBRANCH   2  37
TORSDOF 7
ENDMDL
MODEL 5
REMARK VINA RESULT:      -6.7      2.641      4.650
REMARK  7 active torsions:
REMARK  status: ('A' for Active; 'I' for Inactive)
REMARK    1  A    between atoms: C_1  and  C_2 
REMARK    2  A    between atoms: C_2  and  C_4 
REMARK    3  A    between atoms: C_2  and  N_14 
REMARK    4  A    between atoms: C_15  and  C_19 
REMARK    5  A    between atoms: C_26  and  O_27 
REMARK    6  A    between atoms: O_27  and  C_28 
REMARK    7  A    between atoms: N_34  and  C_35 
ROOT
ATOM      1  N   LIG d   1       5.722  -0.536  -6.803  0.00  0.00    -0.224 N 
ATOM      2  C   LIG d   1       6.714  -1.377  -7.148  0.00  0.00     0.173 A 
ATOM      3  N   LIG d   1       7.732  -0.634  -7.506  0.00  0.00    -0.111 NA
ATOM      4  N   LIG d   1       7.384   0.601  -7.388  0.00  0.00    -0.023 NA
ATOM      5  N   LIG d   1       6.168   0.665  -6.969  0.00  0.00    -0.044 NA
ENDROOT
BRANCH   1   6
ATOM      6  C   LIG d   1       4.385  -0.910  -6.334  0.00  0.00     0.059 C 
ATOM      7  H   LIG d   1       4.199  -1.958  -6.569  0.00  0.00     0.055 H 
BRANCH   6   8
ATOM      8  C   LIG d   1       3.339  -0.038  -7.030  0.00  0.00    -0.042 C 
ATOM      9  H   LIG d   1       2.384  -0.133  -6.513  0.00  0.00     0.025 H 
ATOM     10  H   LIG d   1       3.661   1.004  -7.009  0.00  0.00     0.025 H 
ATOM     11  H   LIG d   1       3.226  -0.361  -8.065  0.00  0.00     0.025 H 
ENDBRANCH   6   8
BRANCH   6  12
ATOM     12  C   LIG d   1       4.298  -0.701  -4.821  0.00  0.00    -0.006 C 
ATOM     13  C   LIG d   1       3.178   0.293  -4.508  0.00  0.00    -0.043 C 
ATOM     14  C   LIG d   1       3.091   0.501  -2.993  0.00  0.00    -0.040 C 
ATOM     15  H   LIG d   1       3.391   1.245  -4.993  0.00  0.00     0.027 H 
ATOM     16  H   LIG d   1       2.231  -0.099  -4.875  0.00  0.00     0.027 H 
ATOM     17  C   LIG d   1       4.422   1.051  -2.477  0.00  0.00    -0.047 C 
ATOM     18  C   LIG d   1       2.793  -0.835  -2.312  0.00  0.00    -0.047 C 
ATOM     19  H   LIG d   1       2.294   1.209  -2.770  0.00  0.00     0.030 H 
ATOM     20  C   LIG d   1       5.542   0.058  -2.791  0.00  0.00    -0.040 C 
ATOM     21  H   LIG d   1       4.360   1.200  -1.399  0.00  0.00     0.027 H 
ATOM     22  H   LIG d   1       4.634   2.004  -2.963  0.00  0.00     0.027 H 
ATOM     23  C   LIG d   1       5.630  -0.151  -4.304  0.00  0.00    -0.043 C 
ATOM     24  C   LIG d   1       5.243  -1.279  -2.109  0.00  0.00    -0.047 C 
ATOM     25  H   LIG d   1       6.489   0.449  -2.423  0.00  0.00     0.030 H 
ATOM     26  H   LIG d   1       6.427  -0.859  -4.528  0.00  0.00     0.027 H 
ATOM     27  H   LIG d   1       5.842   0.802  -4.790  0.00  0.00     0.027 H 
ATOM     28  C   LIG d   1       3.912  -1.830  -2.626  0.00  0.00    -0.040 C 
ATOM     29  H   LIG d   1       6.041  -1.988  -2.333  0.00  0.00     0.027 H 
ATOM     30  H   LIG d   1       5.181  -1.131  -1.030  0.00  0.00     0.027 H 
ATOM     31  C   LIG d   1       4.000  -2.038  -4.139  0.00  0.00    -0.043 C 
ATOM     32  H   LIG d   1       3.700  -2.782  -2.139  0.00  0.00     0.030 H 
ATOM     33  H   LIG d   1       3.052  -2.430  -4.507  0.00  0.00     0.027 H 
ATOM     34  H   LIG d   1       4.798  -2.747  -4.362  0.00  0.00     0.027 H 
ATOM     35  H   LIG d   1       2.730  -0.687  -1.234  0.00  0.00     0.027 H 
ATOM     36  H   LIG d   1       1.845  -1.228  -2.679  0.00  0.00     0.027 H 
ENDBRANCH   6  12
ENDBRANCH   1   6
BRANCH   2  37
ATOM     37  C   LIG d   1       6.663  -2.884  -7.124  0.00  0.00     0.101 C 
ATOM     38  H   LIG d   1       7.558  -3.281  -7.604  0.00  0.00     0.060 H 
ATOM     39  N   LIG d   1       6.614  -3.345  -5.734  0.00  0.00    -0.292 N 
ATOM     40  C   LIG d   1       6.391  -4.799  -5.687  0.00  0.00     0.004 C 
ATOM     41  C   LIG d   1       4.950  -5.083  -6.114  0.00  0.00    -0.014 C 
ATOM     42  H   LIG d   1       6.550  -5.161  -4.672  0.00  0.00     0.043 H 
ATOM     43  H   LIG d   1       7.080  -5.297  -6.369  0.00  0.00     0.043 H 
ATOM     44  C   LIG d   1       4.652  -4.378  -7.414  0.00  0.00    -0.034 A 
ATOM     45  H   LIG d   1       4.268  -4.726  -5.344  0.00  0.00     0.033 H 
ATOM     46  H   LIG d   1       4.817  -6.156  -6.246  0.00  0.00     0.033 H 
ATOM     47  C   LIG d   1       5.446  -3.351  -7.879  0.00  0.00     0.026 A 
ATOM     48  C   LIG d   1       3.543  -4.781  -8.142  0.00  0.00    -0.012 A 
ATOM     49  C   LIG d   1       5.129  -2.721  -9.078  0.00  0.00     0.171 A 
ATOM     50  C   LIG d   1       4.020  -3.122  -9.810  0.00  0.00     0.208 A 
ATOM     51  C   LIG d   1       3.222  -4.160  -9.337  0.00  0.00     0.170 A 
ATOM     52  O   LIG d   1       3.501  -2.677 -10.992  0.00  0.00    -0.449 OA
ATOM     53  O   LIG d   1       2.204  -4.366 -10.223  0.00  0.00    -0.453 OA
ATOM     54  C   LIG d   1       2.618  -3.721 -11.442  0.00  0.00     0.233 C 
ATOM     55  H   LIG d   1       1.759  -3.297 -11.962  0.00  0.00     0.117 H 
ATOM     56  H   LIG d   1       3.149  -4.421 -12.085  0.00  0.00     0.117 H 
ATOM     57  H   LIG d   1       2.925  -5.587  -7.775  0.00  0.00     0.066 H 
BRANCH  39  58
ATOM     58  C   LIG d   1       7.840  -2.977  -5.013  0.00  0.00    -0.012 C 
ATOM     59  H   LIG d   1       8.026  -1.911  -5.135  0.00  0.00     0.039 H 
ATOM     60  H   LIG d   1       7.722  -3.208  -3.955  0.00  0.00     0.039 H 
ATOM     61  H   LIG d   1       8.681  -3.541  -5.417  0.00  0.00     0.039 H 
ENDBRANCH  39  58
BRANCH  49  62
ATOM     62  O   LIG d   1       5.911  -1.708  -9.537  0.00  0.00    -0.491 OA
BRANCH  62  63
ATOM     63  C   LIG d   1       6.688  -1.966 -10.708  0.00  0.00     0.079 C 
ATOM     64  H   LIG d   1       7.082  -2.982 -10.666  0.00  0.00     0.066 H 
ATOM     65  H   LIG d   1       6.061  -1.855 -11.592  0.00  0.00     0.066 H 
ATOM     66  H   LIG d   1       7.515  -1.258 -10.759  0.00  0.00     0.066 H 
ENDBRANCH  62  63
ENDBRANCH  49  62
ENDBRANCH   2  37
TORSDOF 7
ENDMDL
MODEL 6
REMARK VINA RESULT:      -6.7      2.662      4.040
REMARK  7 active torsions:
REMARK  status: ('A' for Active; 'I' for Inactive)
REMARK    1  A    between atoms: C_1  and  C_2 
REMARK    2  A    between atoms: C_2  and  C_4 
REMARK    3  A    between atoms: C_2  and  N_14 
REMARK    4  A    between atoms: C_15  and  C_19 
REMARK    5  A    between atoms: C_26  and  O_27 
REMARK    6  A    between atoms: O_27  and  C_28 
REMARK    7  A    between atoms: N_34  and  C_35 
ROOT
ATOM      1  N   LIG d   1       4.869  -3.563  -5.998  0.00  0.00    -0.224 N 
ATOM      2  C   LIG d   1       4.586  -3.778  -7.295  0.00  0.00     0.173 A 
ATOM      3  N   LIG d   1       3.741  -4.779  -7.337  0.00  0.00    -0.111 NA
ATOM      4  N   LIG d   1       3.517  -5.159  -6.127  0.00  0.00    -0.023 NA
ATOM      5  N   LIG d   1       4.201  -4.431  -5.314  0.00  0.00    -0.044 NA
ENDROOT
BRANCH   1   6
ATOM      6  C   LIG d   1       5.772  -2.542  -5.460  0.00  0.00     0.059 C 
ATOM      7  H   LIG d   1       6.109  -1.893  -6.269  0.00  0.00     0.055 H 
BRANCH   6   8
ATOM      8  C   LIG d   1       6.981  -3.219  -4.812  0.00  0.00    -0.042 C 
ATOM      9  H   LIG d   1       7.894  -2.725  -5.142  0.00  0.00     0.025 H 
ATOM     10  H   LIG d   1       6.900  -3.148  -3.727  0.00  0.00     0.025 H 
ATOM     11  H   LIG d   1       7.009  -4.269  -5.105  0.00  0.00     0.025 H 
ENDBRANCH   6   8
BRANCH   6  12
ATOM     12  C   LIG d   1       5.033  -1.708  -4.411  0.00  0.00    -0.006 C 
ATOM     13  C   LIG d   1       4.307  -2.640  -3.439  0.00  0.00    -0.043 C 
ATOM     14  C   LIG d   1       3.568  -1.805  -2.390  0.00  0.00    -0.040 C 
ATOM     15  H   LIG d   1       3.590  -3.251  -3.988  0.00  0.00     0.027 H 
ATOM     16  H   LIG d   1       5.031  -3.285  -2.944  0.00  0.00     0.027 H 
ATOM     17  C   LIG d   1       2.550  -0.898  -3.084  0.00  0.00    -0.047 C 
ATOM     18  C   LIG d   1       4.574  -0.948  -1.620  0.00  0.00    -0.047 C 
ATOM     19  H   LIG d   1       3.051  -2.469  -1.697  0.00  0.00     0.030 H 
ATOM     20  C   LIG d   1       3.276   0.033  -4.057  0.00  0.00    -0.040 C 
ATOM     21  H   LIG d   1       2.023  -0.305  -2.337  0.00  0.00     0.027 H 
ATOM     22  H   LIG d   1       1.833  -1.510  -3.632  0.00  0.00     0.027 H 
ATOM     23  C   LIG d   1       4.015  -0.800  -5.106  0.00  0.00    -0.043 C 
ATOM     24  C   LIG d   1       4.282   0.891  -3.287  0.00  0.00    -0.047 C 
ATOM     25  H   LIG d   1       2.551   0.679  -4.551  0.00  0.00     0.030 H 
ATOM     26  H   LIG d   1       4.532  -0.138  -5.799  0.00  0.00     0.027 H 
ATOM     27  H   LIG d   1       3.298  -1.412  -5.654  0.00  0.00     0.027 H 
ATOM     28  C   LIG d   1       5.300  -0.016  -2.592  0.00  0.00    -0.040 C 
ATOM     29  H   LIG d   1       4.799   1.555  -3.980  0.00  0.00     0.027 H 
ATOM     30  H   LIG d   1       3.755   1.485  -2.539  0.00  0.00     0.027 H 
ATOM     31  C   LIG d   1       6.038  -0.850  -3.641  0.00  0.00    -0.043 C 
ATOM     32  H   LIG d   1       6.016   0.596  -2.044  0.00  0.00     0.030 H 
ATOM     33  H   LIG d   1       6.764  -1.496  -3.147  0.00  0.00     0.027 H 
ATOM     34  H   LIG d   1       6.556  -0.186  -4.334  0.00  0.00     0.027 H 
ATOM     35  H   LIG d   1       4.047  -0.354  -0.873  0.00  0.00     0.027 H 
ATOM     36  H   LIG d   1       5.299  -1.593  -1.125  0.00  0.00     0.027 H 
ENDBRANCH   6  12
ENDBRANCH   1   6
BRANCH   2  37
ATOM     37  C   LIG d   1       5.135  -3.014  -8.473  0.00  0.00     0.101 C 
ATOM     38  H   LIG d   1       4.747  -3.447  -9.395  0.00  0.00     0.060 H 
ATOM     39  N   LIG d   1       4.712  -1.614  -8.381  0.00  0.00    -0.292 N 
ATOM     40  C   LIG d   1       5.374  -0.811  -9.423  0.00  0.00     0.004 C 
ATOM     41  C   LIG d   1       6.852  -0.669  -9.058  0.00  0.00    -0.014 C 
ATOM     42  H   LIG d   1       4.912   0.174  -9.475  0.00  0.00     0.043 H 
ATOM     43  H   LIG d   1       5.281  -1.314 -10.386  0.00  0.00     0.043 H 
ATOM     44  C   LIG d   1       7.438  -2.024  -8.751  0.00  0.00    -0.034 A 
ATOM     45  H   LIG d   1       6.949  -0.025  -8.185  0.00  0.00     0.033 H 
ATOM     46  H   LIG d   1       7.390  -0.224  -9.896  0.00  0.00     0.033 H 
ATOM     47  C   LIG d   1       6.638  -3.112  -8.472  0.00  0.00     0.026 A 
ATOM     48  C   LIG d   1       8.818  -2.159  -8.744  0.00  0.00    -0.012 A 
ATOM     49  C   LIG d   1       7.221  -4.342  -8.184  0.00  0.00     0.171 A 
ATOM     50  C   LIG d   1       8.601  -4.480  -8.177  0.00  0.00     0.208 A 
ATOM     51  C   LIG d   1       9.405  -3.380  -8.460  0.00  0.00     0.170 A 
ATOM     52  O   LIG d   1       9.406  -5.556  -7.929  0.00  0.00    -0.449 OA
ATOM     53  O   LIG d   1      10.712  -3.765  -8.391  0.00  0.00    -0.453 OA
ATOM     54  C   LIG d   1      10.695  -5.203  -8.465  0.00  0.00     0.233 C 
ATOM     55  H   LIG d   1      11.492  -5.628  -7.854  0.00  0.00     0.117 H 
ATOM     56  H   LIG d   1      10.784  -5.534  -9.499  0.00  0.00     0.117 H 
ATOM     57  H   LIG d   1       9.441  -1.304  -8.965  0.00  0.00     0.066 H 
BRANCH  39  58
ATOM     58  C   LIG d   1       3.251  -1.497  -8.477  0.00  0.00    -0.012 C 
ATOM     59  H   LIG d   1       2.913  -0.655  -7.874  0.00  0.00     0.039 H 
ATOM     60  H   LIG d   1       2.967  -1.336  -9.517  0.00  0.00     0.039 H 
ATOM     61  H   LIG d   1       2.788  -2.414  -8.112  0.00  0.00     0.039 H 
ENDBRANCH  39  58
BRANCH  49  62
ATOM     62  O   LIG d   1       6.432  -5.415  -7.908  0.00  0.00    -0.491 OA
BRANCH  62  63
ATOM     63  C   LIG d   1       6.409  -6.469  -8.873  0.00  0.00     0.079 C 
ATOM     64  H   LIG d   1       6.511  -6.048  -9.873  0.00  0.00     0.066 H 
ATOM     65  H   LIG d   1       7.233  -7.156  -8.681  0.00  0.00     0.066 H 
ATOM     66  H   LIG d   1       5.464  -7.007  -8.801  0.00  0.00     0.066 H 
ENDBRANCH  62  63
ENDBRANCH  49  62
ENDBRANCH   2  37
TORSDOF 7
ENDMDL
MODEL 7
REMARK VINA RESULT:      -6.7      2.195      4.549
REMARK  7 active torsions:
REMARK  status: ('A' for Active; 'I' for Inactive)
REMARK    1  A    between atoms: C_1  and  C_2 
REMARK    2  A    between atoms: C_2  and  C_4 
REMARK    3  A    between atoms: C_2  and  N_14 
REMARK    4  A    between atoms: C_15  and  C_19 
REMARK    5  A    between atoms: C_26  and  O_27 
REMARK    6  A    between atoms: O_27  and  C_28 
REMARK    7  A    between atoms: N_34  and  C_35 
ROOT
ATOM      1  N   LIG d   1       5.655  -0.179  -6.754  0.00  0.00    -0.224 N 
ATOM      2  C   LIG d   1       6.708   0.449  -7.307  0.00  0.00     0.173 A 
ATOM      3  N   LIG d   1       6.222   1.354  -8.121  0.00  0.00    -0.111 NA
ATOM      4  N   LIG d   1       4.937   1.286  -8.070  0.00  0.00    -0.023 NA
ATOM      5  N   LIG d   1       4.590   0.357  -7.249  0.00  0.00    -0.044 NA
ENDROOT
BRANCH   1   6
ATOM      6  C   LIG d   1       5.706  -1.271  -5.777  0.00  0.00     0.059 C 
ATOM      7  H   LIG d   1       6.743  -1.464  -5.504  0.00  0.00     0.055 H 
BRANCH   6   8
ATOM      8  C   LIG d   1       5.096  -2.532  -6.391  0.00  0.00    -0.042 C 
ATOM      9  H   LIG d   1       4.275  -2.881  -5.765  0.00  0.00     0.025 H 
ATOM     10  H   LIG d   1       4.721  -2.306  -7.390  0.00  0.00     0.025 H 
ATOM     11  H   LIG d   1       5.858  -3.309  -6.458  0.00  0.00     0.025 H 
ENDBRANCH   6   8
BRANCH   6  12
ATOM     12  C   LIG d   1       4.913  -0.877  -4.530  0.00  0.00    -0.006 C 
ATOM     13  C   LIG d   1       3.654  -0.113  -4.945  0.00  0.00    -0.043 C 
ATOM     14  C   LIG d   1       2.861   0.279  -3.696  0.00  0.00    -0.040 C 
ATOM     15  H   LIG d   1       3.939   0.786  -5.493  0.00  0.00     0.027 H 
ATOM     16  H   LIG d   1       3.038  -0.747  -5.582  0.00  0.00     0.027 H 
ATOM     17  C   LIG d   1       3.726   1.170  -2.802  0.00  0.00    -0.047 C 
ATOM     18  C   LIG d   1       2.462  -0.981  -2.928  0.00  0.00    -0.047 C 
ATOM     19  H   LIG d   1       1.965   0.824  -3.993  0.00  0.00     0.030 H 
ATOM     20  C   LIG d   1       4.985   0.406  -2.387  0.00  0.00    -0.040 C 
ATOM     21  H   LIG d   1       3.162   1.450  -1.913  0.00  0.00     0.027 H 
ATOM     22  H   LIG d   1       4.010   2.069  -3.350  0.00  0.00     0.027 H 
ATOM     23  C   LIG d   1       5.778   0.013  -3.634  0.00  0.00    -0.043 C 
ATOM     24  C   LIG d   1       4.586  -0.855  -1.618  0.00  0.00    -0.047 C 
ATOM     25  H   LIG d   1       5.601   1.040  -1.750  0.00  0.00     0.030 H 
ATOM     26  H   LIG d   1       6.675  -0.531  -3.339  0.00  0.00     0.027 H 
ATOM     27  H   LIG d   1       6.062   0.911  -4.182  0.00  0.00     0.027 H 
ATOM     28  C   LIG d   1       3.721  -1.746  -2.513  0.00  0.00    -0.040 C 
ATOM     29  H   LIG d   1       5.483  -1.400  -1.322  0.00  0.00     0.027 H 
ATOM     30  H   LIG d   1       4.020  -0.575  -0.729  0.00  0.00     0.027 H 
ATOM     31  C   LIG d   1       4.514  -2.138  -3.761  0.00  0.00    -0.043 C 
ATOM     32  H   LIG d   1       3.437  -2.644  -1.965  0.00  0.00     0.030 H 
ATOM     33  H   LIG d   1       3.897  -2.773  -4.398  0.00  0.00     0.027 H 
ATOM     34  H   LIG d   1       5.411  -2.683  -3.465  0.00  0.00     0.027 H 
ATOM     35  H   LIG d   1       1.897  -0.701  -2.039  0.00  0.00     0.027 H 
ATOM     36  H   LIG d   1       1.846  -1.616  -3.565  0.00  0.00     0.027 H 
ENDBRANCH   6  12
ENDBRANCH   1   6
BRANCH   2  37
ATOM     37  C   LIG d   1       8.165   0.166  -7.041  0.00  0.00     0.101 C 
ATOM     38  H   LIG d   1       8.777   0.809  -7.674  0.00  0.00     0.060 H 
ATOM     39  N   LIG d   1       8.463   0.446  -5.634  0.00  0.00    -0.292 N 
ATOM     40  C   LIG d   1       9.833   0.016  -5.308  0.00  0.00     0.004 C 
ATOM     41  C   LIG d   1       9.869  -1.512  -5.290  0.00  0.00    -0.014 C 
ATOM     42  H   LIG d   1      10.114   0.401  -4.328  0.00  0.00     0.043 H 
ATOM     43  H   LIG d   1      10.523   0.391  -6.064  0.00  0.00     0.043 H 
ATOM     44  C   LIG d   1       9.256  -2.056  -6.556  0.00  0.00    -0.034 A 
ATOM     45  H   LIG d   1       9.309  -1.878  -4.430  0.00  0.00     0.033 H 
ATOM     46  H   LIG d   1      10.903  -1.849  -5.216  0.00  0.00     0.033 H 
ATOM     47  C   LIG d   1       8.458  -1.275  -7.366  0.00  0.00     0.026 A 
ATOM     48  C   LIG d   1       9.505  -3.377  -6.895  0.00  0.00    -0.012 A 
ATOM     49  C   LIG d   1       7.904  -1.819  -8.521  0.00  0.00     0.171 A 
ATOM     50  C   LIG d   1       8.151  -3.141  -8.862  0.00  0.00     0.208 A 
ATOM     51  C   LIG d   1       8.958  -3.924  -8.043  0.00  0.00     0.170 A 
ATOM     52  O   LIG d   1       7.735  -3.900  -9.919  0.00  0.00    -0.449 OA
ATOM     53  O   LIG d   1       9.049  -5.173  -8.585  0.00  0.00    -0.453 OA
ATOM     54  C   LIG d   1       8.625  -5.031  -9.954  0.00  0.00     0.233 C 
ATOM     55  H   LIG d   1       8.096  -5.924 -10.287  0.00  0.00     0.117 H 
ATOM     56  H   LIG d   1       9.479  -4.826 -10.600  0.00  0.00     0.117 H 
ATOM     57  H   LIG d   1      10.132  -3.983  -6.258  0.00  0.00     0.066 H 
BRANCH  39  58
ATOM     58  C   LIG d   1       8.272   1.870  -5.328  0.00  0.00    -0.012 C 
ATOM     59  H   LIG d   1       7.276   2.179  -5.643  0.00  0.00     0.039 H 
ATOM     60  H   LIG d   1       8.380   2.029  -4.256  0.00  0.00     0.039 H 
ATOM     61  H   LIG d   1       9.020   2.459  -5.860  0.00  0.00     0.039 H 
ENDBRANCH  39  58
BRANCH  49  62
ATOM     62  O   LIG d   1       7.116  -1.050  -9.319  0.00  0.00    -0.491 OA
BRANCH  62  63
ATOM     63  C   LIG d   1       7.631  -0.714 -10.609  0.00  0.00     0.079 C 
ATOM     64  H   LIG d   1       6.857  -0.213 -11.190  0.00  0.00     0.066 H 
ATOM     65  H   LIG d   1       8.489  -0.051 -10.497  0.00  0.00     0.066 H 
ATOM     66  H   LIG d   1       7.940  -1.623 -11.125  0.00  0.00     0.066 H 
ENDBRANCH  62  63
ENDBRANCH  49  62
ENDBRANCH   2  37
TORSDOF 7
ENDMDL
MODEL 8
REMARK VINA RESULT:      -6.5      2.384      3.958
REMARK  7 active torsions:
REMARK  status: ('A' for Active; 'I' for Inactive)
REMARK    1  A    between atoms: C_1  and  C_2 
REMARK    2  A    between atoms: C_2  and  C_4 
REMARK    3  A    between atoms: C_2  and  N_14 
REMARK    4  A    between atoms: C_15  and  C_19 
REMARK    5  A    between atoms: C_26  and  O_27 
REMARK    6  A    between atoms: O_27  and  C_28 
REMARK    7  A    between atoms: N_34  and  C_35 
ROOT
ATOM      1  N   LIG d   1       6.545  -2.095  -5.663  0.00  0.00    -0.224 N 
ATOM      2  C   LIG d   1       6.936  -1.794  -6.915  0.00  0.00     0.173 A 
ATOM      3  N   LIG d   1       6.383  -2.680  -7.706  0.00  0.00    -0.111 NA
ATOM      4  N   LIG d   1       5.688  -3.484  -6.977  0.00  0.00    -0.023 NA
ATOM      5  N   LIG d   1       5.788  -3.137  -5.742  0.00  0.00    -0.044 NA
ENDROOT
BRANCH   1   6
ATOM      6  C   LIG d   1       6.915  -1.378  -4.440  0.00  0.00     0.059 C 
ATOM      7  H   LIG d   1       7.645  -0.606  -4.678  0.00  0.00     0.055 H 
BRANCH   6   8
ATOM      8  C   LIG d   1       7.521  -2.362  -3.437  0.00  0.00    -0.042 C 
ATOM      9  H   LIG d   1       7.901  -3.234  -3.968  0.00  0.00     0.025 H 
ATOM     10  H   LIG d   1       8.339  -1.878  -2.901  0.00  0.00     0.025 H 
ATOM     11  H   LIG d   1       6.757  -2.673  -2.725  0.00  0.00     0.025 H 
ENDBRANCH   6   8
BRANCH   6  12
ATOM     12  C   LIG d   1       5.669  -0.733  -3.830  0.00  0.00    -0.006 C 
ATOM     13  C   LIG d   1       4.554  -0.688  -4.876  0.00  0.00    -0.043 C 
ATOM     14  C   LIG d   1       3.308  -0.042  -4.265  0.00  0.00    -0.040 C 
ATOM     15  H   LIG d   1       4.884  -0.100  -5.733  0.00  0.00     0.027 H 
ATOM     16  H   LIG d   1       4.317  -1.701  -5.199  0.00  0.00     0.027 H 
ATOM     17  C   LIG d   1       3.640   1.381  -3.811  0.00  0.00    -0.047 C 
ATOM     18  C   LIG d   1       2.846  -0.866  -3.062  0.00  0.00    -0.047 C 
ATOM     19  H   LIG d   1       2.514  -0.010  -5.010  0.00  0.00     0.030 H 
ATOM     20  C   LIG d   1       4.756   1.335  -2.765  0.00  0.00    -0.040 C 
ATOM     21  H   LIG d   1       2.753   1.840  -3.377  0.00  0.00     0.027 H 
ATOM     22  H   LIG d   1       3.970   1.967  -4.670  0.00  0.00     0.027 H 
ATOM     23  C   LIG d   1       6.002   0.690  -3.375  0.00  0.00    -0.043 C 
ATOM     24  C   LIG d   1       4.293   0.511  -1.562  0.00  0.00    -0.047 C 
ATOM     25  H   LIG d   1       4.993   2.348  -2.442  0.00  0.00     0.030 H 
ATOM     26  H   LIG d   1       6.797   0.658  -2.631  0.00  0.00     0.027 H 
ATOM     27  H   LIG d   1       6.332   1.277  -4.233  0.00  0.00     0.027 H 
ATOM     28  C   LIG d   1       3.960  -0.912  -2.015  0.00  0.00    -0.040 C 
ATOM     29  H   LIG d   1       5.088   0.479  -0.816  0.00  0.00     0.027 H 
ATOM     30  H   LIG d   1       3.405   0.971  -1.127  0.00  0.00     0.027 H 
ATOM     31  C   LIG d   1       5.206  -1.556  -2.626  0.00  0.00    -0.043 C 
ATOM     32  H   LIG d   1       3.631  -1.498  -1.158  0.00  0.00     0.030 H 
ATOM     33  H   LIG d   1       4.969  -2.571  -2.949  0.00  0.00     0.027 H 
ATOM     34  H   LIG d   1       6.001  -1.589  -1.880  0.00  0.00     0.027 H 
ATOM     35  H   LIG d   1       1.957  -0.406  -2.627  0.00  0.00     0.027 H 
ATOM     36  H   LIG d   1       2.608  -1.879  -3.384  0.00  0.00     0.027 H 
ENDBRANCH   6  12
ENDBRANCH   1   6
BRANCH   2  37
ATOM     37  C   LIG d   1       7.836  -0.657  -7.328  0.00  0.00     0.101 C 
ATOM     38  H   LIG d   1       8.095  -0.768  -8.380  0.00  0.00     0.060 H 
ATOM     39  N   LIG d   1       7.130   0.613  -7.134  0.00  0.00    -0.292 N 
ATOM     40  C   LIG d   1       8.043   1.744  -7.366  0.00  0.00     0.004 C 
ATOM     41  C   LIG d   1       9.036   1.811  -6.205  0.00  0.00    -0.014 C 
ATOM     42  H   LIG d   1       7.472   2.671  -7.414  0.00  0.00     0.043 H 
ATOM     43  H   LIG d   1       8.582   1.594  -8.301  0.00  0.00     0.043 H 
ATOM     44  C   LIG d   1       9.656   0.455  -5.981  0.00  0.00    -0.034 A 
ATOM     45  H   LIG d   1       8.515   2.125  -5.301  0.00  0.00     0.033 H 
ATOM     46  H   LIG d   1       9.818   2.532  -6.440  0.00  0.00     0.033 H 
ATOM     47  C   LIG d   1       9.093  -0.693  -6.499  0.00  0.00     0.026 A 
ATOM     48  C   LIG d   1      10.817   0.378  -5.228  0.00  0.00    -0.012 A 
ATOM     49  C   LIG d   1       9.693  -1.925  -6.260  0.00  0.00     0.171 A 
ATOM     50  C   LIG d   1      10.855  -2.006  -5.507  0.00  0.00     0.208 A 
ATOM     51  C   LIG d   1      11.421  -0.845  -4.988  0.00  0.00     0.170 A 
ATOM     52  O   LIG d   1      11.625  -3.070  -5.134  0.00  0.00    -0.449 OA
ATOM     53  O   LIG d   1      12.545  -1.181  -4.291  0.00  0.00    -0.453 OA
ATOM     54  C   LIG d   1      12.888  -2.509  -4.729  0.00  0.00     0.233 C 
ATOM     55  H   LIG d   1      13.317  -3.085  -3.910  0.00  0.00     0.117 H 
ATOM     56  H   LIG d   1      13.576  -2.468  -5.573  0.00  0.00     0.117 H 
ATOM     57  H   LIG d   1      11.256   1.280  -4.826  0.00  0.00     0.066 H 
BRANCH  39  58
ATOM     58  C   LIG d   1       5.953   0.700  -8.009  0.00  0.00    -0.012 C 
ATOM     59  H   LIG d   1       5.356  -0.206  -7.907  0.00  0.00     0.039 H 
ATOM     60  H   LIG d   1       5.353   1.564  -7.726  0.00  0.00     0.039 H 
ATOM     61  H   LIG d   1       6.277   0.806  -9.045  0.00  0.00     0.039 H 
ENDBRANCH  39  58
BRANCH  49  62
ATOM     62  O   LIG d   1       9.137  -3.057  -6.769  0.00  0.00    -0.491 OA
BRANCH  62  63
ATOM     63  C   LIG d   1       9.854  -3.719  -7.813  0.00  0.00     0.079 C 
ATOM     64  H   LIG d   1       9.488  -4.741  -7.913  0.00  0.00     0.066 H 
ATOM     65  H   LIG d   1       9.705  -3.185  -8.752  0.00  0.00     0.066 H 
ATOM     66  H   LIG d   1      10.916  -3.736  -7.570  0.00  0.00     0.066 H 
ENDBRANCH  62  63
ENDBRANCH  49  62
ENDBRANCH   2  37
TORSDOF 7
ENDMDL
MODEL 9
REMARK VINA RESULT:      -6.5      2.281      3.915
REMARK  7 active torsions:
REMARK  status: ('A' for Active; 'I' for Inactive)
REMARK    1  A    between atoms: C_1  and  C_2 
REMARK    2  A    between atoms: C_2  and  C_4 
REMARK    3  A    between atoms: C_2  and  N_14 
REMARK    4  A    between atoms: C_15  and  C_19 
REMARK    5  A    between atoms: C_26  and  O_27 
REMARK    6  A    between atoms: O_27  and  C_28 
REMARK    7  A    between atoms: N_34  and  C_35 
ROOT
ATOM      1  N   LIG d   1       5.865  -0.315  -6.653  0.00  0.00    -0.224 N 
ATOM      2  C   LIG d   1       6.928   0.177  -7.315  0.00  0.00     0.173 A 
ATOM      3  N   LIG d   1       6.481   1.133  -8.091  0.00  0.00    -0.111 NA
ATOM      4  N   LIG d   1       5.208   1.224  -7.915  0.00  0.00    -0.023 NA
ATOM      5  N   LIG d   1       4.831   0.348  -7.051  0.00  0.00    -0.044 NA
ENDROOT
BRANCH   1   6
ATOM      6  C   LIG d   1       5.877  -1.401  -5.670  0.00  0.00     0.059 C 
ATOM      7  H   LIG d   1       6.902  -1.597  -5.358  0.00  0.00     0.055 H 
BRANCH   6   8
ATOM      8  C   LIG d   1       5.286  -2.664  -6.300  0.00  0.00    -0.042 C 
ATOM      9  H   LIG d   1       4.334  -2.898  -5.823  0.00  0.00     0.025 H 
ATOM     10  H   LIG d   1       5.127  -2.499  -7.366  0.00  0.00     0.025 H 
ATOM     11  H   LIG d   1       5.976  -3.497  -6.162  0.00  0.00     0.025 H 
ENDBRANCH   6   8
BRANCH   6  12
ATOM     12  C   LIG d   1       5.040  -1.000  -4.454  0.00  0.00    -0.006 C 
ATOM     13  C   LIG d   1       5.921  -0.247  -3.456  0.00  0.00    -0.043 C 
ATOM     14  C   LIG d   1       5.082   0.156  -2.240  0.00  0.00    -0.040 C 
ATOM     15  H   LIG d   1       6.740  -0.891  -3.135  0.00  0.00     0.027 H 
ATOM     16  H   LIG d   1       6.325   0.647  -3.929  0.00  0.00     0.027 H 
ATOM     17  C   LIG d   1       4.514  -1.099  -1.574  0.00  0.00    -0.047 C 
ATOM     18  C   LIG d   1       3.933   1.059  -2.689  0.00  0.00    -0.047 C 
ATOM     19  H   LIG d   1       5.710   0.692  -1.528  0.00  0.00     0.030 H 
ATOM     20  C   LIG d   1       3.634  -1.853  -2.573  0.00  0.00    -0.040 C 
ATOM     21  H   LIG d   1       3.918  -0.813  -0.708  0.00  0.00     0.027 H 
ATOM     22  H   LIG d   1       5.334  -1.743  -1.254  0.00  0.00     0.027 H 
ATOM     23  C   LIG d   1       4.471  -2.255  -3.789  0.00  0.00    -0.043 C 
ATOM     24  C   LIG d   1       2.484  -0.948  -3.022  0.00  0.00    -0.047 C 
ATOM     25  H   LIG d   1       3.229  -2.746  -2.099  0.00  0.00     0.030 H 
ATOM     26  H   LIG d   1       3.845  -2.791  -4.501  0.00  0.00     0.027 H 
ATOM     27  H   LIG d   1       5.291  -2.899  -3.469  0.00  0.00     0.027 H 
ATOM     28  C   LIG d   1       3.052   0.307  -3.688  0.00  0.00    -0.040 C 
ATOM     29  H   LIG d   1       1.857  -1.485  -3.735  0.00  0.00     0.027 H 
ATOM     30  H   LIG d   1       1.888  -0.662  -2.156  0.00  0.00     0.027 H 
ATOM     31  C   LIG d   1       3.890  -0.096  -4.903  0.00  0.00    -0.043 C 
ATOM     32  H   LIG d   1       2.233   0.950  -4.008  0.00  0.00     0.030 H 
ATOM     33  H   LIG d   1       4.295   0.799  -5.378  0.00  0.00     0.027 H 
ATOM     34  H   LIG d   1       3.262  -0.632  -5.616  0.00  0.00     0.027 H 
ATOM     35  H   LIG d   1       3.337   1.346  -1.822  0.00  0.00     0.027 H 
ATOM     36  H   LIG d   1       4.337   1.954  -3.163  0.00  0.00     0.027 H 
ENDBRANCH   6  12
ENDBRANCH   1   6
BRANCH   2  37
ATOM     37  C   LIG d   1       8.358  -0.283  -7.187  0.00  0.00     0.101 C 
ATOM     38  H   LIG d   1       8.459  -0.898  -6.293  0.00  0.00     0.060 H 
ATOM     39  N   LIG d   1       8.718  -1.078  -8.365  0.00  0.00    -0.292 N 
ATOM     40  C   LIG d   1      10.156  -1.394  -8.347  0.00  0.00     0.004 C 
ATOM     41  C   LIG d   1      10.937  -0.112  -8.640  0.00  0.00    -0.014 C 
ATOM     42  H   LIG d   1      10.376  -2.140  -9.109  0.00  0.00     0.043 H 
ATOM     43  H   LIG d   1      10.434  -1.776  -7.364  0.00  0.00     0.043 H 
ATOM     44  C   LIG d   1      10.460   0.998  -7.737  0.00  0.00    -0.034 A 
ATOM     45  H   LIG d   1      10.783   0.175  -9.680  0.00  0.00     0.033 H 
ATOM     46  H   LIG d   1      11.999  -0.288  -8.467  0.00  0.00     0.033 H 
ATOM     47  C   LIG d   1       9.258   0.919  -7.067  0.00  0.00     0.026 A 
ATOM     48  C   LIG d   1      11.261   2.121  -7.595  0.00  0.00    -0.012 A 
ATOM     49  C   LIG d   1       8.851   1.971  -6.252  0.00  0.00     0.171 A 
ATOM     50  C   LIG d   1       9.650   3.096  -6.107  0.00  0.00     0.208 A 
ATOM     51  C   LIG d   1      10.864   3.170  -6.784  0.00  0.00     0.170 A 
ATOM     52  O   LIG d   1       9.484   4.242  -5.383  0.00  0.00    -0.449 OA
ATOM     53  O   LIG d   1      11.459   4.361  -6.484  0.00  0.00    -0.453 OA
ATOM     54  C   LIG d   1      10.792   4.837  -5.300  0.00  0.00     0.233 C 
ATOM     55  H   LIG d   1      10.719   5.925  -5.312  0.00  0.00     0.117 H 
ATOM     56  H   LIG d   1      11.312   4.497  -4.404  0.00  0.00     0.117 H 
ATOM     57  H   LIG d   1      12.203   2.176  -8.120  0.00  0.00     0.066 H 
BRANCH  39  58
ATOM     58  C   LIG d   1       7.912  -2.303  -8.440  0.00  0.00    -0.012 C 
ATOM     59  H   LIG d   1       8.566  -3.173  -8.384  0.00  0.00     0.039 H 
ATOM     60  H   LIG d   1       7.206  -2.325  -7.610  0.00  0.00     0.039 H 
ATOM     61  H   LIG d   1       7.365  -2.321  -9.383  0.00  0.00     0.039 H 
ENDBRANCH  39  58
BRANCH  49  62
ATOM     62  O   LIG d   1       7.665   1.894  -5.592  0.00  0.00    -0.491 OA
BRANCH  62  63
ATOM     63  C   LIG d   1       7.706   2.005  -4.168  0.00  0.00     0.079 C 
ATOM     64  H   LIG d   1       8.490   2.705  -3.879  0.00  0.00     0.066 H 
ATOM     65  H   LIG d   1       6.744   2.365  -3.803  0.00  0.00     0.066 H 
ATOM     66  H   LIG d   1       7.916   1.027  -3.733  0.00  0.00     0.066 H 
ENDBRANCH  62  63
ENDBRANCH  49  62
ENDBRANCH   2  37
TORSDOF 7
ENDMDL
