MODEL 1
REMARK VINA RESULT:      -7.0      0.000      0.000
REMARK  7 active torsions:
REMARK  status: ('A' for Active; 'I' for Inactive)
REMARK    1  A    between atoms: CG_4  and  CB_7 
REMARK    2  A    between atoms: CB_7  and  CA_8 
REMARK       I    between atoms: CA_8  and  C_10 
REMARK       I    between atoms: CA_8  and  N_21 
REMARK       I    between atoms: C_10  and  N_12 
REMARK       I    between atoms: N_12  and  CA_13 
REMARK    3  A    between atoms: CA_13  and  CB_15 
REMARK       I    between atoms: CA_13  and  C_19 
REMARK    4  A    between atoms: CB_15  and  CG_16 
REMARK    5  A    between atoms: CG_16  and  CD_17 
REMARK    6  A    between atoms: CD_17  and  CE_18 
REMARK    7  A    between atoms: CE_18  and  NZ_54 
REMARK       I    between atoms: N_21  and  C_22 
REMARK       I    between atoms: C_22  and  CA_24 
ROOT
ATOM      1  CA  PRO d   1       7.508   0.459  -3.861  0.00  0.00     0.103 C 
ATOM      2  HA  PRO d   1       7.602  -0.481  -3.318  0.00  0.00     0.060 H 
ATOM      3  C   PRO d   1       7.303   0.174  -5.327  0.00  0.00     0.234 C 
ATOM      4  O   PRO d   1       7.853   0.861  -6.161  0.00  0.00    -0.274 OA
ATOM      5  N   PRO d   1       6.508  -0.844  -5.711  0.00  0.00    -0.306 N 
ATOM      6  CA  PRO d   1       6.309  -1.122  -7.135  0.00  0.00     0.063 C 
ATOM      7  HA  PRO d   1       7.230  -0.912  -7.679  0.00  0.00     0.056 H 
ATOM      8  C   PRO d   1       5.202  -0.248  -7.668  0.00  0.00     0.062 C 
ATOM      9  O   PRO d   1       4.638   0.527  -6.932  0.00  0.00    -0.548 OA
ATOM     10  N   PRO d   1       8.728   1.250  -3.684  0.00  0.00    -0.299 N 
ATOM     11  C   PRO d   1       8.838   2.459  -4.269  0.00  0.00     0.262 C 
ATOM     12  O   PRO d   1       7.927   2.892  -4.943  0.00  0.00    -0.270 OA
ATOM     13  CA  PRO d   1      10.093   3.274  -4.086  0.00  0.00     0.055 C 
ATOM     14  HA  PRO d   1      10.967   2.623  -4.134  0.00  0.00     0.095 H 
ATOM     15  CB  PRO d   1      10.052   4.003  -2.727  0.00  0.00     0.004 C 
ATOM     16  CG  PRO d   1      10.688   5.380  -3.051  0.00  0.00    -0.007 C 
ATOM     17  CD  PRO d   1      10.167   5.635  -4.487  0.00  0.00    -0.033 C 
ATOM     18  H   PRO d   1       6.067  -1.394  -5.044  0.00  0.00     0.149 HD
ATOM     19  H   PRO d   1       9.456   0.904  -3.144  0.00  0.00     0.150 HD
ATOM     20  HB1 PRO d   1       9.024   4.124  -2.385  0.00  0.00     0.033 H 
ATOM     21  HB2 PRO d   1      10.646   3.470  -1.985  0.00  0.00     0.033 H 
ATOM     22  HG1 PRO d   1      11.776   5.321  -3.034  0.00  0.00     0.032 H 
ATOM     23  HG2 PRO d   1      10.330   6.148  -2.364  0.00  0.00     0.032 H 
ATOM     24  HD1 PRO d   1      10.831   6.320  -5.015  0.00  0.00     0.081 H 
ATOM     25  HD2 PRO d   1       9.154   6.037  -4.460  0.00  0.00     0.081 H 
ATOM     26  OXT PRO d   1       4.844  -0.329  -8.959  0.00  0.00    -0.548 OA
ATOM     27  N   PRO d   1      10.177   4.307  -5.128  0.00  0.00     0.236 N 
ATOM     28  H1  PRO d   1       9.375   4.224  -5.762  0.00  0.00     0.202 HD
ATOM     29  H2  PRO d   1      11.047   4.189  -5.661  0.00  0.00     0.202 HD
ENDROOT
BRANCH   1  30
ATOM     30  CB  PRO d   1       6.308   1.242  -3.322  0.00  0.00    -0.001 C 
ATOM     31  HB1 PRO d   1       6.582   1.725  -2.385  0.00  0.00     0.034 H 
ATOM     32  HB2 PRO d   1       6.012   1.999  -4.048  0.00  0.00     0.034 H 
BRANCH  30  33
ATOM     33  CG  PRO d   1       5.158   0.298  -3.084  0.00  0.00    -0.045 A 
ATOM     34  CD1 PRO d   1       5.375  -0.907  -2.442  0.00  0.00    -0.059 A 
ATOM     35  CE1 PRO d   1       4.319  -1.772  -2.224  0.00  0.00    -0.061 A 
ATOM     36  HD1 PRO d   1       6.367  -1.171  -2.110  0.00  0.00     0.062 H 
ATOM     37  CZ  PRO d   1       3.048  -1.434  -2.648  0.00  0.00    -0.062 A 
ATOM     38  HE1 PRO d   1       4.488  -2.713  -1.721  0.00  0.00     0.062 H 
ATOM     39  CE2 PRO d   1       2.832  -0.229  -3.291  0.00  0.00    -0.061 A 
ATOM     40  HZ  PRO d   1       2.223  -2.111  -2.476  0.00  0.00     0.062 H 
ATOM     41  CD2 PRO d   1       3.886   0.639  -3.505  0.00  0.00    -0.059 A 
ATOM     42  HE2 PRO d   1       1.838   0.035  -3.622  0.00  0.00     0.062 H 
ATOM     43  HD2 PRO d   1       3.716   1.582  -4.003  0.00  0.00     0.062 H 
ENDBRANCH  30  33
ENDBRANCH   1  30
BRANCH   6  44
ATOM     44  CB  PRO d   1       5.931  -2.593  -7.321  0.00  0.00    -0.029 C 
ATOM     45  HB1 PRO d   1       6.826  -3.211  -7.244  0.00  0.00     0.029 H 
ATOM     46  HB2 PRO d   1       5.478  -2.729  -8.304  0.00  0.00     0.029 H 
BRANCH  44  47
ATOM     47  CG  PRO d   1       4.932  -3.003  -6.238  0.00  0.00    -0.046 C 
ATOM     48  HG1 PRO d   1       3.982  -3.271  -6.702  0.00  0.00     0.027 H 
ATOM     49  HG2 PRO d   1       4.779  -2.171  -5.552  0.00  0.00     0.027 H 
BRANCH  47  50
ATOM     50  CD  PRO d   1       5.480  -4.206  -5.468  0.00  0.00    -0.013 C 
ATOM     51  HD1 PRO d   1       5.548  -3.959  -4.408  0.00  0.00     0.032 H 
ATOM     52  HD2 PRO d   1       6.472  -4.459  -5.845  0.00  0.00     0.032 H 
BRANCH  50  53
ATOM     53  CE  PRO d   1       4.544  -5.402  -5.655  0.00  0.00    -0.035 C 
ATOM     54  HE1 PRO d   1       5.069  -6.194  -6.188  0.00  0.00     0.081 H 
ATOM     55  HE2 PRO d   1       4.225  -5.769  -4.679  0.00  0.00     0.081 H 
BRANCH  53  56
ATOM     56  NZ  PRO d   1       3.379  -4.980  -6.452  0.00  0.00     0.218 N 
ATOM     57  HZ1 PRO d   1       2.518  -5.291  -6.005  0.00  0.00     0.199 HD
ATOM     58  HZ2 PRO d   1       3.366  -3.965  -6.541  0.00  0.00     0.199 HD
ATOM     59  HZ3 PRO d   1       3.441  -5.396  -7.387  0.00  0.00     0.199 HD
ENDBRANCH  53  56
ENDBRANCH  50  53
ENDBRANCH  47  50
ENDBRANCH  44  47
ENDBRANCH   6  44
TORSDOF 12
ENDMDL
MODEL 2
REMARK VINA RESULT:      -6.9      3.329      6.770
REMARK  7 active torsions:
REMARK  status: ('A' for Active; 'I' for Inactive)
REMARK    1  A    between atoms: CG_4  and  CB_7 
REMARK    2  A    between atoms: CB_7  and  CA_8 
REMARK       I    between atoms: CA_8  and  C_10 
REMARK       I    between atoms: CA_8  and  N_21 
REMARK       I    between atoms: C_10  and  N_12 
REMARK       I    between atoms: N_12  and  CA_13 
REMARK    3  A    between atoms: CA_13  and  CB_15 
REMARK       I    between atoms: CA_13  and  C_19 
REMARK    4  A    between atoms: CB_15  and  CG_16 
REMARK    5  A    between atoms: CG_16  and  CD_17 
REMARK    6  A    between atoms: CD_17  and  CE_18 
REMARK    7  A    between atoms: CE_18  and  NZ_54 
REMARK       I    between atoms: N_21  and  C_22 
REMARK       I    between atoms: C_22  and  CA_24 
ROOT
ATOM      1  CA  PRO d   1       4.657  -1.579  -6.108  0.00  0.00     0.103 C 
ATOM      2  HA  PRO d   1       3.825  -0.978  -5.739  0.00  0.00     0.060 H 
ATOM      3  C   PRO d   1       5.123  -1.029  -7.432  0.00  0.00     0.234 C 
ATOM      4  O   PRO d   1       5.439  -1.787  -8.325  0.00  0.00    -0.274 OA
ATOM      5  N   PRO d   1       5.188   0.303  -7.625  0.00  0.00    -0.306 N 
ATOM      6  CA  PRO d   1       5.640   0.837  -8.912  0.00  0.00     0.063 C 
ATOM      7  HA  PRO d   1       5.300   0.183  -9.716  0.00  0.00     0.056 H 
ATOM      8  C   PRO d   1       7.145   0.907  -8.926  0.00  0.00     0.062 C 
ATOM      9  O   PRO d   1       7.775   0.549  -7.959  0.00  0.00    -0.548 OA
ATOM     10  N   PRO d   1       4.220  -2.966  -6.282  0.00  0.00    -0.299 N 
ATOM     11  C   PRO d   1       5.088  -3.894  -6.732  0.00  0.00     0.262 C 
ATOM     12  O   PRO d   1       6.229  -3.580  -6.995  0.00  0.00    -0.270 OA
ATOM     13  CA  PRO d   1       4.639  -5.322  -6.909  0.00  0.00     0.055 C 
ATOM     14  HA  PRO d   1       3.633  -5.344  -7.330  0.00  0.00     0.095 H 
ATOM     15  CB  PRO d   1       4.658  -6.051  -5.550  0.00  0.00     0.004 C 
ATOM     16  CG  PRO d   1       5.168  -7.469  -5.922  0.00  0.00    -0.007 C 
ATOM     17  CD  PRO d   1       6.181  -7.150  -7.049  0.00  0.00    -0.033 C 
ATOM     18  H   PRO d   1       4.935   0.909  -6.911  0.00  0.00     0.149 HD
ATOM     19  H   PRO d   1       3.307  -3.217  -6.071  0.00  0.00     0.150 HD
ATOM     20  HB1 PRO d   1       5.347  -5.563  -4.860  0.00  0.00     0.033 H 
ATOM     21  HB2 PRO d   1       3.656  -6.102  -5.125  0.00  0.00     0.033 H 
ATOM     22  HG1 PRO d   1       4.354  -8.091  -6.292  0.00  0.00     0.032 H 
ATOM     23  HG2 PRO d   1       5.664  -7.941  -5.073  0.00  0.00     0.032 H 
ATOM     24  HD1 PRO d   1       6.313  -8.018  -7.697  0.00  0.00     0.081 H 
ATOM     25  HD2 PRO d   1       7.139  -6.846  -6.627  0.00  0.00     0.081 H 
ATOM     26  OXT PRO d   1       7.786   1.368 -10.011  0.00  0.00    -0.548 OA
ATOM     27  N   PRO d   1       5.570  -6.035  -7.796  0.00  0.00     0.236 N 
ATOM     28  H1  PRO d   1       6.303  -5.391  -8.115  0.00  0.00     0.202 HD
ATOM     29  H2  PRO d   1       5.061  -6.403  -8.608  0.00  0.00     0.202 HD
ENDROOT
BRANCH   1  30
ATOM     30  CB  PRO d   1       5.810  -1.528  -5.102  0.00  0.00    -0.001 C 
ATOM     31  HB1 PRO d   1       6.089  -2.541  -4.819  0.00  0.00     0.034 H 
ATOM     32  HB2 PRO d   1       6.666  -1.028  -5.555  0.00  0.00     0.034 H 
BRANCH  30  33
ATOM     33  CG  PRO d   1       5.373  -0.765  -3.877  0.00  0.00    -0.045 A 
ATOM     34  CD1 PRO d   1       5.686   0.575  -3.751  0.00  0.00    -0.059 A 
ATOM     35  CE1 PRO d   1       5.286   1.275  -2.627  0.00  0.00    -0.061 A 
ATOM     36  HD1 PRO d   1       6.242   1.076  -4.529  0.00  0.00     0.062 H 
ATOM     37  CZ  PRO d   1       4.574   0.634  -1.631  0.00  0.00    -0.062 A 
ATOM     38  HE1 PRO d   1       5.529   2.322  -2.529  0.00  0.00     0.062 H 
ATOM     39  CE2 PRO d   1       4.262  -0.707  -1.758  0.00  0.00    -0.061 A 
ATOM     40  HZ  PRO d   1       4.261   1.181  -0.754  0.00  0.00     0.062 H 
ATOM     41  CD2 PRO d   1       4.657  -1.406  -2.884  0.00  0.00    -0.059 A 
ATOM     42  HE2 PRO d   1       3.705  -1.208  -0.980  0.00  0.00     0.062 H 
ATOM     43  HD2 PRO d   1       4.410  -2.452  -2.984  0.00  0.00     0.062 H 
ENDBRANCH  30  33
ENDBRANCH   1  30
BRANCH   6  44
ATOM     44  CB  PRO d   1       5.062   2.239  -9.115  0.00  0.00    -0.029 C 
ATOM     45  HB1 PRO d   1       5.785   2.857  -9.647  0.00  0.00     0.029 H 
ATOM     46  HB2 PRO d   1       4.846   2.686  -8.144  0.00  0.00     0.029 H 
BRANCH  44  47
ATOM     47  CG  PRO d   1       3.772   2.145  -9.932  0.00  0.00    -0.046 C 
ATOM     48  HG1 PRO d   1       3.578   3.102 -10.417  0.00  0.00     0.027 H 
ATOM     49  HG2 PRO d   1       2.941   1.897  -9.272  0.00  0.00     0.027 H 
BRANCH  47  50
ATOM     50  CD  PRO d   1       3.920   1.055 -10.996  0.00  0.00    -0.013 C 
ATOM     51  HD1 PRO d   1       4.895   0.577 -10.892  0.00  0.00     0.032 H 
ATOM     52  HD2 PRO d   1       3.838   1.501 -11.987  0.00  0.00     0.032 H 
BRANCH  50  53
ATOM     53  CE  PRO d   1       2.817   0.010 -10.814  0.00  0.00    -0.035 C 
ATOM     54  HE1 PRO d   1       2.249   0.236  -9.912  0.00  0.00     0.081 H 
ATOM     55  HE2 PRO d   1       2.153   0.029 -11.678  0.00  0.00     0.081 H 
BRANCH  53  56
ATOM     56  NZ  PRO d   1       3.435  -1.320 -10.669  0.00  0.00     0.218 N 
ATOM     57  HZ1 PRO d   1       3.794  -1.437  -9.723  0.00  0.00     0.199 HD
ATOM     58  HZ2 PRO d   1       2.749  -2.046 -10.863  0.00  0.00     0.199 HD
ATOM     59  HZ3 PRO d   1       4.211  -1.406 -11.334  0.00  0.00     0.199 HD
ENDBRANCH  53  56
ENDBRANCH  50  53
ENDBRANCH  47  50
ENDBRANCH  44  47
ENDBRANCH   6  44
TORSDOF 12
ENDMDL
MODEL 3
REMARK VINA RESULT:      -6.7      4.085      6.094
REMARK  7 active torsions:
REMARK  status: ('A' for Active; 'I' for Inactive)
REMARK    1  A    between atoms: CG_4  and  CB_7 
REMARK    2  A    between atoms: CB_7  and  CA_8 
REMARK       I    between atoms: CA_8  and  C_10 
REMARK       I    between atoms: CA_8  and  N_21 
REMARK       I    between atoms: C_10  and  N_12 
REMARK       I    between atoms: N_12  and  CA_13 
REMARK    3  A    between atoms: CA_13  and  CB_15 
REMARK       I    between atoms: CA_13  and  C_19 
REMARK    4  A    between atoms: CB_15  and  CG_16 
REMARK    5  A    between atoms: CG_16  and  CD_17 
REMARK    6  A    between atoms: CD_17  and  CE_18 
REMARK    7  A    between atoms: CE_18  and  NZ_54 
REMARK       I    between atoms: N_21  and  C_22 
REMARK       I    between atoms: C_22  and  CA_24 
ROOT
ATOM      1  CA  PRO d   1       5.504  -2.020  -5.394  0.00  0.00     0.103 C 
ATOM      2  HA  PRO d   1       6.308  -1.745  -4.711  0.00  0.00     0.060 H 
ATOM      3  C   PRO d   1       5.780  -3.384  -5.972  0.00  0.00     0.234 C 
ATOM      4  O   PRO d   1       5.546  -3.606  -7.141  0.00  0.00    -0.274 OA
ATOM      5  N   PRO d   1       6.286  -4.357  -5.190  0.00  0.00    -0.306 N 
ATOM      6  CA  PRO d   1       6.555  -5.684  -5.751  0.00  0.00     0.063 C 
ATOM      7  HA  PRO d   1       6.891  -5.580  -6.784  0.00  0.00     0.056 H 
ATOM      8  C   PRO d   1       5.295  -6.509  -5.715  0.00  0.00     0.062 C 
ATOM      9  O   PRO d   1       4.277  -6.038  -5.266  0.00  0.00    -0.548 OA
ATOM     10  N   PRO d   1       5.427  -1.037  -6.478  0.00  0.00    -0.299 N 
ATOM     11  C   PRO d   1       4.499  -1.174  -7.447  0.00  0.00     0.262 C 
ATOM     12  O   PRO d   1       3.730  -2.111  -7.421  0.00  0.00    -0.270 OA
ATOM     13  CA  PRO d   1       4.419  -0.162  -8.561  0.00  0.00     0.055 C 
ATOM     14  HA  PRO d   1       5.424   0.119  -8.878  0.00  0.00     0.095 H 
ATOM     15  CB  PRO d   1       3.647   1.085  -8.083  0.00  0.00     0.004 C 
ATOM     16  CG  PRO d   1       2.818   1.482  -9.333  0.00  0.00    -0.007 C 
ATOM     17  CD  PRO d   1       2.468   0.096  -9.929  0.00  0.00    -0.033 C 
ATOM     18  H   PRO d   1       6.473  -4.181  -4.254  0.00  0.00     0.149 HD
ATOM     19  H   PRO d   1       6.042  -0.287  -6.498  0.00  0.00     0.150 HD
ATOM     20  HB1 PRO d   1       2.992   0.838  -7.248  0.00  0.00     0.033 H 
ATOM     21  HB2 PRO d   1       4.337   1.884  -7.809  0.00  0.00     0.033 H 
ATOM     22  HG1 PRO d   1       3.417   2.068 -10.029  0.00  0.00     0.032 H 
ATOM     23  HG2 PRO d   1       1.915   2.023  -9.047  0.00  0.00     0.032 H 
ATOM     24  HD1 PRO d   1       2.265   0.183 -10.997  0.00  0.00     0.081 H 
ATOM     25  HD2 PRO d   1       1.609  -0.335  -9.415  0.00  0.00     0.081 H 
ATOM     26  OXT PRO d   1       5.302  -7.768  -6.182  0.00  0.00    -0.548 OA
ATOM     27  N   PRO d   1       3.672  -0.724  -9.696  0.00  0.00     0.236 N 
ATOM     28  H1  PRO d   1       3.395  -1.689  -9.482  0.00  0.00     0.202 HD
ATOM     29  H2  PRO d   1       4.262  -0.715 -10.536  0.00  0.00     0.202 HD
ENDROOT
BRANCH   1  30
ATOM     30  CB  PRO d   1       4.176  -2.048  -4.634  0.00  0.00    -0.001 C 
ATOM     31  HB1 PRO d   1       3.350  -2.018  -5.344  0.00  0.00     0.034 H 
ATOM     32  HB2 PRO d   1       4.114  -2.961  -4.043  0.00  0.00     0.034 H 
BRANCH  30  33
ATOM     33  CG  PRO d   1       4.095  -0.852  -3.720  0.00  0.00    -0.045 A 
ATOM     34  CD1 PRO d   1       3.370   0.262  -4.102  0.00  0.00    -0.059 A 
ATOM     35  CE1 PRO d   1       3.296   1.358  -3.263  0.00  0.00    -0.061 A 
ATOM     36  HD1 PRO d   1       2.862   0.275  -5.053  0.00  0.00     0.062 H 
ATOM     37  CZ  PRO d   1       3.947   1.342  -2.044  0.00  0.00    -0.062 A 
ATOM     38  HE1 PRO d   1       2.729   2.228  -3.560  0.00  0.00     0.062 H 
ATOM     39  CE2 PRO d   1       4.672   0.227  -1.663  0.00  0.00    -0.061 A 
ATOM     40  HZ  PRO d   1       3.888   2.198  -1.388  0.00  0.00     0.062 H 
ATOM     41  CD2 PRO d   1       4.743  -0.871  -2.499  0.00  0.00    -0.059 A 
ATOM     42  HE2 PRO d   1       5.181   0.215  -0.710  0.00  0.00     0.062 H 
ATOM     43  HD2 PRO d   1       5.306  -1.742  -2.199  0.00  0.00     0.062 H 
ENDBRANCH  30  33
ENDBRANCH   1  30
BRANCH   6  44
ATOM     44  CB  PRO d   1       7.642  -6.377  -4.928  0.00  0.00    -0.029 C 
ATOM     45  HB1 PRO d   1       8.134  -7.134  -5.538  0.00  0.00     0.029 H 
ATOM     46  HB2 PRO d   1       7.190  -6.850  -4.056  0.00  0.00     0.029 H 
BRANCH  44  47
ATOM     47  CG  PRO d   1       8.672  -5.342  -4.471  0.00  0.00    -0.046 C 
ATOM     48  HG1 PRO d   1       8.161  -4.422  -4.185  0.00  0.00     0.027 H 
ATOM     49  HG2 PRO d   1       9.365  -5.134  -5.285  0.00  0.00     0.027 H 
BRANCH  47  50
ATOM     50  CD  PRO d   1       9.447  -5.889  -3.270  0.00  0.00    -0.013 C 
ATOM     51  HD1 PRO d   1      10.359  -6.375  -3.617  0.00  0.00     0.032 H 
ATOM     52  HD2 PRO d   1       8.829  -6.614  -2.739  0.00  0.00     0.032 H 
BRANCH  50  53
ATOM     53  CE  PRO d   1       9.807  -4.739  -2.327  0.00  0.00    -0.035 C 
ATOM     54  HE1 PRO d   1       9.460  -4.973  -1.321  0.00  0.00     0.081 H 
ATOM     55  HE2 PRO d   1      10.889  -4.603  -2.318  0.00  0.00     0.081 H 
BRANCH  53  56
ATOM     56  NZ  PRO d   1       9.138  -3.511  -2.791  0.00  0.00     0.218 N 
ATOM     57  HZ1 PRO d   1       9.819  -2.877  -3.203  0.00  0.00     0.199 HD
ATOM     58  HZ2 PRO d   1       8.427  -3.741  -3.482  0.00  0.00     0.199 HD
ATOM     59  HZ3 PRO d   1       8.690  -3.048  -1.992  0.00  0.00     0.199 HD
ENDBRANCH  53  56
ENDBRANCH  50  53
ENDBRANCH  47  50
ENDBRANCH  44  47
ENDBRANCH   6  44
TORSDOF 12
ENDMDL
MODEL 4
REMARK VINA RESULT:      -6.7      3.752      7.549
REMARK  7 active torsions:
REMARK  status: ('A' for Active; 'I' for Inactive)
REMARK    1  A    between atoms: CG_4  and  CB_7 
REMARK    2  A    between atoms: CB_7  and  CA_8 
REMARK       I    between atoms: CA_8  and  C_10 
REMARK       I    between atoms: CA_8  and  N_21 
REMARK       I    between atoms: C_10  and  N_12 
REMARK       I    between atoms: N_12  and  CA_13 
REMARK    3  A    between atoms: CA_13  and  CB_15 
REMARK       I    between atoms: CA_13  and  C_19 
REMARK    4  A    between atoms: CB_15  and  CG_16 
REMARK    5  A    between atoms: CG_16  and  CD_17 
REMARK    6  A    between atoms: CD_17  and  CE_18 
REMARK    7  A    between atoms: CE_18  and  NZ_54 
REMARK       I    between atoms: N_21  and  C_22 
REMARK       I    between atoms: C_22  and  CA_24 
ROOT
ATOM      1  CA  PRO d   1       4.354  -3.905  -5.671  0.00  0.00     0.103 C 
ATOM      2  HA  PRO d   1       3.492  -3.540  -5.111  0.00  0.00     0.060 H 
ATOM      3  C   PRO d   1       4.288  -3.389  -7.085  0.00  0.00     0.234 C 
ATOM      4  O   PRO d   1       4.597  -4.111  -8.009  0.00  0.00    -0.274 OA
ATOM      5  N   PRO d   1       3.886  -2.125  -7.324  0.00  0.00    -0.306 N 
ATOM      6  CA  PRO d   1       3.822  -1.623  -8.699  0.00  0.00     0.063 C 
ATOM      7  HA  PRO d   1       3.518  -2.430  -9.366  0.00  0.00     0.056 H 
ATOM      8  C   PRO d   1       5.180  -1.116  -9.112  0.00  0.00     0.062 C 
ATOM      9  O   PRO d   1       6.105  -1.168  -8.337  0.00  0.00    -0.548 OA
ATOM     10  N   PRO d   1       4.342  -5.370  -5.685  0.00  0.00    -0.299 N 
ATOM     11  C   PRO d   1       5.318  -6.046  -6.323  0.00  0.00     0.262 C 
ATOM     12  O   PRO d   1       6.206  -5.440  -6.887  0.00  0.00    -0.270 OA
ATOM     13  CA  PRO d   1       5.307  -7.553  -6.336  0.00  0.00     0.055 C 
ATOM     14  HA  PRO d   1       4.288  -7.914  -6.475  0.00  0.00     0.095 H 
ATOM     15  CB  PRO d   1       5.883  -8.094  -5.011  0.00  0.00     0.004 C 
ATOM     16  CG  PRO d   1       6.702  -9.331  -5.467  0.00  0.00    -0.007 C 
ATOM     17  CD  PRO d   1       7.260  -8.852  -6.830  0.00  0.00    -0.033 C 
ATOM     18  H   PRO d   1       3.639  -1.547  -6.585  0.00  0.00     0.149 HD
ATOM     19  H   PRO d   1       3.633  -5.854  -5.234  0.00  0.00     0.150 HD
ATOM     20  HB1 PRO d   1       6.531  -7.354  -4.542  0.00  0.00     0.033 H 
ATOM     21  HB2 PRO d   1       5.081  -8.391  -4.335  0.00  0.00     0.033 H 
ATOM     22  HG1 PRO d   1       6.058 -10.200  -5.591  0.00  0.00     0.032 H 
ATOM     23  HG2 PRO d   1       7.511  -9.543  -4.767  0.00  0.00     0.032 H 
ATOM     24  HD1 PRO d   1       7.493  -9.706  -7.465  0.00  0.00     0.081 H 
ATOM     25  HD2 PRO d   1       8.147  -8.236  -6.684  0.00  0.00     0.081 H 
ATOM     26  OXT PRO d   1       5.361  -0.607 -10.340  0.00  0.00    -0.548 OA
ATOM     27  N   PRO d   1       6.169  -8.051  -7.418  0.00  0.00     0.236 N 
ATOM     28  H1  PRO d   1       6.565  -7.259  -7.937  0.00  0.00     0.202 HD
ATOM     29  H2  PRO d   1       5.619  -8.637  -8.056  0.00  0.00     0.202 HD
ENDROOT
BRANCH   1  30
ATOM     30  CB  PRO d   1       5.641  -3.411  -5.007  0.00  0.00    -0.001 C 
ATOM     31  HB1 PRO d   1       6.153  -4.250  -4.538  0.00  0.00     0.034 H 
ATOM     32  HB2 PRO d   1       6.290  -2.963  -5.760  0.00  0.00     0.034 H 
BRANCH  30  33
ATOM     33  CG  PRO d   1       5.302  -2.380  -3.960  0.00  0.00    -0.045 A 
ATOM     34  CD1 PRO d   1       6.119  -1.279  -3.786  0.00  0.00    -0.059 A 
ATOM     35  CE1 PRO d   1       5.808  -0.334  -2.826  0.00  0.00    -0.061 A 
ATOM     36  HD1 PRO d   1       6.998  -1.156  -4.399  0.00  0.00     0.062 H 
ATOM     37  CZ  PRO d   1       4.682  -0.491  -2.040  0.00  0.00    -0.062 A 
ATOM     38  HE1 PRO d   1       6.446   0.527  -2.690  0.00  0.00     0.062 H 
ATOM     39  CE2 PRO d   1       3.865  -1.593  -2.215  0.00  0.00    -0.061 A 
ATOM     40  HZ  PRO d   1       4.438   0.248  -1.291  0.00  0.00     0.062 H 
ATOM     41  CD2 PRO d   1       4.173  -2.536  -3.178  0.00  0.00    -0.059 A 
ATOM     42  HE2 PRO d   1       2.985  -1.715  -1.601  0.00  0.00     0.062 H 
ATOM     43  HD2 PRO d   1       3.533  -3.394  -3.317  0.00  0.00     0.062 H 
ENDBRANCH  30  33
ENDBRANCH   1  30
BRANCH   6  44
ATOM     44  CB  PRO d   1       2.805  -0.483  -8.780  0.00  0.00    -0.029 C 
ATOM     45  HB1 PRO d   1       1.812  -0.863  -8.540  0.00  0.00     0.029 H 
ATOM     46  HB2 PRO d   1       2.803  -0.071  -9.789  0.00  0.00     0.029 H 
BRANCH  44  47
ATOM     47  CG  PRO d   1       3.187   0.612  -7.782  0.00  0.00    -0.046 C 
ATOM     48  HG1 PRO d   1       4.261   0.576  -7.596  0.00  0.00     0.027 H 
ATOM     49  HG2 PRO d   1       2.652   0.454  -6.847  0.00  0.00     0.027 H 
BRANCH  47  50
ATOM     50  CD  PRO d   1       2.815   1.979  -8.358  0.00  0.00    -0.013 C 
ATOM     51  HD1 PRO d   1       2.906   2.738  -7.581  0.00  0.00     0.032 H 
ATOM     52  HD2 PRO d   1       1.787   1.954  -8.721  0.00  0.00     0.032 H 
BRANCH  50  53
ATOM     53  CE  PRO d   1       3.755   2.319  -9.517  0.00  0.00    -0.035 C 
ATOM     54  HE1 PRO d   1       3.675   1.552 -10.286  0.00  0.00     0.081 H 
ATOM     55  HE2 PRO d   1       3.480   3.287  -9.936  0.00  0.00     0.081 H 
BRANCH  53  56
ATOM     56  NZ  PRO d   1       5.141   2.351  -9.016  0.00  0.00     0.218 N 
ATOM     57  HZ1 PRO d   1       5.549   1.418  -9.060  0.00  0.00     0.199 HD
ATOM     58  HZ2 PRO d   1       5.700   2.992  -9.576  0.00  0.00     0.199 HD
ATOM     59  HZ3 PRO d   1       5.140   2.671  -8.041  0.00  0.00     0.199 HD
ENDBRANCH  53  56
ENDBRANCH  50  53
ENDBRANCH  47  50
ENDBRANCH  44  47
ENDBRANCH   6  44
TORSDOF 12
ENDMDL
MODEL 5
REMARK VINA RESULT:      -6.5      3.323      5.335
REMARK  7 active torsions:
REMARK  status: ('A' for Active; 'I' for Inactive)
REMARK    1  A    between atoms: CG_4  and  CB_7 
REMARK    2  A    between atoms: CB_7  and  CA_8 
REMARK       I    between atoms: CA_8  and  C_10 
REMARK       I    between atoms: CA_8  and  N_21 
REMARK       I    between atoms: C_10  and  N_12 
REMARK       I    between atoms: N_12  and  CA_13 
REMARK    3  A    between atoms: CA_13  and  CB_15 
REMARK       I    between atoms: CA_13  and  C_19 
REMARK    4  A    between atoms: CB_15  and  CG_16 
REMARK    5  A    between atoms: CG_16  and  CD_17 
REMARK    6  A    between atoms: CD_17  and  CE_18 
REMARK    7  A    between atoms: CE_18  and  NZ_54 
REMARK       I    between atoms: N_21  and  C_22 
REMARK       I    between atoms: C_22  and  CA_24 
ROOT
ATOM      1  CA  PRO d   1       6.667  -2.523  -4.657  0.00  0.00     0.103 C 
ATOM      2  HA  PRO d   1       5.611  -2.788  -4.694  0.00  0.00     0.060 H 
ATOM      3  C   PRO d   1       7.034  -1.752  -5.899  0.00  0.00     0.234 C 
ATOM      4  O   PRO d   1       8.096  -1.957  -6.448  0.00  0.00    -0.274 OA
ATOM      5  N   PRO d   1       6.183  -0.835  -6.399  0.00  0.00    -0.306 N 
ATOM      6  CA  PRO d   1       6.540  -0.086  -7.607  0.00  0.00     0.063 C 
ATOM      7  HA  PRO d   1       7.109  -0.729  -8.279  0.00  0.00     0.056 H 
ATOM      8  C   PRO d   1       7.376   1.109  -7.228  0.00  0.00     0.062 C 
ATOM      9  O   PRO d   1       7.646   1.314  -6.068  0.00  0.00    -0.548 OA
ATOM     10  N   PRO d   1       7.475  -3.742  -4.582  0.00  0.00    -0.299 N 
ATOM     11  C   PRO d   1       8.820  -3.658  -4.528  0.00  0.00     0.262 C 
ATOM     12  O   PRO d   1       9.360  -2.572  -4.540  0.00  0.00    -0.270 OA
ATOM     13  CA  PRO d   1       9.651  -4.912  -4.449  0.00  0.00     0.055 C 
ATOM     14  HA  PRO d   1       9.233  -5.674  -5.108  0.00  0.00     0.095 H 
ATOM     15  CB  PRO d   1       9.685  -5.430  -2.997  0.00  0.00     0.004 C 
ATOM     16  CG  PRO d   1      11.143  -5.937  -2.842  0.00  0.00    -0.007 C 
ATOM     17  CD  PRO d   1      11.925  -4.906  -3.693  0.00  0.00    -0.033 C 
ATOM     18  H   PRO d   1       5.334  -0.670  -5.961  0.00  0.00     0.149 HD
ATOM     19  H   PRO d   1       7.043  -4.611  -4.571  0.00  0.00     0.150 HD
ATOM     20  HB1 PRO d   1       9.481  -4.623  -2.294  0.00  0.00     0.033 H 
ATOM     21  HB2 PRO d   1       8.977  -6.248  -2.862  0.00  0.00     0.033 H 
ATOM     22  HG1 PRO d   1      11.252  -6.943  -3.247  0.00  0.00     0.032 H 
ATOM     23  HG2 PRO d   1      11.460  -5.903  -1.799  0.00  0.00     0.032 H 
ATOM     24  HD1 PRO d   1      12.867  -5.335  -4.037  0.00  0.00     0.081 H 
ATOM     25  HD2 PRO d   1      12.110  -3.999  -3.118  0.00  0.00     0.081 H 
ATOM     26  OXT PRO d   1       7.822   1.946  -8.179  0.00  0.00    -0.548 OA
ATOM     27  N   PRO d   1      11.039  -4.619  -4.836  0.00  0.00     0.236 N 
ATOM     28  H1  PRO d   1      11.123  -3.630  -5.097  0.00  0.00     0.202 HD
ATOM     29  H2  PRO d   1      11.306  -5.207  -5.635  0.00  0.00     0.202 HD
ENDROOT
BRANCH   1  30
ATOM     30  CB  PRO d   1       6.934  -1.657  -3.423  0.00  0.00    -0.001 C 
ATOM     31  HB1 PRO d   1       7.293  -2.286  -2.609  0.00  0.00     0.034 H 
ATOM     32  HB2 PRO d   1       7.686  -0.906  -3.661  0.00  0.00     0.034 H 
BRANCH  30  33
ATOM     33  CG  PRO d   1       5.657  -0.974  -3.004  0.00  0.00    -0.045 A 
ATOM     34  CD1 PRO d   1       5.664   0.374  -2.695  0.00  0.00    -0.059 A 
ATOM     35  CE1 PRO d   1       4.493   1.000  -2.311  0.00  0.00    -0.061 A 
ATOM     36  HD1 PRO d   1       6.583   0.936  -2.754  0.00  0.00     0.062 H 
ATOM     37  CZ  PRO d   1       3.316   0.280  -2.235  0.00  0.00    -0.062 A 
ATOM     38  HE1 PRO d   1       4.499   2.053  -2.071  0.00  0.00     0.062 H 
ATOM     39  CE2 PRO d   1       3.310  -1.068  -2.545  0.00  0.00    -0.061 A 
ATOM     40  HZ  PRO d   1       2.401   0.770  -1.937  0.00  0.00     0.062 H 
ATOM     41  CD2 PRO d   1       4.479  -1.694  -2.933  0.00  0.00    -0.059 A 
ATOM     42  HE2 PRO d   1       2.389  -1.630  -2.486  0.00  0.00     0.062 H 
ATOM     43  HD2 PRO d   1       4.473  -2.745  -3.178  0.00  0.00     0.062 H 
ENDBRANCH  30  33
ENDBRANCH   1  30
BRANCH   6  44
ATOM     44  CB  PRO d   1       5.266   0.386  -8.311  0.00  0.00    -0.029 C 
ATOM     45  HB1 PRO d   1       5.395   0.304  -9.390  0.00  0.00     0.029 H 
ATOM     46  HB2 PRO d   1       5.069   1.425  -8.045  0.00  0.00     0.029 H 
BRANCH  44  47
ATOM     47  CG  PRO d   1       4.088  -0.485  -7.870  0.00  0.00    -0.046 C 
ATOM     48  HG1 PRO d   1       4.400  -1.130  -7.049  0.00  0.00     0.027 H 
ATOM     49  HG2 PRO d   1       3.757  -1.099  -8.707  0.00  0.00     0.027 H 
BRANCH  47  50
ATOM     50  CD  PRO d   1       2.937   0.410  -7.406  0.00  0.00    -0.013 C 
ATOM     51  HD1 PRO d   1       2.014   0.095  -7.893  0.00  0.00     0.032 H 
ATOM     52  HD2 PRO d   1       3.152   1.445  -7.671  0.00  0.00     0.032 H 
BRANCH  50  53
ATOM     53  CE  PRO d   1       2.779   0.293  -5.889  0.00  0.00    -0.035 C 
ATOM     54  HE1 PRO d   1       1.931  -0.352  -5.661  0.00  0.00     0.081 H 
ATOM     55  HE2 PRO d   1       3.686  -0.133  -5.461  0.00  0.00     0.081 H 
BRANCH  53  56
ATOM     56  NZ  PRO d   1       2.525   1.632  -5.329  0.00  0.00     0.218 N 
ATOM     57  HZ1 PRO d   1       2.940   2.345  -5.927  0.00  0.00     0.199 HD
ATOM     58  HZ2 PRO d   1       1.523   1.794  -5.252  0.00  0.00     0.199 HD
ATOM     59  HZ3 PRO d   1       2.946   1.692  -4.394  0.00  0.00     0.199 HD
ENDBRANCH  53  56
ENDBRANCH  50  53
ENDBRANCH  47  50
ENDBRANCH  44  47
ENDBRANCH   6  44
TORSDOF 12
ENDMDL
MODEL 6
REMARK VINA RESULT:      -6.3      2.353      7.282
REMARK  7 active torsions:
REMARK  status: ('A' for Active; 'I' for Inactive)
REMARK    1  A    between atoms: CG_4  and  CB_7 
REMARK    2  A    between atoms: CB_7  and  CA_8 
REMARK       I    between atoms: CA_8  and  C_10 
REMARK       I    between atoms: CA_8  and  N_21 
REMARK       I    between atoms: C_10  and  N_12 
REMARK       I    between atoms: N_12  and  CA_13 
REMARK    3  A    between atoms: CA_13  and  CB_15 
REMARK       I    between atoms: CA_13  and  C_19 
REMARK    4  A    between atoms: CB_15  and  CG_16 
REMARK    5  A    between atoms: CG_16  and  CD_17 
REMARK    6  A    between atoms: CD_17  and  CE_18 
REMARK    7  A    between atoms: CE_18  and  NZ_54 
REMARK       I    between atoms: N_21  and  C_22 
REMARK       I    between atoms: C_22  and  CA_24 
ROOT
ATOM      1  CA  PRO d   1       7.373   1.577  -4.741  0.00  0.00     0.103 C 
ATOM      2  HA  PRO d   1       6.600   2.328  -4.574  0.00  0.00     0.060 H 
ATOM      3  C   PRO d   1       8.698   2.262  -4.956  0.00  0.00     0.234 C 
ATOM      4  O   PRO d   1       9.467   1.845  -5.796  0.00  0.00    -0.274 OA
ATOM      5  N   PRO d   1       9.029   3.337  -4.214  0.00  0.00    -0.306 N 
ATOM      6  CA  PRO d   1      10.318   4.003  -4.423  0.00  0.00     0.063 C 
ATOM      7  HA  PRO d   1      10.579   3.966  -5.481  0.00  0.00     0.056 H 
ATOM      8  C   PRO d   1      11.382   3.301  -3.619  0.00  0.00     0.062 C 
ATOM      9  O   PRO d   1      11.093   2.344  -2.941  0.00  0.00    -0.548 OA
ATOM     10  N   PRO d   1       7.036   0.784  -5.926  0.00  0.00    -0.299 N 
ATOM     11  C   PRO d   1       7.855  -0.210  -6.326  0.00  0.00     0.262 C 
ATOM     12  O   PRO d   1       8.870  -0.446  -5.706  0.00  0.00    -0.270 OA
ATOM     13  CA  PRO d   1       7.508  -1.027  -7.543  0.00  0.00     0.055 C 
ATOM     14  HA  PRO d   1       7.105  -0.379  -8.322  0.00  0.00     0.095 H 
ATOM     15  CB  PRO d   1       6.474  -2.111  -7.172  0.00  0.00     0.004 C 
ATOM     16  CG  PRO d   1       6.934  -3.333  -8.010  0.00  0.00    -0.007 C 
ATOM     17  CD  PRO d   1       8.474  -3.179  -7.970  0.00  0.00    -0.033 C 
ATOM     18  H   PRO d   1       8.415   3.671  -3.542  0.00  0.00     0.149 HD
ATOM     19  H   PRO d   1       6.224   0.972  -6.421  0.00  0.00     0.150 HD
ATOM     20  HB1 PRO d   1       6.518  -2.336  -6.106  0.00  0.00     0.033 H 
ATOM     21  HB2 PRO d   1       5.470  -1.802  -7.461  0.00  0.00     0.033 H 
ATOM     22  HG1 PRO d   1       6.560  -3.268  -9.032  0.00  0.00     0.032 H 
ATOM     23  HG2 PRO d   1       6.623  -4.267  -7.542  0.00  0.00     0.032 H 
ATOM     24  HD1 PRO d   1       8.928  -3.679  -8.826  0.00  0.00     0.081 H 
ATOM     25  HD2 PRO d   1       8.874  -3.584  -7.040  0.00  0.00     0.081 H 
ATOM     26  OXT PRO d   1      12.650   3.740  -3.656  0.00  0.00    -0.548 OA
ATOM     27  N   PRO d   1       8.705  -1.723  -8.038  0.00  0.00     0.236 N 
ATOM     28  H1  PRO d   1       9.513  -1.475  -7.457  0.00  0.00     0.202 HD
ATOM     29  H2  PRO d   1       8.886  -1.450  -9.011  0.00  0.00     0.202 HD
ENDROOT
BRANCH   1  30
ATOM     30  CB  PRO d   1       7.465   0.659  -3.520  0.00  0.00    -0.001 C 
ATOM     31  HB1 PRO d   1       8.035  -0.232  -3.779  0.00  0.00     0.034 H 
ATOM     32  HB2 PRO d   1       7.963   1.186  -2.707  0.00  0.00     0.034 H 
BRANCH  30  33
ATOM     33  CG  PRO d   1       6.078   0.261  -3.085  0.00  0.00    -0.045 A 
ATOM     34  CD1 PRO d   1       5.710  -1.071  -3.086  0.00  0.00    -0.059 A 
ATOM     35  CE1 PRO d   1       4.437  -1.436  -2.687  0.00  0.00    -0.061 A 
ATOM     36  HD1 PRO d   1       6.415  -1.826  -3.398  0.00  0.00     0.062 H 
ATOM     37  CZ  PRO d   1       3.534  -0.469  -2.288  0.00  0.00    -0.062 A 
ATOM     38  HE1 PRO d   1       4.150  -2.477  -2.687  0.00  0.00     0.062 H 
ATOM     39  CE2 PRO d   1       3.903   0.863  -2.287  0.00  0.00    -0.061 A 
ATOM     40  HZ  PRO d   1       2.540  -0.755  -1.975  0.00  0.00     0.062 H 
ATOM     41  CD2 PRO d   1       5.177   1.228  -2.682  0.00  0.00    -0.059 A 
ATOM     42  HE2 PRO d   1       3.197   1.619  -1.975  0.00  0.00     0.062 H 
ATOM     43  HD2 PRO d   1       5.466   2.269  -2.677  0.00  0.00     0.062 H 
ENDBRANCH  30  33
ENDBRANCH   1  30
BRANCH   6  44
ATOM     44  CB  PRO d   1      10.217   5.462  -3.973  0.00  0.00    -0.029 C 
ATOM     45  HB1 PRO d   1       9.423   5.961  -4.528  0.00  0.00     0.029 H 
ATOM     46  HB2 PRO d   1      11.166   5.966  -4.163  0.00  0.00     0.029 H 
BRANCH  44  47
ATOM     47  CG  PRO d   1       9.903   5.513  -2.476  0.00  0.00    -0.046 C 
ATOM     48  HG1 PRO d   1      10.132   4.548  -2.024  0.00  0.00     0.027 H 
ATOM     49  HG2 PRO d   1       8.847   5.739  -2.335  0.00  0.00     0.027 H 
BRANCH  47  50
ATOM     50  CD  PRO d   1      10.751   6.601  -1.814  0.00  0.00    -0.013 C 
ATOM     51  HD1 PRO d   1      10.117   7.222  -1.182  0.00  0.00     0.032 H 
ATOM     52  HD2 PRO d   1      11.214   7.220  -2.583  0.00  0.00     0.032 H 
BRANCH  50  53
ATOM     53  CE  PRO d   1      11.841   5.949  -0.960  0.00  0.00    -0.035 C 
ATOM     54  HE1 PRO d   1      12.774   5.919  -1.523  0.00  0.00     0.081 H 
ATOM     55  HE2 PRO d   1      11.985   6.531  -0.049  0.00  0.00     0.081 H 
BRANCH  53  56
ATOM     56  NZ  PRO d   1      11.435   4.572  -0.633  0.00  0.00     0.218 N 
ATOM     57  HZ1 PRO d   1      10.470   4.415  -0.918  0.00  0.00     0.199 HD
ATOM     58  HZ2 PRO d   1      12.041   3.906  -1.109  0.00  0.00     0.199 HD
ATOM     59  HZ3 PRO d   1      11.512   4.428   0.381  0.00  0.00     0.199 HD
ENDBRANCH  53  56
ENDBRANCH  50  53
ENDBRANCH  47  50
ENDBRANCH  44  47
ENDBRANCH   6  44
TORSDOF 12
ENDMDL
MODEL 7
REMARK VINA RESULT:      -6.2      3.546      5.511
REMARK  7 active torsions:
REMARK  status: ('A' for Active; 'I' for Inactive)
REMARK    1  A    between atoms: CG_4  and  CB_7 
REMARK    2  A    between atoms: CB_7  and  CA_8 
REMARK       I    between atoms: CA_8  and  C_10 
REMARK       I    between atoms: CA_8  and  N_21 
REMARK       I    between atoms: C_10  and  N_12 
REMARK       I    between atoms: N_12  and  CA_13 
REMARK    3  A    between atoms: CA_13  and  CB_15 
REMARK       I    between atoms: CA_13  and  C_19 
REMARK    4  A    between atoms: CB_15  and  CG_16 
REMARK    5  A    between atoms: CG_16  and  CD_17 
REMARK    6  A    between atoms: CD_17  and  CE_18 
REMARK    7  A    between atoms: CE_18  and  NZ_54 
REMARK       I    between atoms: N_21  and  C_22 
REMARK       I    between atoms: C_22  and  CA_24 
ROOT
ATOM      1  CA  PRO d   1       6.678  -0.334  -5.887  0.00  0.00     0.103 C 
ATOM      2  HA  PRO d   1       7.111   0.203  -5.043  0.00  0.00     0.060 H 
ATOM      3  C   PRO d   1       7.628  -1.415  -6.335  0.00  0.00     0.234 C 
ATOM      4  O   PRO d   1       7.783  -1.632  -7.518  0.00  0.00    -0.274 OA
ATOM      5  N   PRO d   1       8.304  -2.139  -5.422  0.00  0.00    -0.306 N 
ATOM      6  CA  PRO d   1       9.227  -3.190  -5.859  0.00  0.00     0.063 C 
ATOM      7  HA  PRO d   1       9.715  -2.884  -6.785  0.00  0.00     0.056 H 
ATOM      8  C   PRO d   1       8.462  -4.467  -6.092  0.00  0.00     0.062 C 
ATOM      9  O   PRO d   1       7.268  -4.496  -5.912  0.00  0.00    -0.548 OA
ATOM     10  N   PRO d   1       6.442   0.599  -6.991  0.00  0.00    -0.299 N 
ATOM     11  C   PRO d   1       5.908   0.154  -8.146  0.00  0.00     0.262 C 
ATOM     12  O   PRO d   1       5.622  -1.018  -8.271  0.00  0.00    -0.270 OA
ATOM     13  CA  PRO d   1       5.665   1.114  -9.282  0.00  0.00     0.055 C 
ATOM     14  HA  PRO d   1       6.500   1.811  -9.363  0.00  0.00     0.095 H 
ATOM     15  CB  PRO d   1       4.352   1.889  -9.044  0.00  0.00     0.004 C 
ATOM     16  CG  PRO d   1       3.742   1.989 -10.467  0.00  0.00    -0.007 C 
ATOM     17  CD  PRO d   1       4.157   0.628 -11.080  0.00  0.00    -0.033 C 
ATOM     18  H   PRO d   1       8.180  -1.966  -4.476  0.00  0.00     0.149 HD
ATOM     19  H   PRO d   1       6.670   1.536  -6.892  0.00  0.00     0.150 HD
ATOM     20  HB1 PRO d   1       3.691   1.333  -8.380  0.00  0.00     0.033 H 
ATOM     21  HB2 PRO d   1       4.558   2.882  -8.643  0.00  0.00     0.033 H 
ATOM     22  HG1 PRO d   1       4.180   2.818 -11.022  0.00  0.00     0.032 H 
ATOM     23  HG2 PRO d   1       2.657   2.082 -10.421  0.00  0.00     0.032 H 
ATOM     24  HD1 PRO d   1       4.186   0.696 -12.168  0.00  0.00     0.081 H 
ATOM     25  HD2 PRO d   1       3.467  -0.157 -10.769  0.00  0.00     0.081 H 
ATOM     26  OXT PRO d   1       9.107  -5.571  -6.500  0.00  0.00    -0.548 OA
ATOM     27  N   PRO d   1       5.505   0.372 -10.541  0.00  0.00     0.236 N 
ATOM     28  H1  PRO d   1       5.621  -0.633 -10.366  0.00  0.00     0.202 HD
ATOM     29  H2  PRO d   1       6.211   0.684 -11.219  0.00  0.00     0.202 HD
ENDROOT
BRANCH   1  30
ATOM     30  CB  PRO d   1       5.351  -0.967  -5.461  0.00  0.00    -0.001 C 
ATOM     31  HB1 PRO d   1       4.619  -0.849  -6.260  0.00  0.00     0.034 H 
ATOM     32  HB2 PRO d   1       5.501  -2.027  -5.260  0.00  0.00     0.034 H 
BRANCH  30  33
ATOM     33  CG  PRO d   1       4.847  -0.286  -4.214  0.00  0.00    -0.045 A 
ATOM     34  CD1 PRO d   1       5.707   0.480  -3.450  0.00  0.00    -0.059 A 
ATOM     35  CE1 PRO d   1       5.244   1.105  -2.307  0.00  0.00    -0.061 A 
ATOM     36  HD1 PRO d   1       6.738   0.592  -3.747  0.00  0.00     0.062 H 
ATOM     37  CZ  PRO d   1       3.924   0.962  -1.927  0.00  0.00    -0.062 A 
ATOM     38  HE1 PRO d   1       5.916   1.704  -1.710  0.00  0.00     0.062 H 
ATOM     39  CE2 PRO d   1       3.064   0.195  -2.691  0.00  0.00    -0.061 A 
ATOM     40  HZ  PRO d   1       3.562   1.451  -1.034  0.00  0.00     0.062 H 
ATOM     41  CD2 PRO d   1       3.524  -0.426  -3.837  0.00  0.00    -0.059 A 
ATOM     42  HE2 PRO d   1       2.031   0.084  -2.394  0.00  0.00     0.062 H 
ATOM     43  HD2 PRO d   1       2.851  -1.021  -4.436  0.00  0.00     0.062 H 
ENDBRANCH  30  33
ENDBRANCH   1  30
BRANCH   6  44
ATOM     44  CB  PRO d   1      10.286  -3.420  -4.778  0.00  0.00    -0.029 C 
ATOM     45  HB1 PRO d   1      10.873  -2.511  -4.643  0.00  0.00     0.029 H 
ATOM     46  HB2 PRO d   1      10.944  -4.235  -5.083  0.00  0.00     0.029 H 
BRANCH  44  47
ATOM     47  CG  PRO d   1       9.599  -3.784  -3.461  0.00  0.00    -0.046 C 
ATOM     48  HG1 PRO d   1       8.632  -4.243  -3.670  0.00  0.00     0.027 H 
ATOM     49  HG2 PRO d   1       9.452  -2.882  -2.867  0.00  0.00     0.027 H 
BRANCH  47  50
ATOM     50  CD  PRO d   1      10.474  -4.769  -2.684  0.00  0.00    -0.013 C 
ATOM     51  HD1 PRO d   1      10.847  -4.289  -1.779  0.00  0.00     0.032 H 
ATOM     52  HD2 PRO d   1      11.316  -5.076  -3.305  0.00  0.00     0.032 H 
BRANCH  50  53
ATOM     53  CE  PRO d   1       9.646  -5.999  -2.305  0.00  0.00    -0.035 C 
ATOM     54  HE1 PRO d   1      10.236  -6.648  -1.658  0.00  0.00     0.081 H 
ATOM     55  HE2 PRO d   1       8.745  -5.682  -1.779  0.00  0.00     0.081 H 
BRANCH  53  56
ATOM     56  NZ  PRO d   1       9.293  -6.737  -3.530  0.00  0.00     0.218 N 
ATOM     57  HZ1 PRO d   1       9.922  -6.476  -4.288  0.00  0.00     0.199 HD
ATOM     58  HZ2 PRO d   1       9.358  -7.739  -3.365  0.00  0.00     0.199 HD
ATOM     59  HZ3 PRO d   1       8.330  -6.504  -3.799  0.00  0.00     0.199 HD
ENDBRANCH  53  56
ENDBRANCH  50  53
ENDBRANCH  47  50
ENDBRANCH  44  47
ENDBRANCH   6  44
TORSDOF 12
ENDMDL
MODEL 8
REMARK VINA RESULT:      -6.2      3.582      5.504
REMARK  7 active torsions:
REMARK  status: ('A' for Active; 'I' for Inactive)
REMARK    1  A    between atoms: CG_4  and  CB_7 
REMARK    2  A    between atoms: CB_7  and  CA_8 
REMARK       I    between atoms: CA_8  and  C_10 
REMARK       I    between atoms: CA_8  and  N_21 
REMARK       I    between atoms: C_10  and  N_12 
REMARK       I    between atoms: N_12  and  CA_13 
REMARK    3  A    between atoms: CA_13  and  CB_15 
REMARK       I    between atoms: CA_13  and  C_19 
REMARK    4  A    between atoms: CB_15  and  CG_16 
REMARK    5  A    between atoms: CG_16  and  CD_17 
REMARK    6  A    between atoms: CD_17  and  CE_18 
REMARK    7  A    between atoms: CE_18  and  NZ_54 
REMARK       I    between atoms: N_21  and  C_22 
REMARK       I    between atoms: C_22  and  CA_24 
ROOT
ATOM      1  CA  PRO d   1       7.507   1.554  -7.555  0.00  0.00     0.103 C 
ATOM      2  HA  PRO d   1       6.902   2.441  -7.367  0.00  0.00     0.060 H 
ATOM      3  C   PRO d   1       7.802   0.861  -6.250  0.00  0.00     0.234 C 
ATOM      4  O   PRO d   1       8.900   0.387  -6.050  0.00  0.00    -0.274 OA
ATOM      5  N   PRO d   1       6.846   0.768  -5.305  0.00  0.00    -0.306 N 
ATOM      6  CA  PRO d   1       7.132   0.094  -4.036  0.00  0.00     0.063 C 
ATOM      7  HA  PRO d   1       8.168   0.282  -3.750  0.00  0.00     0.056 H 
ATOM      8  C   PRO d   1       6.917  -1.389  -4.195  0.00  0.00     0.062 C 
ATOM      9  O   PRO d   1       6.560  -1.837  -5.259  0.00  0.00    -0.548 OA
ATOM     10  N   PRO d   1       8.766   1.947  -8.194  0.00  0.00    -0.299 N 
ATOM     11  C   PRO d   1       9.677   1.010  -8.522  0.00  0.00     0.262 C 
ATOM     12  O   PRO d   1       9.455  -0.159  -8.287  0.00  0.00    -0.270 OA
ATOM     13  CA  PRO d   1      10.971   1.415  -9.180  0.00  0.00     0.055 C 
ATOM     14  HA  PRO d   1      11.349   2.329  -8.721  0.00  0.00     0.095 H 
ATOM     15  CB  PRO d   1      10.745   1.636 -10.690  0.00  0.00     0.004 C 
ATOM     16  CG  PRO d   1      12.040   1.062 -11.324  0.00  0.00    -0.007 C 
ATOM     17  CD  PRO d   1      12.342  -0.135 -10.389  0.00  0.00    -0.033 C 
ATOM     18  H   PRO d   1       5.967   1.146  -5.465  0.00  0.00     0.149 HD
ATOM     19  H   PRO d   1       8.943   2.882  -8.382  0.00  0.00     0.150 HD
ATOM     20  HB1 PRO d   1       9.871   1.084 -11.035  0.00  0.00     0.033 H 
ATOM     21  HB2 PRO d   1      10.645   2.698 -10.913  0.00  0.00     0.033 H 
ATOM     22  HG1 PRO d   1      12.847   1.795 -11.294  0.00  0.00     0.032 H 
ATOM     23  HG2 PRO d   1      11.859   0.725 -12.345  0.00  0.00     0.032 H 
ATOM     24  HD1 PRO d   1      13.403  -0.384 -10.421  0.00  0.00     0.081 H 
ATOM     25  HD2 PRO d   1      11.742  -1.001 -10.672  0.00  0.00     0.081 H 
ATOM     26  OXT PRO d   1       7.121  -2.212  -3.154  0.00  0.00    -0.548 OA
ATOM     27  N   PRO d   1      11.961   0.336  -9.044  0.00  0.00     0.236 N 
ATOM     28  H1  PRO d   1      11.556  -0.439  -8.509  0.00  0.00     0.202 HD
ATOM     29  H2  PRO d   1      12.793   0.690  -8.557  0.00  0.00     0.202 HD
ENDROOT
BRANCH   1  30
ATOM     30  CB  PRO d   1       6.743   0.601  -8.477  0.00  0.00    -0.001 C 
ATOM     31  HB1 PRO d   1       7.209   0.596  -9.461  0.00  0.00     0.034 H 
ATOM     32  HB2 PRO d   1       6.766  -0.405  -8.059  0.00  0.00     0.034 H 
BRANCH  30  33
ATOM     33  CG  PRO d   1       5.313   1.061  -8.600  0.00  0.00    -0.045 A 
ATOM     34  CD1 PRO d   1       4.295   0.311  -8.041  0.00  0.00    -0.059 A 
ATOM     35  CE1 PRO d   1       2.984   0.733  -8.154  0.00  0.00    -0.061 A 
ATOM     36  HD1 PRO d   1       4.525  -0.603  -7.515  0.00  0.00     0.062 H 
ATOM     37  CZ  PRO d   1       2.690   1.904  -8.827  0.00  0.00    -0.062 A 
ATOM     38  HE1 PRO d   1       2.189   0.148  -7.715  0.00  0.00     0.062 H 
ATOM     39  CE2 PRO d   1       3.708   2.654  -9.386  0.00  0.00    -0.061 A 
ATOM     40  HZ  PRO d   1       1.665   2.234  -8.914  0.00  0.00     0.062 H 
ATOM     41  CD2 PRO d   1       5.020   2.234  -9.270  0.00  0.00    -0.059 A 
ATOM     42  HE2 PRO d   1       3.478   3.569  -9.912  0.00  0.00     0.062 H 
ATOM     43  HD2 PRO d   1       5.815   2.822  -9.703  0.00  0.00     0.062 H 
ENDBRANCH  30  33
ENDBRANCH   1  30
BRANCH   6  44
ATOM     44  CB  PRO d   1       6.198   0.632  -2.950  0.00  0.00    -0.029 C 
ATOM     45  HB1 PRO d   1       6.339   1.708  -2.849  0.00  0.00     0.029 H 
ATOM     46  HB2 PRO d   1       6.426   0.144  -2.002  0.00  0.00     0.029 H 
BRANCH  44  47
ATOM     47  CG  PRO d   1       4.747   0.342  -3.337  0.00  0.00    -0.046 C 
ATOM     48  HG1 PRO d   1       4.726  -0.317  -4.205  0.00  0.00     0.027 H 
ATOM     49  HG2 PRO d   1       4.242   1.277  -3.580  0.00  0.00     0.027 H 
BRANCH  47  50
ATOM     50  CD  PRO d   1       4.032  -0.334  -2.166  0.00  0.00    -0.013 C 
ATOM     51  HD1 PRO d   1       3.131   0.227  -1.917  0.00  0.00     0.032 H 
ATOM     52  HD2 PRO d   1       4.694  -0.359  -1.300  0.00  0.00     0.032 H 
BRANCH  50  53
ATOM     53  CE  PRO d   1       3.651  -1.764  -2.557  0.00  0.00    -0.035 C 
ATOM     54  HE1 PRO d   1       4.449  -2.445  -2.265  0.00  0.00     0.081 H 
ATOM     55  HE2 PRO d   1       2.727  -2.045  -2.050  0.00  0.00     0.081 H 
BRANCH  53  56
ATOM     56  NZ  PRO d   1       3.476  -1.831  -4.019  0.00  0.00     0.218 N 
ATOM     57  HZ1 PRO d   1       3.149  -0.934  -4.373  0.00  0.00     0.199 HD
ATOM     58  HZ2 PRO d   1       4.359  -2.071  -4.465  0.00  0.00     0.199 HD
ATOM     59  HZ3 PRO d   1       2.782  -2.553  -4.243  0.00  0.00     0.199 HD
ENDBRANCH  53  56
ENDBRANCH  50  53
ENDBRANCH  47  50
ENDBRANCH  44  47
ENDBRANCH   6  44
TORSDOF 12
ENDMDL
MODEL 9
REMARK VINA RESULT:      -6.1      4.050      7.640
REMARK  7 active torsions:
REMARK  status: ('A' for Active; 'I' for Inactive)
REMARK    1  A    between atoms: CG_4  and  CB_7 
REMARK    2  A    between atoms: CB_7  and  CA_8 
REMARK       I    between atoms: CA_8  and  C_10 
REMARK       I    between atoms: CA_8  and  N_21 
REMARK       I    between atoms: C_10  and  N_12 
REMARK       I    between atoms: N_12  and  CA_13 
REMARK    3  A    between atoms: CA_13  and  CB_15 
REMARK       I    between atoms: CA_13  and  C_19 
REMARK    4  A    between atoms: CB_15  and  CG_16 
REMARK    5  A    between atoms: CG_16  and  CD_17 
REMARK    6  A    between atoms: CD_17  and  CE_18 
REMARK    7  A    between atoms: CE_18  and  NZ_54 
REMARK       I    between atoms: N_21  and  C_22 
REMARK       I    between atoms: C_22  and  CA_24 
ROOT
ATOM      1  CA  PRO d   1       9.371   6.363  -3.684  0.00  0.00     0.103 C 
ATOM      2  HA  PRO d   1       8.453   6.306  -4.269  0.00  0.00     0.060 H 
ATOM      3  C   PRO d   1       9.758   4.981  -3.222  0.00  0.00     0.234 C 
ATOM      4  O   PRO d   1      10.195   4.817  -2.103  0.00  0.00    -0.274 OA
ATOM      5  N   PRO d   1       9.617   3.929  -4.053  0.00  0.00    -0.306 N 
ATOM      6  CA  PRO d   1       9.993   2.587  -3.604  0.00  0.00     0.063 C 
ATOM      7  HA  PRO d   1       9.766   2.481  -2.543  0.00  0.00     0.056 H 
ATOM      8  C   PRO d   1      11.470   2.378  -3.823  0.00  0.00     0.062 C 
ATOM      9  O   PRO d   1      12.139   3.261  -4.305  0.00  0.00    -0.548 OA
ATOM     10  N   PRO d   1       9.155   7.224  -2.519  0.00  0.00    -0.299 N 
ATOM     11  C   PRO d   1      10.160   7.442  -1.646  0.00  0.00     0.262 C 
ATOM     12  O   PRO d   1      11.242   6.924  -1.826  0.00  0.00    -0.270 OA
ATOM     13  CA  PRO d   1       9.938   8.329  -0.449  0.00  0.00     0.055 C 
ATOM     14  HA  PRO d   1       8.952   8.139  -0.025  0.00  0.00     0.095 H 
ATOM     15  CB  PRO d   1      10.058   9.811  -0.863  0.00  0.00     0.004 C 
ATOM     16  CG  PRO d   1      10.784  10.454   0.349  0.00  0.00    -0.007 C 
ATOM     17  CD  PRO d   1      11.747   9.317   0.775  0.00  0.00    -0.033 C 
ATOM     18  H   PRO d   1       9.268   4.061  -4.948  0.00  0.00     0.149 HD
ATOM     19  H   PRO d   1       8.290   7.639  -2.375  0.00  0.00     0.150 HD
ATOM     20  HB1 PRO d   1      10.656   9.911  -1.768  0.00  0.00     0.033 H 
ATOM     21  HB2 PRO d   1       9.072  10.254  -1.000  0.00  0.00     0.033 H 
ATOM     22  HG1 PRO d   1      10.080  10.690   1.145  0.00  0.00     0.032 H 
ATOM     23  HG2 PRO d   1      11.339  11.342   0.045  0.00  0.00     0.032 H 
ATOM     24  HD1 PRO d   1      12.016   9.424   1.826  0.00  0.00     0.081 H 
ATOM     25  HD2 PRO d   1      12.642   9.322   0.153  0.00  0.00     0.081 H 
ATOM     26  OXT PRO d   1      12.042   1.213  -3.483  0.00  0.00    -0.548 OA
ATOM     27  N   PRO d   1      10.977   8.077   0.561  0.00  0.00     0.236 N 
ATOM     28  H1  PRO d   1      11.605   7.335   0.232  0.00  0.00     0.202 HD
ATOM     29  H2  PRO d   1      10.538   7.789   1.443  0.00  0.00     0.202 HD
ENDROOT
BRANCH   1  30
ATOM     30  CB  PRO d   1      10.492   6.944  -4.548  0.00  0.00    -0.001 C 
ATOM     31  HB1 PRO d   1      10.799   7.908  -4.145  0.00  0.00     0.034 H 
ATOM     32  HB2 PRO d   1      11.342   6.262  -4.548  0.00  0.00     0.034 H 
BRANCH  30  33
ATOM     33  CG  PRO d   1       9.995   7.125  -5.960  0.00  0.00    -0.045 A 
ATOM     34  CD1 PRO d   1      10.114   6.093  -6.872  0.00  0.00    -0.059 A 
ATOM     35  CE1 PRO d   1       9.658   6.260  -8.166  0.00  0.00    -0.061 A 
ATOM     36  HD1 PRO d   1      10.562   5.158  -6.573  0.00  0.00     0.062 H 
ATOM     37  CZ  PRO d   1       9.085   7.457  -8.549  0.00  0.00    -0.062 A 
ATOM     38  HE1 PRO d   1       9.750   5.453  -8.878  0.00  0.00     0.062 H 
ATOM     39  CE2 PRO d   1       8.966   8.489  -7.636  0.00  0.00    -0.061 A 
ATOM     40  HZ  PRO d   1       8.727   7.587  -9.560  0.00  0.00     0.062 H 
ATOM     41  CD2 PRO d   1       9.417   8.322  -6.340  0.00  0.00    -0.059 A 
ATOM     42  HE2 PRO d   1       8.517   9.425  -7.936  0.00  0.00     0.062 H 
ATOM     43  HD2 PRO d   1       9.321   9.127  -5.627  0.00  0.00     0.062 H 
ENDBRANCH  30  33
ENDBRANCH   1  30
BRANCH   6  44
ATOM     44  CB  PRO d   1       9.207   1.543  -4.400  0.00  0.00    -0.029 C 
ATOM     45  HB1 PRO d   1       9.622   0.553  -4.211  0.00  0.00     0.029 H 
ATOM     46  HB2 PRO d   1       9.279   1.770  -5.465  0.00  0.00     0.029 H 
BRANCH  44  47
ATOM     47  CG  PRO d   1       7.740   1.573  -3.970  0.00  0.00    -0.046 C 
ATOM     48  HG1 PRO d   1       7.144   2.059  -4.743  0.00  0.00     0.027 H 
ATOM     49  HG2 PRO d   1       7.646   2.128  -3.037  0.00  0.00     0.027 H 
BRANCH  47  50
ATOM     50  CD  PRO d   1       7.239   0.142  -3.765  0.00  0.00    -0.013 C 
ATOM     51  HD1 PRO d   1       7.964  -0.415  -3.170  0.00  0.00     0.032 H 
ATOM     52  HD2 PRO d   1       7.116  -0.343  -4.733  0.00  0.00     0.032 H 
BRANCH  50  53
ATOM     53  CE  PRO d   1       5.894   0.171  -3.035  0.00  0.00    -0.035 C 
ATOM     54  HE1 PRO d   1       5.202  -0.514  -3.523  0.00  0.00     0.081 H 
ATOM     55  HE2 PRO d   1       6.038  -0.134  -1.998  0.00  0.00     0.081 H 
BRANCH  53  56
ATOM     56  NZ  PRO d   1       5.343   1.535  -3.099  0.00  0.00     0.218 N 
ATOM     57  HZ1 PRO d   1       5.928   2.121  -3.693  0.00  0.00     0.199 HD
ATOM     58  HZ2 PRO d   1       4.396   1.512  -3.473  0.00  0.00     0.199 HD
ATOM     59  HZ3 PRO d   1       5.319   1.935  -2.154  0.00  0.00     0.199 HD
ENDBRANCH  53  56
ENDBRANCH  50  53
ENDBRANCH  47  50
ENDBRANCH  44  47
ENDBRANCH   6  44
TORSDOF 12
ENDMDL
MODEL 10
REMARK VINA RESULT:      -6.1      1.310      2.039
REMARK  7 active torsions:
REMARK  status: ('A' for Active; 'I' for Inactive)
REMARK    1  A    between atoms: CG_4  and  CB_7 
REMARK    2  A    between atoms: CB_7  and  CA_8 
REMARK       I    between atoms: CA_8  and  C_10 
REMARK       I    between atoms: CA_8  and  N_21 
REMARK       I    between atoms: C_10  and  N_12 
REMARK       I    between atoms: N_12  and  CA_13 
REMARK    3  A    between atoms: CA_13  and  CB_15 
REMARK       I    between atoms: CA_13  and  C_19 
REMARK    4  A    between atoms: CB_15  and  CG_16 
REMARK    5  A    between atoms: CG_16  and  CD_17 
REMARK    6  A    between atoms: CD_17  and  CE_18 
REMARK    7  A    between atoms: CE_18  and  NZ_54 
REMARK       I    between atoms: N_21  and  C_22 
REMARK       I    between atoms: C_22  and  CA_24 
ROOT
ATOM      1  CA  PRO d   1       7.375   0.260  -3.952  0.00  0.00     0.103 C 
ATOM      2  HA  PRO d   1       7.442  -0.706  -3.451  0.00  0.00     0.060 H 
ATOM      3  C   PRO d   1       7.093   0.047  -5.417  0.00  0.00     0.234 C 
ATOM      4  O   PRO d   1       7.644   0.739  -6.247  0.00  0.00    -0.274 OA
ATOM      5  N   PRO d   1       6.230  -0.912  -5.804  0.00  0.00    -0.306 N 
ATOM      6  CA  PRO d   1       5.956  -1.120  -7.228  0.00  0.00     0.063 C 
ATOM      7  HA  PRO d   1       6.863  -0.935  -7.804  0.00  0.00     0.056 H 
ATOM      8  C   PRO d   1       4.875  -0.169  -7.676  0.00  0.00     0.062 C 
ATOM      9  O   PRO d   1       4.385   0.603  -6.885  0.00  0.00    -0.548 OA
ATOM     10  N   PRO d   1       8.642   0.979  -3.798  0.00  0.00    -0.299 N 
ATOM     11  C   PRO d   1       8.792   2.204  -4.340  0.00  0.00     0.262 C 
ATOM     12  O   PRO d   1       7.877   2.711  -4.955  0.00  0.00    -0.270 OA
ATOM     13  CA  PRO d   1      10.095   2.945  -4.181  0.00  0.00     0.055 C 
ATOM     14  HA  PRO d   1      10.930   2.253  -4.294  0.00  0.00     0.095 H 
ATOM     15  CB  PRO d   1      10.150   3.618  -2.794  0.00  0.00     0.004 C 
ATOM     16  CG  PRO d   1      10.844   4.974  -3.092  0.00  0.00    -0.007 C 
ATOM     17  CD  PRO d   1      10.277   5.314  -4.492  0.00  0.00    -0.033 C 
ATOM     18  H   PRO d   1       5.789  -1.466  -5.140  0.00  0.00     0.149 HD
ATOM     19  H   PRO d   1       9.374   0.574  -3.306  0.00  0.00     0.150 HD
ATOM     20  HB1 PRO d   1       9.146   3.778  -2.402  0.00  0.00     0.033 H 
ATOM     21  HB2 PRO d   1      10.746   3.025  -2.101  0.00  0.00     0.033 H 
ATOM     22  HG1 PRO d   1      11.927   4.858  -3.126  0.00  0.00     0.032 H 
ATOM     23  HG2 PRO d   1      10.557   5.729  -2.360  0.00  0.00     0.032 H 
ATOM     24  HD1 PRO d   1      10.953   5.986  -5.022  0.00  0.00     0.081 H 
ATOM     25  HD2 PRO d   1       9.289   5.766  -4.404  0.00  0.00     0.081 H 
ATOM     26  OXT PRO d   1       4.458  -0.178  -8.951  0.00  0.00    -0.548 OA
ATOM     27  N   PRO d   1      10.189   4.015  -5.185  0.00  0.00     0.236 N 
ATOM     28  H1  PRO d   1       9.357   4.000  -5.784  0.00  0.00     0.202 HD
ATOM     29  H2  PRO d   1      11.028   3.875  -5.761  0.00  0.00     0.202 HD
ENDROOT
BRANCH   1  30
ATOM     30  CB  PRO d   1       6.244   1.080  -3.329  0.00  0.00    -0.001 C 
ATOM     31  HB1 PRO d   1       6.578   1.499  -2.380  0.00  0.00     0.034 H 
ATOM     32  HB2 PRO d   1       5.966   1.889  -4.005  0.00  0.00     0.034 H 
BRANCH  30  33
ATOM     33  CG  PRO d   1       5.050   0.191  -3.093  0.00  0.00    -0.045 A 
ATOM     34  CD1 PRO d   1       5.210  -1.026  -2.458  0.00  0.00    -0.059 A 
ATOM     35  CE1 PRO d   1       4.114  -1.842  -2.242  0.00  0.00    -0.061 A 
ATOM     36  HD1 PRO d   1       6.189  -1.340  -2.131  0.00  0.00     0.062 H 
ATOM     37  CZ  PRO d   1       2.860  -1.440  -2.661  0.00  0.00    -0.062 A 
ATOM     38  HE1 PRO d   1       4.239  -2.793  -1.745  0.00  0.00     0.062 H 
ATOM     39  CE2 PRO d   1       2.701  -0.222  -3.296  0.00  0.00    -0.061 A 
ATOM     40  HZ  PRO d   1       2.004  -2.077  -2.491  0.00  0.00     0.062 H 
ATOM     41  CD2 PRO d   1       3.795   0.596  -3.508  0.00  0.00    -0.059 A 
ATOM     42  HE2 PRO d   1       1.720   0.091  -3.622  0.00  0.00     0.062 H 
ATOM     43  HD2 PRO d   1       3.669   1.548  -4.000  0.00  0.00     0.062 H 
ENDBRANCH  30  33
ENDBRANCH   1  30
BRANCH   6  44
ATOM     44  CB  PRO d   1       5.492  -2.561  -7.455  0.00  0.00    -0.029 C 
ATOM     45  HB1 PRO d   1       4.417  -2.574  -7.631  0.00  0.00     0.029 H 
ATOM     46  HB2 PRO d   1       5.724  -3.159  -6.573  0.00  0.00     0.029 H 
BRANCH  44  47
ATOM     47  CG  PRO d   1       6.215  -3.143  -8.671  0.00  0.00    -0.046 C 
ATOM     48  HG1 PRO d   1       5.600  -3.005  -9.560  0.00  0.00     0.027 H 
ATOM     49  HG2 PRO d   1       6.392  -4.206  -8.513  0.00  0.00     0.027 H 
BRANCH  47  50
ATOM     50  CD  PRO d   1       7.553  -2.425  -8.861  0.00  0.00    -0.013 C 
ATOM     51  HD1 PRO d   1       8.361  -3.062  -8.500  0.00  0.00     0.032 H 
ATOM     52  HD2 PRO d   1       7.548  -1.491  -8.298  0.00  0.00     0.032 H 
BRANCH  50  53
ATOM     53  CE  PRO d   1       7.765  -2.124 -10.346  0.00  0.00    -0.035 C 
ATOM     54  HE1 PRO d   1       8.749  -1.678 -10.489  0.00  0.00     0.081 H 
ATOM     55  HE2 PRO d   1       7.699  -3.051 -10.917  0.00  0.00     0.081 H 
BRANCH  53  56
ATOM     56  NZ  PRO d   1       6.737  -1.169 -10.794  0.00  0.00     0.218 N 
ATOM     57  HZ1 PRO d   1       7.093  -0.609 -11.566  0.00  0.00     0.199 HD
ATOM     58  HZ2 PRO d   1       5.903  -1.670 -11.095  0.00  0.00     0.199 HD
ATOM     59  HZ3 PRO d   1       6.491  -0.548 -10.015  0.00  0.00     0.199 HD
ENDBRANCH  53  56
ENDBRANCH  50  53
ENDBRANCH  47  50
ENDBRANCH  44  47
ENDBRANCH   6  44
TORSDOF 12
ENDMDL
