MODEL 1
REMARK VINA RESULT:      -6.4      0.000      0.000
REMARK  7 active torsions:
REMARK  status: ('A' for Active; 'I' for Inactive)
REMARK    1  A    between atoms: C_1  and  C_2 
REMARK    2  A    between atoms: C_2  and  C_3 
REMARK    3  A    between atoms: C_2  and  C_4 
REMARK    4  A    between atoms: C_14  and  C_21 
REMARK    5  A    between atoms: C_18  and  C_19 
REMARK    6  A    between atoms: C_18  and  C_20 
REMARK    7  A    between atoms: C_20  and  N_52 
ROOT
ATOM      1  C   LIG d   1       3.495  -0.174  -3.946  0.00  0.00    -0.044 A 
ATOM      2  C   LIG d   1       2.644   0.705  -4.591  0.00  0.00    -0.058 A 
ATOM      3  C   LIG d   1       2.599   0.726  -5.970  0.00  0.00    -0.058 A 
ATOM      4  C   LIG d   1       3.401  -0.128  -6.714  0.00  0.00    -0.038 A 
ATOM      5  C   LIG d   1       4.253  -0.999  -6.074  0.00  0.00    -0.043 A 
ATOM      6  C   LIG d   1       4.294  -1.022  -4.685  0.00  0.00    -0.055 A 
ATOM      7  C   LIG d   1       5.161  -1.946  -6.814  0.00  0.00    -0.027 C 
ATOM      8  C   LIG d   1       4.728  -2.086  -8.273  0.00  0.00    -0.045 C 
ATOM      9  C   LIG d   1       4.534  -0.683  -8.851  0.00  0.00    -0.021 C 
ATOM     10  H   LIG d   1       5.401  -0.074  -8.599  0.00  0.00     0.032 H 
ATOM     11  C   LIG d   1       3.293  -0.061  -8.219  0.00  0.00    -0.003 C 
ATOM     12  C   LIG d   1       2.043  -0.835  -8.647  0.00  0.00    -0.043 C 
ATOM     13  C   LIG d   1       1.923  -0.861 -10.157  0.00  0.00    -0.052 C 
ATOM     14  C   LIG d   1       3.155  -1.547 -10.752  0.00  0.00    -0.043 C 
ATOM     15  C   LIG d   1       4.404  -0.753 -10.367  0.00  0.00     0.011 C 
ATOM     16  H   LIG d   1       2.019   1.374  -4.018  0.00  0.00     0.062 H 
ATOM     17  H   LIG d   1       1.933   1.412  -6.474  0.00  0.00     0.062 H 
ATOM     18  H   LIG d   1       4.957  -1.708  -4.180  0.00  0.00     0.062 H 
ATOM     19  H   LIG d   1       5.128  -2.924  -6.335  0.00  0.00     0.031 H 
ATOM     20  H   LIG d   1       6.182  -1.563  -6.778  0.00  0.00     0.031 H 
ATOM     21  H   LIG d   1       3.791  -2.638  -8.327  0.00  0.00     0.027 H 
ATOM     22  H   LIG d   1       5.498  -2.612  -8.837  0.00  0.00     0.027 H 
ATOM     23  H   LIG d   1       2.114  -1.863  -8.290  0.00  0.00     0.027 H 
ATOM     24  H   LIG d   1       1.159  -0.363  -8.217  0.00  0.00     0.027 H 
ATOM     25  H   LIG d   1       1.861   0.162 -10.528  0.00  0.00     0.027 H 
ATOM     26  H   LIG d   1       1.026  -1.408 -10.446  0.00  0.00     0.027 H 
ATOM     27  H   LIG d   1       3.065  -1.581 -11.839  0.00  0.00     0.027 H 
ATOM     28  H   LIG d   1       3.232  -2.562 -10.360  0.00  0.00     0.027 H 
ENDROOT
BRANCH  15  29
ATOM     29  C   LIG d   1       5.639  -1.440 -10.951  0.00  0.00    -0.054 C 
ATOM     30  H   LIG d   1       5.387  -1.885 -11.913  0.00  0.00     0.024 H 
ATOM     31  H   LIG d   1       6.433  -0.707 -11.088  0.00  0.00     0.024 H 
ATOM     32  H   LIG d   1       5.978  -2.219 -10.268  0.00  0.00     0.024 H 
ENDBRANCH  15  29
BRANCH  15  33
ATOM     33  C   LIG d   1       4.297   0.665 -10.932  0.00  0.00    -0.030 C 
ATOM     34  H   LIG d   1       3.366   1.121 -10.597  0.00  0.00     0.082 H 
ATOM     35  H   LIG d   1       5.140   1.261 -10.582  0.00  0.00     0.082 H 
BRANCH  33  36
ATOM     36  N   LIG d   1       4.293   0.596 -12.404  0.00  0.00     0.219 N 
ATOM     37  H   LIG d   1       4.867   1.344 -12.790  0.00  0.00     0.199 HD
ATOM     38  H   LIG d   1       4.655  -0.304 -12.713  0.00  0.00     0.199 HD
ATOM     39  H   LIG d   1       3.329   0.703 -12.744  0.00  0.00     0.199 HD
ENDBRANCH  33  36
ENDBRANCH  15  33
BRANCH  11  40
ATOM     40  C   LIG d   1       3.172   1.399  -8.659  0.00  0.00    -0.055 C 
ATOM     41  H   LIG d   1       2.137   1.612  -8.930  0.00  0.00     0.024 H 
ATOM     42  H   LIG d   1       3.476   2.052  -7.841  0.00  0.00     0.024 H 
ATOM     43  H   LIG d   1       3.816   1.573  -9.521  0.00  0.00     0.024 H 
ENDBRANCH  11  40
BRANCH   1  44
ATOM     44  C   LIG d   1       3.553  -0.201  -2.441  0.00  0.00    -0.021 C 
ATOM     45  H   LIG d   1       2.540  -0.208  -2.039  0.00  0.00     0.034 H 
BRANCH  44  46
ATOM     46  C   LIG d   1       4.293  -1.458  -1.981  0.00  0.00    -0.059 C 
ATOM     47  H   LIG d   1       4.972  -1.203  -1.168  0.00  0.00     0.024 H 
ATOM     48  H   LIG d   1       3.572  -2.197  -1.635  0.00  0.00     0.024 H 
ATOM     49  H   LIG d   1       4.863  -1.869  -2.814  0.00  0.00     0.024 H 
ENDBRANCH  44  46
BRANCH  44  50
ATOM     50  C   LIG d   1       4.293   1.040  -1.937  0.00  0.00    -0.059 C 
ATOM     51  H   LIG d   1       4.771   0.815  -0.983  0.00  0.00     0.024 H 
ATOM     52  H   LIG d   1       5.051   1.332  -2.663  0.00  0.00     0.024 H 
ATOM     53  H   LIG d   1       3.583   1.856  -1.804  0.00  0.00     0.024 H 
ENDBRANCH  44  50
ENDBRANCH   1  44
TORSDOF 7
ENDMDL
MODEL 2
REMARK VINA RESULT:      -6.4      2.355      6.508
REMARK  7 active torsions:
REMARK  status: ('A' for Active; 'I' for Inactive)
REMARK    1  A    between atoms: C_1  and  C_2 
REMARK    2  A    between atoms: C_2  and  C_3 
REMARK    3  A    between atoms: C_2  and  C_4 
REMARK    4  A    between atoms: C_14  and  C_21 
REMARK    5  A    between atoms: C_18  and  C_19 
REMARK    6  A    between atoms: C_18  and  C_20 
REMARK    7  A    between atoms: C_20  and  N_52 
ROOT
ATOM      1  C   LIG d   1       2.904  -0.629  -9.151  0.00  0.00    -0.044 A 
ATOM      2  C   LIG d   1       4.081  -1.339  -8.995  0.00  0.00    -0.058 A 
ATOM      3  C   LIG d   1       4.666  -1.427  -7.749  0.00  0.00    -0.058 A 
ATOM      4  C   LIG d   1       4.084  -0.808  -6.652  0.00  0.00    -0.038 A 
ATOM      5  C   LIG d   1       2.917  -0.096  -6.806  0.00  0.00    -0.043 A 
ATOM      6  C   LIG d   1       2.326  -0.012  -8.062  0.00  0.00    -0.055 A 
ATOM      7  C   LIG d   1       2.234   0.613  -5.665  0.00  0.00    -0.027 C 
ATOM      8  C   LIG d   1       2.762   0.113  -4.321  0.00  0.00    -0.045 C 
ATOM      9  C   LIG d   1       4.291   0.141  -4.368  0.00  0.00    -0.021 C 
ATOM     10  H   LIG d   1       4.615   1.107  -4.752  0.00  0.00     0.032 H 
ATOM     11  C   LIG d   1       4.771  -0.954  -5.315  0.00  0.00    -0.003 C 
ATOM     12  C   LIG d   1       4.425  -2.331  -4.742  0.00  0.00    -0.043 C 
ATOM     13  C   LIG d   1       5.033  -2.505  -3.365  0.00  0.00    -0.052 C 
ATOM     14  C   LIG d   1       4.480  -1.429  -2.428  0.00  0.00    -0.043 C 
ATOM     15  C   LIG d   1       4.863  -0.050  -2.969  0.00  0.00     0.011 C 
ATOM     16  H   LIG d   1       4.540  -1.821  -9.845  0.00  0.00     0.062 H 
ATOM     17  H   LIG d   1       5.585  -1.983  -7.626  0.00  0.00     0.062 H 
ATOM     18  H   LIG d   1       1.407   0.541  -8.185  0.00  0.00     0.062 H 
ATOM     19  H   LIG d   1       1.161   0.430  -5.719  0.00  0.00     0.031 H 
ATOM     20  H   LIG d   1       2.419   1.685  -5.747  0.00  0.00     0.031 H 
ATOM     21  H   LIG d   1       2.419  -0.906  -4.147  0.00  0.00     0.027 H 
ATOM     22  H   LIG d   1       2.408   0.763  -3.521  0.00  0.00     0.027 H 
ATOM     23  H   LIG d   1       3.342  -2.425  -4.655  0.00  0.00     0.027 H 
ATOM     24  H   LIG d   1       4.802  -3.106  -5.410  0.00  0.00     0.027 H 
ATOM     25  H   LIG d   1       6.116  -2.405  -3.438  0.00  0.00     0.027 H 
ATOM     26  H   LIG d   1       4.784  -3.492  -2.975  0.00  0.00     0.027 H 
ATOM     27  H   LIG d   1       4.905  -1.560  -1.432  0.00  0.00     0.027 H 
ATOM     28  H   LIG d   1       3.394  -1.512  -2.376  0.00  0.00     0.027 H 
ENDROOT
BRANCH  15  29
ATOM     29  C   LIG d   1       4.305   1.029  -2.040  0.00  0.00    -0.054 C 
ATOM     30  H   LIG d   1       3.829   1.809  -2.634  0.00  0.00     0.024 H 
ATOM     31  H   LIG d   1       3.571   0.586  -1.368  0.00  0.00     0.024 H 
ATOM     32  H   LIG d   1       5.117   1.462  -1.457  0.00  0.00     0.024 H 
ENDBRANCH  15  29
BRANCH  15  33
ATOM     33  C   LIG d   1       6.387   0.067  -3.025  0.00  0.00    -0.030 C 
ATOM     34  H   LIG d   1       6.806  -0.161  -2.044  0.00  0.00     0.082 H 
ATOM     35  H   LIG d   1       6.780  -0.637  -3.759  0.00  0.00     0.082 H 
BRANCH  33  36
ATOM     36  N   LIG d   1       6.751   1.447  -3.391  0.00  0.00     0.219 N 
ATOM     37  H   LIG d   1       6.436   2.094  -2.671  0.00  0.00     0.199 HD
ATOM     38  H   LIG d   1       7.761   1.526  -3.500  0.00  0.00     0.199 HD
ATOM     39  H   LIG d   1       6.299   1.690  -4.281  0.00  0.00     0.199 HD
ENDBRANCH  33  36
ENDBRANCH  15  33
BRANCH  11  40
ATOM     40  C   LIG d   1       6.286  -0.840  -5.503  0.00  0.00    -0.055 C 
ATOM     41  H   LIG d   1       6.511   0.031  -6.120  0.00  0.00     0.024 H 
ATOM     42  H   LIG d   1       6.765  -0.729  -4.530  0.00  0.00     0.024 H 
ATOM     43  H   LIG d   1       6.660  -1.739  -5.992  0.00  0.00     0.024 H 
ENDBRANCH  11  40
BRANCH   1  44
ATOM     44  C   LIG d   1       2.260  -0.526 -10.509  0.00  0.00    -0.021 C 
ATOM     45  H   LIG d   1       1.599   0.341 -10.531  0.00  0.00     0.034 H 
BRANCH  44  46
ATOM     46  C   LIG d   1       3.343  -0.367 -11.577  0.00  0.00    -0.059 C 
ATOM     47  H   LIG d   1       2.875  -0.294 -12.559  0.00  0.00     0.024 H 
ATOM     48  H   LIG d   1       3.918   0.536 -11.380  0.00  0.00     0.024 H 
ATOM     49  H   LIG d   1       4.005  -1.233 -11.555  0.00  0.00     0.024 H 
ENDBRANCH  44  46
BRANCH  44  50
ATOM     50  C   LIG d   1       1.449  -1.793 -10.787  0.00  0.00    -0.059 C 
ATOM     51  H   LIG d   1       0.565  -1.805 -10.150  0.00  0.00     0.024 H 
ATOM     52  H   LIG d   1       1.145  -1.809 -11.833  0.00  0.00     0.024 H 
ATOM     53  H   LIG d   1       2.063  -2.669 -10.573  0.00  0.00     0.024 H 
ENDBRANCH  44  50
ENDBRANCH   1  44
TORSDOF 7
ENDMDL
MODEL 3
REMARK VINA RESULT:      -5.9      1.555      3.062
REMARK  7 active torsions:
REMARK  status: ('A' for Active; 'I' for Inactive)
REMARK    1  A    between atoms: C_1  and  C_2 
REMARK    2  A    between atoms: C_2  and  C_3 
REMARK    3  A    between atoms: C_2  and  C_4 
REMARK    4  A    between atoms: C_14  and  C_21 
REMARK    5  A    between atoms: C_18  and  C_19 
REMARK    6  A    between atoms: C_18  and  C_20 
REMARK    7  A    between atoms: C_20  and  N_52 
ROOT
ATOM      1  C   LIG d   1       4.798  -0.824  -4.099  0.00  0.00    -0.044 A 
ATOM      2  C   LIG d   1       5.347  -1.950  -4.685  0.00  0.00    -0.058 A 
ATOM      3  C   LIG d   1       5.051  -2.252  -5.997  0.00  0.00    -0.058 A 
ATOM      4  C   LIG d   1       4.205  -1.436  -6.734  0.00  0.00    -0.038 A 
ATOM      5  C   LIG d   1       3.653  -0.317  -6.152  0.00  0.00    -0.043 A 
ATOM      6  C   LIG d   1       3.957  -0.012  -4.830  0.00  0.00    -0.055 A 
ATOM      7  C   LIG d   1       2.717   0.609  -6.884  0.00  0.00    -0.027 C 
ATOM      8  C   LIG d   1       2.794   0.377  -8.393  0.00  0.00    -0.045 C 
ATOM      9  C   LIG d   1       2.662  -1.125  -8.653  0.00  0.00    -0.021 C 
ATOM     10  H   LIG d   1       1.813  -1.508  -8.088  0.00  0.00     0.032 H 
ATOM     11  C   LIG d   1       3.932  -1.818  -8.170  0.00  0.00    -0.003 C 
ATOM     12  C   LIG d   1       5.126  -1.379  -9.022  0.00  0.00    -0.043 C 
ATOM     13  C   LIG d   1       4.874  -1.676 -10.486  0.00  0.00    -0.052 C 
ATOM     14  C   LIG d   1       3.631  -0.914 -10.952  0.00  0.00    -0.043 C 
ATOM     15  C   LIG d   1       2.424  -1.382 -10.136  0.00  0.00     0.011 C 
ATOM     16  H   LIG d   1       6.004  -2.591  -4.116  0.00  0.00     0.062 H 
ATOM     17  H   LIG d   1       5.480  -3.132  -6.455  0.00  0.00     0.062 H 
ATOM     18  H   LIG d   1       3.530   0.867  -4.372  0.00  0.00     0.062 H 
ATOM     19  H   LIG d   1       2.990   1.641  -6.667  0.00  0.00     0.031 H 
ATOM     20  H   LIG d   1       1.696   0.428  -6.545  0.00  0.00     0.031 H 
ATOM     21  H   LIG d   1       3.751   0.732  -8.772  0.00  0.00     0.027 H 
ATOM     22  H   LIG d   1       1.982   0.908  -8.889  0.00  0.00     0.027 H 
ATOM     23  H   LIG d   1       5.275  -0.305  -8.909  0.00  0.00     0.027 H 
ATOM     24  H   LIG d   1       6.021  -1.905  -8.689  0.00  0.00     0.027 H 
ATOM     25  H   LIG d   1       4.714  -2.746 -10.611  0.00  0.00     0.027 H 
ATOM     26  H   LIG d   1       5.735  -1.365 -11.078  0.00  0.00     0.027 H 
ATOM     27  H   LIG d   1       3.455  -1.114 -12.009  0.00  0.00     0.027 H 
ATOM     28  H   LIG d   1       3.780   0.155 -10.801  0.00  0.00     0.027 H 
ENDROOT
BRANCH  15  29
ATOM     29  C   LIG d   1       1.180  -0.617 -10.591  0.00  0.00    -0.054 C 
ATOM     30  H   LIG d   1       0.832   0.024  -9.782  0.00  0.00     0.024 H 
ATOM     31  H   LIG d   1       1.427  -0.005 -11.458  0.00  0.00     0.024 H 
ATOM     32  H   LIG d   1       0.396  -1.325 -10.857  0.00  0.00     0.024 H 
ENDBRANCH  15  29
BRANCH  15  33
ATOM     33  C   LIG d   1       2.210  -2.880 -10.362  0.00  0.00    -0.030 C 
ATOM     34  H   LIG d   1       2.550  -3.150 -11.362  0.00  0.00     0.082 H 
ATOM     35  H   LIG d   1       2.776  -3.445  -9.621  0.00  0.00     0.082 H 
BRANCH  33  36
ATOM     36  N   LIG d   1       0.772  -3.182 -10.249  0.00  0.00     0.219 N 
ATOM     37  H   LIG d   1       0.491  -3.827 -10.985  0.00  0.00     0.199 HD
ATOM     38  H   LIG d   1       0.572  -3.597  -9.340  0.00  0.00     0.199 HD
ATOM     39  H   LIG d   1       0.236  -2.311 -10.343  0.00  0.00     0.199 HD
ENDBRANCH  33  36
ENDBRANCH  15  33
BRANCH  11  40
ATOM     40  C   LIG d   1       3.756  -3.335  -8.271  0.00  0.00    -0.055 C 
ATOM     41  H   LIG d   1       3.719  -3.764  -7.269  0.00  0.00     0.024 H 
ATOM     42  H   LIG d   1       2.828  -3.559  -8.797  0.00  0.00     0.024 H 
ATOM     43  H   LIG d   1       4.596  -3.762  -8.819  0.00  0.00     0.024 H 
ENDBRANCH  11  40
BRANCH   1  44
ATOM     44  C   LIG d   1       5.115  -0.488  -2.665  0.00  0.00    -0.021 C 
ATOM     45  H   LIG d   1       6.192  -0.544  -2.509  0.00  0.00     0.034 H 
BRANCH  44  46
ATOM     46  C   LIG d   1       4.627   0.928  -2.353  0.00  0.00    -0.059 C 
ATOM     47  H   LIG d   1       5.478   1.608  -2.335  0.00  0.00     0.024 H 
ATOM     48  H   LIG d   1       3.924   1.247  -3.121  0.00  0.00     0.024 H 
ATOM     49  H   LIG d   1       4.134   0.937  -1.381  0.00  0.00     0.024 H 
ENDBRANCH  44  46
BRANCH  44  50
ATOM     50  C   LIG d   1       4.413  -1.485  -1.741  0.00  0.00    -0.059 C 
ATOM     51  H   LIG d   1       5.157  -2.018  -1.149  0.00  0.00     0.024 H 
ATOM     52  H   LIG d   1       3.734  -0.951  -1.077  0.00  0.00     0.024 H 
ATOM     53  H   LIG d   1       3.847  -2.199  -2.341  0.00  0.00     0.024 H 
ENDBRANCH  44  50
ENDBRANCH   1  44
TORSDOF 7
ENDMDL
MODEL 4
REMARK VINA RESULT:      -5.6      5.311      6.544
REMARK  7 active torsions:
REMARK  status: ('A' for Active; 'I' for Inactive)
REMARK    1  A    between atoms: C_1  and  C_2 
REMARK    2  A    between atoms: C_2  and  C_3 
REMARK    3  A    between atoms: C_2  and  C_4 
REMARK    4  A    between atoms: C_14  and  C_21 
REMARK    5  A    between atoms: C_18  and  C_19 
REMARK    6  A    between atoms: C_18  and  C_20 
REMARK    7  A    between atoms: C_20  and  N_52 
ROOT
ATOM      1  C   LIG d   1       5.099  -0.357  -2.886  0.00  0.00    -0.044 A 
ATOM      2  C   LIG d   1       5.327   1.004  -2.812  0.00  0.00    -0.058 A 
ATOM      3  C   LIG d   1       6.487   1.534  -3.338  0.00  0.00    -0.058 A 
ATOM      4  C   LIG d   1       7.428   0.709  -3.939  0.00  0.00    -0.038 A 
ATOM      5  C   LIG d   1       7.207  -0.647  -4.009  0.00  0.00    -0.043 A 
ATOM      6  C   LIG d   1       6.034  -1.178  -3.482  0.00  0.00    -0.055 A 
ATOM      7  C   LIG d   1       8.186  -1.604  -4.634  0.00  0.00    -0.027 C 
ATOM      8  C   LIG d   1       9.202  -0.856  -5.497  0.00  0.00    -0.045 C 
ATOM      9  C   LIG d   1       9.764   0.305  -4.675  0.00  0.00    -0.021 C 
ATOM     10  H   LIG d   1      10.054  -0.064  -3.693  0.00  0.00     0.032 H 
ATOM     11  C   LIG d   1       8.670   1.356  -4.504  0.00  0.00    -0.003 C 
ATOM     12  C   LIG d   1       8.319   1.973  -5.861  0.00  0.00    -0.043 C 
ATOM     13  C   LIG d   1       9.549   2.575  -6.507  0.00  0.00    -0.052 C 
ATOM     14  C   LIG d   1      10.598   1.482  -6.721  0.00  0.00    -0.043 C 
ATOM     15  C   LIG d   1      10.988   0.892  -5.364  0.00  0.00     0.011 C 
ATOM     16  H   LIG d   1       4.600   1.650  -2.343  0.00  0.00     0.062 H 
ATOM     17  H   LIG d   1       6.665   2.598  -3.281  0.00  0.00     0.062 H 
ATOM     18  H   LIG d   1       5.855  -2.241  -3.540  0.00  0.00     0.062 H 
ATOM     19  H   LIG d   1       7.646  -2.318  -5.255  0.00  0.00     0.031 H 
ATOM     20  H   LIG d   1       8.714  -2.144  -3.846  0.00  0.00     0.031 H 
ATOM     21  H   LIG d   1       8.713  -0.471  -6.391  0.00  0.00     0.027 H 
ATOM     22  H   LIG d   1      10.011  -1.529  -5.781  0.00  0.00     0.027 H 
ATOM     23  H   LIG d   1       7.928   1.197  -6.520  0.00  0.00     0.027 H 
ATOM     24  H   LIG d   1       7.562   2.745  -5.722  0.00  0.00     0.027 H 
ATOM     25  H   LIG d   1       9.955   3.347  -5.853  0.00  0.00     0.027 H 
ATOM     26  H   LIG d   1       9.282   3.017  -7.468  0.00  0.00     0.027 H 
ATOM     27  H   LIG d   1      11.479   1.909  -7.200  0.00  0.00     0.027 H 
ATOM     28  H   LIG d   1      10.183   0.696  -7.354  0.00  0.00     0.027 H 
ENDROOT
BRANCH  15  29
ATOM     29  C   LIG d   1      12.030  -0.209  -5.573  0.00  0.00    -0.054 C 
ATOM     30  H   LIG d   1      12.843   0.173  -6.189  0.00  0.00     0.024 H 
ATOM     31  H   LIG d   1      12.422  -0.526  -4.608  0.00  0.00     0.024 H 
ATOM     32  H   LIG d   1      11.564  -1.058  -6.073  0.00  0.00     0.024 H 
ENDBRANCH  15  29
BRANCH  15  33
ATOM     33  C   LIG d   1      11.584   1.994  -4.486  0.00  0.00    -0.030 C 
ATOM     34  H   LIG d   1      12.153   2.687  -5.107  0.00  0.00     0.082 H 
ATOM     35  H   LIG d   1      10.781   2.533  -3.983  0.00  0.00     0.082 H 
BRANCH  33  36
ATOM     36  N   LIG d   1      12.491   1.384  -3.498  0.00  0.00     0.219 N 
ATOM     37  H   LIG d   1      13.300   1.983  -3.348  0.00  0.00     0.199 HD
ATOM     38  H   LIG d   1      12.002   1.246  -2.614  0.00  0.00     0.199 HD
ATOM     39  H   LIG d   1      12.808   0.472  -3.849  0.00  0.00     0.199 HD
ENDBRANCH  33  36
ENDBRANCH  15  33
BRANCH  11  40
ATOM     40  C   LIG d   1       9.157   2.450  -3.551  0.00  0.00    -0.055 C 
ATOM     41  H   LIG d   1      10.246   2.507  -3.589  0.00  0.00     0.024 H 
ATOM     42  H   LIG d   1       8.732   3.408  -3.849  0.00  0.00     0.024 H 
ATOM     43  H   LIG d   1       8.841   2.212  -2.535  0.00  0.00     0.024 H 
ENDBRANCH  11  40
BRANCH   1  44
ATOM     44  C   LIG d   1       3.836  -0.944  -2.312  0.00  0.00    -0.021 C 
ATOM     45  H   LIG d   1       3.730  -0.631  -1.273  0.00  0.00     0.034 H 
BRANCH  44  46
ATOM     46  C   LIG d   1       2.632  -0.452  -3.118  0.00  0.00    -0.059 C 
ATOM     47  H   LIG d   1       1.837  -0.153  -2.435  0.00  0.00     0.024 H 
ATOM     48  H   LIG d   1       2.928   0.400  -3.728  0.00  0.00     0.024 H 
ATOM     49  H   LIG d   1       2.274  -1.254  -3.763  0.00  0.00     0.024 H 
ENDBRANCH  44  46
BRANCH  44  50
ATOM     50  C   LIG d   1       3.906  -2.471  -2.380  0.00  0.00    -0.059 C 
ATOM     51  H   LIG d   1       3.512  -2.894  -1.456  0.00  0.00     0.024 H 
ATOM     52  H   LIG d   1       3.315  -2.825  -3.224  0.00  0.00     0.024 H 
ATOM     53  H   LIG d   1       4.944  -2.781  -2.508  0.00  0.00     0.024 H 
ENDBRANCH  44  50
ENDBRANCH   1  44
TORSDOF 7
ENDMDL
MODEL 5
REMARK VINA RESULT:      -5.3      3.469      6.520
REMARK  7 active torsions:
REMARK  status: ('A' for Active; 'I' for Inactive)
REMARK    1  A    between atoms: C_1  and  C_2 
REMARK    2  A    between atoms: C_2  and  C_3 
REMARK    3  A    between atoms: C_2  and  C_4 
REMARK    4  A    between atoms: C_14  and  C_21 
REMARK    5  A    between atoms: C_18  and  C_19 
REMARK    6  A    between atoms: C_18  and  C_20 
REMARK    7  A    between atoms: C_20  and  N_52 
ROOT
ATOM      1  C   LIG d   1       8.500  -3.602  -5.797  0.00  0.00    -0.044 A 
ATOM      2  C   LIG d   1       8.597  -3.318  -4.448  0.00  0.00    -0.058 A 
ATOM      3  C   LIG d   1       7.594  -2.605  -3.825  0.00  0.00    -0.058 A 
ATOM      4  C   LIG d   1       6.489  -2.169  -4.543  0.00  0.00    -0.038 A 
ATOM      5  C   LIG d   1       6.393  -2.446  -5.887  0.00  0.00    -0.043 A 
ATOM      6  C   LIG d   1       7.403  -3.169  -6.512  0.00  0.00    -0.055 A 
ATOM      7  C   LIG d   1       5.231  -1.996  -6.733  0.00  0.00    -0.027 C 
ATOM      8  C   LIG d   1       4.051  -1.578  -5.858  0.00  0.00    -0.045 C 
ATOM      9  C   LIG d   1       4.567  -0.618  -4.785  0.00  0.00    -0.021 C 
ATOM     10  H   LIG d   1       5.186   0.143  -5.260  0.00  0.00     0.032 H 
ATOM     11  C   LIG d   1       5.422  -1.404  -3.796  0.00  0.00    -0.003 C 
ATOM     12  C   LIG d   1       4.553  -2.407  -3.034  0.00  0.00    -0.043 C 
ATOM     13  C   LIG d   1       3.420  -1.698  -2.321  0.00  0.00    -0.052 C 
ATOM     14  C   LIG d   1       2.548  -0.973  -3.350  0.00  0.00    -0.043 C 
ATOM     15  C   LIG d   1       3.400   0.064  -4.083  0.00  0.00     0.011 C 
ATOM     16  H   LIG d   1       9.456  -3.651  -3.884  0.00  0.00     0.062 H 
ATOM     17  H   LIG d   1       7.669  -2.383  -2.770  0.00  0.00     0.062 H 
ATOM     18  H   LIG d   1       7.328  -3.392  -7.566  0.00  0.00     0.062 H 
ATOM     19  H   LIG d   1       4.922  -2.814  -7.384  0.00  0.00     0.031 H 
ATOM     20  H   LIG d   1       5.541  -1.148  -7.346  0.00  0.00     0.031 H 
ATOM     21  H   LIG d   1       3.614  -2.457  -5.384  0.00  0.00     0.027 H 
ATOM     22  H   LIG d   1       3.299  -1.077  -6.467  0.00  0.00     0.027 H 
ATOM     23  H   LIG d   1       4.124  -3.122  -3.737  0.00  0.00     0.027 H 
ATOM     24  H   LIG d   1       5.167  -2.940  -2.307  0.00  0.00     0.027 H 
ATOM     25  H   LIG d   1       3.836  -0.974  -1.621  0.00  0.00     0.027 H 
ATOM     26  H   LIG d   1       2.815  -2.424  -1.777  0.00  0.00     0.027 H 
ATOM     27  H   LIG d   1       1.723  -0.474  -2.841  0.00  0.00     0.027 H 
ATOM     28  H   LIG d   1       2.154  -1.694  -4.066  0.00  0.00     0.027 H 
ENDROOT
BRANCH  15  29
ATOM     29  C   LIG d   1       2.535   0.784  -5.120  0.00  0.00    -0.054 C 
ATOM     30  H   LIG d   1       3.157   1.095  -5.959  0.00  0.00     0.024 H 
ATOM     31  H   LIG d   1       1.756   0.111  -5.475  0.00  0.00     0.024 H 
ATOM     32  H   LIG d   1       2.077   1.661  -4.663  0.00  0.00     0.024 H 
ENDBRANCH  15  29
BRANCH  15  33
ATOM     33  C   LIG d   1       3.938   1.081  -3.076  0.00  0.00    -0.030 C 
ATOM     34  H   LIG d   1       3.559   0.846  -2.082  0.00  0.00     0.082 H 
ATOM     35  H   LIG d   1       5.028   1.043  -3.067  0.00  0.00     0.082 H 
BRANCH  33  36
ATOM     36  N   LIG d   1       3.475   2.427  -3.458  0.00  0.00     0.219 N 
ATOM     37  H   LIG d   1       2.775   2.360  -4.194  0.00  0.00     0.199 HD
ATOM     38  H   LIG d   1       3.074   2.901  -2.650  0.00  0.00     0.199 HD
ATOM     39  H   LIG d   1       4.274   2.974  -3.802  0.00  0.00     0.199 HD
ENDBRANCH  33  36
ENDBRANCH  15  33
BRANCH  11  40
ATOM     40  C   LIG d   1       6.081  -0.438  -2.809  0.00  0.00    -0.055 C 
ATOM     41  H   LIG d   1       7.160  -0.436  -2.968  0.00  0.00     0.024 H 
ATOM     42  H   LIG d   1       5.689   0.567  -2.967  0.00  0.00     0.024 H 
ATOM     43  H   LIG d   1       5.864  -0.757  -1.790  0.00  0.00     0.024 H 
ENDBRANCH  11  40
BRANCH   1  44
ATOM     44  C   LIG d   1       9.592  -4.378  -6.486  0.00  0.00    -0.021 C 
ATOM     45  H   LIG d   1      10.362  -3.689  -6.835  0.00  0.00     0.034 H 
BRANCH  44  46
ATOM     46  C   LIG d   1      10.209  -5.374  -5.503  0.00  0.00    -0.059 C 
ATOM     47  H   LIG d   1       9.770  -5.228  -4.516  0.00  0.00     0.024 H 
ATOM     48  H   LIG d   1      10.011  -6.389  -5.843  0.00  0.00     0.024 H 
ATOM     49  H   LIG d   1      11.285  -5.212  -5.449  0.00  0.00     0.024 H 
ENDBRANCH  44  46
BRANCH  44  50
ATOM     50  C   LIG d   1       9.005  -5.134  -7.679  0.00  0.00    -0.059 C 
ATOM     51  H   LIG d   1       9.770  -5.250  -8.448  0.00  0.00     0.024 H 
ATOM     52  H   LIG d   1       8.664  -6.117  -7.355  0.00  0.00     0.024 H 
ATOM     53  H   LIG d   1       8.164  -4.573  -8.086  0.00  0.00     0.024 H 
ENDBRANCH  44  50
ENDBRANCH   1  44
TORSDOF 7
ENDMDL
MODEL 6
REMARK VINA RESULT:      -5.3     10.476     13.076
REMARK  7 active torsions:
REMARK  status: ('A' for Active; 'I' for Inactive)
REMARK    1  A    between atoms: C_1  and  C_2 
REMARK    2  A    between atoms: C_2  and  C_3 
REMARK    3  A    between atoms: C_2  and  C_4 
REMARK    4  A    between atoms: C_14  and  C_21 
REMARK    5  A    between atoms: C_18  and  C_19 
REMARK    6  A    between atoms: C_18  and  C_20 
REMARK    7  A    between atoms: C_20  and  N_52 
ROOT
ATOM      1  C   LIG d   1       5.540  -9.983  -3.598  0.00  0.00    -0.044 A 
ATOM      2  C   LIG d   1       6.428  -9.078  -4.151  0.00  0.00    -0.058 A 
ATOM      3  C   LIG d   1       7.666  -8.894  -3.572  0.00  0.00    -0.058 A 
ATOM      4  C   LIG d   1       8.026  -9.608  -2.438  0.00  0.00    -0.038 A 
ATOM      5  C   LIG d   1       7.143 -10.505  -1.882  0.00  0.00    -0.043 A 
ATOM      6  C   LIG d   1       5.897 -10.693  -2.471  0.00  0.00    -0.055 A 
ATOM      7  C   LIG d   1       7.459 -11.306  -0.647  0.00  0.00    -0.027 C 
ATOM      8  C   LIG d   1       8.959 -11.291  -0.359  0.00  0.00    -0.045 C 
ATOM      9  C   LIG d   1       9.442  -9.841  -0.412  0.00  0.00    -0.021 C 
ATOM     10  H   LIG d   1       8.770  -9.222   0.180  0.00  0.00     0.032 H 
ATOM     11  C   LIG d   1       9.402  -9.366  -1.862  0.00  0.00    -0.003 C 
ATOM     12  C   LIG d   1      10.420 -10.146  -2.698  0.00  0.00    -0.043 C 
ATOM     13  C   LIG d   1      11.812  -9.995  -2.121  0.00  0.00    -0.052 C 
ATOM     14  C   LIG d   1      11.830 -10.539  -0.690  0.00  0.00    -0.043 C 
ATOM     15  C   LIG d   1      10.848  -9.733   0.163  0.00  0.00     0.011 C 
ATOM     16  H   LIG d   1       6.152  -8.518  -5.031  0.00  0.00     0.062 H 
ATOM     17  H   LIG d   1       8.360  -8.188  -4.004  0.00  0.00     0.062 H 
ATOM     18  H   LIG d   1       5.204 -11.400  -2.041  0.00  0.00     0.062 H 
ATOM     19  H   LIG d   1       7.132 -12.335  -0.792  0.00  0.00     0.031 H 
ATOM     20  H   LIG d   1       6.926 -10.878   0.204  0.00  0.00     0.031 H 
ATOM     21  H   LIG d   1       9.484 -11.881  -1.109  0.00  0.00     0.027 H 
ATOM     22  H   LIG d   1       9.149 -11.704   0.632  0.00  0.00     0.027 H 
ATOM     23  H   LIG d   1      10.157 -11.204  -2.692  0.00  0.00     0.027 H 
ATOM     24  H   LIG d   1      10.406  -9.776  -3.723  0.00  0.00     0.027 H 
ATOM     25  H   LIG d   1      12.083  -8.940  -2.113  0.00  0.00     0.027 H 
ATOM     26  H   LIG d   1      12.525 -10.550  -2.730  0.00  0.00     0.027 H 
ATOM     27  H   LIG d   1      12.835 -10.446  -0.276  0.00  0.00     0.027 H 
ATOM     28  H   LIG d   1      11.532 -11.588  -0.695  0.00  0.00     0.027 H 
ENDROOT
BRANCH  15  29
ATOM     29  C   LIG d   1      10.855 -10.280   1.592  0.00  0.00    -0.054 C 
ATOM     30  H   LIG d   1      11.460 -11.185   1.632  0.00  0.00     0.024 H 
ATOM     31  H   LIG d   1      11.275  -9.533   2.265  0.00  0.00     0.024 H 
ATOM     32  H   LIG d   1       9.835 -10.511   1.896  0.00  0.00     0.024 H 
ENDBRANCH  15  29
BRANCH  15  33
ATOM     33  C   LIG d   1      11.279  -8.265   0.179  0.00  0.00    -0.030 C 
ATOM     34  H   LIG d   1      12.340  -8.194  -0.061  0.00  0.00     0.082 H 
ATOM     35  H   LIG d   1      10.702  -7.709  -0.560  0.00  0.00     0.082 H 
BRANCH  33  36
ATOM     36  N   LIG d   1      11.055  -7.713   1.527  0.00  0.00     0.219 N 
ATOM     37  H   LIG d   1      11.936  -7.394   1.925  0.00  0.00     0.199 HD
ATOM     38  H   LIG d   1      10.401  -6.933   1.481  0.00  0.00     0.199 HD
ATOM     39  H   LIG d   1      10.660  -8.445   2.129  0.00  0.00     0.199 HD
ENDBRANCH  33  36
ENDBRANCH  15  33
BRANCH  11  40
ATOM     40  C   LIG d   1       9.724  -7.871  -1.919  0.00  0.00    -0.055 C 
ATOM     41  H   LIG d   1       9.002  -7.368  -2.562  0.00  0.00     0.024 H 
ATOM     42  H   LIG d   1       9.674  -7.449  -0.915  0.00  0.00     0.024 H 
ATOM     43  H   LIG d   1      10.728  -7.732  -2.321  0.00  0.00     0.024 H 
ENDBRANCH  11  40
BRANCH   1  44
ATOM     44  C   LIG d   1       4.184 -10.189  -4.223  0.00  0.00    -0.021 C 
ATOM     45  H   LIG d   1       3.974  -9.371  -4.911  0.00  0.00     0.034 H 
BRANCH  44  46
ATOM     46  C   LIG d   1       4.171 -11.514  -4.988  0.00  0.00    -0.059 C 
ATOM     47  H   LIG d   1       5.191 -11.884  -5.089  0.00  0.00     0.024 H 
ATOM     48  H   LIG d   1       3.572 -12.242  -4.442  0.00  0.00     0.024 H 
ATOM     49  H   LIG d   1       3.742 -11.358  -5.977  0.00  0.00     0.024 H 
ENDBRANCH  44  46
BRANCH  44  50
ATOM     50  C   LIG d   1       3.118 -10.222  -3.127  0.00  0.00    -0.059 C 
ATOM     51  H   LIG d   1       3.556 -10.603  -2.205  0.00  0.00     0.024 H 
ATOM     52  H   LIG d   1       2.738  -9.214  -2.959  0.00  0.00     0.024 H 
ATOM     53  H   LIG d   1       2.299 -10.872  -3.436  0.00  0.00     0.024 H 
ENDBRANCH  44  50
ENDBRANCH   1  44
TORSDOF 7
ENDMDL
MODEL 7
REMARK VINA RESULT:      -5.0      5.204      6.281
REMARK  7 active torsions:
REMARK  status: ('A' for Active; 'I' for Inactive)
REMARK    1  A    between atoms: C_1  and  C_2 
REMARK    2  A    between atoms: C_2  and  C_3 
REMARK    3  A    between atoms: C_2  and  C_4 
REMARK    4  A    between atoms: C_14  and  C_21 
REMARK    5  A    between atoms: C_18  and  C_19 
REMARK    6  A    between atoms: C_18  and  C_20 
REMARK    7  A    between atoms: C_20  and  N_52 
ROOT
ATOM      1  C   LIG d   1       5.662  -0.386  -2.886  0.00  0.00    -0.044 A 
ATOM      2  C   LIG d   1       6.231   0.782  -3.357  0.00  0.00    -0.058 A 
ATOM      3  C   LIG d   1       7.356   0.723  -4.153  0.00  0.00    -0.058 A 
ATOM      4  C   LIG d   1       7.921  -0.501  -4.483  0.00  0.00    -0.038 A 
ATOM      5  C   LIG d   1       7.360  -1.665  -4.010  0.00  0.00    -0.043 A 
ATOM      6  C   LIG d   1       6.223  -1.603  -3.212  0.00  0.00    -0.055 A 
ATOM      7  C   LIG d   1       7.924  -3.027  -4.316  0.00  0.00    -0.027 C 
ATOM      8  C   LIG d   1       8.899  -2.961  -5.491  0.00  0.00    -0.045 C 
ATOM      9  C   LIG d   1       9.885  -1.822  -5.231  0.00  0.00    -0.021 C 
ATOM     10  H   LIG d   1      10.267  -1.909  -4.214  0.00  0.00     0.032 H 
ATOM     11  C   LIG d   1       9.145  -0.494  -5.368  0.00  0.00    -0.003 C 
ATOM     12  C   LIG d   1       8.693  -0.294  -6.817  0.00  0.00    -0.043 C 
ATOM     13  C   LIG d   1       9.878  -0.350  -7.758  0.00  0.00    -0.052 C 
ATOM     14  C   LIG d   1      10.556  -1.716  -7.640  0.00  0.00    -0.043 C 
ATOM     15  C   LIG d   1      11.053  -1.904  -6.205  0.00  0.00     0.011 C 
ATOM     16  H   LIG d   1       5.797   1.738  -3.102  0.00  0.00     0.062 H 
ATOM     17  H   LIG d   1       7.800   1.636  -4.522  0.00  0.00     0.062 H 
ATOM     18  H   LIG d   1       5.778  -2.515  -2.844  0.00  0.00     0.062 H 
ATOM     19  H   LIG d   1       7.109  -3.707  -4.564  0.00  0.00     0.031 H 
ATOM     20  H   LIG d   1       8.448  -3.404  -3.436  0.00  0.00     0.031 H 
ATOM     21  H   LIG d   1       8.351  -2.769  -6.413  0.00  0.00     0.027 H 
ATOM     22  H   LIG d   1       9.441  -3.903  -5.574  0.00  0.00     0.027 H 
ATOM     23  H   LIG d   1       7.997  -1.087  -7.091  0.00  0.00     0.027 H 
ATOM     24  H   LIG d   1       8.195   0.672  -6.910  0.00  0.00     0.027 H 
ATOM     25  H   LIG d   1      10.586   0.434  -7.489  0.00  0.00     0.027 H 
ATOM     26  H   LIG d   1       9.540  -0.198  -8.784  0.00  0.00     0.027 H 
ATOM     27  H   LIG d   1      11.401  -1.765  -8.327  0.00  0.00     0.027 H 
ATOM     28  H   LIG d   1       9.840  -2.502  -7.884  0.00  0.00     0.027 H 
ENDROOT
BRANCH  15  29
ATOM     29  C   LIG d   1      11.723  -3.274  -6.079  0.00  0.00    -0.054 C 
ATOM     30  H   LIG d   1      12.745  -3.147  -5.724  0.00  0.00     0.024 H 
ATOM     31  H   LIG d   1      11.166  -3.887  -5.372  0.00  0.00     0.024 H 
ATOM     32  H   LIG d   1      11.735  -3.762  -7.053  0.00  0.00     0.024 H 
ENDBRANCH  15  29
BRANCH  15  33
ATOM     33  C   LIG d   1      12.068  -0.809  -5.873  0.00  0.00    -0.030 C 
ATOM     34  H   LIG d   1      12.492  -0.413  -6.796  0.00  0.00     0.082 H 
ATOM     35  H   LIG d   1      11.572  -0.006  -5.327  0.00  0.00     0.082 H 
BRANCH  33  36
ATOM     36  N   LIG d   1      13.152  -1.389  -5.061  0.00  0.00     0.219 N 
ATOM     37  H   LIG d   1      13.213  -2.392  -5.224  0.00  0.00     0.199 HD
ATOM     38  H   LIG d   1      14.041  -0.952  -5.299  0.00  0.00     0.199 HD
ATOM     39  H   LIG d   1      12.954  -1.222  -4.066  0.00  0.00     0.199 HD
ENDBRANCH  33  36
ENDBRANCH  15  33
BRANCH  11  40
ATOM     40  C   LIG d   1      10.071   0.652  -4.953  0.00  0.00    -0.055 C 
ATOM     41  H   LIG d   1      10.437   0.475  -3.941  0.00  0.00     0.024 H 
ATOM     42  H   LIG d   1      10.914   0.705  -5.641  0.00  0.00     0.024 H 
ATOM     43  H   LIG d   1       9.519   1.592  -4.981  0.00  0.00     0.024 H 
ENDBRANCH  11  40
BRANCH   1  44
ATOM     44  C   LIG d   1       4.434  -0.330  -2.013  0.00  0.00    -0.021 C 
ATOM     45  H   LIG d   1       4.718  -0.511  -0.977  0.00  0.00     0.034 H 
BRANCH  44  46
ATOM     46  C   LIG d   1       3.787   1.051  -2.131  0.00  0.00    -0.059 C 
ATOM     47  H   LIG d   1       2.964   1.127  -1.421  0.00  0.00     0.024 H 
ATOM     48  H   LIG d   1       4.528   1.819  -1.911  0.00  0.00     0.024 H 
ATOM     49  H   LIG d   1       3.409   1.190  -3.143  0.00  0.00     0.024 H 
ENDBRANCH  44  46
BRANCH  44  50
ATOM     50  C   LIG d   1       3.439  -1.400  -2.465  0.00  0.00    -0.059 C 
ATOM     51  H   LIG d   1       3.483  -2.248  -1.781  0.00  0.00     0.024 H 
ATOM     52  H   LIG d   1       2.432  -0.984  -2.464  0.00  0.00     0.024 H 
ATOM     53  H   LIG d   1       3.695  -1.732  -3.472  0.00  0.00     0.024 H 
ENDBRANCH  44  50
ENDBRANCH   1  44
TORSDOF 7
ENDMDL
MODEL 8
REMARK VINA RESULT:      -4.9      4.660      5.644
REMARK  7 active torsions:
REMARK  status: ('A' for Active; 'I' for Inactive)
REMARK    1  A    between atoms: C_1  and  C_2 
REMARK    2  A    between atoms: C_2  and  C_3 
REMARK    3  A    between atoms: C_2  and  C_4 
REMARK    4  A    between atoms: C_14  and  C_21 
REMARK    5  A    between atoms: C_18  and  C_19 
REMARK    6  A    between atoms: C_18  and  C_20 
REMARK    7  A    between atoms: C_20  and  N_52 
ROOT
ATOM      1  C   LIG d   1       5.703  -0.279  -3.486  0.00  0.00    -0.044 A 
ATOM      2  C   LIG d   1       5.554  -0.789  -4.762  0.00  0.00    -0.058 A 
ATOM      3  C   LIG d   1       6.351  -0.318  -5.784  0.00  0.00    -0.058 A 
ATOM      4  C   LIG d   1       7.300   0.665  -5.542  0.00  0.00    -0.038 A 
ATOM      5  C   LIG d   1       7.446   1.179  -4.274  0.00  0.00    -0.043 A 
ATOM      6  C   LIG d   1       6.645   0.699  -3.244  0.00  0.00    -0.055 A 
ATOM      7  C   LIG d   1       8.445   2.254  -3.938  0.00  0.00    -0.027 C 
ATOM      8  C   LIG d   1       9.492   2.389  -5.043  0.00  0.00    -0.045 C 
ATOM      9  C   LIG d   1       8.762   2.485  -6.383  0.00  0.00    -0.021 C 
ATOM     10  H   LIG d   1       7.964   3.222  -6.300  0.00  0.00     0.032 H 
ATOM     11  C   LIG d   1       8.147   1.127  -6.704  0.00  0.00    -0.003 C 
ATOM     12  C   LIG d   1       9.252   0.093  -6.936  0.00  0.00    -0.043 C 
ATOM     13  C   LIG d   1      10.177   0.542  -8.049  0.00  0.00    -0.052 C 
ATOM     14  C   LIG d   1      10.823   1.875  -7.665  0.00  0.00    -0.043 C 
ATOM     15  C   LIG d   1       9.727   2.925  -7.477  0.00  0.00     0.011 C 
ATOM     16  H   LIG d   1       4.815  -1.552  -4.958  0.00  0.00     0.062 H 
ATOM     17  H   LIG d   1       6.235  -0.718  -6.782  0.00  0.00     0.062 H 
ATOM     18  H   LIG d   1       6.761   1.096  -2.247  0.00  0.00     0.062 H 
ATOM     19  H   LIG d   1       8.943   2.003  -3.001  0.00  0.00     0.031 H 
ATOM     20  H   LIG d   1       7.923   3.205  -3.821  0.00  0.00     0.031 H 
ATOM     21  H   LIG d   1      10.143   1.515  -5.041  0.00  0.00     0.027 H 
ATOM     22  H   LIG d   1      10.084   3.289  -4.882  0.00  0.00     0.027 H 
ATOM     23  H   LIG d   1       9.840  -0.020  -6.025  0.00  0.00     0.027 H 
ATOM     24  H   LIG d   1       8.803  -0.866  -7.197  0.00  0.00     0.027 H 
ATOM     25  H   LIG d   1       9.600   0.667  -8.965  0.00  0.00     0.027 H 
ATOM     26  H   LIG d   1      10.953  -0.207  -8.207  0.00  0.00     0.027 H 
ATOM     27  H   LIG d   1      11.501   2.194  -8.458  0.00  0.00     0.027 H 
ATOM     28  H   LIG d   1      11.379   1.756  -6.734  0.00  0.00     0.027 H 
ENDROOT
BRANCH  15  29
ATOM     29  C   LIG d   1      10.367   4.257  -7.083  0.00  0.00    -0.054 C 
ATOM     30  H   LIG d   1      10.008   4.557  -6.099  0.00  0.00     0.024 H 
ATOM     31  H   LIG d   1      11.451   4.146  -7.056  0.00  0.00     0.024 H 
ATOM     32  H   LIG d   1      10.099   5.019  -7.815  0.00  0.00     0.024 H 
ENDBRANCH  15  29
BRANCH  15  33
ATOM     33  C   LIG d   1       8.961   3.098  -8.790  0.00  0.00    -0.030 C 
ATOM     34  H   LIG d   1       9.528   2.648  -9.604  0.00  0.00     0.082 H 
ATOM     35  H   LIG d   1       7.989   2.611  -8.711  0.00  0.00     0.082 H 
BRANCH  33  36
ATOM     36  N   LIG d   1       8.793   4.536  -9.062  0.00  0.00     0.219 N 
ATOM     37  H   LIG d   1       9.157   5.085  -8.285  0.00  0.00     0.199 HD
ATOM     38  H   LIG d   1       9.286   4.790  -9.917  0.00  0.00     0.199 HD
ATOM     39  H   LIG d   1       7.793   4.743  -9.179  0.00  0.00     0.199 HD
ENDBRANCH  33  36
ENDBRANCH  15  33
BRANCH  11  40
ATOM     40  C   LIG d   1       7.277   1.242  -7.958  0.00  0.00    -0.055 C 
ATOM     41  H   LIG d   1       7.136   0.253  -8.395  0.00  0.00     0.024 H 
ATOM     42  H   LIG d   1       6.308   1.663  -7.690  0.00  0.00     0.024 H 
ATOM     43  H   LIG d   1       7.768   1.893  -8.681  0.00  0.00     0.024 H 
ENDBRANCH  11  40
BRANCH   1  44
ATOM     44  C   LIG d   1       4.834  -0.785  -2.363  0.00  0.00    -0.021 C 
ATOM     45  H   LIG d   1       5.425  -1.426  -1.709  0.00  0.00     0.034 H 
BRANCH  44  46
ATOM     46  C   LIG d   1       4.293   0.400  -1.562  0.00  0.00    -0.059 C 
ATOM     47  H   LIG d   1       5.078   1.147  -1.444  0.00  0.00     0.024 H 
ATOM     48  H   LIG d   1       3.449   0.841  -2.091  0.00  0.00     0.024 H 
ATOM     49  H   LIG d   1       3.968   0.057  -0.580  0.00  0.00     0.024 H 
ENDBRANCH  44  46
BRANCH  44  50
ATOM     50  C   LIG d   1       3.667  -1.585  -2.944  0.00  0.00    -0.059 C 
ATOM     51  H   LIG d   1       2.893  -1.701  -2.185  0.00  0.00     0.024 H 
ATOM     52  H   LIG d   1       3.256  -1.058  -3.804  0.00  0.00     0.024 H 
ATOM     53  H   LIG d   1       4.020  -2.569  -3.255  0.00  0.00     0.024 H 
ENDBRANCH  44  50
ENDBRANCH   1  44
TORSDOF 7
ENDMDL
MODEL 9
REMARK VINA RESULT:      -4.9      4.983      6.686
REMARK  7 active torsions:
REMARK  status: ('A' for Active; 'I' for Inactive)
REMARK    1  A    between atoms: C_1  and  C_2 
REMARK    2  A    between atoms: C_2  and  C_3 
REMARK    3  A    between atoms: C_2  and  C_4 
REMARK    4  A    between atoms: C_14  and  C_21 
REMARK    5  A    between atoms: C_18  and  C_19 
REMARK    6  A    between atoms: C_18  and  C_20 
REMARK    7  A    between atoms: C_20  and  N_52 
ROOT
ATOM      1  C   LIG d   1       9.528   3.477  -5.485  0.00  0.00    -0.044 A 
ATOM      2  C   LIG d   1       9.211   3.267  -4.156  0.00  0.00    -0.058 A 
ATOM      3  C   LIG d   1       8.336   2.258  -3.812  0.00  0.00    -0.058 A 
ATOM      4  C   LIG d   1       7.771   1.453  -4.790  0.00  0.00    -0.038 A 
ATOM      5  C   LIG d   1       8.080   1.663  -6.115  0.00  0.00    -0.043 A 
ATOM      6  C   LIG d   1       8.966   2.678  -6.459  0.00  0.00    -0.055 A 
ATOM      7  C   LIG d   1       7.496   0.838  -7.232  0.00  0.00    -0.027 C 
ATOM      8  C   LIG d   1       6.878  -0.450  -6.690  0.00  0.00    -0.045 C 
ATOM      9  C   LIG d   1       5.964  -0.086  -5.518  0.00  0.00    -0.021 C 
ATOM     10  H   LIG d   1       5.321   0.741  -5.815  0.00  0.00     0.032 H 
ATOM     11  C   LIG d   1       6.830   0.359  -4.344  0.00  0.00    -0.003 C 
ATOM     12  C   LIG d   1       7.666  -0.819  -3.834  0.00  0.00    -0.043 C 
ATOM     13  C   LIG d   1       6.773  -1.976  -3.437  0.00  0.00    -0.052 C 
ATOM     14  C   LIG d   1       5.966  -2.435  -4.654  0.00  0.00    -0.043 C 
ATOM     15  C   LIG d   1       5.093  -1.277  -5.141  0.00  0.00     0.011 C 
ATOM     16  H   LIG d   1       9.646   3.892  -3.390  0.00  0.00     0.062 H 
ATOM     17  H   LIG d   1       8.090   2.093  -2.773  0.00  0.00     0.062 H 
ATOM     18  H   LIG d   1       9.214   2.842  -7.496  0.00  0.00     0.062 H 
ATOM     19  H   LIG d   1       8.283   0.586  -7.942  0.00  0.00     0.031 H 
ATOM     20  H   LIG d   1       6.726   1.419  -7.742  0.00  0.00     0.031 H 
ATOM     21  H   LIG d   1       7.665  -1.121  -6.347  0.00  0.00     0.027 H 
ATOM     22  H   LIG d   1       6.295  -0.936  -7.472  0.00  0.00     0.027 H 
ATOM     23  H   LIG d   1       8.336  -1.156  -4.626  0.00  0.00     0.027 H 
ATOM     24  H   LIG d   1       8.256  -0.499  -2.974  0.00  0.00     0.027 H 
ATOM     25  H   LIG d   1       6.092  -1.648  -2.652  0.00  0.00     0.027 H 
ATOM     26  H   LIG d   1       7.381  -2.802  -3.070  0.00  0.00     0.027 H 
ATOM     27  H   LIG d   1       5.333  -3.278  -4.376  0.00  0.00     0.027 H 
ATOM     28  H   LIG d   1       6.648  -2.737  -5.450  0.00  0.00     0.027 H 
ENDROOT
BRANCH  15  29
ATOM     29  C   LIG d   1       4.293  -1.729  -6.364  0.00  0.00    -0.054 C 
ATOM     30  H   LIG d   1       3.426  -1.082  -6.490  0.00  0.00     0.024 H 
ATOM     31  H   LIG d   1       4.922  -1.670  -7.252  0.00  0.00     0.024 H 
ATOM     32  H   LIG d   1       3.961  -2.757  -6.221  0.00  0.00     0.024 H 
ENDBRANCH  15  29
BRANCH  15  33
ATOM     33  C   LIG d   1       4.129  -0.867  -4.026  0.00  0.00    -0.030 C 
ATOM     34  H   LIG d   1       4.688  -0.689  -3.108  0.00  0.00     0.082 H 
ATOM     35  H   LIG d   1       3.605   0.044  -4.315  0.00  0.00     0.082 H 
BRANCH  33  36
ATOM     36  N   LIG d   1       3.168  -1.960  -3.796  0.00  0.00     0.219 N 
ATOM     37  H   LIG d   1       2.567  -1.736  -3.005  0.00  0.00     0.199 HD
ATOM     38  H   LIG d   1       2.597  -2.105  -4.627  0.00  0.00     0.199 HD
ATOM     39  H   LIG d   1       3.684  -2.825  -3.591  0.00  0.00     0.199 HD
ENDBRANCH  33  36
ENDBRANCH  15  33
BRANCH  11  40
ATOM     40  C   LIG d   1       5.935   0.881  -3.218  0.00  0.00    -0.055 C 
ATOM     41  H   LIG d   1       6.220   0.408  -2.278  0.00  0.00     0.024 H 
ATOM     42  H   LIG d   1       6.053   1.961  -3.131  0.00  0.00     0.024 H 
ATOM     43  H   LIG d   1       4.894   0.646  -3.443  0.00  0.00     0.024 H 
ENDBRANCH  11  40
BRANCH   1  44
ATOM     44  C   LIG d   1      10.480   4.579  -5.870  0.00  0.00    -0.021 C 
ATOM     45  H   LIG d   1      11.490   4.311  -5.559  0.00  0.00     0.034 H 
BRANCH  44  46
ATOM     46  C   LIG d   1      10.450   4.773  -7.388  0.00  0.00    -0.059 C 
ATOM     47  H   LIG d   1      10.220   5.814  -7.615  0.00  0.00     0.024 H 
ATOM     48  H   LIG d   1      11.423   4.516  -7.805  0.00  0.00     0.024 H 
ATOM     49  H   LIG d   1       9.686   4.129  -7.821  0.00  0.00     0.024 H 
ENDBRANCH  44  46
BRANCH  44  50
ATOM     50  C   LIG d   1      10.062   5.879  -5.181  0.00  0.00    -0.059 C 
ATOM     51  H   LIG d   1       9.697   5.657  -4.178  0.00  0.00     0.024 H 
ATOM     52  H   LIG d   1      10.918   6.549  -5.116  0.00  0.00     0.024 H 
ATOM     53  H   LIG d   1       9.269   6.356  -5.758  0.00  0.00     0.024 H 
ENDBRANCH  44  50
ENDBRANCH   1  44
TORSDOF 7
ENDMDL
MODEL 10
REMARK VINA RESULT:      -4.8      3.066      6.577
REMARK  7 active torsions:
REMARK  status: ('A' for Active; 'I' for Inactive)
REMARK    1  A    between atoms: C_1  and  C_2 
REMARK    2  A    between atoms: C_2  and  C_3 
REMARK    3  A    between atoms: C_2  and  C_4 
REMARK    4  A    between atoms: C_14  and  C_21 
REMARK    5  A    between atoms: C_18  and  C_19 
REMARK    6  A    between atoms: C_18  and  C_20 
REMARK    7  A    between atoms: C_20  and  N_52 
ROOT
ATOM      1  C   LIG d   1       4.113  -4.050  -8.835  0.00  0.00    -0.044 A 
ATOM      2  C   LIG d   1       4.056  -2.692  -9.084  0.00  0.00    -0.058 A 
ATOM      3  C   LIG d   1       4.209  -1.798  -8.044  0.00  0.00    -0.058 A 
ATOM      4  C   LIG d   1       4.418  -2.253  -6.750  0.00  0.00    -0.038 A 
ATOM      5  C   LIG d   1       4.470  -3.605  -6.498  0.00  0.00    -0.043 A 
ATOM      6  C   LIG d   1       4.320  -4.503  -7.549  0.00  0.00    -0.055 A 
ATOM      7  C   LIG d   1       4.682  -4.172  -5.120  0.00  0.00    -0.027 C 
ATOM      8  C   LIG d   1       5.213  -3.102  -4.167  0.00  0.00    -0.045 C 
ATOM      9  C   LIG d   1       4.330  -1.861  -4.301  0.00  0.00    -0.021 C 
ATOM     10  H   LIG d   1       3.285  -2.164  -4.247  0.00  0.00     0.032 H 
ATOM     11  C   LIG d   1       4.589  -1.221  -5.661  0.00  0.00    -0.003 C 
ATOM     12  C   LIG d   1       6.023  -0.686  -5.723  0.00  0.00    -0.043 C 
ATOM     13  C   LIG d   1       6.272   0.305  -4.605  0.00  0.00    -0.052 C 
ATOM     14  C   LIG d   1       6.064  -0.389  -3.256  0.00  0.00    -0.043 C 
ATOM     15  C   LIG d   1       4.619  -0.885  -3.168  0.00  0.00     0.011 C 
ATOM     16  H   LIG d   1       3.890  -2.331 -10.088  0.00  0.00     0.062 H 
ATOM     17  H   LIG d   1       4.165  -0.736  -8.239  0.00  0.00     0.062 H 
ATOM     18  H   LIG d   1       4.366  -5.564  -7.355  0.00  0.00     0.062 H 
ATOM     19  H   LIG d   1       5.398  -4.992  -5.174  0.00  0.00     0.031 H 
ATOM     20  H   LIG d   1       3.732  -4.552  -4.739  0.00  0.00     0.031 H 
ATOM     21  H   LIG d   1       6.240  -2.852  -4.431  0.00  0.00     0.027 H 
ATOM     22  H   LIG d   1       5.176  -3.470  -3.142  0.00  0.00     0.027 H 
ATOM     23  H   LIG d   1       6.723  -1.515  -5.612  0.00  0.00     0.027 H 
ATOM     24  H   LIG d   1       6.187  -0.201  -6.686  0.00  0.00     0.027 H 
ATOM     25  H   LIG d   1       5.572   1.134  -4.700  0.00  0.00     0.027 H 
ATOM     26  H   LIG d   1       7.293   0.681  -4.667  0.00  0.00     0.027 H 
ATOM     27  H   LIG d   1       6.257   0.318  -2.449  0.00  0.00     0.027 H 
ATOM     28  H   LIG d   1       6.746  -1.236  -3.173  0.00  0.00     0.027 H 
ENDROOT
BRANCH  15  29
ATOM     29  C   LIG d   1       4.409  -1.588  -1.826  0.00  0.00    -0.054 C 
ATOM     30  H   LIG d   1       4.898  -1.019  -1.037  0.00  0.00     0.024 H 
ATOM     31  H   LIG d   1       3.342  -1.658  -1.615  0.00  0.00     0.024 H 
ATOM     32  H   LIG d   1       4.837  -2.590  -1.870  0.00  0.00     0.024 H 
ENDBRANCH  15  29
BRANCH  15  33
ATOM     33  C   LIG d   1       3.667   0.308  -3.271  0.00  0.00    -0.030 C 
ATOM     34  H   LIG d   1       3.897   0.882  -4.169  0.00  0.00     0.082 H 
ATOM     35  H   LIG d   1       2.639  -0.051  -3.323  0.00  0.00     0.082 H 
BRANCH  33  36
ATOM     36  N   LIG d   1       3.850   1.172  -2.092  0.00  0.00     0.219 N 
ATOM     37  H   LIG d   1       3.451   2.092  -2.267  0.00  0.00     0.199 HD
ATOM     38  H   LIG d   1       3.398   0.756  -1.279  0.00  0.00     0.199 HD
ATOM     39  H   LIG d   1       4.854   1.273  -1.900  0.00  0.00     0.199 HD
ENDBRANCH  33  36
ENDBRANCH  15  33
BRANCH  11  40
ATOM     40  C   LIG d   1       3.601  -0.073  -5.883  0.00  0.00    -0.055 C 
ATOM     41  H   LIG d   1       3.012  -0.270  -6.779  0.00  0.00     0.024 H 
ATOM     42  H   LIG d   1       2.938   0.007  -5.022  0.00  0.00     0.024 H 
ATOM     43  H   LIG d   1       4.151   0.860  -6.006  0.00  0.00     0.024 H 
ENDBRANCH  11  40
BRANCH   1  44
ATOM     44  C   LIG d   1       3.944  -5.033  -9.964  0.00  0.00    -0.021 C 
ATOM     45  H   LIG d   1       4.872  -5.589 -10.103  0.00  0.00     0.034 H 
BRANCH  44  46
ATOM     46  C   LIG d   1       2.813  -6.007  -9.629  0.00  0.00    -0.059 C 
ATOM     47  H   LIG d   1       2.208  -6.180 -10.518  0.00  0.00     0.024 H 
ATOM     48  H   LIG d   1       3.236  -6.950  -9.287  0.00  0.00     0.024 H 
ATOM     49  H   LIG d   1       2.189  -5.581  -8.843  0.00  0.00     0.024 H 
ENDBRANCH  44  46
BRANCH  44  50
ATOM     50  C   LIG d   1       3.604  -4.278 -11.250  0.00  0.00    -0.059 C 
ATOM     51  H   LIG d   1       3.575  -4.978 -12.085  0.00  0.00     0.024 H 
ATOM     52  H   LIG d   1       2.632  -3.798 -11.144  0.00  0.00     0.024 H 
ATOM     53  H   LIG d   1       4.365  -3.520 -11.438  0.00  0.00     0.024 H 
ENDBRANCH  44  50
ENDBRANCH   1  44
TORSDOF 7
ENDMDL
