MODEL 1
REMARK VINA RESULT:      -5.9      0.000      0.000
REMARK  8 active torsions:
REMARK  status: ('A' for Active; 'I' for Inactive)
REMARK    1  A    between atoms: C_1  and  C_2 
REMARK    2  A    between atoms: C_5  and  C_8 
REMARK    3  A    between atoms: C_8  and  C_10 
REMARK    4  A    between atoms: C_8  and  N_11 
REMARK       I    between atoms: N_11  and  C_12 
REMARK    5  A    between atoms: C_12  and  C_14 
REMARK    6  A    between atoms: C_16  and  N_24 
REMARK    7  A    between atoms: C_17  and  C_23 
REMARK    8  A    between atoms: C_18  and  N_20 
ROOT
ATOM      1  N   LIG d   1       8.784   2.197  -4.566  0.00  0.00    -0.305 N 
ATOM      2  C   LIG d   1       9.934   2.598  -3.992  0.00  0.00     0.245 C 
ATOM      3  O   LIG d   1      10.812   1.789  -3.761  0.00  0.00    -0.270 OA
ATOM      4  H   LIG d   1       8.083   2.843  -4.751  0.00  0.00     0.150 HD
ENDROOT
BRANCH   1   5
ATOM      5  C   LIG d   1       8.590   0.787  -4.913  0.00  0.00     0.046 C 
ATOM      6  H   LIG d   1       9.498   0.229  -4.683  0.00  0.00     0.054 H 
BRANCH   5   7
ATOM      7  C   LIG d   1       7.441   0.226  -4.114  0.00  0.00    -0.028 A 
ATOM      8  C   LIG d   1       6.567   1.080  -3.469  0.00  0.00    -0.057 A 
ATOM      9  C   LIG d   1       5.513   0.566  -2.737  0.00  0.00    -0.059 A 
ATOM     10  H   LIG d   1       6.707   2.149  -3.537  0.00  0.00     0.062 H 
ATOM     11  C   LIG d   1       5.335  -0.802  -2.649  0.00  0.00    -0.050 A 
ATOM     12  H   LIG d   1       4.829   1.233  -2.233  0.00  0.00     0.062 H 
ATOM     13  C   LIG d   1       6.209  -1.656  -3.294  0.00  0.00    -0.059 A 
ATOM     14  C   LIG d   1       7.260  -1.142  -4.032  0.00  0.00    -0.057 A 
ATOM     15  H   LIG d   1       6.069  -2.725  -3.227  0.00  0.00     0.062 H 
ATOM     16  H   LIG d   1       7.941  -1.809  -4.539  0.00  0.00     0.062 H 
BRANCH  11  17
ATOM     17  C   LIG d   1       4.187  -1.362  -1.850  0.00  0.00    -0.040 C 
ATOM     18  H   LIG d   1       4.225  -2.452  -1.873  0.00  0.00     0.028 H 
ATOM     19  H   LIG d   1       4.261  -1.020  -0.818  0.00  0.00     0.028 H 
ATOM     20  H   LIG d   1       3.244  -1.023  -2.279  0.00  0.00     0.028 H 
ENDBRANCH  11  17
ENDBRANCH   5   7
BRANCH   5  21
ATOM     21  C   LIG d   1       8.281   0.667  -6.406  0.00  0.00    -0.042 C 
ATOM     22  H   LIG d   1       9.086   0.125  -6.902  0.00  0.00     0.025 H 
ATOM     23  H   LIG d   1       7.344   0.126  -6.541  0.00  0.00     0.025 H 
ATOM     24  H   LIG d   1       8.192   1.663  -6.840  0.00  0.00     0.025 H 
ENDBRANCH   5  21
ENDBRANCH   1   5
BRANCH   2  25
ATOM     25  C   LIG d   1      10.129   4.022  -3.642  0.00  0.00     0.050 A 
ATOM     26  C   LIG d   1      10.004   5.008  -4.621  0.00  0.00     0.028 A 
ATOM     27  C   LIG d   1      10.188   6.334  -4.288  0.00  0.00     0.283 A 
ATOM     28  H   LIG d   1       9.762   4.734  -5.637  0.00  0.00     0.069 H 
ATOM     29  C   LIG d   1      10.496   6.686  -2.986  0.00  0.00     0.103 A 
ATOM     30  C   LIG d   1      10.623   5.714  -2.011  0.00  0.00     0.283 A 
ATOM     31  C   LIG d   1      10.442   4.385  -2.330  0.00  0.00     0.028 A 
ATOM     32  H   LIG d   1      10.540   3.625  -1.568  0.00  0.00     0.069 H 
BRANCH  27  33
ATOM     33  N   LIG d   1      10.054   7.381  -5.325  0.00  0.00     0.080 N 
ATOM     34  O   LIG d   1       8.971   7.898  -5.533  0.00  0.00     0.042 OA
ATOM     35  O   LIG d   1      11.028   7.727  -5.970  0.00  0.00    -0.576 OA
ENDBRANCH  27  33
BRANCH  29  36
ATOM     36  C   LIG d   1      10.695   8.138  -2.629  0.00  0.00    -0.027 C 
ATOM     37  H   LIG d   1      11.052   8.680  -3.504  0.00  0.00     0.028 H 
ATOM     38  H   LIG d   1       9.749   8.564  -2.297  0.00  0.00     0.028 H 
ATOM     39  H   LIG d   1      11.431   8.217  -1.828  0.00  0.00     0.028 H 
ENDBRANCH  29  36
BRANCH  30  40
ATOM     40  N   LIG d   1      10.948   6.100  -0.619  0.00  0.00     0.080 N 
ATOM     41  O   LIG d   1      10.078   6.537   0.112  0.00  0.00     0.042 OA
ATOM     42  O   LIG d   1      12.088   5.981  -0.205  0.00  0.00    -0.576 OA
ENDBRANCH  30  40
ENDBRANCH   2  25
TORSDOF 8
ENDMDL
MODEL 2
REMARK VINA RESULT:      -5.9      0.029      3.063
REMARK  8 active torsions:
REMARK  status: ('A' for Active; 'I' for Inactive)
REMARK    1  A    between atoms: C_1  and  C_2 
REMARK    2  A    between atoms: C_5  and  C_8 
REMARK    3  A    between atoms: C_8  and  C_10 
REMARK    4  A    between atoms: C_8  and  N_11 
REMARK       I    between atoms: N_11  and  C_12 
REMARK    5  A    between atoms: C_12  and  C_14 
REMARK    6  A    between atoms: C_16  and  N_24 
REMARK    7  A    between atoms: C_17  and  C_23 
REMARK    8  A    between atoms: C_18  and  N_20 
ROOT
ATOM      1  N   LIG d   1       8.796   2.175  -4.547  0.00  0.00    -0.305 N 
ATOM      2  C   LIG d   1       9.956   2.579  -3.992  0.00  0.00     0.245 C 
ATOM      3  O   LIG d   1      10.840   1.773  -3.777  0.00  0.00    -0.270 OA
ATOM      4  H   LIG d   1       8.090   2.819  -4.717  0.00  0.00     0.150 HD
ENDROOT
BRANCH   1   5
ATOM      5  C   LIG d   1       8.602   0.765  -4.893  0.00  0.00     0.046 C 
ATOM      6  H   LIG d   1       9.506   0.205  -4.657  0.00  0.00     0.054 H 
BRANCH   5   7
ATOM      7  C   LIG d   1       7.446   0.208  -4.101  0.00  0.00    -0.028 A 
ATOM      8  C   LIG d   1       6.566   1.065  -3.468  0.00  0.00    -0.057 A 
ATOM      9  C   LIG d   1       5.506   0.555  -2.742  0.00  0.00    -0.059 A 
ATOM     10  H   LIG d   1       6.706   2.134  -3.541  0.00  0.00     0.062 H 
ATOM     11  C   LIG d   1       5.328  -0.813  -2.649  0.00  0.00    -0.050 A 
ATOM     12  H   LIG d   1       4.818   1.224  -2.248  0.00  0.00     0.062 H 
ATOM     13  C   LIG d   1       6.207  -1.670  -3.282  0.00  0.00    -0.059 A 
ATOM     14  C   LIG d   1       7.264  -1.160  -4.013  0.00  0.00    -0.057 A 
ATOM     15  H   LIG d   1       6.068  -2.739  -3.209  0.00  0.00     0.062 H 
ATOM     16  H   LIG d   1       7.950  -1.829  -4.511  0.00  0.00     0.062 H 
BRANCH  11  17
ATOM     17  C   LIG d   1       4.173  -1.369  -1.856  0.00  0.00    -0.040 C 
ATOM     18  H   LIG d   1       3.673  -2.145  -2.437  0.00  0.00     0.028 H 
ATOM     19  H   LIG d   1       4.543  -1.797  -0.925  0.00  0.00     0.028 H 
ATOM     20  H   LIG d   1       3.465  -0.570  -1.633  0.00  0.00     0.028 H 
ENDBRANCH  11  17
ENDBRANCH   5   7
BRANCH   5  21
ATOM     21  C   LIG d   1       8.302   0.644  -6.388  0.00  0.00    -0.042 C 
ATOM     22  H   LIG d   1       9.212   0.366  -6.920  0.00  0.00     0.025 H 
ATOM     23  H   LIG d   1       7.542  -0.121  -6.546  0.00  0.00     0.025 H 
ATOM     24  H   LIG d   1       7.939   1.600  -6.765  0.00  0.00     0.025 H 
ENDBRANCH   5  21
ENDBRANCH   1   5
BRANCH   2  25
ATOM     25  C   LIG d   1      10.152   4.002  -3.642  0.00  0.00     0.050 A 
ATOM     26  C   LIG d   1      10.461   4.366  -2.331  0.00  0.00     0.028 A 
ATOM     27  C   LIG d   1      10.642   5.696  -2.011  0.00  0.00     0.283 A 
ATOM     28  H   LIG d   1      10.558   3.608  -1.568  0.00  0.00     0.069 H 
ATOM     29  C   LIG d   1      10.518   6.668  -2.988  0.00  0.00     0.103 A 
ATOM     30  C   LIG d   1      10.211   6.315  -4.289  0.00  0.00     0.283 A 
ATOM     31  C   LIG d   1      10.028   4.989  -4.623  0.00  0.00     0.028 A 
ATOM     32  H   LIG d   1       9.789   4.713  -5.639  0.00  0.00     0.069 H 
BRANCH  27  33
ATOM     33  N   LIG d   1      10.969   6.083  -0.621  0.00  0.00     0.080 N 
ATOM     34  O   LIG d   1      12.110   5.965  -0.208  0.00  0.00     0.042 OA
ATOM     35  O   LIG d   1      10.099   6.520   0.111  0.00  0.00    -0.576 OA
ENDBRANCH  27  33
BRANCH  29  36
ATOM     36  C   LIG d   1      10.717   8.119  -2.631  0.00  0.00    -0.027 C 
ATOM     37  H   LIG d   1      11.427   8.569  -3.325  0.00  0.00     0.028 H 
ATOM     38  H   LIG d   1       9.764   8.644  -2.694  0.00  0.00     0.028 H 
ATOM     39  H   LIG d   1      11.106   8.192  -1.615  0.00  0.00     0.028 H 
ENDBRANCH  29  36
BRANCH  30  40
ATOM     40  N   LIG d   1      10.086   7.361  -5.329  0.00  0.00     0.080 N 
ATOM     41  O   LIG d   1      11.062   7.703  -5.971  0.00  0.00     0.042 OA
ATOM     42  O   LIG d   1       9.004   7.880  -5.543  0.00  0.00    -0.576 OA
ENDBRANCH  30  40
ENDBRANCH   2  25
TORSDOF 8
ENDMDL
MODEL 3
REMARK VINA RESULT:      -5.9      3.301      7.892
REMARK  8 active torsions:
REMARK  status: ('A' for Active; 'I' for Inactive)
REMARK    1  A    between atoms: C_1  and  C_2 
REMARK    2  A    between atoms: C_5  and  C_8 
REMARK    3  A    between atoms: C_8  and  C_10 
REMARK    4  A    between atoms: C_8  and  N_11 
REMARK       I    between atoms: N_11  and  C_12 
REMARK    5  A    between atoms: C_12  and  C_14 
REMARK    6  A    between atoms: C_16  and  N_24 
REMARK    7  A    between atoms: C_17  and  C_23 
REMARK    8  A    between atoms: C_18  and  N_20 
ROOT
ATOM      1  N   LIG d   1       9.680   2.295  -3.580  0.00  0.00    -0.305 N 
ATOM      2  C   LIG d   1       8.700   1.980  -4.448  0.00  0.00     0.245 C 
ATOM      3  O   LIG d   1       8.632   2.549  -5.521  0.00  0.00    -0.270 OA
ATOM      4  H   LIG d   1       9.735   1.842  -2.724  0.00  0.00     0.150 HD
ENDROOT
BRANCH   1   5
ATOM      5  C   LIG d   1      10.664   3.324  -3.928  0.00  0.00     0.046 C 
ATOM      6  H   LIG d   1      10.612   3.530  -4.996  0.00  0.00     0.054 H 
BRANCH   5   7
ATOM      7  C   LIG d   1      10.365   4.586  -3.159  0.00  0.00    -0.028 A 
ATOM      8  C   LIG d   1      10.774   4.707  -1.845  0.00  0.00    -0.057 A 
ATOM      9  C   LIG d   1      10.500   5.864  -1.140  0.00  0.00    -0.059 A 
ATOM     10  H   LIG d   1      11.308   3.898  -1.368  0.00  0.00     0.062 H 
ATOM     11  C   LIG d   1       9.816   6.899  -1.749  0.00  0.00    -0.050 A 
ATOM     12  H   LIG d   1      10.820   5.959  -0.112  0.00  0.00     0.062 H 
ATOM     13  C   LIG d   1       9.407   6.778  -3.063  0.00  0.00    -0.059 A 
ATOM     14  C   LIG d   1       9.686   5.623  -3.771  0.00  0.00    -0.057 A 
ATOM     15  H   LIG d   1       8.873   7.587  -3.540  0.00  0.00     0.062 H 
ATOM     16  H   LIG d   1       9.370   5.529  -4.799  0.00  0.00     0.062 H 
BRANCH  11  17
ATOM     17  C   LIG d   1       9.516   8.160  -0.979  0.00  0.00    -0.040 C 
ATOM     18  H   LIG d   1       8.755   7.953  -0.226  0.00  0.00     0.028 H 
ATOM     19  H   LIG d   1      10.424   8.511  -0.489  0.00  0.00     0.028 H 
ATOM     20  H   LIG d   1       9.152   8.926  -1.663  0.00  0.00     0.028 H 
ENDBRANCH  11  17
ENDBRANCH   5   7
BRANCH   5  21
ATOM     21  C   LIG d   1      12.067   2.828  -3.571  0.00  0.00    -0.042 C 
ATOM     22  H   LIG d   1      12.134   2.674  -2.494  0.00  0.00     0.025 H 
ATOM     23  H   LIG d   1      12.261   1.887  -4.085  0.00  0.00     0.025 H 
ATOM     24  H   LIG d   1      12.804   3.570  -3.878  0.00  0.00     0.025 H 
ENDBRANCH   5  21
ENDBRANCH   1   5
BRANCH   2  25
ATOM     25  C   LIG d   1       7.707   0.942  -4.097  0.00  0.00     0.050 A 
ATOM     26  C   LIG d   1       7.952  -0.396  -4.406  0.00  0.00     0.028 A 
ATOM     27  C   LIG d   1       7.021  -1.360  -4.077  0.00  0.00     0.283 A 
ATOM     28  H   LIG d   1       8.870  -0.678  -4.902  0.00  0.00     0.069 H 
ATOM     29  C   LIG d   1       5.846  -1.000  -3.441  0.00  0.00     0.103 A 
ATOM     30  C   LIG d   1       5.596   0.324  -3.132  0.00  0.00     0.283 A 
ATOM     31  C   LIG d   1       6.518   1.297  -3.456  0.00  0.00     0.028 A 
ATOM     32  H   LIG d   1       6.323   2.332  -3.214  0.00  0.00     0.069 H 
BRANCH  27  33
ATOM     33  N   LIG d   1       7.280  -2.779  -4.404  0.00  0.00     0.080 N 
ATOM     34  O   LIG d   1       6.759  -3.284  -5.382  0.00  0.00     0.042 OA
ATOM     35  O   LIG d   1       8.015  -3.443  -3.695  0.00  0.00    -0.576 OA
ENDBRANCH  27  33
BRANCH  29  36
ATOM     36  C   LIG d   1       4.833  -2.058  -3.083  0.00  0.00    -0.027 C 
ATOM     37  H   LIG d   1       4.463  -1.880  -2.074  0.00  0.00     0.028 H 
ATOM     38  H   LIG d   1       4.003  -2.020  -3.788  0.00  0.00     0.028 H 
ATOM     39  H   LIG d   1       5.304  -3.041  -3.129  0.00  0.00     0.028 H 
ENDBRANCH  29  36
BRANCH  30  40
ATOM     40  N   LIG d   1       4.338   0.699  -2.447  0.00  0.00     0.080 N 
ATOM     41  O   LIG d   1       4.335   0.903  -1.247  0.00  0.00     0.042 OA
ATOM     42  O   LIG d   1       3.306   0.804  -3.085  0.00  0.00    -0.576 OA
ENDBRANCH  30  40
ENDBRANCH   2  25
TORSDOF 8
ENDMDL
MODEL 4
REMARK VINA RESULT:      -5.9      3.309      7.927
REMARK  8 active torsions:
REMARK  status: ('A' for Active; 'I' for Inactive)
REMARK    1  A    between atoms: C_1  and  C_2 
REMARK    2  A    between atoms: C_5  and  C_8 
REMARK    3  A    between atoms: C_8  and  C_10 
REMARK    4  A    between atoms: C_8  and  N_11 
REMARK       I    between atoms: N_11  and  C_12 
REMARK    5  A    between atoms: C_12  and  C_14 
REMARK    6  A    between atoms: C_16  and  N_24 
REMARK    7  A    between atoms: C_17  and  C_23 
REMARK    8  A    between atoms: C_18  and  N_20 
ROOT
ATOM      1  N   LIG d   1       9.664   2.276  -3.592  0.00  0.00    -0.305 N 
ATOM      2  C   LIG d   1       8.691   1.957  -4.468  0.00  0.00     0.245 C 
ATOM      3  O   LIG d   1       8.634   2.520  -5.544  0.00  0.00    -0.270 OA
ATOM      4  H   LIG d   1       9.709   1.827  -2.733  0.00  0.00     0.150 HD
ENDROOT
BRANCH   1   5
ATOM      5  C   LIG d   1      10.654   3.300  -3.937  0.00  0.00     0.046 C 
ATOM      6  H   LIG d   1      10.603   3.508  -5.006  0.00  0.00     0.054 H 
BRANCH   5   7
ATOM      7  C   LIG d   1      10.360   4.562  -3.166  0.00  0.00    -0.028 A 
ATOM      8  C   LIG d   1       9.689   5.604  -3.776  0.00  0.00    -0.057 A 
ATOM      9  C   LIG d   1       9.421   6.761  -3.069  0.00  0.00    -0.059 A 
ATOM     10  H   LIG d   1       9.375   5.515  -4.806  0.00  0.00     0.062 H 
ATOM     11  C   LIG d   1       9.824   6.875  -1.752  0.00  0.00    -0.050 A 
ATOM     12  H   LIG d   1       8.895   7.576  -3.546  0.00  0.00     0.062 H 
ATOM     13  C   LIG d   1      10.495   5.833  -1.142  0.00  0.00    -0.059 A 
ATOM     14  C   LIG d   1      10.759   4.674  -1.847  0.00  0.00    -0.057 A 
ATOM     15  H   LIG d   1      10.810   5.922  -0.112  0.00  0.00     0.062 H 
ATOM     16  H   LIG d   1      11.280   3.857  -1.369  0.00  0.00     0.062 H 
BRANCH  11  17
ATOM     17  C   LIG d   1       9.532   8.137  -0.982  0.00  0.00    -0.040 C 
ATOM     18  H   LIG d   1      10.060   8.974  -1.440  0.00  0.00     0.028 H 
ATOM     19  H   LIG d   1       8.460   8.334  -0.998  0.00  0.00     0.028 H 
ATOM     20  H   LIG d   1       9.864   8.020   0.050  0.00  0.00     0.028 H 
ENDBRANCH  11  17
ENDBRANCH   5   7
BRANCH   5  21
ATOM     21  C   LIG d   1      12.053   2.797  -3.580  0.00  0.00    -0.042 C 
ATOM     22  H   LIG d   1      12.233   1.843  -4.076  0.00  0.00     0.025 H 
ATOM     23  H   LIG d   1      12.796   3.523  -3.911  0.00  0.00     0.025 H 
ATOM     24  H   LIG d   1      12.128   2.666  -2.501  0.00  0.00     0.025 H 
ENDBRANCH   5  21
ENDBRANCH   1   5
BRANCH   2  25
ATOM     25  C   LIG d   1       7.692   0.924  -4.120  0.00  0.00     0.050 A 
ATOM     26  C   LIG d   1       6.520   1.279  -3.451  0.00  0.00     0.028 A 
ATOM     27  C   LIG d   1       5.592   0.311  -3.128  0.00  0.00     0.283 A 
ATOM     28  H   LIG d   1       6.339   2.311  -3.187  0.00  0.00     0.069 H 
ATOM     29  C   LIG d   1       5.823  -1.011  -3.466  0.00  0.00     0.103 A 
ATOM     30  C   LIG d   1       6.982  -1.370  -4.129  0.00  0.00     0.283 A 
ATOM     31  C   LIG d   1       7.918  -0.412  -4.457  0.00  0.00     0.028 A 
ATOM     32  H   LIG d   1       8.823  -0.692  -4.975  0.00  0.00     0.069 H 
BRANCH  27  33
ATOM     33  N   LIG d   1       4.349   0.686  -2.419  0.00  0.00     0.080 N 
ATOM     34  O   LIG d   1       3.305   0.795  -3.037  0.00  0.00     0.042 OA
ATOM     35  O   LIG d   1       4.369   0.885  -1.217  0.00  0.00    -0.576 OA
ENDBRANCH  27  33
BRANCH  29  36
ATOM     36  C   LIG d   1       4.805  -2.065  -3.111  0.00  0.00    -0.027 C 
ATOM     37  H   LIG d   1       4.874  -2.292  -2.047  0.00  0.00     0.028 H 
ATOM     38  H   LIG d   1       3.805  -1.696  -3.340  0.00  0.00     0.028 H 
ATOM     39  H   LIG d   1       5.000  -2.968  -3.689  0.00  0.00     0.028 H 
ENDBRANCH  29  36
BRANCH  30  40
ATOM     40  N   LIG d   1       7.219  -2.786  -4.491  0.00  0.00     0.080 N 
ATOM     41  O   LIG d   1       6.699  -3.255  -5.487  0.00  0.00     0.042 OA
ATOM     42  O   LIG d   1       7.934  -3.482  -3.792  0.00  0.00    -0.576 OA
ENDBRANCH  30  40
ENDBRANCH   2  25
TORSDOF 8
ENDMDL
MODEL 5
REMARK VINA RESULT:      -5.9      3.390      7.975
REMARK  8 active torsions:
REMARK  status: ('A' for Active; 'I' for Inactive)
REMARK    1  A    between atoms: C_1  and  C_2 
REMARK    2  A    between atoms: C_5  and  C_8 
REMARK    3  A    between atoms: C_8  and  C_10 
REMARK    4  A    between atoms: C_8  and  N_11 
REMARK       I    between atoms: N_11  and  C_12 
REMARK    5  A    between atoms: C_12  and  C_14 
REMARK    6  A    between atoms: C_16  and  N_24 
REMARK    7  A    between atoms: C_17  and  C_23 
REMARK    8  A    between atoms: C_18  and  N_20 
ROOT
ATOM      1  N   LIG d   1       8.966   3.075  -3.715  0.00  0.00    -0.305 N 
ATOM      2  C   LIG d   1       9.027   1.777  -4.069  0.00  0.00     0.245 C 
ATOM      3  O   LIG d   1      10.079   1.299  -4.448  0.00  0.00    -0.270 OA
ATOM      4  H   LIG d   1       8.126   3.457  -3.413  0.00  0.00     0.150 HD
ENDROOT
BRANCH   1   5
ATOM      5  C   LIG d   1      10.167   3.912  -3.786  0.00  0.00     0.046 C 
ATOM      6  H   LIG d   1      11.007   3.312  -4.134  0.00  0.00     0.054 H 
BRANCH   5   7
ATOM      7  C   LIG d   1       9.930   5.049  -4.746  0.00  0.00    -0.028 A 
ATOM      8  C   LIG d   1       9.506   6.276  -4.272  0.00  0.00    -0.057 A 
ATOM      9  C   LIG d   1       9.290   7.319  -5.153  0.00  0.00    -0.059 A 
ATOM     10  H   LIG d   1       9.345   6.420  -3.214  0.00  0.00     0.062 H 
ATOM     11  C   LIG d   1       9.496   7.135  -6.507  0.00  0.00    -0.050 A 
ATOM     12  H   LIG d   1       8.959   8.279  -4.783  0.00  0.00     0.062 H 
ATOM     13  C   LIG d   1       9.920   5.908  -6.981  0.00  0.00    -0.059 A 
ATOM     14  C   LIG d   1      10.142   4.866  -6.100  0.00  0.00    -0.057 A 
ATOM     15  H   LIG d   1      10.082   5.764  -8.039  0.00  0.00     0.062 H 
ATOM     16  H   LIG d   1      10.477   3.908  -6.469  0.00  0.00     0.062 H 
BRANCH  11  17
ATOM     17  C   LIG d   1       9.258   8.272  -7.467  0.00  0.00    -0.040 C 
ATOM     18  H   LIG d   1       9.650   8.006  -8.450  0.00  0.00     0.028 H 
ATOM     19  H   LIG d   1       8.189   8.466  -7.544  0.00  0.00     0.028 H 
ATOM     20  H   LIG d   1       9.765   9.167  -7.105  0.00  0.00     0.028 H 
ENDBRANCH  11  17
ENDBRANCH   5   7
BRANCH   5  21
ATOM     21  C   LIG d   1      10.480   4.472  -2.397  0.00  0.00    -0.042 C 
ATOM     22  H   LIG d   1      11.307   5.178  -2.469  0.00  0.00     0.025 H 
ATOM     23  H   LIG d   1       9.600   4.982  -2.005  0.00  0.00     0.025 H 
ATOM     24  H   LIG d   1      10.756   3.656  -1.730  0.00  0.00     0.025 H 
ENDBRANCH   5  21
ENDBRANCH   1   5
BRANCH   2  25
ATOM     25  C   LIG d   1       7.815   0.933  -3.998  0.00  0.00     0.050 A 
ATOM     26  C   LIG d   1       7.833  -0.366  -4.508  0.00  0.00     0.028 A 
ATOM     27  C   LIG d   1       6.699  -1.148  -4.439  0.00  0.00     0.283 A 
ATOM     28  H   LIG d   1       8.735  -0.758  -4.956  0.00  0.00     0.069 H 
ATOM     29  C   LIG d   1       5.544  -0.646  -3.865  0.00  0.00     0.103 A 
ATOM     30  C   LIG d   1       5.518   0.640  -3.358  0.00  0.00     0.283 A 
ATOM     31  C   LIG d   1       6.645   1.433  -3.421  0.00  0.00     0.028 A 
ATOM     32  H   LIG d   1       6.625   2.437  -3.024  0.00  0.00     0.069 H 
BRANCH  27  33
ATOM     33  N   LIG d   1       6.718  -2.525  -4.979  0.00  0.00     0.080 N 
ATOM     34  O   LIG d   1       7.083  -3.451  -4.277  0.00  0.00     0.042 OA
ATOM     35  O   LIG d   1       6.367  -2.734  -6.127  0.00  0.00    -0.576 OA
ENDBRANCH  27  33
BRANCH  29  36
ATOM     36  C   LIG d   1       4.308  -1.507  -3.793  0.00  0.00    -0.027 C 
ATOM     37  H   LIG d   1       3.476  -0.915  -3.412  0.00  0.00     0.028 H 
ATOM     38  H   LIG d   1       4.065  -1.878  -4.788  0.00  0.00     0.028 H 
ATOM     39  H   LIG d   1       4.491  -2.349  -3.125  0.00  0.00     0.028 H 
ENDBRANCH  29  36
BRANCH  30  40
ATOM     40  N   LIG d   1       4.280   1.167  -2.741  0.00  0.00     0.080 N 
ATOM     41  O   LIG d   1       3.479   1.788  -3.416  0.00  0.00     0.042 OA
ATOM     42  O   LIG d   1       4.062   0.979  -1.557  0.00  0.00    -0.576 OA
ENDBRANCH  30  40
ENDBRANCH   2  25
TORSDOF 8
ENDMDL
MODEL 6
REMARK VINA RESULT:      -5.9      3.354      8.027
REMARK  8 active torsions:
REMARK  status: ('A' for Active; 'I' for Inactive)
REMARK    1  A    between atoms: C_1  and  C_2 
REMARK    2  A    between atoms: C_5  and  C_8 
REMARK    3  A    between atoms: C_8  and  C_10 
REMARK    4  A    between atoms: C_8  and  N_11 
REMARK       I    between atoms: N_11  and  C_12 
REMARK    5  A    between atoms: C_12  and  C_14 
REMARK    6  A    between atoms: C_16  and  N_24 
REMARK    7  A    between atoms: C_17  and  C_23 
REMARK    8  A    between atoms: C_18  and  N_20 
ROOT
ATOM      1  N   LIG d   1       9.076   3.007  -3.596  0.00  0.00    -0.305 N 
ATOM      2  C   LIG d   1       9.068   1.768  -4.125  0.00  0.00     0.245 C 
ATOM      3  O   LIG d   1      10.058   1.343  -4.690  0.00  0.00    -0.270 OA
ATOM      4  H   LIG d   1       8.286   3.347  -3.146  0.00  0.00     0.150 HD
ENDROOT
BRANCH   1   5
ATOM      5  C   LIG d   1      10.275   3.842  -3.701  0.00  0.00     0.046 C 
ATOM      6  H   LIG d   1      11.093   3.252  -4.113  0.00  0.00     0.054 H 
BRANCH   5   7
ATOM      7  C   LIG d   1       9.995   5.013  -4.608  0.00  0.00    -0.028 A 
ATOM      8  C   LIG d   1       9.558   6.210  -4.075  0.00  0.00    -0.057 A 
ATOM      9  C   LIG d   1       9.301   7.284  -4.907  0.00  0.00    -0.059 A 
ATOM     10  H   LIG d   1       9.416   6.308  -3.008  0.00  0.00     0.062 H 
ATOM     11  C   LIG d   1       9.480   7.159  -6.272  0.00  0.00    -0.050 A 
ATOM     12  H   LIG d   1       8.959   8.220  -4.490  0.00  0.00     0.062 H 
ATOM     13  C   LIG d   1       9.918   5.962  -6.805  0.00  0.00    -0.059 A 
ATOM     14  C   LIG d   1      10.181   4.889  -5.973  0.00  0.00    -0.057 A 
ATOM     15  H   LIG d   1      10.059   5.865  -7.871  0.00  0.00     0.062 H 
ATOM     16  H   LIG d   1      10.526   3.955  -6.388  0.00  0.00     0.062 H 
BRANCH  11  17
ATOM     17  C   LIG d   1       9.199   8.330  -7.178  0.00  0.00    -0.040 C 
ATOM     18  H   LIG d   1       8.139   8.580  -7.129  0.00  0.00     0.028 H 
ATOM     19  H   LIG d   1       9.789   9.188  -6.858  0.00  0.00     0.028 H 
ATOM     20  H   LIG d   1       9.463   8.069  -8.203  0.00  0.00     0.028 H 
ENDBRANCH  11  17
ENDBRANCH   5   7
BRANCH   5  21
ATOM     21  C   LIG d   1      10.663   4.353  -2.312  0.00  0.00    -0.042 C 
ATOM     22  H   LIG d   1      11.674   4.760  -2.344  0.00  0.00     0.025 H 
ATOM     23  H   LIG d   1       9.968   5.134  -2.005  0.00  0.00     0.025 H 
ATOM     24  H   LIG d   1      10.625   3.530  -1.598  0.00  0.00     0.025 H 
ENDBRANCH   5  21
ENDBRANCH   1   5
BRANCH   2  25
ATOM     25  C   LIG d   1       7.858   0.926  -4.019  0.00  0.00     0.050 A 
ATOM     26  C   LIG d   1       6.693   1.441  -3.448  0.00  0.00     0.028 A 
ATOM     27  C   LIG d   1       5.567   0.650  -3.351  0.00  0.00     0.283 A 
ATOM     28  H   LIG d   1       6.674   2.457  -3.081  0.00  0.00     0.069 H 
ATOM     29  C   LIG d   1       5.591  -0.652  -3.821  0.00  0.00     0.103 A 
ATOM     30  C   LIG d   1       6.741  -1.168  -4.388  0.00  0.00     0.283 A 
ATOM     31  C   LIG d   1       7.874  -0.388  -4.490  0.00  0.00     0.028 A 
ATOM     32  H   LIG d   1       8.772  -0.792  -4.934  0.00  0.00     0.069 H 
BRANCH  27  33
ATOM     33  N   LIG d   1       4.332   1.195  -2.746  0.00  0.00     0.080 N 
ATOM     34  O   LIG d   1       4.104   1.017  -1.562  0.00  0.00     0.042 OA
ATOM     35  O   LIG d   1       3.543   1.822  -3.430  0.00  0.00    -0.576 OA
ENDBRANCH  27  33
BRANCH  29  36
ATOM     36  C   LIG d   1       4.356  -1.510  -3.713  0.00  0.00    -0.027 C 
ATOM     37  H   LIG d   1       4.582  -2.397  -3.122  0.00  0.00     0.028 H 
ATOM     38  H   LIG d   1       3.561  -0.943  -3.229  0.00  0.00     0.028 H 
ATOM     39  H   LIG d   1       4.035  -1.810  -4.711  0.00  0.00     0.028 H 
ENDBRANCH  29  36
BRANCH  30  40
ATOM     40  N   LIG d   1       6.756  -2.560  -4.892  0.00  0.00     0.080 N 
ATOM     41  O   LIG d   1       7.174  -3.460  -4.187  0.00  0.00     0.042 OA
ATOM     42  O   LIG d   1       6.351  -2.805  -6.015  0.00  0.00    -0.576 OA
ENDBRANCH  30  40
ENDBRANCH   2  25
TORSDOF 8
ENDMDL
MODEL 7
REMARK VINA RESULT:      -5.8      8.947     13.612
REMARK  8 active torsions:
REMARK  status: ('A' for Active; 'I' for Inactive)
REMARK    1  A    between atoms: C_1  and  C_2 
REMARK    2  A    between atoms: C_5  and  C_8 
REMARK    3  A    between atoms: C_8  and  C_10 
REMARK    4  A    between atoms: C_8  and  N_11 
REMARK       I    between atoms: N_11  and  C_12 
REMARK    5  A    between atoms: C_12  and  C_14 
REMARK    6  A    between atoms: C_16  and  N_24 
REMARK    7  A    between atoms: C_17  and  C_23 
REMARK    8  A    between atoms: C_18  and  N_20 
ROOT
ATOM      1  N   LIG d   1       6.386  -5.690  -5.412  0.00  0.00    -0.305 N 
ATOM      2  C   LIG d   1       6.033  -6.453  -6.464  0.00  0.00     0.245 C 
ATOM      3  O   LIG d   1       6.156  -6.023  -7.595  0.00  0.00    -0.270 OA
ATOM      4  H   LIG d   1       6.287  -6.033  -4.509  0.00  0.00     0.150 HD
ENDROOT
BRANCH   1   5
ATOM      5  C   LIG d   1       6.917  -4.342  -5.629  0.00  0.00     0.046 C 
ATOM      6  H   LIG d   1       6.699  -4.026  -6.649  0.00  0.00     0.054 H 
BRANCH   5   7
ATOM      7  C   LIG d   1       6.273  -3.385  -4.659  0.00  0.00    -0.028 A 
ATOM      8  C   LIG d   1       7.042  -2.441  -4.007  0.00  0.00    -0.057 A 
ATOM      9  C   LIG d   1       6.450  -1.563  -3.117  0.00  0.00    -0.059 A 
ATOM     10  H   LIG d   1       8.105  -2.387  -4.191  0.00  0.00     0.062 H 
ATOM     11  C   LIG d   1       5.090  -1.631  -2.880  0.00  0.00    -0.050 A 
ATOM     12  H   LIG d   1       7.051  -0.824  -2.607  0.00  0.00     0.062 H 
ATOM     13  C   LIG d   1       4.321  -2.576  -3.532  0.00  0.00    -0.059 A 
ATOM     14  C   LIG d   1       4.911  -3.450  -4.426  0.00  0.00    -0.057 A 
ATOM     15  H   LIG d   1       3.258  -2.629  -3.348  0.00  0.00     0.062 H 
ATOM     16  H   LIG d   1       4.310  -4.185  -4.940  0.00  0.00     0.062 H 
BRANCH  11  17
ATOM     17  C   LIG d   1       4.446  -0.675  -1.909  0.00  0.00    -0.040 C 
ATOM     18  H   LIG d   1       5.182   0.060  -1.581  0.00  0.00     0.028 H 
ATOM     19  H   LIG d   1       3.617  -0.164  -2.397  0.00  0.00     0.028 H 
ATOM     20  H   LIG d   1       4.075  -1.228  -1.045  0.00  0.00     0.028 H 
ENDBRANCH  11  17
ENDBRANCH   5   7
BRANCH   5  21
ATOM     21  C   LIG d   1       8.431  -4.350  -5.409  0.00  0.00    -0.042 C 
ATOM     22  H   LIG d   1       8.927  -3.921  -6.280  0.00  0.00     0.025 H 
ATOM     23  H   LIG d   1       8.673  -3.758  -4.526  0.00  0.00     0.025 H 
ATOM     24  H   LIG d   1       8.772  -5.375  -5.265  0.00  0.00     0.025 H 
ENDBRANCH   5  21
ENDBRANCH   1   5
BRANCH   2  25
ATOM     25  C   LIG d   1       5.496  -7.813  -6.244  0.00  0.00     0.050 A 
ATOM     26  C   LIG d   1       5.017  -8.183  -4.987  0.00  0.00     0.028 A 
ATOM     27  C   LIG d   1       4.518  -9.454  -4.788  0.00  0.00     0.283 A 
ATOM     28  H   LIG d   1       5.037  -7.476  -4.171  0.00  0.00     0.069 H 
ATOM     29  C   LIG d   1       4.492 -10.361  -5.833  0.00  0.00     0.103 A 
ATOM     30  C   LIG d   1       4.966 -10.001  -7.082  0.00  0.00     0.283 A 
ATOM     31  C   LIG d   1       5.468  -8.734  -7.294  0.00  0.00     0.028 A 
ATOM     32  H   LIG d   1       5.837  -8.453  -8.269  0.00  0.00     0.069 H 
BRANCH  27  33
ATOM     33  N   LIG d   1       4.010  -9.847  -3.456  0.00  0.00     0.080 N 
ATOM     34  O   LIG d   1       2.830  -9.705  -3.187  0.00  0.00     0.042 OA
ATOM     35  O   LIG d   1       4.771 -10.315  -2.627  0.00  0.00    -0.576 OA
ENDBRANCH  27  33
BRANCH  29  36
ATOM     36  C   LIG d   1       3.945 -11.747  -5.609  0.00  0.00    -0.027 C 
ATOM     37  H   LIG d   1       2.897 -11.681  -5.318  0.00  0.00     0.028 H 
ATOM     38  H   LIG d   1       4.032 -12.326  -6.528  0.00  0.00     0.028 H 
ATOM     39  H   LIG d   1       4.512 -12.237  -4.816  0.00  0.00     0.028 H 
ENDBRANCH  29  36
BRANCH  30  40
ATOM     40  N   LIG d   1       4.929 -10.976  -8.195  0.00  0.00     0.080 N 
ATOM     41  O   LIG d   1       3.942 -11.057  -8.902  0.00  0.00     0.042 OA
ATOM     42  O   LIG d   1       5.889 -11.697  -8.404  0.00  0.00    -0.576 OA
ENDBRANCH  30  40
ENDBRANCH   2  25
TORSDOF 8
ENDMDL
MODEL 8
REMARK VINA RESULT:      -5.7      8.653     12.208
REMARK  8 active torsions:
REMARK  status: ('A' for Active; 'I' for Inactive)
REMARK    1  A    between atoms: C_1  and  C_2 
REMARK    2  A    between atoms: C_5  and  C_8 
REMARK    3  A    between atoms: C_8  and  C_10 
REMARK    4  A    between atoms: C_8  and  N_11 
REMARK       I    between atoms: N_11  and  C_12 
REMARK    5  A    between atoms: C_12  and  C_14 
REMARK    6  A    between atoms: C_16  and  N_24 
REMARK    7  A    between atoms: C_17  and  C_23 
REMARK    8  A    between atoms: C_18  and  N_20 
ROOT
ATOM      1  N   LIG d   1       5.287  -4.233  -5.678  0.00  0.00    -0.305 N 
ATOM      2  C   LIG d   1       4.644  -5.406  -5.837  0.00  0.00     0.245 C 
ATOM      3  O   LIG d   1       3.511  -5.423  -6.279  0.00  0.00    -0.270 OA
ATOM      4  H   LIG d   1       6.191  -4.219  -5.325  0.00  0.00     0.150 HD
ENDROOT
BRANCH   1   5
ATOM      5  C   LIG d   1       4.621  -2.978  -6.037  0.00  0.00     0.046 C 
ATOM      6  H   LIG d   1       3.595  -3.185  -6.338  0.00  0.00     0.054 H 
BRANCH   5   7
ATOM      7  C   LIG d   1       4.618  -2.052  -4.847  0.00  0.00    -0.028 A 
ATOM      8  C   LIG d   1       4.858  -0.703  -5.021  0.00  0.00    -0.057 A 
ATOM      9  C   LIG d   1       4.855   0.145  -3.929  0.00  0.00    -0.059 A 
ATOM     10  H   LIG d   1       5.048  -0.310  -6.009  0.00  0.00     0.062 H 
ATOM     11  C   LIG d   1       4.613  -0.357  -2.664  0.00  0.00    -0.050 A 
ATOM     12  H   LIG d   1       5.042   1.201  -4.065  0.00  0.00     0.062 H 
ATOM     13  C   LIG d   1       4.374  -1.706  -2.490  0.00  0.00    -0.059 A 
ATOM     14  C   LIG d   1       4.371  -2.554  -3.582  0.00  0.00    -0.057 A 
ATOM     15  H   LIG d   1       4.184  -2.099  -1.502  0.00  0.00     0.062 H 
ATOM     16  H   LIG d   1       4.179  -3.608  -3.448  0.00  0.00     0.062 H 
BRANCH  11  17
ATOM     17  C   LIG d   1       4.612   0.568  -1.474  0.00  0.00    -0.040 C 
ATOM     18  H   LIG d   1       5.087   1.511  -1.746  0.00  0.00     0.028 H 
ATOM     19  H   LIG d   1       3.585   0.758  -1.162  0.00  0.00     0.028 H 
ATOM     20  H   LIG d   1       5.162   0.108  -0.654  0.00  0.00     0.028 H 
ENDBRANCH  11  17
ENDBRANCH   5   7
BRANCH   5  21
ATOM     21  C   LIG d   1       5.371  -2.317  -7.196  0.00  0.00    -0.042 C 
ATOM     22  H   LIG d   1       6.423  -2.209  -6.933  0.00  0.00     0.025 H 
ATOM     23  H   LIG d   1       5.281  -2.938  -8.087  0.00  0.00     0.025 H 
ATOM     24  H   LIG d   1       4.943  -1.334  -7.392  0.00  0.00     0.025 H 
ENDBRANCH   5  21
ENDBRANCH   1   5
BRANCH   2  25
ATOM     25  C   LIG d   1       5.316  -6.672  -5.475  0.00  0.00     0.050 A 
ATOM     26  C   LIG d   1       4.560  -7.789  -5.116  0.00  0.00     0.028 A 
ATOM     27  C   LIG d   1       5.193  -8.968  -4.778  0.00  0.00     0.283 A 
ATOM     28  H   LIG d   1       3.481  -7.731  -5.104  0.00  0.00     0.069 H 
ATOM     29  C   LIG d   1       6.574  -9.043  -4.794  0.00  0.00     0.103 A 
ATOM     30  C   LIG d   1       7.329  -7.940  -5.148  0.00  0.00     0.283 A 
ATOM     31  C   LIG d   1       6.710  -6.756  -5.488  0.00  0.00     0.028 A 
ATOM     32  H   LIG d   1       7.300  -5.895  -5.765  0.00  0.00     0.069 H 
BRANCH  27  33
ATOM     33  N   LIG d   1       4.392 -10.153  -4.398  0.00  0.00     0.080 N 
ATOM     34  O   LIG d   1       3.883 -10.846  -5.260  0.00  0.00     0.042 OA
ATOM     35  O   LIG d   1       4.243 -10.435  -3.222  0.00  0.00    -0.576 OA
ENDBRANCH  27  33
BRANCH  29  36
ATOM     36  C   LIG d   1       7.259 -10.334  -4.424  0.00  0.00    -0.027 C 
ATOM     37  H   LIG d   1       7.499 -10.325  -3.361  0.00  0.00     0.028 H 
ATOM     38  H   LIG d   1       6.596 -11.172  -4.640  0.00  0.00     0.028 H 
ATOM     39  H   LIG d   1       8.176 -10.437  -5.003  0.00  0.00     0.028 H 
ENDBRANCH  29  36
BRANCH  30  40
ATOM     40  N   LIG d   1       8.807  -8.031  -5.167  0.00  0.00     0.080 N 
ATOM     41  O   LIG d   1       9.383  -8.377  -6.182  0.00  0.00     0.042 OA
ATOM     42  O   LIG d   1       9.446  -7.759  -4.166  0.00  0.00    -0.576 OA
ENDBRANCH  30  40
ENDBRANCH   2  25
TORSDOF 8
ENDMDL
MODEL 9
REMARK VINA RESULT:      -5.7      6.686      9.618
REMARK  8 active torsions:
REMARK  status: ('A' for Active; 'I' for Inactive)
REMARK    1  A    between atoms: C_1  and  C_2 
REMARK    2  A    between atoms: C_5  and  C_8 
REMARK    3  A    between atoms: C_8  and  C_10 
REMARK    4  A    between atoms: C_8  and  N_11 
REMARK       I    between atoms: N_11  and  C_12 
REMARK    5  A    between atoms: C_12  and  C_14 
REMARK    6  A    between atoms: C_16  and  N_24 
REMARK    7  A    between atoms: C_17  and  C_23 
REMARK    8  A    between atoms: C_18  and  N_20 
ROOT
ATOM      1  N   LIG d   1       2.952  -0.583  -8.499  0.00  0.00    -0.305 N 
ATOM      2  C   LIG d   1       3.230   0.263  -7.488  0.00  0.00     0.245 C 
ATOM      3  O   LIG d   1       3.073   1.459  -7.637  0.00  0.00    -0.270 OA
ATOM      4  H   LIG d   1       3.078  -1.538  -8.381  0.00  0.00     0.150 HD
ENDROOT
BRANCH   1   5
ATOM      5  C   LIG d   1       2.459  -0.062  -9.777  0.00  0.00     0.046 C 
ATOM      6  H   LIG d   1       2.290   1.011  -9.690  0.00  0.00     0.054 H 
BRANCH   5   7
ATOM      7  C   LIG d   1       3.479  -0.324 -10.854  0.00  0.00    -0.028 A 
ATOM      8  C   LIG d   1       4.827  -0.215 -10.570  0.00  0.00    -0.057 A 
ATOM      9  C   LIG d   1       5.763  -0.456 -11.558  0.00  0.00    -0.059 A 
ATOM     10  H   LIG d   1       5.149   0.059  -9.576  0.00  0.00     0.062 H 
ATOM     11  C   LIG d   1       5.351  -0.805 -12.831  0.00  0.00    -0.050 A 
ATOM     12  H   LIG d   1       6.817  -0.371 -11.336  0.00  0.00     0.062 H 
ATOM     13  C   LIG d   1       4.003  -0.914 -13.115  0.00  0.00    -0.059 A 
ATOM     14  C   LIG d   1       3.066  -0.679 -12.125  0.00  0.00    -0.057 A 
ATOM     15  H   LIG d   1       3.681  -1.188 -14.109  0.00  0.00     0.062 H 
ATOM     16  H   LIG d   1       2.013  -0.768 -12.345  0.00  0.00     0.062 H 
BRANCH  11  17
ATOM     17  C   LIG d   1       6.372  -1.066 -13.908  0.00  0.00    -0.040 C 
ATOM     18  H   LIG d   1       6.556  -2.139 -13.982  0.00  0.00     0.028 H 
ATOM     19  H   LIG d   1       5.996  -0.697 -14.862  0.00  0.00     0.028 H 
ATOM     20  H   LIG d   1       7.302  -0.555 -13.660  0.00  0.00     0.028 H 
ENDBRANCH  11  17
ENDBRANCH   5   7
BRANCH   5  21
ATOM     21  C   LIG d   1       1.145  -0.757 -10.137  0.00  0.00    -0.042 C 
ATOM     22  H   LIG d   1       0.308  -0.105  -9.887  0.00  0.00     0.025 H 
ATOM     23  H   LIG d   1       1.129  -0.972 -11.206  0.00  0.00     0.025 H 
ATOM     24  H   LIG d   1       1.060  -1.688  -9.577  0.00  0.00     0.025 H 
ENDBRANCH   5  21
ENDBRANCH   1   5
BRANCH   2  25
ATOM     25  C   LIG d   1       3.728  -0.264  -6.199  0.00  0.00     0.050 A 
ATOM     26  C   LIG d   1       3.757   0.557  -5.071  0.00  0.00     0.028 A 
ATOM     27  C   LIG d   1       4.224   0.060  -3.872  0.00  0.00     0.283 A 
ATOM     28  H   LIG d   1       3.414   1.579  -5.137  0.00  0.00     0.069 H 
ATOM     29  C   LIG d   1       4.663  -1.250  -3.787  0.00  0.00     0.103 A 
ATOM     30  C   LIG d   1       4.637  -2.068  -4.901  0.00  0.00     0.283 A 
ATOM     31  C   LIG d   1       4.173  -1.584  -6.106  0.00  0.00     0.028 A 
ATOM     32  H   LIG d   1       4.153  -2.224  -6.976  0.00  0.00     0.069 H 
BRANCH  27  33
ATOM     33  N   LIG d   1       4.255   0.929  -2.675  0.00  0.00     0.080 N 
ATOM     34  O   LIG d   1       3.241   1.106  -2.023  0.00  0.00     0.042 OA
ATOM     35  O   LIG d   1       5.295   1.468  -2.340  0.00  0.00    -0.576 OA
ENDBRANCH  27  33
BRANCH  29  36
ATOM     36  C   LIG d   1       5.171  -1.786  -2.472  0.00  0.00    -0.027 C 
ATOM     37  H   LIG d   1       4.518  -2.589  -2.132  0.00  0.00     0.028 H 
ATOM     38  H   LIG d   1       6.183  -2.169  -2.603  0.00  0.00     0.028 H 
ATOM     39  H   LIG d   1       5.177  -0.985  -1.732  0.00  0.00     0.028 H 
ENDBRANCH  29  36
BRANCH  30  40
ATOM     40  N   LIG d   1       5.103  -3.469  -4.799  0.00  0.00     0.080 N 
ATOM     41  O   LIG d   1       6.290  -3.726  -4.893  0.00  0.00     0.042 OA
ATOM     42  O   LIG d   1       4.299  -4.367  -4.623  0.00  0.00    -0.576 OA
ENDBRANCH  30  40
ENDBRANCH   2  25
TORSDOF 8
ENDMDL
MODEL 10
REMARK VINA RESULT:      -5.7      6.681      9.567
REMARK  8 active torsions:
REMARK  status: ('A' for Active; 'I' for Inactive)
REMARK    1  A    between atoms: C_1  and  C_2 
REMARK    2  A    between atoms: C_5  and  C_8 
REMARK    3  A    between atoms: C_8  and  C_10 
REMARK    4  A    between atoms: C_8  and  N_11 
REMARK       I    between atoms: N_11  and  C_12 
REMARK    5  A    between atoms: C_12  and  C_14 
REMARK    6  A    between atoms: C_16  and  N_24 
REMARK    7  A    between atoms: C_17  and  C_23 
REMARK    8  A    between atoms: C_18  and  N_20 
ROOT
ATOM      1  N   LIG d   1       2.962  -0.581  -8.520  0.00  0.00    -0.305 N 
ATOM      2  C   LIG d   1       3.221   0.261  -7.501  0.00  0.00     0.245 C 
ATOM      3  O   LIG d   1       3.043   1.456  -7.639  0.00  0.00    -0.270 OA
ATOM      4  H   LIG d   1       3.104  -1.534  -8.410  0.00  0.00     0.150 HD
ENDROOT
BRANCH   1   5
ATOM      5  C   LIG d   1       2.466  -0.057  -9.796  0.00  0.00     0.046 C 
ATOM      6  H   LIG d   1       2.304   1.018  -9.708  0.00  0.00     0.054 H 
BRANCH   5   7
ATOM      7  C   LIG d   1       3.480  -0.325 -10.878  0.00  0.00    -0.028 A 
ATOM      8  C   LIG d   1       4.827  -0.160 -10.618  0.00  0.00    -0.057 A 
ATOM      9  C   LIG d   1       5.757  -0.407 -11.611  0.00  0.00    -0.059 A 
ATOM     10  H   LIG d   1       5.153   0.161  -9.640  0.00  0.00     0.062 H 
ATOM     11  C   LIG d   1       5.339  -0.817 -12.863  0.00  0.00    -0.050 A 
ATOM     12  H   LIG d   1       6.810  -0.279 -11.408  0.00  0.00     0.062 H 
ATOM     13  C   LIG d   1       3.992  -0.982 -13.123  0.00  0.00    -0.059 A 
ATOM     14  C   LIG d   1       3.062  -0.741 -12.129  0.00  0.00    -0.057 A 
ATOM     15  H   LIG d   1       3.665  -1.304 -14.101  0.00  0.00     0.062 H 
ATOM     16  H   LIG d   1       2.009  -0.874 -12.329  0.00  0.00     0.062 H 
BRANCH  11  17
ATOM     17  C   LIG d   1       6.353  -1.085 -13.945  0.00  0.00    -0.040 C 
ATOM     18  H   LIG d   1       6.572  -2.152 -13.982  0.00  0.00     0.028 H 
ATOM     19  H   LIG d   1       5.953  -0.764 -14.907  0.00  0.00     0.028 H 
ATOM     20  H   LIG d   1       7.269  -0.533 -13.731  0.00  0.00     0.028 H 
ENDBRANCH  11  17
ENDBRANCH   5   7
BRANCH   5  21
ATOM     21  C   LIG d   1       1.146  -0.744 -10.150  0.00  0.00    -0.042 C 
ATOM     22  H   LIG d   1       0.349  -0.001 -10.193  0.00  0.00     0.025 H 
ATOM     23  H   LIG d   1       1.240  -1.232 -11.120  0.00  0.00     0.025 H 
ATOM     24  H   LIG d   1       0.908  -1.488  -9.390  0.00  0.00     0.025 H 
ENDBRANCH   5  21
ENDBRANCH   1   5
BRANCH   2  25
ATOM     25  C   LIG d   1       3.722  -0.268  -6.214  0.00  0.00     0.050 A 
ATOM     26  C   LIG d   1       4.160  -1.590  -6.122  0.00  0.00     0.028 A 
ATOM     27  C   LIG d   1       4.625  -2.078  -4.919  0.00  0.00     0.283 A 
ATOM     28  H   LIG d   1       4.135  -2.230  -6.992  0.00  0.00     0.069 H 
ATOM     29  C   LIG d   1       4.658  -1.258  -3.804  0.00  0.00     0.103 A 
ATOM     30  C   LIG d   1       4.225   0.052  -3.887  0.00  0.00     0.283 A 
ATOM     31  C   LIG d   1       3.757   0.552  -5.085  0.00  0.00     0.028 A 
ATOM     32  H   LIG d   1       3.420   1.576  -5.150  0.00  0.00     0.069 H 
BRANCH  27  33
ATOM     33  N   LIG d   1       5.090  -3.479  -4.820  0.00  0.00     0.080 N 
ATOM     34  O   LIG d   1       6.275  -3.737  -4.937  0.00  0.00     0.042 OA
ATOM     35  O   LIG d   1       4.288  -4.374  -4.622  0.00  0.00    -0.576 OA
ENDBRANCH  27  33
BRANCH  29  36
ATOM     36  C   LIG d   1       5.169  -1.798  -2.492  0.00  0.00    -0.027 C 
ATOM     37  H   LIG d   1       6.069  -1.257  -2.203  0.00  0.00     0.028 H 
ATOM     38  H   LIG d   1       4.405  -1.671  -1.725  0.00  0.00     0.028 H 
ATOM     39  H   LIG d   1       5.401  -2.858  -2.602  0.00  0.00     0.028 H 
ENDBRANCH  29  36
BRANCH  30  40
ATOM     40  N   LIG d   1       4.269   0.923  -2.691  0.00  0.00     0.080 N 
ATOM     41  O   LIG d   1       3.277   1.057  -1.998  0.00  0.00     0.042 OA
ATOM     42  O   LIG d   1       5.298   1.506  -2.401  0.00  0.00    -0.576 OA
ENDBRANCH  30  40
ENDBRANCH   2  25
TORSDOF 8
ENDMDL
