MODEL 1
REMARK VINA RESULT:      -5.2      0.000      0.000
REMARK  7 active torsions:
REMARK  status: ('A' for Active; 'I' for Inactive)
REMARK    1  A    between atoms: C_3  and  N_19 
REMARK    2  A    between atoms: N_7  and  C_10 
REMARK    3  A    between atoms: C_10  and  C_11 
REMARK    4  A    between atoms: C_11  and  C_13 
REMARK    5  A    between atoms: C_11  and  O_18 
REMARK    6  A    between atoms: C_13  and  C_15 
REMARK    7  A    between atoms: C_13  and  O_17 
ROOT
ATOM      1  C   LIG d   1      11.664   8.730   1.717  0.00  0.00     0.120 A 
ATOM      2  N   LIG d   1      11.477   7.459   2.025  0.00  0.00    -0.219 NA
ATOM      3  C   LIG d   1      10.973   6.604   1.142  0.00  0.00     0.147 A 
ATOM      4  C   LIG d   1      10.638   7.082  -0.138  0.00  0.00     0.147 A 
ATOM      5  C   LIG d   1      10.855   8.441  -0.415  0.00  0.00     0.165 A 
ATOM      6  N   LIG d   1      11.365   9.221   0.533  0.00  0.00    -0.216 NA
ATOM      7  N   LIG d   1      10.449   8.632  -1.712  0.00  0.00    -0.312 N 
ATOM      8  C   LIG d   1      10.007   7.431  -2.182  0.00  0.00     0.098 A 
ATOM      9  N   LIG d   1      10.120   6.523  -1.258  0.00  0.00    -0.231 NA
ATOM     10  H   LIG d   1      12.077   9.391   2.464  0.00  0.00     0.105 H 
ATOM     11  H   LIG d   1       9.623   7.259  -3.177  0.00  0.00     0.103 H 
ENDROOT
BRANCH   7  12
ATOM     12  C   LIG d   1      10.483   9.895  -2.455  0.00  0.00     0.055 C 
ATOM     13  H   LIG d   1      11.437  10.392  -2.283  0.00  0.00     0.052 H 
ATOM     14  H   LIG d   1      10.363   9.693  -3.519  0.00  0.00     0.052 H 
BRANCH  12  15
ATOM     15  C   LIG d   1       9.344  10.798  -1.976  0.00  0.00     0.104 C 
ATOM     16  H   LIG d   1       8.553  10.186  -1.542  0.00  0.00     0.064 H 
BRANCH  15  17
ATOM     17  C   LIG d   1       8.786  11.587  -3.162  0.00  0.00     0.122 C 
ATOM     18  H   LIG d   1       9.120  11.129  -4.093  0.00  0.00     0.068 H 
BRANCH  17  19
ATOM     19  C   LIG d   1       9.280  13.009  -3.097  0.00  0.00     0.073 C 
ATOM     20  O   LIG d   1       8.538  13.890  -2.734  0.00  0.00    -0.547 OA
ATOM     21  O   LIG d   1      10.546  13.296  -3.440  0.00  0.00    -0.547 OA
ENDBRANCH  17  19
BRANCH  17  22
ATOM     22  O   LIG d   1       7.358  11.577  -3.112  0.00  0.00    -0.383 OA
ATOM     23  H   LIG d   1       6.933  11.793  -3.953  0.00  0.00     0.210 HD
ENDBRANCH  17  22
ENDBRANCH  15  17
BRANCH  15  24
ATOM     24  O   LIG d   1       9.838  11.707  -0.990  0.00  0.00    -0.387 OA
ATOM     25  H   LIG d   1      10.734  11.507  -0.685  0.00  0.00     0.210 HD
ENDBRANCH  15  24
ENDBRANCH  12  15
ENDBRANCH   7  12
BRANCH   3  26
ATOM     26  N   LIG d   1      10.781   5.274   1.473  0.00  0.00    -0.341 NA
ATOM     27  H   LIG d   1      10.036   4.898   0.923  0.00  0.00     0.144 HD
ATOM     28  H   LIG d   1      10.549   5.029   2.381  0.00  0.00     0.144 HD
ENDBRANCH   3  26
TORSDOF 7
ENDMDL
MODEL 2
REMARK VINA RESULT:      -5.0     11.707     13.531
REMARK  7 active torsions:
REMARK  status: ('A' for Active; 'I' for Inactive)
REMARK    1  A    between atoms: C_3  and  N_19 
REMARK    2  A    between atoms: N_7  and  C_10 
REMARK    3  A    between atoms: C_10  and  C_11 
REMARK    4  A    between atoms: C_11  and  C_13 
REMARK    5  A    between atoms: C_11  and  O_18 
REMARK    6  A    between atoms: C_13  and  C_15 
REMARK    7  A    between atoms: C_13  and  O_17 
ROOT
ATOM      1  C   LIG d   1       3.647   2.570  -9.521  0.00  0.00     0.120 A 
ATOM      2  N   LIG d   1       4.181   1.904 -10.529  0.00  0.00    -0.219 NA
ATOM      3  C   LIG d   1       4.456   0.609 -10.428  0.00  0.00     0.147 A 
ATOM      4  C   LIG d   1       4.165  -0.046  -9.218  0.00  0.00     0.147 A 
ATOM      5  C   LIG d   1       3.597   0.707  -8.177  0.00  0.00     0.165 A 
ATOM      6  N   LIG d   1       3.358   2.000  -8.371  0.00  0.00    -0.216 NA
ATOM      7  N   LIG d   1       3.420  -0.165  -7.133  0.00  0.00    -0.312 N 
ATOM      8  C   LIG d   1       3.866  -1.387  -7.541  0.00  0.00     0.098 A 
ATOM      9  N   LIG d   1       4.303  -1.316  -8.764  0.00  0.00    -0.231 NA
ATOM     10  H   LIG d   1       3.439   3.623  -9.646  0.00  0.00     0.105 H 
ATOM     11  H   LIG d   1       3.858  -2.283  -6.937  0.00  0.00     0.103 H 
ENDROOT
BRANCH   7  12
ATOM     12  C   LIG d   1       2.854   0.157  -5.820  0.00  0.00     0.055 C 
ATOM     13  H   LIG d   1       2.780   1.239  -5.712  0.00  0.00     0.052 H 
ATOM     14  H   LIG d   1       1.863  -0.286  -5.733  0.00  0.00     0.052 H 
BRANCH  12  15
ATOM     15  C   LIG d   1       3.762  -0.404  -4.723  0.00  0.00     0.104 C 
ATOM     16  H   LIG d   1       3.914  -1.470  -4.888  0.00  0.00     0.064 H 
BRANCH  15  17
ATOM     17  C   LIG d   1       3.106  -0.187  -3.358  0.00  0.00     0.122 C 
ATOM     18  H   LIG d   1       2.044   0.019  -3.493  0.00  0.00     0.068 H 
BRANCH  17  19
ATOM     19  C   LIG d   1       3.759   0.981  -2.666  0.00  0.00     0.073 C 
ATOM     20  O   LIG d   1       4.390   0.805  -1.650  0.00  0.00    -0.547 OA
ATOM     21  O   LIG d   1       3.641   2.216  -3.178  0.00  0.00    -0.547 OA
ENDBRANCH  17  19
BRANCH  17  22
ATOM     22  O   LIG d   1       3.265  -1.363  -2.561  0.00  0.00    -0.383 OA
ATOM     23  H   LIG d   1       4.111  -1.813  -2.689  0.00  0.00     0.210 HD
ENDBRANCH  17  22
ENDBRANCH  15  17
BRANCH  15  24
ATOM     24  O   LIG d   1       5.022   0.268  -4.757  0.00  0.00    -0.387 OA
ATOM     25  H   LIG d   1       5.274   0.590  -5.634  0.00  0.00     0.210 HD
ENDBRANCH  15  24
ENDBRANCH  12  15
ENDBRANCH   7  12
BRANCH   3  26
ATOM     26  N   LIG d   1       5.016  -0.082 -11.489  0.00  0.00    -0.341 NA
ATOM     27  H   LIG d   1       5.520   0.555 -12.072  0.00  0.00     0.144 HD
ATOM     28  H   LIG d   1       4.448  -0.566 -12.107  0.00  0.00     0.144 HD
ENDBRANCH   3  26
TORSDOF 7
ENDMDL
MODEL 3
REMARK VINA RESULT:      -4.7      3.979      6.765
REMARK  7 active torsions:
REMARK  status: ('A' for Active; 'I' for Inactive)
REMARK    1  A    between atoms: C_3  and  N_19 
REMARK    2  A    between atoms: N_7  and  C_10 
REMARK    3  A    between atoms: C_10  and  C_11 
REMARK    4  A    between atoms: C_11  and  C_13 
REMARK    5  A    between atoms: C_11  and  O_18 
REMARK    6  A    between atoms: C_13  and  C_15 
REMARK    7  A    between atoms: C_13  and  O_17 
ROOT
ATOM      1  C   LIG d   1       9.681  14.286  -4.718  0.00  0.00     0.120 A 
ATOM      2  N   LIG d   1       9.426  14.171  -6.009  0.00  0.00    -0.219 NA
ATOM      3  C   LIG d   1       9.344  12.979  -6.590  0.00  0.00     0.147 A 
ATOM      4  C   LIG d   1       9.535  11.832  -5.798  0.00  0.00     0.147 A 
ATOM      5  C   LIG d   1       9.803  12.008  -4.431  0.00  0.00     0.165 A 
ATOM      6  N   LIG d   1       9.867  13.241  -3.939  0.00  0.00    -0.216 NA
ATOM      7  N   LIG d   1       9.944  10.748  -3.908  0.00  0.00    -0.312 N 
ATOM      8  C   LIG d   1       9.766   9.861  -4.928  0.00  0.00     0.098 A 
ATOM      9  N   LIG d   1       9.525  10.498  -6.036  0.00  0.00    -0.231 NA
ATOM     10  H   LIG d   1       9.739  15.273  -4.285  0.00  0.00     0.105 H 
ATOM     11  H   LIG d   1       9.815   8.786  -4.830  0.00  0.00     0.103 H 
ENDROOT
BRANCH   7  12
ATOM     12  C   LIG d   1      10.232  10.416  -2.510  0.00  0.00     0.055 C 
ATOM     13  H   LIG d   1      11.256  10.703  -2.272  0.00  0.00     0.052 H 
ATOM     14  H   LIG d   1       9.542  10.954  -1.860  0.00  0.00     0.052 H 
BRANCH  12  15
ATOM     15  C   LIG d   1      10.062   8.909  -2.299  0.00  0.00     0.104 C 
ATOM     16  H   LIG d   1       9.429   8.502  -3.087  0.00  0.00     0.064 H 
BRANCH  15  17
ATOM     17  C   LIG d   1       9.412   8.655  -0.938  0.00  0.00     0.122 C 
ATOM     18  H   LIG d   1       9.210   9.608  -0.448  0.00  0.00     0.068 H 
BRANCH  17  19
ATOM     19  C   LIG d   1      10.343   7.838  -0.081  0.00  0.00     0.073 C 
ATOM     20  O   LIG d   1      11.182   8.387   0.594  0.00  0.00    -0.547 OA
ATOM     21  O   LIG d   1      10.239   6.499  -0.066  0.00  0.00    -0.547 OA
ENDBRANCH  17  19
BRANCH  17  22
ATOM     22  O   LIG d   1       8.186   7.945  -1.121  0.00  0.00    -0.383 OA
ATOM     23  H   LIG d   1       7.411   8.515  -1.216  0.00  0.00     0.210 HD
ENDBRANCH  17  22
ENDBRANCH  15  17
BRANCH  15  24
ATOM     24  O   LIG d   1      11.342   8.275  -2.341  0.00  0.00    -0.387 OA
ATOM     25  H   LIG d   1      11.616   7.998  -3.226  0.00  0.00     0.210 HD
ENDBRANCH  15  24
ENDBRANCH  12  15
ENDBRANCH   7  12
BRANCH   3  26
ATOM     26  N   LIG d   1       9.077  12.868  -7.944  0.00  0.00    -0.341 NA
ATOM     27  H   LIG d   1       9.891  13.121  -8.466  0.00  0.00     0.144 HD
ATOM     28  H   LIG d   1       8.368  13.395  -8.343  0.00  0.00     0.144 HD
ENDBRANCH   3  26
TORSDOF 7
ENDMDL
MODEL 4
REMARK VINA RESULT:      -4.6     12.689     14.829
REMARK  7 active torsions:
REMARK  status: ('A' for Active; 'I' for Inactive)
REMARK    1  A    between atoms: C_3  and  N_19 
REMARK    2  A    between atoms: N_7  and  C_10 
REMARK    3  A    between atoms: C_10  and  C_11 
REMARK    4  A    between atoms: C_11  and  C_13 
REMARK    5  A    between atoms: C_11  and  O_18 
REMARK    6  A    between atoms: C_13  and  C_15 
REMARK    7  A    between atoms: C_13  and  O_17 
ROOT
ATOM      1  C   LIG d   1       2.957  -3.497  -9.379  0.00  0.00     0.120 A 
ATOM      2  N   LIG d   1       2.100  -2.947 -10.221  0.00  0.00    -0.219 NA
ATOM      3  C   LIG d   1       1.789  -1.658 -10.142  0.00  0.00     0.147 A 
ATOM      4  C   LIG d   1       2.393  -0.883  -9.135  0.00  0.00     0.147 A 
ATOM      5  C   LIG d   1       3.296  -1.515  -8.265  0.00  0.00     0.165 A 
ATOM      6  N   LIG d   1       3.546  -2.811  -8.422  0.00  0.00    -0.216 NA
ATOM      7  N   LIG d   1       3.729  -0.543  -7.398  0.00  0.00    -0.312 N 
ATOM      8  C   LIG d   1       3.103   0.618  -7.743  0.00  0.00     0.098 A 
ATOM      9  N   LIG d   1       2.321   0.418  -8.763  0.00  0.00    -0.231 NA
ATOM     10  H   LIG d   1       3.182  -4.548  -9.478  0.00  0.00     0.105 H 
ATOM     11  H   LIG d   1       3.239   1.567  -7.243  0.00  0.00     0.103 H 
ENDROOT
BRANCH   7  12
ATOM     12  C   LIG d   1       4.685  -0.721  -6.303  0.00  0.00     0.055 C 
ATOM     13  H   LIG d   1       5.166  -1.695  -6.395  0.00  0.00     0.052 H 
ATOM     14  H   LIG d   1       5.440   0.064  -6.350  0.00  0.00     0.052 H 
BRANCH  12  15
ATOM     15  C   LIG d   1       3.948  -0.641  -4.964  0.00  0.00     0.104 C 
ATOM     16  H   LIG d   1       3.036  -0.057  -5.087  0.00  0.00     0.064 H 
BRANCH  15  17
ATOM     17  C   LIG d   1       4.848   0.030  -3.926  0.00  0.00     0.122 C 
ATOM     18  H   LIG d   1       5.798   0.301  -4.388  0.00  0.00     0.068 H 
BRANCH  17  19
ATOM     19  C   LIG d   1       5.099  -0.924  -2.786  0.00  0.00     0.073 C 
ATOM     20  O   LIG d   1       4.411  -0.873  -1.794  0.00  0.00    -0.547 OA
ATOM     21  O   LIG d   1       6.085  -1.830  -2.875  0.00  0.00    -0.547 OA
ENDBRANCH  17  19
BRANCH  17  22
ATOM     22  O   LIG d   1       4.208   1.207  -3.429  0.00  0.00    -0.383 OA
ATOM     23  H   LIG d   1       3.796   1.750  -4.115  0.00  0.00     0.210 HD
ENDBRANCH  17  22
ENDBRANCH  15  17
BRANCH  15  24
ATOM     24  O   LIG d   1       3.615  -1.959  -4.524  0.00  0.00    -0.387 OA
ATOM     25  H   LIG d   1       4.378  -2.490  -4.258  0.00  0.00     0.210 HD
ENDBRANCH  15  24
ENDBRANCH  12  15
ENDBRANCH   7  12
BRANCH   3  26
ATOM     26  N   LIG d   1       0.891  -1.090 -11.029  0.00  0.00    -0.341 NA
ATOM     27  H   LIG d   1      -0.042  -1.296 -10.735  0.00  0.00     0.144 HD
ATOM     28  H   LIG d   1       0.904  -1.346 -11.963  0.00  0.00     0.144 HD
ENDBRANCH   3  26
TORSDOF 7
ENDMDL
MODEL 5
REMARK VINA RESULT:      -4.5      3.968      6.782
REMARK  7 active torsions:
REMARK  status: ('A' for Active; 'I' for Inactive)
REMARK    1  A    between atoms: C_3  and  N_19 
REMARK    2  A    between atoms: N_7  and  C_10 
REMARK    3  A    between atoms: C_10  and  C_11 
REMARK    4  A    between atoms: C_11  and  C_13 
REMARK    5  A    between atoms: C_11  and  O_18 
REMARK    6  A    between atoms: C_13  and  C_15 
REMARK    7  A    between atoms: C_13  and  O_17 
ROOT
ATOM      1  C   LIG d   1      10.855   9.933  -6.933  0.00  0.00     0.120 A 
ATOM      2  N   LIG d   1      10.287  10.881  -7.657  0.00  0.00    -0.219 NA
ATOM      3  C   LIG d   1       9.674  11.910  -7.084  0.00  0.00     0.147 A 
ATOM      4  C   LIG d   1       9.642  11.973  -5.679  0.00  0.00     0.147 A 
ATOM      5  C   LIG d   1      10.261  10.942  -4.955  0.00  0.00     0.165 A 
ATOM      6  N   LIG d   1      10.850   9.951  -5.617  0.00  0.00    -0.216 NA
ATOM      7  N   LIG d   1      10.083  11.250  -3.630  0.00  0.00    -0.312 N 
ATOM      8  C   LIG d   1       9.384  12.419  -3.573  0.00  0.00     0.098 A 
ATOM      9  N   LIG d   1       9.127  12.843  -4.777  0.00  0.00    -0.231 NA
ATOM     10  H   LIG d   1      11.343   9.114  -7.439  0.00  0.00     0.105 H 
ATOM     11  H   LIG d   1       9.089  12.921  -2.664  0.00  0.00     0.103 H 
ENDROOT
BRANCH   7  12
ATOM     12  C   LIG d   1      10.555  10.466  -2.486  0.00  0.00     0.055 C 
ATOM     13  H   LIG d   1      11.616  10.248  -2.608  0.00  0.00     0.052 H 
ATOM     14  H   LIG d   1      10.403  11.035  -1.569  0.00  0.00     0.052 H 
BRANCH  12  15
ATOM     15  C   LIG d   1       9.771   9.154  -2.408  0.00  0.00     0.104 C 
ATOM     16  H   LIG d   1       8.886   9.223  -3.040  0.00  0.00     0.064 H 
BRANCH  15  17
ATOM     17  C   LIG d   1       9.347   8.900  -0.960  0.00  0.00     0.122 C 
ATOM     18  H   LIG d   1       9.396   9.832  -0.397  0.00  0.00     0.068 H 
BRANCH  17  19
ATOM     19  C   LIG d   1      10.270   7.886  -0.336  0.00  0.00     0.073 C 
ATOM     20  O   LIG d   1      11.299   8.247   0.185  0.00  0.00    -0.547 OA
ATOM     21  O   LIG d   1       9.949   6.583  -0.357  0.00  0.00    -0.547 OA
ENDBRANCH  17  19
BRANCH  17  22
ATOM     22  O   LIG d   1       8.007   8.401  -0.937  0.00  0.00    -0.383 OA
ATOM     23  H   LIG d   1       7.331   9.091  -0.901  0.00  0.00     0.210 HD
ENDBRANCH  17  22
ENDBRANCH  15  17
BRANCH  15  24
ATOM     24  O   LIG d   1      10.596   8.078  -2.858  0.00  0.00    -0.387 OA
ATOM     25  H   LIG d   1      10.149   7.463  -3.455  0.00  0.00     0.210 HD
ENDBRANCH  15  24
ENDBRANCH  12  15
ENDBRANCH   7  12
BRANCH   3  26
ATOM     26  N   LIG d   1       9.081  12.899  -7.850  0.00  0.00    -0.341 NA
ATOM     27  H   LIG d   1       9.737  13.234  -8.526  0.00  0.00     0.144 HD
ATOM     28  H   LIG d   1       8.746  13.704  -7.428  0.00  0.00     0.144 HD
ENDBRANCH   3  26
TORSDOF 7
ENDMDL
MODEL 6
REMARK VINA RESULT:      -4.5     13.595     15.610
REMARK  7 active torsions:
REMARK  status: ('A' for Active; 'I' for Inactive)
REMARK    1  A    between atoms: C_3  and  N_19 
REMARK    2  A    between atoms: N_7  and  C_10 
REMARK    3  A    between atoms: C_10  and  C_11 
REMARK    4  A    between atoms: C_11  and  C_13 
REMARK    5  A    between atoms: C_11  and  O_18 
REMARK    6  A    between atoms: C_13  and  C_15 
REMARK    7  A    between atoms: C_13  and  O_17 
ROOT
ATOM      1  C   LIG d   1       2.902   0.589  -5.809  0.00  0.00     0.120 A 
ATOM      2  N   LIG d   1       2.902   1.085  -4.585  0.00  0.00    -0.219 NA
ATOM      3  C   LIG d   1       3.461   0.427  -3.576  0.00  0.00     0.147 A 
ATOM      4  C   LIG d   1       4.058  -0.819  -3.837  0.00  0.00     0.147 A 
ATOM      5  C   LIG d   1       4.032  -1.303  -5.155  0.00  0.00     0.165 A 
ATOM      6  N   LIG d   1       3.448  -0.573  -6.100  0.00  0.00    -0.216 NA
ATOM      7  N   LIG d   1       4.674  -2.515  -5.126  0.00  0.00    -0.312 N 
ATOM      8  C   LIG d   1       5.064  -2.740  -3.839  0.00  0.00     0.098 A 
ATOM      9  N   LIG d   1       4.703  -1.743  -3.084  0.00  0.00    -0.231 NA
ATOM     10  H   LIG d   1       2.436   1.156  -6.600  0.00  0.00     0.105 H 
ATOM     11  H   LIG d   1       5.597  -3.615  -3.497  0.00  0.00     0.103 H 
ENDROOT
BRANCH   7  12
ATOM     12  C   LIG d   1       4.898  -3.405  -6.268  0.00  0.00     0.055 C 
ATOM     13  H   LIG d   1       4.306  -3.064  -7.117  0.00  0.00     0.052 H 
ATOM     14  H   LIG d   1       5.955  -3.395  -6.533  0.00  0.00     0.052 H 
BRANCH  12  15
ATOM     15  C   LIG d   1       4.480  -4.829  -5.893  0.00  0.00     0.104 C 
ATOM     16  H   LIG d   1       4.580  -4.966  -4.817  0.00  0.00     0.064 H 
BRANCH  15  17
ATOM     17  C   LIG d   1       5.377  -5.832  -6.621  0.00  0.00     0.122 C 
ATOM     18  H   LIG d   1       5.918  -5.324  -7.420  0.00  0.00     0.068 H 
BRANCH  17  19
ATOM     19  C   LIG d   1       4.529  -6.930  -7.210  0.00  0.00     0.073 C 
ATOM     20  O   LIG d   1       4.255  -6.916  -8.387  0.00  0.00    -0.547 OA
ATOM     21  O   LIG d   1       4.082  -7.925  -6.428  0.00  0.00    -0.547 OA
ENDBRANCH  17  19
BRANCH  17  22
ATOM     22  O   LIG d   1       6.310  -6.395  -5.697  0.00  0.00    -0.383 OA
ATOM     23  H   LIG d   1       6.777  -7.172  -6.034  0.00  0.00     0.210 HD
ENDBRANCH  17  22
ENDBRANCH  15  17
BRANCH  15  24
ATOM     24  O   LIG d   1       3.120  -5.043  -6.276  0.00  0.00    -0.387 OA
ATOM     25  H   LIG d   1       2.480  -4.543  -5.750  0.00  0.00     0.210 HD
ENDBRANCH  15  24
ENDBRANCH  12  15
ENDBRANCH   7  12
BRANCH   3  26
ATOM     26  N   LIG d   1       3.457   0.955  -2.296  0.00  0.00    -0.341 NA
ATOM     27  H   LIG d   1       3.593   0.220  -1.632  0.00  0.00     0.144 HD
ATOM     28  H   LIG d   1       2.675   1.425  -1.968  0.00  0.00     0.144 HD
ENDBRANCH   3  26
TORSDOF 7
ENDMDL
MODEL 7
REMARK VINA RESULT:      -4.4      2.014      3.265
REMARK  7 active torsions:
REMARK  status: ('A' for Active; 'I' for Inactive)
REMARK    1  A    between atoms: C_3  and  N_19 
REMARK    2  A    between atoms: N_7  and  C_10 
REMARK    3  A    between atoms: C_10  and  C_11 
REMARK    4  A    between atoms: C_11  and  C_13 
REMARK    5  A    between atoms: C_11  and  O_18 
REMARK    6  A    between atoms: C_13  and  C_15 
REMARK    7  A    between atoms: C_13  and  O_17 
ROOT
ATOM      1  C   LIG d   1      10.309   5.871  -4.091  0.00  0.00     0.120 A 
ATOM      2  N   LIG d   1      10.501   4.639  -3.657  0.00  0.00    -0.219 NA
ATOM      3  C   LIG d   1      10.704   4.387  -2.368  0.00  0.00     0.147 A 
ATOM      4  C   LIG d   1      10.710   5.467  -1.468  0.00  0.00     0.147 A 
ATOM      5  C   LIG d   1      10.501   6.758  -1.980  0.00  0.00     0.165 A 
ATOM      6  N   LIG d   1      10.307   6.912  -3.285  0.00  0.00    -0.216 NA
ATOM      7  N   LIG d   1      10.556   7.606  -0.902  0.00  0.00    -0.312 N 
ATOM      8  C   LIG d   1      10.790   6.845   0.205  0.00  0.00     0.098 A 
ATOM      9  N   LIG d   1      10.879   5.590  -0.129  0.00  0.00    -0.231 NA
ATOM     10  H   LIG d   1      10.148   6.032  -5.147  0.00  0.00     0.105 H 
ATOM     11  H   LIG d   1      10.885   7.227   1.210  0.00  0.00     0.103 H 
ENDROOT
BRANCH   7  12
ATOM     12  C   LIG d   1      10.394   9.062  -0.934  0.00  0.00     0.055 C 
ATOM     13  H   LIG d   1      10.204   9.429   0.074  0.00  0.00     0.052 H 
ATOM     14  H   LIG d   1      11.303   9.519  -1.323  0.00  0.00     0.052 H 
BRANCH  12  15
ATOM     15  C   LIG d   1       9.214   9.423  -1.840  0.00  0.00     0.104 C 
ATOM     16  H   LIG d   1       8.786   8.512  -2.259  0.00  0.00     0.064 H 
BRANCH  15  17
ATOM     17  C   LIG d   1       9.700  10.328  -2.973  0.00  0.00     0.122 C 
ATOM     18  H   LIG d   1      10.776  10.476  -2.885  0.00  0.00     0.068 H 
BRANCH  17  19
ATOM     19  C   LIG d   1       9.001  11.661  -2.887  0.00  0.00     0.073 C 
ATOM     20  O   LIG d   1       7.943  11.825  -3.446  0.00  0.00    -0.547 OA
ATOM     21  O   LIG d   1       9.554  12.664  -2.187  0.00  0.00    -0.547 OA
ENDBRANCH  17  19
BRANCH  17  22
ATOM     22  O   LIG d   1       9.405   9.717  -4.231  0.00  0.00    -0.383 OA
ATOM     23  H   LIG d   1       9.474   8.753  -4.226  0.00  0.00     0.210 HD
ENDBRANCH  17  22
ENDBRANCH  15  17
BRANCH  15  24
ATOM     24  O   LIG d   1       8.220  10.109  -1.076  0.00  0.00    -0.387 OA
ATOM     25  H   LIG d   1       8.430  11.036  -0.899  0.00  0.00     0.210 HD
ENDBRANCH  15  24
ENDBRANCH  12  15
ENDBRANCH   7  12
BRANCH   3  26
ATOM     26  N   LIG d   1      10.905   3.093  -1.922  0.00  0.00    -0.341 NA
ATOM     27  H   LIG d   1      11.244   3.114  -0.982  0.00  0.00     0.144 HD
ATOM     28  H   LIG d   1      11.527   2.511  -2.384  0.00  0.00     0.144 HD
ENDBRANCH   3  26
TORSDOF 7
ENDMDL
MODEL 8
REMARK VINA RESULT:      -4.4      4.216      6.672
REMARK  7 active torsions:
REMARK  status: ('A' for Active; 'I' for Inactive)
REMARK    1  A    between atoms: C_3  and  N_19 
REMARK    2  A    between atoms: N_7  and  C_10 
REMARK    3  A    between atoms: C_10  and  C_11 
REMARK    4  A    between atoms: C_11  and  C_13 
REMARK    5  A    between atoms: C_11  and  O_18 
REMARK    6  A    between atoms: C_13  and  C_15 
REMARK    7  A    between atoms: C_13  and  O_17 
ROOT
ATOM      1  C   LIG d   1      10.745  11.143  -6.763  0.00  0.00     0.120 A 
ATOM      2  N   LIG d   1       9.992  10.618  -7.713  0.00  0.00    -0.219 NA
ATOM      3  C   LIG d   1       9.400   9.440  -7.549  0.00  0.00     0.147 A 
ATOM      4  C   LIG d   1       9.590   8.758  -6.334  0.00  0.00     0.147 A 
ATOM      5  C   LIG d   1      10.399   9.359  -5.356  0.00  0.00     0.165 A 
ATOM      6  N   LIG d   1      10.951  10.541  -5.611  0.00  0.00    -0.216 NA
ATOM      7  N   LIG d   1      10.413   8.494  -4.292  0.00  0.00    -0.312 N 
ATOM      8  C   LIG d   1       9.642   7.421  -4.628  0.00  0.00     0.098 A 
ATOM      9  N   LIG d   1       9.159   7.578  -5.827  0.00  0.00    -0.231 NA
ATOM     10  H   LIG d   1      11.208  12.103  -6.938  0.00  0.00     0.105 H 
ATOM     11  H   LIG d   1       9.457   6.567  -3.993  0.00  0.00     0.103 H 
ENDROOT
BRANCH   7  12
ATOM     12  C   LIG d   1      11.126   8.686  -3.026  0.00  0.00     0.055 C 
ATOM     13  H   LIG d   1      12.191   8.808  -3.223  0.00  0.00     0.052 H 
ATOM     14  H   LIG d   1      10.743   9.575  -2.526  0.00  0.00     0.052 H 
BRANCH  12  15
ATOM     15  C   LIG d   1      10.910   7.464  -2.130  0.00  0.00     0.104 C 
ATOM     16  H   LIG d   1      10.257   6.753  -2.636  0.00  0.00     0.064 H 
BRANCH  15  17
ATOM     17  C   LIG d   1      10.263   7.905  -0.815  0.00  0.00     0.122 C 
ATOM     18  H   LIG d   1      10.430   8.972  -0.667  0.00  0.00     0.068 H 
BRANCH  17  19
ATOM     19  C   LIG d   1      10.875   7.138   0.328  0.00  0.00     0.073 C 
ATOM     20  O   LIG d   1      10.466   6.034   0.603  0.00  0.00    -0.547 OA
ATOM     21  O   LIG d   1      11.875   7.679   1.041  0.00  0.00    -0.547 OA
ENDBRANCH  17  19
BRANCH  17  22
ATOM     22  O   LIG d   1       8.858   7.646  -0.865  0.00  0.00    -0.383 OA
ATOM     23  H   LIG d   1       8.564   7.228  -1.686  0.00  0.00     0.210 HD
ENDBRANCH  17  22
ENDBRANCH  15  17
BRANCH  15  24
ATOM     24  O   LIG d   1      12.168   6.845  -1.856  0.00  0.00    -0.387 OA
ATOM     25  H   LIG d   1      12.710   6.691  -2.643  0.00  0.00     0.210 HD
ENDBRANCH  15  24
ENDBRANCH  12  15
ENDBRANCH   7  12
BRANCH   3  26
ATOM     26  N   LIG d   1       8.612   8.897  -8.549  0.00  0.00    -0.341 NA
ATOM     27  H   LIG d   1       8.296   7.991  -8.269  0.00  0.00     0.144 HD
ATOM     28  H   LIG d   1       8.983   8.753  -9.433  0.00  0.00     0.144 HD
ENDBRANCH   3  26
TORSDOF 7
ENDMDL
MODEL 9
REMARK VINA RESULT:      -4.2      4.213      6.659
REMARK  7 active torsions:
REMARK  status: ('A' for Active; 'I' for Inactive)
REMARK    1  A    between atoms: C_3  and  N_19 
REMARK    2  A    between atoms: N_7  and  C_10 
REMARK    3  A    between atoms: C_10  and  C_11 
REMARK    4  A    between atoms: C_11  and  C_13 
REMARK    5  A    between atoms: C_11  and  O_18 
REMARK    6  A    between atoms: C_13  and  C_15 
REMARK    7  A    between atoms: C_13  and  O_17 
ROOT
ATOM      1  C   LIG d   1      10.006  10.486  -5.184  0.00  0.00     0.120 A 
ATOM      2  N   LIG d   1       9.148  11.404  -4.775  0.00  0.00    -0.219 NA
ATOM      3  C   LIG d   1       8.726  11.439  -3.516  0.00  0.00     0.147 A 
ATOM      4  C   LIG d   1       9.215  10.473  -2.618  0.00  0.00     0.147 A 
ATOM      5  C   LIG d   1      10.126   9.519  -3.102  0.00  0.00     0.165 A 
ATOM      6  N   LIG d   1      10.489   9.563  -4.380  0.00  0.00    -0.216 NA
ATOM      7  N   LIG d   1      10.433   8.714  -2.035  0.00  0.00    -0.312 N 
ATOM      8  C   LIG d   1       9.731   9.174  -0.961  0.00  0.00     0.098 A 
ATOM      9  N   LIG d   1       9.017  10.207  -1.305  0.00  0.00    -0.231 NA
ATOM     10  H   LIG d   1      10.323  10.493  -6.216  0.00  0.00     0.105 H 
ATOM     11  H   LIG d   1       9.763   8.746   0.030  0.00  0.00     0.103 H 
ENDROOT
BRANCH   7  12
ATOM     12  C   LIG d   1      11.348   7.570  -2.046  0.00  0.00     0.055 C 
ATOM     13  H   LIG d   1      11.753   7.438  -3.049  0.00  0.00     0.052 H 
ATOM     14  H   LIG d   1      12.163   7.750  -1.345  0.00  0.00     0.052 H 
BRANCH  12  15
ATOM     15  C   LIG d   1      10.590   6.307  -1.633  0.00  0.00     0.104 C 
ATOM     16  H   LIG d   1      10.096   6.477  -0.676  0.00  0.00     0.064 H 
BRANCH  15  17
ATOM     17  C   LIG d   1      11.572   5.142  -1.501  0.00  0.00     0.122 C 
ATOM     18  H   LIG d   1      12.594   5.519  -1.556  0.00  0.00     0.068 H 
BRANCH  17  19
ATOM     19  C   LIG d   1      11.340   4.159  -2.619  0.00  0.00     0.073 C 
ATOM     20  O   LIG d   1      10.694   3.157  -2.419  0.00  0.00    -0.547 OA
ATOM     21  O   LIG d   1      11.848   4.397  -3.839  0.00  0.00    -0.547 OA
ENDBRANCH  17  19
BRANCH  17  22
ATOM     22  O   LIG d   1      11.373   4.490  -0.245  0.00  0.00    -0.383 OA
ATOM     23  H   LIG d   1      10.869   5.012   0.394  0.00  0.00     0.210 HD
ENDBRANCH  17  22
ENDBRANCH  15  17
BRANCH  15  24
ATOM     24  O   LIG d   1       9.610   5.993  -2.625  0.00  0.00    -0.387 OA
ATOM     25  H   LIG d   1       9.980   5.631  -3.442  0.00  0.00     0.210 HD
ENDBRANCH  15  24
ENDBRANCH  12  15
ENDBRANCH   7  12
BRANCH   3  26
ATOM     26  N   LIG d   1       7.827  12.404  -3.096  0.00  0.00    -0.341 NA
ATOM     27  H   LIG d   1       7.170  12.587  -3.827  0.00  0.00     0.144 HD
ATOM     28  H   LIG d   1       8.144  13.283  -2.840  0.00  0.00     0.144 HD
ENDBRANCH   3  26
TORSDOF 7
ENDMDL
MODEL 10
REMARK VINA RESULT:      -4.2     11.175     12.976
REMARK  7 active torsions:
REMARK  status: ('A' for Active; 'I' for Inactive)
REMARK    1  A    between atoms: C_3  and  N_19 
REMARK    2  A    between atoms: N_7  and  C_10 
REMARK    3  A    between atoms: C_10  and  C_11 
REMARK    4  A    between atoms: C_11  and  C_13 
REMARK    5  A    between atoms: C_11  and  O_18 
REMARK    6  A    between atoms: C_13  and  C_15 
REMARK    7  A    between atoms: C_13  and  O_17 
ROOT
ATOM      1  C   LIG d   1       2.681   1.030  -4.519  0.00  0.00     0.120 A 
ATOM      2  N   LIG d   1       3.435   1.258  -3.459  0.00  0.00    -0.219 NA
ATOM      3  C   LIG d   1       4.637   0.704  -3.338  0.00  0.00     0.147 A 
ATOM      4  C   LIG d   1       5.094  -0.136  -4.369  0.00  0.00     0.147 A 
ATOM      5  C   LIG d   1       4.254  -0.346  -5.474  0.00  0.00     0.165 A 
ATOM      6  N   LIG d   1       3.067   0.251  -5.507  0.00  0.00    -0.216 NA
ATOM      7  N   LIG d   1       4.937  -1.191  -6.313  0.00  0.00    -0.312 N 
ATOM      8  C   LIG d   1       6.134  -1.470  -5.725  0.00  0.00     0.098 A 
ATOM      9  N   LIG d   1       6.226  -0.850  -4.585  0.00  0.00    -0.231 NA
ATOM     10  H   LIG d   1       1.710   1.500  -4.577  0.00  0.00     0.105 H 
ATOM     11  H   LIG d   1       6.897  -2.110  -6.144  0.00  0.00     0.103 H 
ENDROOT
BRANCH   7  12
ATOM     12  C   LIG d   1       4.465  -1.700  -7.603  0.00  0.00     0.055 C 
ATOM     13  H   LIG d   1       4.971  -2.638  -7.831  0.00  0.00     0.052 H 
ATOM     14  H   LIG d   1       3.389  -1.868  -7.556  0.00  0.00     0.052 H 
BRANCH  12  15
ATOM     15  C   LIG d   1       4.774  -0.676  -8.698  0.00  0.00     0.104 C 
ATOM     16  H   LIG d   1       5.621  -0.062  -8.393  0.00  0.00     0.064 H 
BRANCH  15  17
ATOM     17  C   LIG d   1       3.551   0.216  -8.922  0.00  0.00     0.122 C 
ATOM     18  H   LIG d   1       2.670  -0.259  -8.489  0.00  0.00     0.068 H 
BRANCH  17  19
ATOM     19  C   LIG d   1       3.338   0.416 -10.400  0.00  0.00     0.073 C 
ATOM     20  O   LIG d   1       2.560  -0.288 -10.999  0.00  0.00    -0.547 OA
ATOM     21  O   LIG d   1       4.011   1.378 -11.050  0.00  0.00    -0.547 OA
ENDBRANCH  17  19
BRANCH  17  22
ATOM     22  O   LIG d   1       3.764   1.483  -8.296  0.00  0.00    -0.383 OA
ATOM     23  H   LIG d   1       4.143   1.424  -7.408  0.00  0.00     0.210 HD
ENDBRANCH  17  22
ENDBRANCH  15  17
BRANCH  15  24
ATOM     24  O   LIG d   1       5.093  -1.358  -9.913  0.00  0.00    -0.387 OA
ATOM     25  H   LIG d   1       4.337  -1.488 -10.502  0.00  0.00     0.210 HD
ENDBRANCH  15  24
ENDBRANCH  12  15
ENDBRANCH   7  12
BRANCH   3  26
ATOM     26  N   LIG d   1       5.421   0.949  -2.224  0.00  0.00    -0.341 NA
ATOM     27  H   LIG d   1       6.101   1.648  -2.443  0.00  0.00     0.144 HD
ATOM     28  H   LIG d   1       5.940   0.232  -1.830  0.00  0.00     0.144 HD
ENDBRANCH   3  26
TORSDOF 7
ENDMDL
