MODEL 1
REMARK VINA RESULT:      -7.2      0.000      0.000
REMARK  10 active torsions:
REMARK  status: ('A' for Active; 'I' for Inactive)
REMARK    1  A    between atoms: C_1  and  C_2 
REMARK    2  A    between atoms: C_2  and  C_3 
REMARK    3  A    between atoms: C_2  and  C_4 
REMARK    4  A    between atoms: C_2  and  C_5 
REMARK    5  A    between atoms: C_5  and  C_6 
REMARK       I    between atoms: C_6  and  N_8 
REMARK    6  A    between atoms: C_19  and  N_24 
REMARK       I    between atoms: N_24  and  C_25 
REMARK    7  A    between atoms: C_25  and  C_27 
REMARK    8  A    between atoms: C_27  and  N_60 
REMARK    9  A    between atoms: C_28  and  N_60 
REMARK   10  A    between atoms: C_29  and  N_60 
ROOT
ATOM      1  C   LIG d   1       6.741   0.668  -3.723  0.00  0.00     0.216 C 
ATOM      2  O   LIG d   1       6.555   1.857  -3.574  0.00  0.00    -0.276 OA
ATOM      3  N   LIG d   1       6.021  -0.221  -3.012  0.00  0.00    -0.300 N 
ATOM      4  C   LIG d   1       5.005   0.231  -2.053  0.00  0.00     0.019 C 
ATOM      5  C   LIG d   1       3.688  -0.493  -2.299  0.00  0.00    -0.006 C 
ATOM      6  H   LIG d   1       3.028  -0.290  -1.456  0.00  0.00     0.033 H 
ATOM      7  C   LIG d   1       3.899  -2.004  -2.383  0.00  0.00    -0.037 C 
ATOM      8  C   LIG d   1       4.885  -2.293  -3.518  0.00  0.00     0.016 C 
ATOM      9  H   LIG d   1       4.982  -3.368  -3.667  0.00  0.00     0.038 H 
ATOM     10  C   LIG d   1       6.242  -1.668  -3.151  0.00  0.00     0.023 C 
ATOM     11  C   LIG d   1       4.405  -1.633  -4.790  0.00  0.00     0.027 C 
ATOM     12  C   LIG d   1       4.803  -2.183  -5.968  0.00  0.00    -0.040 C 
ATOM     13  C   LIG d   1       4.458  -1.590  -7.186  0.00  0.00    -0.034 C 
ATOM     14  C   LIG d   1       3.739  -0.425  -7.172  0.00  0.00     0.099 C 
ATOM     15  C   LIG d   1       3.359   0.128  -5.934  0.00  0.00     0.273 C 
ATOM     16  O   LIG d   1       2.781   1.203  -5.904  0.00  0.00    -0.266 OA
ATOM     17  N   LIG d   1       3.625  -0.525  -4.776  0.00  0.00    -0.310 N 
ATOM     18  C   LIG d   1       3.007   0.004  -3.561  0.00  0.00     0.031 C 
ATOM     19  H   LIG d   1       4.853   1.305  -2.168  0.00  0.00     0.047 H 
ATOM     20  H   LIG d   1       5.347   0.024  -1.040  0.00  0.00     0.047 H 
ATOM     21  H   LIG d   1       2.949  -2.497  -2.589  0.00  0.00     0.028 H 
ATOM     22  H   LIG d   1       4.307  -2.372  -1.441  0.00  0.00     0.028 H 
ATOM     23  H   LIG d   1       6.609  -2.099  -2.219  0.00  0.00     0.047 H 
ATOM     24  H   LIG d   1       6.961  -1.846  -3.950  0.00  0.00     0.047 H 
ATOM     25  H   LIG d   1       5.392  -3.089  -5.962  0.00  0.00     0.064 H 
ATOM     26  H   LIG d   1       4.753  -2.042  -8.121  0.00  0.00     0.064 H 
ATOM     27  H   LIG d   1       1.959  -0.296  -3.537  0.00  0.00     0.050 H 
ATOM     28  H   LIG d   1       3.059   1.093  -3.584  0.00  0.00     0.050 H 
ENDROOT
BRANCH   1  29
ATOM     29  C   LIG d   1       7.779   0.186  -4.702  0.00  0.00     0.029 C 
ATOM     30  H   LIG d   1       8.237  -0.729  -4.326  0.00  0.00     0.036 H 
ATOM     31  H   LIG d   1       7.306  -0.013  -5.665  0.00  0.00     0.036 H 
BRANCH  29  32
ATOM     32  C   LIG d   1       8.855   1.260  -4.876  0.00  0.00    -0.029 C 
BRANCH  32  33
ATOM     33  C   LIG d   1      10.186   0.595  -5.232  0.00  0.00    -0.060 C 
ATOM     34  H   LIG d   1      10.517  -0.026  -4.399  0.00  0.00     0.024 H 
ATOM     35  H   LIG d   1      10.057  -0.026  -6.118  0.00  0.00     0.024 H 
ATOM     36  H   LIG d   1      10.934   1.363  -5.432  0.00  0.00     0.024 H 
ENDBRANCH  32  33
BRANCH  32  37
ATOM     37  C   LIG d   1       8.445   2.214  -6.001  0.00  0.00    -0.060 C 
ATOM     38  H   LIG d   1       7.771   1.700  -6.685  0.00  0.00     0.024 H 
ATOM     39  H   LIG d   1       7.941   3.081  -5.575  0.00  0.00     0.024 H 
ATOM     40  H   LIG d   1       9.334   2.540  -6.543  0.00  0.00     0.024 H 
ENDBRANCH  32  37
BRANCH  32  41
ATOM     41  C   LIG d   1       9.009   2.044  -3.573  0.00  0.00    -0.060 C 
ATOM     42  H   LIG d   1       8.025   2.246  -3.151  0.00  0.00     0.024 H 
ATOM     43  H   LIG d   1       9.595   1.459  -2.863  0.00  0.00     0.024 H 
ATOM     44  H   LIG d   1       9.518   2.987  -3.773  0.00  0.00     0.024 H 
ENDBRANCH  32  41
ENDBRANCH  29  32
ENDBRANCH   1  29
BRANCH  14  45
ATOM     45  N   LIG d   1       3.393   0.211  -8.372  0.00  0.00    -0.277 N 
ATOM     46  C   LIG d   1       4.220   1.125  -8.915  0.00  0.00     0.263 C 
ATOM     47  O   LIG d   1       5.222   1.465  -8.320  0.00  0.00    -0.270 OA
ATOM     48  H   LIG d   1       2.556  -0.008  -8.813  0.00  0.00     0.155 HD
BRANCH  46  49
ATOM     49  C   LIG d   1       3.904   1.725 -10.260  0.00  0.00     0.046 C 
ATOM     50  H   LIG d   1       2.837   1.943 -10.319  0.00  0.00     0.091 H 
ATOM     51  H   LIG d   1       4.470   2.647 -10.389  0.00  0.00     0.091 H 
BRANCH  49  52
ATOM     52  N   LIG d   1       4.296   0.767 -11.315  0.00  0.00     0.237 N 
ATOM     53  H   LIG d   1       4.486   1.285 -12.181  0.00  0.00     0.203 HD
BRANCH  52  54
ATOM     54  C   LIG d   1       5.521   0.045 -10.911  0.00  0.00    -0.043 C 
ATOM     55  H   LIG d   1       5.644  -0.860 -11.506  0.00  0.00     0.078 H 
ATOM     56  H   LIG d   1       6.382   0.697 -11.060  0.00  0.00     0.078 H 
ATOM     57  H   LIG d   1       5.444  -0.220  -9.857  0.00  0.00     0.078 H 
ENDBRANCH  52  54
BRANCH  52  58
ATOM     58  C   LIG d   1       3.200  -0.193 -11.559  0.00  0.00    -0.043 C 
ATOM     59  H   LIG d   1       2.260   0.355 -11.634  0.00  0.00     0.078 H 
ATOM     60  H   LIG d   1       3.390  -0.718 -12.496  0.00  0.00     0.078 H 
ATOM     61  H   LIG d   1       3.135  -0.914 -10.745  0.00  0.00     0.078 H 
ENDBRANCH  52  58
ENDBRANCH  49  52
ENDBRANCH  46  49
ENDBRANCH  14  45
TORSDOF 10
ENDMDL
MODEL 2
REMARK VINA RESULT:      -6.4      2.412      6.098
REMARK  10 active torsions:
REMARK  status: ('A' for Active; 'I' for Inactive)
REMARK    1  A    between atoms: C_1  and  C_2 
REMARK    2  A    between atoms: C_2  and  C_3 
REMARK    3  A    between atoms: C_2  and  C_4 
REMARK    4  A    between atoms: C_2  and  C_5 
REMARK    5  A    between atoms: C_5  and  C_6 
REMARK       I    between atoms: C_6  and  N_8 
REMARK    6  A    between atoms: C_19  and  N_24 
REMARK       I    between atoms: N_24  and  C_25 
REMARK    7  A    between atoms: C_25  and  C_27 
REMARK    8  A    between atoms: C_27  and  N_60 
REMARK    9  A    between atoms: C_28  and  N_60 
REMARK   10  A    between atoms: C_29  and  N_60 
ROOT
ATOM      1  C   LIG d   1       4.241  -0.352  -5.230  0.00  0.00     0.216 C 
ATOM      2  O   LIG d   1       3.577   0.649  -5.392  0.00  0.00    -0.276 OA
ATOM      3  N   LIG d   1       4.340  -1.263  -6.217  0.00  0.00    -0.300 N 
ATOM      4  C   LIG d   1       3.650  -1.061  -7.497  0.00  0.00     0.019 C 
ATOM      5  C   LIG d   1       4.618  -1.257  -8.655  0.00  0.00    -0.006 C 
ATOM      6  H   LIG d   1       4.039  -1.303  -9.577  0.00  0.00     0.033 H 
ATOM      7  C   LIG d   1       5.387  -2.571  -8.512  0.00  0.00    -0.037 C 
ATOM      8  C   LIG d   1       6.144  -2.546  -7.183  0.00  0.00     0.016 C 
ATOM      9  H   LIG d   1       6.779  -3.429  -7.097  0.00  0.00     0.038 H 
ATOM     10  C   LIG d   1       5.115  -2.500  -6.040  0.00  0.00     0.023 C 
ATOM     11  C   LIG d   1       6.983  -1.292  -7.098  0.00  0.00     0.027 C 
ATOM     12  C   LIG d   1       8.089  -1.333  -6.308  0.00  0.00    -0.040 C 
ATOM     13  C   LIG d   1       8.876  -0.192  -6.123  0.00  0.00    -0.034 C 
ATOM     14  C   LIG d   1       8.496   0.977  -6.724  0.00  0.00     0.099 C 
ATOM     15  C   LIG d   1       7.335   0.989  -7.521  0.00  0.00     0.273 C 
ATOM     16  O   LIG d   1       6.944   2.039  -8.005  0.00  0.00    -0.266 OA
ATOM     17  N   LIG d   1       6.651  -0.158  -7.760  0.00  0.00    -0.310 N 
ATOM     18  C   LIG d   1       5.593  -0.099  -8.768  0.00  0.00     0.031 C 
ATOM     19  H   LIG d   1       3.245  -0.049  -7.533  0.00  0.00     0.047 H 
ATOM     20  H   LIG d   1       2.833  -1.777  -7.585  0.00  0.00     0.047 H 
ATOM     21  H   LIG d   1       6.094  -2.674  -9.336  0.00  0.00     0.028 H 
ATOM     22  H   LIG d   1       4.688  -3.408  -8.521  0.00  0.00     0.028 H 
ATOM     23  H   LIG d   1       4.470  -3.377  -6.086  0.00  0.00     0.047 H 
ATOM     24  H   LIG d   1       5.629  -2.467  -5.079  0.00  0.00     0.047 H 
ATOM     25  H   LIG d   1       8.362  -2.256  -5.818  0.00  0.00     0.064 H 
ATOM     26  H   LIG d   1       9.768  -0.233  -5.515  0.00  0.00     0.064 H 
ATOM     27  H   LIG d   1       6.047  -0.116  -9.758  0.00  0.00     0.050 H 
ATOM     28  H   LIG d   1       5.045   0.835  -8.651  0.00  0.00     0.050 H 
ENDROOT
BRANCH   1  29
ATOM     29  C   LIG d   1       4.956  -0.577  -3.923  0.00  0.00     0.029 C 
ATOM     30  H   LIG d   1       5.457  -1.545  -3.944  0.00  0.00     0.036 H 
ATOM     31  H   LIG d   1       5.694   0.211  -3.772  0.00  0.00     0.036 H 
BRANCH  29  32
ATOM     32  C   LIG d   1       3.943  -0.552  -2.776  0.00  0.00    -0.029 C 
BRANCH  32  33
ATOM     33  C   LIG d   1       2.539  -0.802  -3.331  0.00  0.00    -0.060 C 
ATOM     34  H   LIG d   1       1.925   0.086  -3.180  0.00  0.00     0.024 H 
ATOM     35  H   LIG d   1       2.604  -1.022  -4.397  0.00  0.00     0.024 H 
ATOM     36  H   LIG d   1       2.088  -1.648  -2.812  0.00  0.00     0.024 H 
ENDBRANCH  32  33
BRANCH  32  37
ATOM     37  C   LIG d   1       4.292  -1.645  -1.763  0.00  0.00    -0.060 C 
ATOM     38  H   LIG d   1       4.251  -2.618  -2.251  0.00  0.00     0.024 H 
ATOM     39  H   LIG d   1       5.297  -1.474  -1.377  0.00  0.00     0.024 H 
ATOM     40  H   LIG d   1       3.577  -1.620  -0.940  0.00  0.00     0.024 H 
ENDBRANCH  32  37
BRANCH  32  41
ATOM     41  C   LIG d   1       3.984   0.813  -2.088  0.00  0.00    -0.060 C 
ATOM     42  H   LIG d   1       3.733   0.698  -1.035  0.00  0.00     0.024 H 
ATOM     43  H   LIG d   1       4.986   1.235  -2.179  0.00  0.00     0.024 H 
ATOM     44  H   LIG d   1       3.264   1.481  -2.563  0.00  0.00     0.024 H 
ENDBRANCH  32  41
ENDBRANCH  29  32
ENDBRANCH   1  29
BRANCH  14  45
ATOM     45  N   LIG d   1       9.248   2.146  -6.545  0.00  0.00    -0.277 N 
ATOM     46  C   LIG d   1       8.987   2.963  -5.506  0.00  0.00     0.263 C 
ATOM     47  O   LIG d   1       8.043   2.736  -4.778  0.00  0.00    -0.270 OA
ATOM     48  H   LIG d   1       9.957   2.367  -7.169  0.00  0.00     0.155 HD
BRANCH  46  49
ATOM     49  C   LIG d   1       9.866   4.159  -5.247  0.00  0.00     0.046 C 
ATOM     50  H   LIG d   1      10.909   3.887  -5.415  0.00  0.00     0.091 H 
ATOM     51  H   LIG d   1       9.589   4.967  -5.924  0.00  0.00     0.091 H 
BRANCH  49  52
ATOM     52  N   LIG d   1       9.666   4.607  -3.853  0.00  0.00     0.237 N 
ATOM     53  H   LIG d   1       8.767   4.246  -3.513  0.00  0.00     0.203 HD
BRANCH  52  54
ATOM     54  C   LIG d   1      10.748   4.079  -2.994  0.00  0.00    -0.043 C 
ATOM     55  H   LIG d   1      10.484   4.183  -1.941  0.00  0.00     0.078 H 
ATOM     56  H   LIG d   1      10.904   3.026  -3.227  0.00  0.00     0.078 H 
ATOM     57  H   LIG d   1      11.663   4.636  -3.196  0.00  0.00     0.078 H 
ENDBRANCH  52  54
BRANCH  52  58
ATOM     58  C   LIG d   1       9.648   6.083  -3.793  0.00  0.00    -0.043 C 
ATOM     59  H   LIG d   1      10.649   6.458  -4.011  0.00  0.00     0.078 H 
ATOM     60  H   LIG d   1       8.949   6.459  -4.541  0.00  0.00     0.078 H 
ATOM     61  H   LIG d   1       9.341   6.422  -2.805  0.00  0.00     0.078 H 
ENDBRANCH  52  58
ENDBRANCH  49  52
ENDBRANCH  46  49
ENDBRANCH  14  45
TORSDOF 10
ENDMDL
MODEL 3
REMARK VINA RESULT:      -6.3      2.393      4.451
REMARK  10 active torsions:
REMARK  status: ('A' for Active; 'I' for Inactive)
REMARK    1  A    between atoms: C_1  and  C_2 
REMARK    2  A    between atoms: C_2  and  C_3 
REMARK    3  A    between atoms: C_2  and  C_4 
REMARK    4  A    between atoms: C_2  and  C_5 
REMARK    5  A    between atoms: C_5  and  C_6 
REMARK       I    between atoms: C_6  and  N_8 
REMARK    6  A    between atoms: C_19  and  N_24 
REMARK       I    between atoms: N_24  and  C_25 
REMARK    7  A    between atoms: C_25  and  C_27 
REMARK    8  A    between atoms: C_27  and  N_60 
REMARK    9  A    between atoms: C_28  and  N_60 
REMARK   10  A    between atoms: C_29  and  N_60 
ROOT
ATOM      1  C   LIG d   1       5.115  -1.921  -4.372  0.00  0.00     0.216 C 
ATOM      2  O   LIG d   1       4.409  -2.881  -4.593  0.00  0.00    -0.276 OA
ATOM      3  N   LIG d   1       6.450  -2.073  -4.270  0.00  0.00    -0.300 N 
ATOM      4  C   LIG d   1       7.068  -3.396  -4.424  0.00  0.00     0.019 C 
ATOM      5  C   LIG d   1       8.214  -3.331  -5.424  0.00  0.00    -0.006 C 
ATOM      6  H   LIG d   1       8.772  -4.265  -5.361  0.00  0.00     0.033 H 
ATOM      7  C   LIG d   1       9.168  -2.184  -5.091  0.00  0.00    -0.037 C 
ATOM      8  C   LIG d   1       8.375  -0.875  -5.103  0.00  0.00     0.016 C 
ATOM      9  H   LIG d   1       9.047  -0.028  -4.965  0.00  0.00     0.038 H 
ATOM     10  C   LIG d   1       7.329  -0.932  -3.976  0.00  0.00     0.023 C 
ATOM     11  C   LIG d   1       7.633  -0.742  -6.413  0.00  0.00     0.027 C 
ATOM     12  C   LIG d   1       7.334   0.515  -6.836  0.00  0.00    -0.040 C 
ATOM     13  C   LIG d   1       6.589   0.718  -8.002  0.00  0.00    -0.034 C 
ATOM     14  C   LIG d   1       6.136  -0.373  -8.693  0.00  0.00     0.099 C 
ATOM     15  C   LIG d   1       6.447  -1.661  -8.216  0.00  0.00     0.273 C 
ATOM     16  O   LIG d   1       5.989  -2.642  -8.781  0.00  0.00    -0.266 OA
ATOM     17  N   LIG d   1       7.255  -1.821  -7.140  0.00  0.00    -0.310 N 
ATOM     18  C   LIG d   1       7.704  -3.182  -6.846  0.00  0.00     0.031 C 
ATOM     19  H   LIG d   1       6.319  -4.105  -4.780  0.00  0.00     0.047 H 
ATOM     20  H   LIG d   1       7.449  -3.732  -3.460  0.00  0.00     0.047 H 
ATOM     21  H   LIG d   1       9.962  -2.139  -5.836  0.00  0.00     0.028 H 
ATOM     22  H   LIG d   1       9.601  -2.341  -4.102  0.00  0.00     0.028 H 
ATOM     23  H   LIG d   1       7.826  -1.059  -3.015  0.00  0.00     0.047 H 
ATOM     24  H   LIG d   1       6.739  -0.016  -3.972  0.00  0.00     0.047 H 
ATOM     25  H   LIG d   1       7.677   1.366  -6.266  0.00  0.00     0.064 H 
ATOM     26  H   LIG d   1       6.374   1.718  -8.350  0.00  0.00     0.064 H 
ATOM     27  H   LIG d   1       8.505  -3.447  -7.536  0.00  0.00     0.050 H 
ATOM     28  H   LIG d   1       6.872  -3.868  -6.995  0.00  0.00     0.050 H 
ENDROOT
BRANCH   1  29
ATOM     29  C   LIG d   1       4.499  -0.555  -4.211  0.00  0.00     0.029 C 
ATOM     30  H   LIG d   1       5.281   0.204  -4.252  0.00  0.00     0.036 H 
ATOM     31  H   LIG d   1       3.782  -0.383  -5.015  0.00  0.00     0.036 H 
BRANCH  29  32
ATOM     32  C   LIG d   1       3.781  -0.475  -2.862  0.00  0.00    -0.029 C 
BRANCH  32  33
ATOM     33  C   LIG d   1       2.285  -0.722  -3.067  0.00  0.00    -0.060 C 
ATOM     34  H   LIG d   1       1.804  -0.864  -2.099  0.00  0.00     0.024 H 
ATOM     35  H   LIG d   1       1.841   0.135  -3.572  0.00  0.00     0.024 H 
ATOM     36  H   LIG d   1       2.145  -1.616  -3.676  0.00  0.00     0.024 H 
ENDBRANCH  32  33
BRANCH  32  37
ATOM     37  C   LIG d   1       4.350  -1.536  -1.918  0.00  0.00    -0.060 C 
ATOM     38  H   LIG d   1       3.713  -2.420  -1.941  0.00  0.00     0.024 H 
ATOM     39  H   LIG d   1       5.356  -1.805  -2.238  0.00  0.00     0.024 H 
ATOM     40  H   LIG d   1       4.384  -1.139  -0.903  0.00  0.00     0.024 H 
ENDBRANCH  32  37
BRANCH  32  41
ATOM     41  C   LIG d   1       3.990   0.913  -2.255  0.00  0.00    -0.060 C 
ATOM     42  H   LIG d   1       4.892   0.911  -1.645  0.00  0.00     0.024 H 
ATOM     43  H   LIG d   1       4.094   1.648  -3.054  0.00  0.00     0.024 H 
ATOM     44  H   LIG d   1       3.132   1.171  -1.633  0.00  0.00     0.024 H 
ENDBRANCH  32  41
ENDBRANCH  29  32
ENDBRANCH   1  29
BRANCH  14  45
ATOM     45  N   LIG d   1       5.368  -0.210  -9.854  0.00  0.00    -0.277 N 
ATOM     46  C   LIG d   1       4.032  -0.054  -9.763  0.00  0.00     0.263 C 
ATOM     47  O   LIG d   1       3.483  -0.146  -8.685  0.00  0.00    -0.270 OA
ATOM     48  H   LIG d   1       5.797  -0.209 -10.724  0.00  0.00     0.155 HD
BRANCH  46  49
ATOM     49  C   LIG d   1       3.221   0.234 -10.999  0.00  0.00     0.046 C 
ATOM     50  H   LIG d   1       2.349   0.832 -10.730  0.00  0.00     0.091 H 
ATOM     51  H   LIG d   1       3.831   0.785 -11.715  0.00  0.00     0.091 H 
BRANCH  49  52
ATOM     52  N   LIG d   1       2.802  -1.047 -11.606  0.00  0.00     0.237 N 
ATOM     53  H   LIG d   1       3.162  -1.820 -11.034  0.00  0.00     0.203 HD
BRANCH  52  54
ATOM     54  C   LIG d   1       1.326  -1.128 -11.646  0.00  0.00    -0.043 C 
ATOM     55  H   LIG d   1       0.997  -2.159 -11.521  0.00  0.00     0.078 H 
ATOM     56  H   LIG d   1       0.916  -0.515 -10.843  0.00  0.00     0.078 H 
ATOM     57  H   LIG d   1       0.977  -0.749 -12.606  0.00  0.00     0.078 H 
ENDBRANCH  52  54
BRANCH  52  58
ATOM     58  C   LIG d   1       3.352  -1.163 -12.973  0.00  0.00    -0.043 C 
ATOM     59  H   LIG d   1       3.118  -2.154 -13.364  0.00  0.00     0.078 H 
ATOM     60  H   LIG d   1       2.890  -0.405 -13.606  0.00  0.00     0.078 H 
ATOM     61  H   LIG d   1       4.432  -1.021 -12.964  0.00  0.00     0.078 H 
ENDBRANCH  52  58
ENDBRANCH  49  52
ENDBRANCH  46  49
ENDBRANCH  14  45
TORSDOF 10
ENDMDL
MODEL 4
REMARK VINA RESULT:      -6.1      2.424      6.065
REMARK  10 active torsions:
REMARK  status: ('A' for Active; 'I' for Inactive)
REMARK    1  A    between atoms: C_1  and  C_2 
REMARK    2  A    between atoms: C_2  and  C_3 
REMARK    3  A    between atoms: C_2  and  C_4 
REMARK    4  A    between atoms: C_2  and  C_5 
REMARK    5  A    between atoms: C_5  and  C_6 
REMARK       I    between atoms: C_6  and  N_8 
REMARK    6  A    between atoms: C_19  and  N_24 
REMARK       I    between atoms: N_24  and  C_25 
REMARK    7  A    between atoms: C_25  and  C_27 
REMARK    8  A    between atoms: C_27  and  N_60 
REMARK    9  A    between atoms: C_28  and  N_60 
REMARK   10  A    between atoms: C_29  and  N_60 
ROOT
ATOM      1  C   LIG d   1       4.721  -0.885  -6.966  0.00  0.00     0.216 C 
ATOM      2  O   LIG d   1       5.315  -1.552  -7.786  0.00  0.00    -0.276 OA
ATOM      3  N   LIG d   1       4.265  -1.456  -5.835  0.00  0.00    -0.300 N 
ATOM      4  C   LIG d   1       4.479  -2.886  -5.576  0.00  0.00     0.019 C 
ATOM      5  C   LIG d   1       5.070  -3.089  -4.189  0.00  0.00    -0.006 C 
ATOM      6  H   LIG d   1       5.025  -4.152  -3.953  0.00  0.00     0.033 H 
ATOM      7  C   LIG d   1       4.263  -2.334  -3.132  0.00  0.00    -0.037 C 
ATOM      8  C   LIG d   1       4.259  -0.848  -3.497  0.00  0.00     0.016 C 
ATOM      9  H   LIG d   1       3.773  -0.270  -2.710  0.00  0.00     0.038 H 
ATOM     10  C   LIG d   1       3.518  -0.680  -4.834  0.00  0.00     0.023 C 
ATOM     11  C   LIG d   1       5.678  -0.368  -3.694  0.00  0.00     0.027 C 
ATOM     12  C   LIG d   1       5.924   0.953  -3.488  0.00  0.00    -0.040 C 
ATOM     13  C   LIG d   1       7.196   1.487  -3.718  0.00  0.00    -0.034 C 
ATOM     14  C   LIG d   1       8.183   0.662  -4.187  0.00  0.00     0.099 C 
ATOM     15  C   LIG d   1       7.888  -0.698  -4.407  0.00  0.00     0.273 C 
ATOM     16  O   LIG d   1       8.737  -1.429  -4.893  0.00  0.00    -0.266 OA
ATOM     17  N   LIG d   1       6.673  -1.202  -4.080  0.00  0.00    -0.310 N 
ATOM     18  C   LIG d   1       6.524  -2.656  -4.133  0.00  0.00     0.031 C 
ATOM     19  H   LIG d   1       5.165  -3.289  -6.323  0.00  0.00     0.047 H 
ATOM     20  H   LIG d   1       3.527  -3.412  -5.644  0.00  0.00     0.047 H 
ATOM     21  H   LIG d   1       4.722  -2.471  -2.153  0.00  0.00     0.028 H 
ATOM     22  H   LIG d   1       3.240  -2.711  -3.113  0.00  0.00     0.028 H 
ATOM     23  H   LIG d   1       2.495  -1.045  -4.740  0.00  0.00     0.047 H 
ATOM     24  H   LIG d   1       3.512   0.370  -5.126  0.00  0.00     0.047 H 
ATOM     25  H   LIG d   1       5.129   1.598  -3.142  0.00  0.00     0.064 H 
ATOM     26  H   LIG d   1       7.397   2.531  -3.529  0.00  0.00     0.064 H 
ATOM     27  H   LIG d   1       6.988  -3.092  -3.250  0.00  0.00     0.050 H 
ATOM     28  H   LIG d   1       7.037  -3.031  -5.019  0.00  0.00     0.050 H 
ENDROOT
BRANCH   1  29
ATOM     29  C   LIG d   1       4.491   0.583  -7.214  0.00  0.00     0.029 C 
ATOM     30  H   LIG d   1       4.059   1.039  -6.323  0.00  0.00     0.036 H 
ATOM     31  H   LIG d   1       5.442   1.066  -7.444  0.00  0.00     0.036 H 
BRANCH  29  32
ATOM     32  C   LIG d   1       3.533   0.758  -8.394  0.00  0.00    -0.029 C 
BRANCH  32  33
ATOM     33  C   LIG d   1       2.444  -0.314  -8.328  0.00  0.00    -0.060 C 
ATOM     34  H   LIG d   1       2.211  -0.533  -7.286  0.00  0.00     0.024 H 
ATOM     35  H   LIG d   1       1.547   0.047  -8.832  0.00  0.00     0.024 H 
ATOM     36  H   LIG d   1       2.796  -1.221  -8.820  0.00  0.00     0.024 H 
ENDBRANCH  32  33
BRANCH  32  37
ATOM     37  C   LIG d   1       2.888   2.145  -8.326  0.00  0.00    -0.060 C 
ATOM     38  H   LIG d   1       1.994   2.160  -8.948  0.00  0.00     0.024 H 
ATOM     39  H   LIG d   1       2.618   2.369  -7.294  0.00  0.00     0.024 H 
ATOM     40  H   LIG d   1       3.595   2.892  -8.687  0.00  0.00     0.024 H 
ENDBRANCH  32  37
BRANCH  32  41
ATOM     41  C   LIG d   1       4.307   0.619  -9.705  0.00  0.00    -0.060 C 
ATOM     42  H   LIG d   1       5.311   1.022  -9.579  0.00  0.00     0.024 H 
ATOM     43  H   LIG d   1       4.370  -0.434  -9.981  0.00  0.00     0.024 H 
ATOM     44  H   LIG d   1       3.791   1.170 -10.492  0.00  0.00     0.024 H 
ENDBRANCH  32  41
ENDBRANCH  29  32
ENDBRANCH   1  29
BRANCH  14  45
ATOM     45  N   LIG d   1       9.465   1.164  -4.449  0.00  0.00    -0.277 N 
ATOM     46  C   LIG d   1       9.695   1.872  -5.572  0.00  0.00     0.263 C 
ATOM     47  O   LIG d   1       8.817   1.997  -6.401  0.00  0.00    -0.270 OA
ATOM     48  H   LIG d   1      10.187   1.003  -3.821  0.00  0.00     0.155 HD
BRANCH  46  49
ATOM     49  C   LIG d   1      11.041   2.508  -5.801  0.00  0.00     0.046 C 
ATOM     50  H   LIG d   1      11.816   1.742  -5.761  0.00  0.00     0.091 H 
ATOM     51  H   LIG d   1      11.055   2.986  -6.780  0.00  0.00     0.091 H 
BRANCH  49  52
ATOM     52  N   LIG d   1      11.269   3.531  -4.760  0.00  0.00     0.237 N 
ATOM     53  H   LIG d   1      10.585   3.398  -4.006  0.00  0.00     0.203 HD
BRANCH  52  54
ATOM     54  C   LIG d   1      12.631   3.387  -4.201  0.00  0.00    -0.043 C 
ATOM     55  H   LIG d   1      13.379   3.686  -4.935  0.00  0.00     0.078 H 
ATOM     56  H   LIG d   1      12.719   4.018  -3.316  0.00  0.00     0.078 H 
ATOM     57  H   LIG d   1      12.790   2.346  -3.922  0.00  0.00     0.078 H 
ENDBRANCH  52  54
BRANCH  52  58
ATOM     58  C   LIG d   1      11.099   4.883  -5.332  0.00  0.00    -0.043 C 
ATOM     59  H   LIG d   1      10.543   4.803  -6.267  0.00  0.00     0.078 H 
ATOM     60  H   LIG d   1      10.539   5.498  -4.628  0.00  0.00     0.078 H 
ATOM     61  H   LIG d   1      12.068   5.341  -5.525  0.00  0.00     0.078 H 
ENDBRANCH  52  58
ENDBRANCH  49  52
ENDBRANCH  46  49
ENDBRANCH  14  45
TORSDOF 10
ENDMDL
MODEL 5
REMARK VINA RESULT:      -5.9      2.907      6.628
REMARK  10 active torsions:
REMARK  status: ('A' for Active; 'I' for Inactive)
REMARK    1  A    between atoms: C_1  and  C_2 
REMARK    2  A    between atoms: C_2  and  C_3 
REMARK    3  A    between atoms: C_2  and  C_4 
REMARK    4  A    between atoms: C_2  and  C_5 
REMARK    5  A    between atoms: C_5  and  C_6 
REMARK       I    between atoms: C_6  and  N_8 
REMARK    6  A    between atoms: C_19  and  N_24 
REMARK       I    between atoms: N_24  and  C_25 
REMARK    7  A    between atoms: C_25  and  C_27 
REMARK    8  A    between atoms: C_27  and  N_60 
REMARK    9  A    between atoms: C_28  and  N_60 
REMARK   10  A    between atoms: C_29  and  N_60 
ROOT
ATOM      1  C   LIG d   1       5.170  -3.035  -8.191  0.00  0.00     0.216 C 
ATOM      2  O   LIG d   1       6.079  -2.775  -8.950  0.00  0.00    -0.276 OA
ATOM      3  N   LIG d   1       5.109  -4.244  -7.600  0.00  0.00    -0.300 N 
ATOM      4  C   LIG d   1       6.135  -5.260  -7.862  0.00  0.00     0.019 C 
ATOM      5  C   LIG d   1       6.672  -5.819  -6.552  0.00  0.00    -0.006 C 
ATOM      6  H   LIG d   1       7.271  -6.701  -6.780  0.00  0.00     0.033 H 
ATOM      7  C   LIG d   1       5.531  -6.247  -5.629  0.00  0.00    -0.037 C 
ATOM      8  C   LIG d   1       4.640  -5.031  -5.364  0.00  0.00     0.016 C 
ATOM      9  H   LIG d   1       3.873  -5.280  -4.632  0.00  0.00     0.038 H 
ATOM     10  C   LIG d   1       4.004  -4.598  -6.696  0.00  0.00     0.023 C 
ATOM     11  C   LIG d   1       5.484  -3.882  -4.863  0.00  0.00     0.027 C 
ATOM     12  C   LIG d   1       4.871  -2.948  -4.088  0.00  0.00    -0.040 C 
ATOM     13  C   LIG d   1       5.566  -1.820  -3.644  0.00  0.00    -0.034 C 
ATOM     14  C   LIG d   1       6.869  -1.653  -4.031  0.00  0.00     0.099 C 
ATOM     15  C   LIG d   1       7.469  -2.630  -4.849  0.00  0.00     0.273 C 
ATOM     16  O   LIG d   1       8.605  -2.460  -5.260  0.00  0.00    -0.266 OA
ATOM     17  N   LIG d   1       6.796  -3.760  -5.178  0.00  0.00    -0.310 N 
ATOM     18  C   LIG d   1       7.562  -4.816  -5.841  0.00  0.00     0.031 C 
ATOM     19  H   LIG d   1       6.954  -4.810  -8.424  0.00  0.00     0.047 H 
ATOM     20  H   LIG d   1       5.701  -6.070  -8.449  0.00  0.00     0.047 H 
ATOM     21  H   LIG d   1       5.939  -6.616  -4.687  0.00  0.00     0.028 H 
ATOM     22  H   LIG d   1       4.945  -7.033  -6.108  0.00  0.00     0.028 H 
ATOM     23  H   LIG d   1       3.409  -5.414  -7.106  0.00  0.00     0.047 H 
ATOM     24  H   LIG d   1       3.375  -3.722  -6.539  0.00  0.00     0.047 H 
ATOM     25  H   LIG d   1       3.834  -3.080  -3.812  0.00  0.00     0.064 H 
ATOM     26  H   LIG d   1       5.085  -1.091  -3.008  0.00  0.00     0.064 H 
ATOM     27  H   LIG d   1       8.159  -5.340  -5.096  0.00  0.00     0.050 H 
ATOM     28  H   LIG d   1       8.232  -4.361  -6.570  0.00  0.00     0.050 H 
ENDROOT
BRANCH   1  29
ATOM     29  C   LIG d   1       4.107  -2.005  -7.909  0.00  0.00     0.029 C 
ATOM     30  H   LIG d   1       3.439  -2.374  -7.131  0.00  0.00     0.036 H 
ATOM     31  H   LIG d   1       4.578  -1.079  -7.575  0.00  0.00     0.036 H 
BRANCH  29  32
ATOM     32  C   LIG d   1       3.306  -1.736  -9.185  0.00  0.00    -0.029 C 
BRANCH  32  33
ATOM     33  C   LIG d   1       4.234  -1.166 -10.258  0.00  0.00    -0.060 C 
ATOM     34  H   LIG d   1       4.922  -1.941 -10.595  0.00  0.00     0.024 H 
ATOM     35  H   LIG d   1       3.640  -0.815 -11.103  0.00  0.00     0.024 H 
ATOM     36  H   LIG d   1       4.801  -0.332  -9.843  0.00  0.00     0.024 H 
ENDBRANCH  32  33
BRANCH  32  37
ATOM     37  C   LIG d   1       2.691  -3.045  -9.685  0.00  0.00    -0.060 C 
ATOM     38  H   LIG d   1       3.013  -3.866  -9.045  0.00  0.00     0.024 H 
ATOM     39  H   LIG d   1       1.604  -2.969  -9.659  0.00  0.00     0.024 H 
ATOM     40  H   LIG d   1       3.017  -3.232 -10.709  0.00  0.00     0.024 H 
ENDBRANCH  32  37
BRANCH  32  41
ATOM     41  C   LIG d   1       2.193  -0.731  -8.886  0.00  0.00    -0.060 C 
ATOM     42  H   LIG d   1       2.200  -0.485  -7.825  0.00  0.00     0.024 H 
ATOM     43  H   LIG d   1       2.355   0.176  -9.470  0.00  0.00     0.024 H 
ATOM     44  H   LIG d   1       1.228  -1.166  -9.152  0.00  0.00     0.024 H 
ENDBRANCH  32  41
ENDBRANCH  29  32
ENDBRANCH   1  29
BRANCH  14  45
ATOM     45  N   LIG d   1       7.593  -0.524  -3.623  0.00  0.00    -0.277 N 
ATOM     46  C   LIG d   1       7.460   0.639  -4.290  0.00  0.00     0.263 C 
ATOM     47  O   LIG d   1       6.786   0.687  -5.298  0.00  0.00    -0.270 OA
ATOM     48  H   LIG d   1       8.190  -0.580  -2.860  0.00  0.00     0.155 HD
BRANCH  46  49
ATOM     49  C   LIG d   1       8.149   1.880  -3.786  0.00  0.00     0.046 C 
ATOM     50  H   LIG d   1       7.927   2.715  -4.451  0.00  0.00     0.091 H 
ATOM     51  H   LIG d   1       7.792   2.112  -2.783  0.00  0.00     0.091 H 
BRANCH  49  52
ATOM     52  N   LIG d   1       9.605   1.633  -3.735  0.00  0.00     0.237 N 
ATOM     53  H   LIG d   1       9.775   0.749  -3.240  0.00  0.00     0.203 HD
BRANCH  52  54
ATOM     54  C   LIG d   1      10.147   1.524  -5.107  0.00  0.00    -0.043 C 
ATOM     55  H   LIG d   1      10.129   0.488  -5.444  0.00  0.00     0.078 H 
ATOM     56  H   LIG d   1       9.540   2.134  -5.776  0.00  0.00     0.078 H 
ATOM     57  H   LIG d   1      11.173   1.891  -5.111  0.00  0.00     0.078 H 
ENDBRANCH  52  54
BRANCH  52  58
ATOM     58  C   LIG d   1      10.280   2.729  -3.010  0.00  0.00    -0.043 C 
ATOM     59  H   LIG d   1      10.130   3.660  -3.559  0.00  0.00     0.078 H 
ATOM     60  H   LIG d   1       9.841   2.819  -2.016  0.00  0.00     0.078 H 
ATOM     61  H   LIG d   1      11.347   2.529  -2.921  0.00  0.00     0.078 H 
ENDBRANCH  52  58
ENDBRANCH  49  52
ENDBRANCH  46  49
ENDBRANCH  14  45
TORSDOF 10
ENDMDL
MODEL 6
REMARK VINA RESULT:      -5.7      3.808      6.479
REMARK  10 active torsions:
REMARK  status: ('A' for Active; 'I' for Inactive)
REMARK    1  A    between atoms: C_1  and  C_2 
REMARK    2  A    between atoms: C_2  and  C_3 
REMARK    3  A    between atoms: C_2  and  C_4 
REMARK    4  A    between atoms: C_2  and  C_5 
REMARK    5  A    between atoms: C_5  and  C_6 
REMARK       I    between atoms: C_6  and  N_8 
REMARK    6  A    between atoms: C_19  and  N_24 
REMARK       I    between atoms: N_24  and  C_25 
REMARK    7  A    between atoms: C_25  and  C_27 
REMARK    8  A    between atoms: C_27  and  N_60 
REMARK    9  A    between atoms: C_28  and  N_60 
REMARK   10  A    between atoms: C_29  and  N_60 
ROOT
ATOM      1  C   LIG d   1       9.821   5.865  -5.283  0.00  0.00     0.216 C 
ATOM      2  O   LIG d   1       8.901   6.329  -4.644  0.00  0.00    -0.276 OA
ATOM      3  N   LIG d   1      10.771   5.137  -4.665  0.00  0.00    -0.300 N 
ATOM      4  C   LIG d   1      10.710   4.895  -3.219  0.00  0.00     0.019 C 
ATOM      5  C   LIG d   1      10.873   3.411  -2.924  0.00  0.00    -0.006 C 
ATOM      6  H   LIG d   1      11.027   3.293  -1.852  0.00  0.00     0.033 H 
ATOM      7  C   LIG d   1      12.095   2.839  -3.644  0.00  0.00    -0.037 C 
ATOM      8  C   LIG d   1      11.921   3.068  -5.148  0.00  0.00     0.016 C 
ATOM      9  H   LIG d   1      12.730   2.585  -5.696  0.00  0.00     0.038 H 
ATOM     10  C   LIG d   1      11.913   4.584  -5.408  0.00  0.00     0.023 C 
ATOM     11  C   LIG d   1      10.587   2.517  -5.596  0.00  0.00     0.027 C 
ATOM     12  C   LIG d   1      10.474   2.137  -6.896  0.00  0.00    -0.040 C 
ATOM     13  C   LIG d   1       9.253   1.683  -7.404  0.00  0.00    -0.034 C 
ATOM     14  C   LIG d   1       8.163   1.660  -6.577  0.00  0.00     0.099 C 
ATOM     15  C   LIG d   1       8.310   2.079  -5.240  0.00  0.00     0.273 C 
ATOM     16  O   LIG d   1       7.332   2.131  -4.512  0.00  0.00    -0.266 OA
ATOM     17  N   LIG d   1       9.530   2.418  -4.755  0.00  0.00    -0.310 N 
ATOM     18  C   LIG d   1       9.633   2.626  -3.311  0.00  0.00     0.031 C 
ATOM     19  H   LIG d   1       9.746   5.234  -2.837  0.00  0.00     0.047 H 
ATOM     20  H   LIG d   1      11.507   5.451  -2.725  0.00  0.00     0.047 H 
ATOM     21  H   LIG d   1      12.173   1.771  -3.442  0.00  0.00     0.028 H 
ATOM     22  H   LIG d   1      12.996   3.346  -3.297  0.00  0.00     0.028 H 
ATOM     23  H   LIG d   1      12.851   5.024  -5.069  0.00  0.00     0.047 H 
ATOM     24  H   LIG d   1      11.776   4.776  -6.473  0.00  0.00     0.047 H 
ATOM     25  H   LIG d   1      11.338   2.185  -7.544  0.00  0.00     0.064 H 
ATOM     26  H   LIG d   1       9.171   1.357  -8.431  0.00  0.00     0.064 H 
ATOM     27  H   LIG d   1       9.660   1.657  -2.815  0.00  0.00     0.050 H 
ATOM     28  H   LIG d   1       8.752   3.170  -2.969  0.00  0.00     0.050 H 
ENDROOT
BRANCH   1  29
ATOM     29  C   LIG d   1       9.901   6.102  -6.769  0.00  0.00     0.029 C 
ATOM     30  H   LIG d   1      10.635   5.426  -7.207  0.00  0.00     0.036 H 
ATOM     31  H   LIG d   1       8.924   5.920  -7.219  0.00  0.00     0.036 H 
BRANCH  29  32
ATOM     32  C   LIG d   1      10.320   7.550  -7.032  0.00  0.00    -0.029 C 
BRANCH  32  33
ATOM     33  C   LIG d   1      11.281   7.594  -8.221  0.00  0.00    -0.060 C 
ATOM     34  H   LIG d   1      11.020   6.807  -8.930  0.00  0.00     0.024 H 
ATOM     35  H   LIG d   1      11.208   8.564  -8.712  0.00  0.00     0.024 H 
ATOM     36  H   LIG d   1      12.302   7.441  -7.870  0.00  0.00     0.024 H 
ENDBRANCH  32  33
BRANCH  32  37
ATOM     37  C   LIG d   1       9.081   8.391  -7.347  0.00  0.00    -0.060 C 
ATOM     38  H   LIG d   1       9.389   9.384  -7.673  0.00  0.00     0.024 H 
ATOM     39  H   LIG d   1       8.508   7.910  -8.139  0.00  0.00     0.024 H 
ATOM     40  H   LIG d   1       8.463   8.477  -6.452  0.00  0.00     0.024 H 
ENDBRANCH  32  37
BRANCH  32  41
ATOM     41  C   LIG d   1      11.017   8.113  -5.792  0.00  0.00    -0.060 C 
ATOM     42  H   LIG d   1      10.358   8.825  -5.296  0.00  0.00     0.024 H 
ATOM     43  H   LIG d   1      11.253   7.298  -5.107  0.00  0.00     0.024 H 
ATOM     44  H   LIG d   1      11.938   8.616  -6.089  0.00  0.00     0.024 H 
ENDBRANCH  32  41
ENDBRANCH  29  32
ENDBRANCH   1  29
BRANCH  14  45
ATOM     45  N   LIG d   1       6.917   1.231  -7.055  0.00  0.00    -0.277 N 
ATOM     46  C   LIG d   1       6.597  -0.077  -7.026  0.00  0.00     0.263 C 
ATOM     47  O   LIG d   1       7.420  -0.895  -6.672  0.00  0.00    -0.270 OA
ATOM     48  H   LIG d   1       6.283   1.877  -7.406  0.00  0.00     0.155 HD
BRANCH  46  49
ATOM     49  C   LIG d   1       5.218  -0.526  -7.433  0.00  0.00     0.046 C 
ATOM     50  H   LIG d   1       5.070  -0.328  -8.495  0.00  0.00     0.091 H 
ATOM     51  H   LIG d   1       5.114  -1.595  -7.247  0.00  0.00     0.091 H 
BRANCH  49  52
ATOM     52  N   LIG d   1       4.219   0.205  -6.626  0.00  0.00     0.237 N 
ATOM     53  H   LIG d   1       4.540   1.171  -6.494  0.00  0.00     0.203 HD
BRANCH  52  54
ATOM     54  C   LIG d   1       2.918   0.225  -7.330  0.00  0.00    -0.043 C 
ATOM     55  H   LIG d   1       2.106   0.007  -6.637  0.00  0.00     0.078 H 
ATOM     56  H   LIG d   1       2.768   1.212  -7.767  0.00  0.00     0.078 H 
ATOM     57  H   LIG d   1       2.933  -0.525  -8.120  0.00  0.00     0.078 H 
ENDBRANCH  52  54
BRANCH  52  58
ATOM     58  C   LIG d   1       4.068  -0.438  -5.304  0.00  0.00    -0.043 C 
ATOM     59  H   LIG d   1       4.460  -1.455  -5.359  0.00  0.00     0.078 H 
ATOM     60  H   LIG d   1       4.636   0.130  -4.567  0.00  0.00     0.078 H 
ATOM     61  H   LIG d   1       3.020  -0.469  -5.011  0.00  0.00     0.078 H 
ENDBRANCH  52  58
ENDBRANCH  49  52
ENDBRANCH  46  49
ENDBRANCH  14  45
TORSDOF 10
ENDMDL
MODEL 7
REMARK VINA RESULT:      -5.6      7.842     11.494
REMARK  10 active torsions:
REMARK  status: ('A' for Active; 'I' for Inactive)
REMARK    1  A    between atoms: C_1  and  C_2 
REMARK    2  A    between atoms: C_2  and  C_3 
REMARK    3  A    between atoms: C_2  and  C_4 
REMARK    4  A    between atoms: C_2  and  C_5 
REMARK    5  A    between atoms: C_5  and  C_6 
REMARK       I    between atoms: C_6  and  N_8 
REMARK    6  A    between atoms: C_19  and  N_24 
REMARK       I    between atoms: N_24  and  C_25 
REMARK    7  A    between atoms: C_25  and  C_27 
REMARK    8  A    between atoms: C_27  and  N_60 
REMARK    9  A    between atoms: C_28  and  N_60 
REMARK   10  A    between atoms: C_29  and  N_60 
ROOT
ATOM      1  C   LIG d   1      10.435   9.945  -1.733  0.00  0.00     0.216 C 
ATOM      2  O   LIG d   1       9.257   9.850  -1.463  0.00  0.00    -0.276 OA
ATOM      3  N   LIG d   1      11.324  10.261  -0.772  0.00  0.00    -0.300 N 
ATOM      4  C   LIG d   1      10.885  10.493   0.610  0.00  0.00     0.019 C 
ATOM      5  C   LIG d   1      11.727   9.671   1.576  0.00  0.00    -0.006 C 
ATOM      6  H   LIG d   1      11.516  10.017   2.588  0.00  0.00     0.033 H 
ATOM      7  C   LIG d   1      13.219   9.868   1.309  0.00  0.00    -0.037 C 
ATOM      8  C   LIG d   1      13.511   9.455  -0.135  0.00  0.00     0.016 C 
ATOM      9  H   LIG d   1      14.583   9.492  -0.326  0.00  0.00     0.038 H 
ATOM     10  C   LIG d   1      12.755  10.411  -1.074  0.00  0.00     0.023 C 
ATOM     11  C   LIG d   1      12.986   8.059  -0.382  0.00  0.00     0.027 C 
ATOM     12  C   LIG d   1      13.589   7.330  -1.358  0.00  0.00    -0.040 C 
ATOM     13  C   LIG d   1      13.116   6.057  -1.692  0.00  0.00    -0.034 C 
ATOM     14  C   LIG d   1      12.014   5.571  -1.043  0.00  0.00     0.099 C 
ATOM     15  C   LIG d   1      11.403   6.361  -0.050  0.00  0.00     0.273 C 
ATOM     16  O   LIG d   1      10.378   5.971   0.487  0.00  0.00    -0.266 OA
ATOM     17  N   LIG d   1      11.946   7.547   0.319  0.00  0.00    -0.310 N 
ATOM     18  C   LIG d   1      11.379   8.195   1.501  0.00  0.00     0.031 C 
ATOM     19  H   LIG d   1       9.838  10.205   0.709  0.00  0.00     0.047 H 
ATOM     20  H   LIG d   1      10.989  11.551   0.850  0.00  0.00     0.047 H 
ATOM     21  H   LIG d   1      13.799   9.248   1.993  0.00  0.00     0.028 H 
ATOM     22  H   LIG d   1      13.482  10.917   1.452  0.00  0.00     0.028 H 
ATOM     23  H   LIG d   1      13.086  11.436  -0.904  0.00  0.00     0.047 H 
ATOM     24  H   LIG d   1      12.934  10.130  -2.112  0.00  0.00     0.047 H 
ATOM     25  H   LIG d   1      14.442   7.737  -1.880  0.00  0.00     0.064 H 
ATOM     26  H   LIG d   1      13.611   5.468  -2.451  0.00  0.00     0.064 H 
ATOM     27  H   LIG d   1      11.759   7.698   2.393  0.00  0.00     0.050 H 
ATOM     28  H   LIG d   1      10.295   8.090   1.476  0.00  0.00     0.050 H 
ENDROOT
BRANCH   1  29
ATOM     29  C   LIG d   1      10.905   9.711  -3.146  0.00  0.00     0.029 C 
ATOM     30  H   LIG d   1      11.985   9.565  -3.151  0.00  0.00     0.036 H 
ATOM     31  H   LIG d   1      10.416   8.824  -3.549  0.00  0.00     0.036 H 
BRANCH  29  32
ATOM     32  C   LIG d   1      10.551  10.924  -4.009  0.00  0.00    -0.029 C 
BRANCH  32  33
ATOM     33  C   LIG d   1      10.282  12.130  -3.106  0.00  0.00    -0.060 C 
ATOM     34  H   LIG d   1       9.548  12.783  -3.579  0.00  0.00     0.024 H 
ATOM     35  H   LIG d   1       9.898  11.787  -2.146  0.00  0.00     0.024 H 
ATOM     36  H   LIG d   1      11.210  12.681  -2.950  0.00  0.00     0.024 H 
ENDBRANCH  32  33
BRANCH  32  37
ATOM     37  C   LIG d   1      11.717  11.240  -4.948  0.00  0.00    -0.060 C 
ATOM     38  H   LIG d   1      11.341  11.368  -5.962  0.00  0.00     0.024 H 
ATOM     39  H   LIG d   1      12.207  12.158  -4.622  0.00  0.00     0.024 H 
ATOM     40  H   LIG d   1      12.434  10.418  -4.927  0.00  0.00     0.024 H 
ENDBRANCH  32  37
BRANCH  32  41
ATOM     41  C   LIG d   1       9.301  10.616  -4.834  0.00  0.00    -0.060 C 
ATOM     42  H   LIG d   1       8.477  11.243  -4.495  0.00  0.00     0.024 H 
ATOM     43  H   LIG d   1       9.501  10.817  -5.887  0.00  0.00     0.024 H 
ATOM     44  H   LIG d   1       9.033   9.566  -4.710  0.00  0.00     0.024 H 
ENDBRANCH  32  41
ENDBRANCH  29  32
ENDBRANCH   1  29
BRANCH  14  45
ATOM     45  N   LIG d   1      11.497   4.308  -1.365  0.00  0.00    -0.277 N 
ATOM     46  C   LIG d   1      10.684   4.164  -2.430  0.00  0.00     0.263 C 
ATOM     47  O   LIG d   1      10.325   5.140  -3.055  0.00  0.00    -0.270 OA
ATOM     48  H   LIG d   1      11.726   3.537  -0.822  0.00  0.00     0.155 HD
BRANCH  46  49
ATOM     49  C   LIG d   1      10.220   2.792  -2.845  0.00  0.00     0.046 C 
ATOM     50  H   LIG d   1      11.086   2.155  -3.025  0.00  0.00     0.091 H 
ATOM     51  H   LIG d   1       9.611   2.359  -2.051  0.00  0.00     0.091 H 
BRANCH  49  52
ATOM     52  N   LIG d   1       9.402   2.913  -4.069  0.00  0.00     0.237 N 
ATOM     53  H   LIG d   1       9.139   3.898  -4.197  0.00  0.00     0.203 HD
BRANCH  52  54
ATOM     54  C   LIG d   1      10.184   2.470  -5.244  0.00  0.00    -0.043 C 
ATOM     55  H   LIG d   1       9.790   1.532  -5.633  0.00  0.00     0.078 H 
ATOM     56  H   LIG d   1      10.126   3.237  -6.017  0.00  0.00     0.078 H 
ATOM     57  H   LIG d   1      11.223   2.333  -4.946  0.00  0.00     0.078 H 
ENDBRANCH  52  54
BRANCH  52  58
ATOM     58  C   LIG d   1       8.176   2.099  -3.942  0.00  0.00    -0.043 C 
ATOM     59  H   LIG d   1       7.998   1.891  -2.886  0.00  0.00     0.078 H 
ATOM     60  H   LIG d   1       7.334   2.660  -4.348  0.00  0.00     0.078 H 
ATOM     61  H   LIG d   1       8.283   1.160  -4.483  0.00  0.00     0.078 H 
ENDBRANCH  52  58
ENDBRANCH  49  52
ENDBRANCH  46  49
ENDBRANCH  14  45
TORSDOF 10
ENDMDL
MODEL 8
REMARK VINA RESULT:      -5.4      2.904      7.633
REMARK  10 active torsions:
REMARK  status: ('A' for Active; 'I' for Inactive)
REMARK    1  A    between atoms: C_1  and  C_2 
REMARK    2  A    between atoms: C_2  and  C_3 
REMARK    3  A    between atoms: C_2  and  C_4 
REMARK    4  A    between atoms: C_2  and  C_5 
REMARK    5  A    between atoms: C_5  and  C_6 
REMARK       I    between atoms: C_6  and  N_8 
REMARK    6  A    between atoms: C_19  and  N_24 
REMARK       I    between atoms: N_24  and  C_25 
REMARK    7  A    between atoms: C_25  and  C_27 
REMARK    8  A    between atoms: C_27  and  N_60 
REMARK    9  A    between atoms: C_28  and  N_60 
REMARK   10  A    between atoms: C_29  and  N_60 
ROOT
ATOM      1  C   LIG d   1       3.145  -3.129 -10.200  0.00  0.00     0.216 C 
ATOM      2  O   LIG d   1       2.051  -3.285  -9.700  0.00  0.00    -0.276 OA
ATOM      3  N   LIG d   1       3.412  -2.012 -10.904  0.00  0.00    -0.300 N 
ATOM      4  C   LIG d   1       2.391  -0.970 -11.074  0.00  0.00     0.019 C 
ATOM      5  C   LIG d   1       2.962   0.393 -10.708  0.00  0.00    -0.006 C 
ATOM      6  H   LIG d   1       2.256   1.155 -11.036  0.00  0.00     0.033 H 
ATOM      7  C   LIG d   1       4.293   0.641 -11.417  0.00  0.00    -0.037 C 
ATOM      8  C   LIG d   1       5.268  -0.469 -11.019  0.00  0.00     0.016 C 
ATOM      9  H   LIG d   1       6.256  -0.267 -11.433  0.00  0.00     0.038 H 
ATOM     10  C   LIG d   1       4.719  -1.807 -11.545  0.00  0.00     0.023 C 
ATOM     11  C   LIG d   1       5.344  -0.564  -9.512  0.00  0.00     0.027 C 
ATOM     12  C   LIG d   1       6.487  -1.067  -8.976  0.00  0.00    -0.040 C 
ATOM     13  C   LIG d   1       6.607  -1.250  -7.595  0.00  0.00    -0.034 C 
ATOM     14  C   LIG d   1       5.539  -0.947  -6.794  0.00  0.00     0.099 C 
ATOM     15  C   LIG d   1       4.363  -0.445  -7.385  0.00  0.00     0.273 C 
ATOM     16  O   LIG d   1       3.380  -0.238  -6.692  0.00  0.00    -0.266 OA
ATOM     17  N   LIG d   1       4.317  -0.186  -8.714  0.00  0.00    -0.310 N 
ATOM     18  C   LIG d   1       3.143   0.535  -9.207  0.00  0.00     0.031 C 
ATOM     19  H   LIG d   1       1.540  -1.190 -10.430  0.00  0.00     0.047 H 
ATOM     20  H   LIG d   1       2.060  -0.955 -12.113  0.00  0.00     0.047 H 
ATOM     21  H   LIG d   1       4.695   1.608 -11.116  0.00  0.00     0.028 H 
ATOM     22  H   LIG d   1       4.141   0.626 -12.497  0.00  0.00     0.028 H 
ATOM     23  H   LIG d   1       4.621  -1.767 -12.630  0.00  0.00     0.047 H 
ATOM     24  H   LIG d   1       5.389  -2.619 -11.261  0.00  0.00     0.047 H 
ATOM     25  H   LIG d   1       7.312  -1.326  -9.623  0.00  0.00     0.064 H 
ATOM     26  H   LIG d   1       7.525  -1.627  -7.167  0.00  0.00     0.064 H 
ATOM     27  H   LIG d   1       3.249   1.592  -8.963  0.00  0.00     0.050 H 
ATOM     28  H   LIG d   1       2.255   0.148  -8.707  0.00  0.00     0.050 H 
ENDROOT
BRANCH   1  29
ATOM     29  C   LIG d   1       4.205  -4.187 -10.036  0.00  0.00     0.029 C 
ATOM     30  H   LIG d   1       5.152  -3.817 -10.427  0.00  0.00     0.036 H 
ATOM     31  H   LIG d   1       4.317  -4.428  -8.978  0.00  0.00     0.036 H 
BRANCH  29  32
ATOM     32  C   LIG d   1       3.793  -5.445 -10.804  0.00  0.00    -0.029 C 
BRANCH  32  33
ATOM     33  C   LIG d   1       2.772  -6.233  -9.981  0.00  0.00    -0.060 C 
ATOM     34  H   LIG d   1       3.208  -6.498  -9.018  0.00  0.00     0.024 H 
ATOM     35  H   LIG d   1       1.884  -5.622  -9.823  0.00  0.00     0.024 H 
ATOM     36  H   LIG d   1       2.497  -7.142 -10.517  0.00  0.00     0.024 H 
ENDBRANCH  32  33
BRANCH  32  37
ATOM     37  C   LIG d   1       3.170  -5.044 -12.143  0.00  0.00    -0.060 C 
ATOM     38  H   LIG d   1       3.891  -5.209 -12.943  0.00  0.00     0.024 H 
ATOM     39  H   LIG d   1       2.280  -5.648 -12.324  0.00  0.00     0.024 H 
ATOM     40  H   LIG d   1       2.893  -3.990 -12.114  0.00  0.00     0.024 H 
ENDBRANCH  32  37
BRANCH  32  41
ATOM     41  C   LIG d   1       5.026  -6.315 -11.056  0.00  0.00    -0.060 C 
ATOM     42  H   LIG d   1       5.774  -6.117 -10.289  0.00  0.00     0.024 H 
ATOM     43  H   LIG d   1       4.742  -7.368 -11.022  0.00  0.00     0.024 H 
ATOM     44  H   LIG d   1       5.441  -6.083 -12.037  0.00  0.00     0.024 H 
ENDBRANCH  32  41
ENDBRANCH  29  32
ENDBRANCH   1  29
BRANCH  14  45
ATOM     45  N   LIG d   1       5.614  -1.137  -5.407  0.00  0.00    -0.277 N 
ATOM     46  C   LIG d   1       6.135  -0.175  -4.621  0.00  0.00     0.263 C 
ATOM     47  O   LIG d   1       6.624   0.817  -5.120  0.00  0.00    -0.270 OA
ATOM     48  H   LIG d   1       5.289  -1.962  -5.013  0.00  0.00     0.155 HD
BRANCH  46  49
ATOM     49  C   LIG d   1       6.112  -0.330  -3.123  0.00  0.00     0.046 C 
ATOM     50  H   LIG d   1       6.557  -1.288  -2.850  0.00  0.00     0.091 H 
ATOM     51  H   LIG d   1       6.683   0.478  -2.665  0.00  0.00     0.091 H 
BRANCH  49  52
ATOM     52  N   LIG d   1       4.712  -0.258  -2.656  0.00  0.00     0.237 N 
ATOM     53  H   LIG d   1       4.097  -0.122  -3.467  0.00  0.00     0.203 HD
BRANCH  52  54
ATOM     54  C   LIG d   1       4.340  -1.518  -1.978  0.00  0.00    -0.043 C 
ATOM     55  H   LIG d   1       4.949  -1.667  -1.086  0.00  0.00     0.078 H 
ATOM     56  H   LIG d   1       3.288  -1.471  -1.695  0.00  0.00     0.078 H 
ATOM     57  H   LIG d   1       4.495  -2.349  -2.666  0.00  0.00     0.078 H 
ENDBRANCH  52  54
BRANCH  52  58
ATOM     58  C   LIG d   1       4.546   0.882  -1.730  0.00  0.00    -0.043 C 
ATOM     59  H   LIG d   1       3.697   1.483  -2.058  0.00  0.00     0.078 H 
ATOM     60  H   LIG d   1       4.353   0.498  -0.727  0.00  0.00     0.078 H 
ATOM     61  H   LIG d   1       5.444   1.498  -1.717  0.00  0.00     0.078 H 
ENDBRANCH  52  58
ENDBRANCH  49  52
ENDBRANCH  46  49
ENDBRANCH  14  45
TORSDOF 10
ENDMDL
MODEL 9
REMARK VINA RESULT:      -5.3      3.706      6.466
REMARK  10 active torsions:
REMARK  status: ('A' for Active; 'I' for Inactive)
REMARK    1  A    between atoms: C_1  and  C_2 
REMARK    2  A    between atoms: C_2  and  C_3 
REMARK    3  A    between atoms: C_2  and  C_4 
REMARK    4  A    between atoms: C_2  and  C_5 
REMARK    5  A    between atoms: C_5  and  C_6 
REMARK       I    between atoms: C_6  and  N_8 
REMARK    6  A    between atoms: C_19  and  N_24 
REMARK       I    between atoms: N_24  and  C_25 
REMARK    7  A    between atoms: C_25  and  C_27 
REMARK    8  A    between atoms: C_27  and  N_60 
REMARK    9  A    between atoms: C_28  and  N_60 
REMARK   10  A    between atoms: C_29  and  N_60 
ROOT
ATOM      1  C   LIG d   1       5.003  -1.705  -8.431  0.00  0.00     0.216 C 
ATOM      2  O   LIG d   1       6.112  -1.829  -8.904  0.00  0.00    -0.276 OA
ATOM      3  N   LIG d   1       4.528  -0.478  -8.139  0.00  0.00    -0.300 N 
ATOM      4  C   LIG d   1       5.339   0.720  -8.388  0.00  0.00     0.019 C 
ATOM      5  C   LIG d   1       4.534   1.749  -9.168  0.00  0.00    -0.006 C 
ATOM      6  H   LIG d   1       5.085   2.690  -9.157  0.00  0.00     0.033 H 
ATOM      7  C   LIG d   1       3.172   1.990  -8.517  0.00  0.00    -0.037 C 
ATOM      8  C   LIG d   1       2.420   0.658  -8.461  0.00  0.00     0.016 C 
ATOM      9  H   LIG d   1       1.407   0.815  -8.090  0.00  0.00     0.038 H 
ATOM     10  C   LIG d   1       3.198  -0.297  -7.539  0.00  0.00     0.023 C 
ATOM     11  C   LIG d   1       2.380   0.037  -9.838  0.00  0.00     0.027 C 
ATOM     12  C   LIG d   1       1.354  -0.812 -10.110  0.00  0.00    -0.040 C 
ATOM     13  C   LIG d   1       1.286  -1.479 -11.337  0.00  0.00    -0.034 C 
ATOM     14  C   LIG d   1       2.290  -1.289 -12.248  0.00  0.00     0.099 C 
ATOM     15  C   LIG d   1       3.348  -0.417 -11.926  0.00  0.00     0.273 C 
ATOM     16  O   LIG d   1       4.285  -0.292 -12.699  0.00  0.00    -0.266 OA
ATOM     17  N   LIG d   1       3.331   0.290 -10.770  0.00  0.00    -0.310 N 
ATOM     18  C   LIG d   1       4.347   1.331 -10.615  0.00  0.00     0.031 C 
ATOM     19  H   LIG d   1       6.224   0.443  -8.962  0.00  0.00     0.047 H 
ATOM     20  H   LIG d   1       5.650   1.150  -7.436  0.00  0.00     0.047 H 
ATOM     21  H   LIG d   1       2.604   2.708  -9.109  0.00  0.00     0.028 H 
ATOM     22  H   LIG d   1       3.311   2.376  -7.507  0.00  0.00     0.028 H 
ATOM     23  H   LIG d   1       3.274   0.131  -6.539  0.00  0.00     0.047 H 
ATOM     24  H   LIG d   1       2.691  -1.261  -7.492  0.00  0.00     0.047 H 
ATOM     25  H   LIG d   1       0.583  -0.972  -9.371  0.00  0.00     0.064 H 
ATOM     26  H   LIG d   1       0.457  -2.135 -11.562  0.00  0.00     0.064 H 
ATOM     27  H   LIG d   1       4.053   2.202 -11.199  0.00  0.00     0.050 H 
ATOM     28  H   LIG d   1       5.296   0.956 -10.998  0.00  0.00     0.050 H 
ENDROOT
BRANCH   1  29
ATOM     29  C   LIG d   1       4.155  -2.923  -8.168  0.00  0.00     0.029 C 
ATOM     30  H   LIG d   1       3.165  -2.612  -7.836  0.00  0.00     0.036 H 
ATOM     31  H   LIG d   1       4.065  -3.507  -9.084  0.00  0.00     0.036 H 
BRANCH  29  32
ATOM     32  C   LIG d   1       4.813  -3.777  -7.082  0.00  0.00    -0.029 C 
BRANCH  32  33
ATOM     33  C   LIG d   1       3.874  -4.923  -6.698  0.00  0.00    -0.060 C 
ATOM     34  H   LIG d   1       3.505  -4.767  -5.684  0.00  0.00     0.024 H 
ATOM     35  H   LIG d   1       3.034  -4.952  -7.391  0.00  0.00     0.024 H 
ATOM     36  H   LIG d   1       4.416  -5.868  -6.745  0.00  0.00     0.024 H 
ENDBRANCH  32  33
BRANCH  32  37
ATOM     37  C   LIG d   1       6.128  -4.351  -7.612  0.00  0.00    -0.060 C 
ATOM     38  H   LIG d   1       5.932  -5.290  -8.130  0.00  0.00     0.024 H 
ATOM     39  H   LIG d   1       6.582  -3.641  -8.304  0.00  0.00     0.024 H 
ATOM     40  H   LIG d   1       6.808  -4.531  -6.778  0.00  0.00     0.024 H 
ENDBRANCH  32  37
BRANCH  32  41
ATOM     41  C   LIG d   1       5.092  -2.913  -5.852  0.00  0.00    -0.060 C 
ATOM     42  H   LIG d   1       4.202  -2.335  -5.604  0.00  0.00     0.024 H 
ATOM     43  H   LIG d   1       5.356  -3.553  -5.010  0.00  0.00     0.024 H 
ATOM     44  H   LIG d   1       5.918  -2.233  -6.065  0.00  0.00     0.024 H 
ENDBRANCH  32  41
ENDBRANCH  29  32
ENDBRANCH   1  29
BRANCH  14  45
ATOM     45  N   LIG d   1       2.268  -1.957 -13.480  0.00  0.00    -0.277 N 
ATOM     46  C   LIG d   1       2.728  -3.220 -13.571  0.00  0.00     0.263 C 
ATOM     47  O   LIG d   1       3.246  -3.747 -12.609  0.00  0.00    -0.270 OA
ATOM     48  H   LIG d   1       1.920  -1.510 -14.268  0.00  0.00     0.155 HD
BRANCH  46  49
ATOM     49  C   LIG d   1       2.601  -3.978 -14.867  0.00  0.00     0.046 C 
ATOM     50  H   LIG d   1       2.752  -5.042 -14.682  0.00  0.00     0.091 H 
ATOM     51  H   LIG d   1       1.606  -3.820 -15.284  0.00  0.00     0.091 H 
BRANCH  49  52
ATOM     52  N   LIG d   1       3.610  -3.470 -15.819  0.00  0.00     0.237 N 
ATOM     53  H   LIG d   1       4.144  -2.717 -15.369  0.00  0.00     0.203 HD
BRANCH  52  54
ATOM     54  C   LIG d   1       4.540  -4.556 -16.196  0.00  0.00    -0.043 C 
ATOM     55  H   LIG d   1       5.532  -4.155 -16.404  0.00  0.00     0.078 H 
ATOM     56  H   LIG d   1       4.602  -5.270 -15.374  0.00  0.00     0.078 H 
ATOM     57  H   LIG d   1       4.157  -5.057 -17.084  0.00  0.00     0.078 H 
ENDBRANCH  52  54
BRANCH  52  58
ATOM     58  C   LIG d   1       2.944  -2.934 -17.025  0.00  0.00    -0.043 C 
ATOM     59  H   LIG d   1       2.345  -3.725 -17.478  0.00  0.00     0.078 H 
ATOM     60  H   LIG d   1       2.294  -2.109 -16.733  0.00  0.00     0.078 H 
ATOM     61  H   LIG d   1       3.682  -2.581 -17.744  0.00  0.00     0.078 H 
ENDBRANCH  52  58
ENDBRANCH  49  52
ENDBRANCH  46  49
ENDBRANCH  14  45
TORSDOF 10
ENDMDL
