MODEL 1
REMARK VINA RESULT:      -6.1      0.000      0.000
REMARK  3 active torsions:
REMARK  status: ('A' for Active; 'I' for Inactive)
REMARK    1  A    between atoms: C_1  and  C_2 
REMARK    2  A    between atoms: C_6  and  C_10 
REMARK    3  A    between atoms: C_13  and  N_16 
ROOT
ATOM      1  C   LIG d   1       3.188  -0.874 -12.014  0.00  0.00    -0.034 A 
ATOM      2  C   LIG d   1       1.812  -0.880 -11.730  0.00  0.00    -0.050 A 
ATOM      3  C   LIG d   1       1.389  -0.763 -10.444  0.00  0.00     0.029 A 
ATOM      4  C   LIG d   1       2.341  -0.636  -9.412  0.00  0.00     0.288 A 
ATOM      5  C   LIG d   1       3.437  -0.424  -7.548  0.00  0.00     0.232 A 
ATOM      6  C   LIG d   1       4.362  -0.500  -8.544  0.00  0.00     0.087 A 
ATOM      7  N   LIG d   1       3.677  -0.634  -9.719  0.00  0.00    -0.264 N 
ATOM      8  C   LIG d   1       4.089  -0.752 -11.015  0.00  0.00     0.018 A 
ATOM      9  H   LIG d   1       1.094  -0.979 -12.532  0.00  0.00     0.062 H 
ATOM     10  H   LIG d   1       0.333  -0.767 -10.214  0.00  0.00     0.070 H 
ATOM     11  H   LIG d   1       5.435  -0.462  -8.428  0.00  0.00     0.088 H 
ATOM     12  H   LIG d   1       5.143  -0.748 -11.245  0.00  0.00     0.082 H 
ATOM     13  N   LIG d   1       2.219  -0.514  -8.100  0.00  0.00    -0.188 N 
ATOM     14  H   LIG d   1       1.330  -0.492  -7.586  0.00  0.00     0.455 HD
ENDROOT
BRANCH   5  15
ATOM     15  C   LIG d   1       3.729  -0.274  -6.100  0.00  0.00     0.048 A 
ATOM     16  C   LIG d   1       4.977  -0.634  -5.598  0.00  0.00    -0.042 A 
ATOM     17  C   LIG d   1       5.243  -0.492  -4.251  0.00  0.00     0.016 A 
ATOM     18  H   LIG d   1       5.736  -1.022  -6.261  0.00  0.00     0.063 H 
ATOM     19  C   LIG d   1       4.272   0.007  -3.400  0.00  0.00     0.273 A 
ATOM     20  H   LIG d   1       6.211  -0.770  -3.860  0.00  0.00     0.069 H 
ATOM     21  C   LIG d   1       3.030   0.364  -3.893  0.00  0.00     0.016 A 
ATOM     22  C   LIG d   1       2.756   0.231  -5.239  0.00  0.00    -0.042 A 
ATOM     23  H   LIG d   1       2.277   0.753  -3.226  0.00  0.00     0.069 H 
ATOM     24  H   LIG d   1       1.788   0.515  -5.625  0.00  0.00     0.063 H 
BRANCH  19  25
ATOM     25  N   LIG d   1       4.563   0.156  -1.957  0.00  0.00     0.080 N 
ATOM     26  O   LIG d   1       4.552  -0.821  -1.229  0.00  0.00     0.041 OA
ATOM     27  O   LIG d   1       4.814   1.256  -1.496  0.00  0.00    -0.576 OA
ENDBRANCH  19  25
ENDBRANCH   5  15
BRANCH   1  28
ATOM     28  C   LIG d   1       3.661  -1.004 -13.438  0.00  0.00    -0.038 C 
ATOM     29  H   LIG d   1       3.380  -1.982 -13.828  0.00  0.00     0.028 H 
ATOM     30  H   LIG d   1       3.201  -0.225 -14.047  0.00  0.00     0.028 H 
ATOM     31  H   LIG d   1       4.746  -0.897 -13.473  0.00  0.00     0.028 H 
ENDBRANCH   1  28
TORSDOF 3
ENDMDL
MODEL 2
REMARK VINA RESULT:      -5.7      4.323      7.662
REMARK  3 active torsions:
REMARK  status: ('A' for Active; 'I' for Inactive)
REMARK    1  A    between atoms: C_1  and  C_2 
REMARK    2  A    between atoms: C_6  and  C_10 
REMARK    3  A    between atoms: C_13  and  N_16 
ROOT
ATOM      1  C   LIG d   1       4.513  -0.146  -2.749  0.00  0.00    -0.034 A 
ATOM      2  C   LIG d   1       4.996  -1.465  -2.771  0.00  0.00    -0.050 A 
ATOM      3  C   LIG d   1       4.927  -2.189  -3.920  0.00  0.00     0.029 A 
ATOM      4  C   LIG d   1       4.368  -1.602  -5.074  0.00  0.00     0.288 A 
ATOM      5  C   LIG d   1       3.602  -1.106  -7.046  0.00  0.00     0.232 A 
ATOM      6  C   LIG d   1       3.423  -0.005  -6.263  0.00  0.00     0.087 A 
ATOM      7  N   LIG d   1       3.904  -0.313  -5.022  0.00  0.00    -0.264 N 
ATOM      8  C   LIG d   1       3.981   0.403  -3.862  0.00  0.00     0.018 A 
ATOM      9  H   LIG d   1       5.421  -1.902  -1.879  0.00  0.00     0.062 H 
ATOM     10  H   LIG d   1       5.295  -3.205  -3.948  0.00  0.00     0.070 H 
ATOM     11  H   LIG d   1       2.985   0.933  -6.567  0.00  0.00     0.088 H 
ATOM     12  H   LIG d   1       3.613   1.417  -3.833  0.00  0.00     0.082 H 
ATOM     13  N   LIG d   1       4.172  -2.063  -6.299  0.00  0.00    -0.188 N 
ATOM     14  H   LIG d   1       4.418  -3.004  -6.626  0.00  0.00     0.455 HD
ENDROOT
BRANCH   5  15
ATOM     15  C   LIG d   1       3.223  -1.227  -8.476  0.00  0.00     0.048 A 
ATOM     16  C   LIG d   1       3.959  -2.048  -9.327  0.00  0.00    -0.042 A 
ATOM     17  C   LIG d   1       3.603  -2.157 -10.655  0.00  0.00     0.016 A 
ATOM     18  H   LIG d   1       4.808  -2.599  -8.947  0.00  0.00     0.063 H 
ATOM     19  C   LIG d   1       2.516  -1.453 -11.143  0.00  0.00     0.273 A 
ATOM     20  H   LIG d   1       4.173  -2.793 -11.316  0.00  0.00     0.069 H 
ATOM     21  C   LIG d   1       1.782  -0.635 -10.303  0.00  0.00     0.016 A 
ATOM     22  C   LIG d   1       2.127  -0.523  -8.971  0.00  0.00    -0.042 A 
ATOM     23  H   LIG d   1       0.935  -0.088 -10.688  0.00  0.00     0.069 H 
ATOM     24  H   LIG d   1       1.550   0.111  -8.314  0.00  0.00     0.063 H 
BRANCH  19  25
ATOM     25  N   LIG d   1       2.139  -1.573 -12.569  0.00  0.00     0.080 N 
ATOM     26  O   LIG d   1       1.004  -1.897 -12.873  0.00  0.00     0.041 OA
ATOM     27  O   LIG d   1       2.962  -1.347 -13.438  0.00  0.00    -0.576 OA
ENDBRANCH  19  25
ENDBRANCH   5  15
BRANCH   1  28
ATOM     28  C   LIG d   1       4.589   0.659  -1.478  0.00  0.00    -0.038 C 
ATOM     29  H   LIG d   1       4.038   0.147  -0.689  0.00  0.00     0.028 H 
ATOM     30  H   LIG d   1       5.631   0.770  -1.179  0.00  0.00     0.028 H 
ATOM     31  H   LIG d   1       4.153   1.644  -1.645  0.00  0.00     0.028 H 
ENDBRANCH   1  28
TORSDOF 3
ENDMDL
MODEL 3
REMARK VINA RESULT:      -5.7      9.317     10.457
REMARK  3 active torsions:
REMARK  status: ('A' for Active; 'I' for Inactive)
REMARK    1  A    between atoms: C_1  and  C_2 
REMARK    2  A    between atoms: C_6  and  C_10 
REMARK    3  A    between atoms: C_13  and  N_16 
ROOT
ATOM      1  C   LIG d   1       9.390   6.776  -8.496  0.00  0.00    -0.034 A 
ATOM      2  C   LIG d   1       9.026   8.118  -8.293  0.00  0.00    -0.050 A 
ATOM      3  C   LIG d   1       9.061   8.644  -7.040  0.00  0.00     0.029 A 
ATOM      4  C   LIG d   1       9.465   7.831  -5.960  0.00  0.00     0.288 A 
ATOM      5  C   LIG d   1      10.011   6.960  -4.046  0.00  0.00     0.232 A 
ATOM      6  C   LIG d   1      10.157   5.981  -4.983  0.00  0.00     0.087 A 
ATOM      7  N   LIG d   1       9.815   6.525  -6.189  0.00  0.00    -0.264 N 
ATOM      8  C   LIG d   1       9.774   6.010  -7.452  0.00  0.00     0.018 A 
ATOM      9  H   LIG d   1       8.718   8.728  -9.130  0.00  0.00     0.062 H 
ATOM     10  H   LIG d   1       8.783   9.674  -6.872  0.00  0.00     0.070 H 
ATOM     11  H   LIG d   1      10.483   4.967  -4.806  0.00  0.00     0.088 H 
ATOM     12  H   LIG d   1      10.053   4.980  -7.619  0.00  0.00     0.082 H 
ATOM     13  N   LIG d   1       9.586   8.071  -4.664  0.00  0.00    -0.188 N 
ATOM     14  H   LIG d   1       9.384   8.966  -4.204  0.00  0.00     0.455 HD
ENDROOT
BRANCH   5  15
ATOM     15  C   LIG d   1      10.273   6.817  -2.592  0.00  0.00     0.048 A 
ATOM     16  C   LIG d   1      10.068   7.897  -1.736  0.00  0.00    -0.042 A 
ATOM     17  C   LIG d   1      10.312   7.759  -0.385  0.00  0.00     0.016 A 
ATOM     18  H   LIG d   1       9.717   8.841  -2.129  0.00  0.00     0.063 H 
ATOM     19  C   LIG d   1      10.760   6.551   0.120  0.00  0.00     0.273 A 
ATOM     20  H   LIG d   1      10.153   8.595   0.280  0.00  0.00     0.069 H 
ATOM     21  C   LIG d   1      10.966   5.476  -0.725  0.00  0.00     0.016 A 
ATOM     22  C   LIG d   1      10.720   5.602  -2.078  0.00  0.00    -0.042 A 
ATOM     23  H   LIG d   1      11.315   4.536  -0.326  0.00  0.00     0.069 H 
ATOM     24  H   LIG d   1      10.876   4.761  -2.736  0.00  0.00     0.063 H 
BRANCH  19  25
ATOM     25  N   LIG d   1      11.020   6.409   1.570  0.00  0.00     0.080 N 
ATOM     26  O   LIG d   1      10.826   5.341   2.122  0.00  0.00     0.041 OA
ATOM     27  O   LIG d   1      11.431   7.360   2.211  0.00  0.00    -0.576 OA
ENDBRANCH  19  25
ENDBRANCH   5  15
BRANCH   1  28
ATOM     28  C   LIG d   1       9.352   6.189  -9.882  0.00  0.00    -0.038 C 
ATOM     29  H   LIG d   1       9.438   5.104  -9.821  0.00  0.00     0.028 H 
ATOM     30  H   LIG d   1       8.410   6.452 -10.363  0.00  0.00     0.028 H 
ATOM     31  H   LIG d   1      10.181   6.587 -10.469  0.00  0.00     0.028 H 
ENDBRANCH   1  28
TORSDOF 3
ENDMDL
MODEL 4
REMARK VINA RESULT:      -5.6      4.833      5.984
REMARK  3 active torsions:
REMARK  status: ('A' for Active; 'I' for Inactive)
REMARK    1  A    between atoms: C_1  and  C_2 
REMARK    2  A    between atoms: C_6  and  C_10 
REMARK    3  A    between atoms: C_13  and  N_16 
ROOT
ATOM      1  C   LIG d   1       6.990  -7.762  -6.549  0.00  0.00    -0.034 A 
ATOM      2  C   LIG d   1       5.659  -8.207  -6.467  0.00  0.00    -0.050 A 
ATOM      3  C   LIG d   1       4.691  -7.360  -6.030  0.00  0.00     0.029 A 
ATOM      4  C   LIG d   1       5.038  -6.043  -5.663  0.00  0.00     0.288 A 
ATOM      5  C   LIG d   1       5.124  -3.973  -5.007  0.00  0.00     0.232 A 
ATOM      6  C   LIG d   1       6.394  -4.336  -5.339  0.00  0.00     0.087 A 
ATOM      7  N   LIG d   1       6.345  -5.638  -5.753  0.00  0.00    -0.264 N 
ATOM      8  C   LIG d   1       7.308  -6.499  -6.194  0.00  0.00     0.018 A 
ATOM      9  H   LIG d   1       5.408  -9.219  -6.751  0.00  0.00     0.062 H 
ATOM     10  H   LIG d   1       3.664  -7.691  -5.963  0.00  0.00     0.070 H 
ATOM     11  H   LIG d   1       7.274  -3.712  -5.286  0.00  0.00     0.088 H 
ATOM     12  H   LIG d   1       8.333  -6.168  -6.260  0.00  0.00     0.082 H 
ATOM     13  N   LIG d   1       4.321  -5.028  -5.208  0.00  0.00    -0.188 N 
ATOM     14  H   LIG d   1       3.309  -5.046  -5.035  0.00  0.00     0.455 HD
ENDROOT
BRANCH   5  15
ATOM     15  C   LIG d   1       4.703  -2.642  -4.504  0.00  0.00     0.048 A 
ATOM     16  C   LIG d   1       4.642  -1.554  -5.372  0.00  0.00    -0.042 A 
ATOM     17  C   LIG d   1       4.249  -0.318  -4.900  0.00  0.00     0.016 A 
ATOM     18  H   LIG d   1       4.899  -1.677  -6.414  0.00  0.00     0.063 H 
ATOM     19  C   LIG d   1       3.917  -0.159  -3.566  0.00  0.00     0.273 A 
ATOM     20  H   LIG d   1       4.200   0.526  -5.572  0.00  0.00     0.069 H 
ATOM     21  C   LIG d   1       3.977  -1.235  -2.699  0.00  0.00     0.016 A 
ATOM     22  C   LIG d   1       4.364  -2.476  -3.163  0.00  0.00    -0.042 A 
ATOM     23  H   LIG d   1       3.717  -1.105  -1.660  0.00  0.00     0.069 H 
ATOM     24  H   LIG d   1       4.405  -3.317  -2.487  0.00  0.00     0.063 H 
BRANCH  19  25
ATOM     25  N   LIG d   1       3.497   1.169  -3.064  0.00  0.00     0.080 N 
ATOM     26  O   LIG d   1       3.494   1.394  -1.867  0.00  0.00     0.041 OA
ATOM     27  O   LIG d   1       3.157   2.037  -3.848  0.00  0.00    -0.576 OA
ENDBRANCH  19  25
ENDBRANCH   5  15
BRANCH   1  28
ATOM     28  C   LIG d   1       8.065  -8.699  -7.033  0.00  0.00    -0.038 C 
ATOM     29  H   LIG d   1       7.617  -9.650  -7.321  0.00  0.00     0.028 H 
ATOM     30  H   LIG d   1       8.570  -8.259  -7.894  0.00  0.00     0.028 H 
ATOM     31  H   LIG d   1       8.790  -8.865  -6.235  0.00  0.00     0.028 H 
ENDBRANCH   1  28
TORSDOF 3
ENDMDL
MODEL 5
REMARK VINA RESULT:      -5.5     11.970     14.242
REMARK  3 active torsions:
REMARK  status: ('A' for Active; 'I' for Inactive)
REMARK    1  A    between atoms: C_1  and  C_2 
REMARK    2  A    between atoms: C_6  and  C_10 
REMARK    3  A    between atoms: C_13  and  N_16 
ROOT
ATOM      1  C   LIG d   1      10.758   6.462  -0.028  0.00  0.00    -0.034 A 
ATOM      2  C   LIG d   1      10.448   5.532  -1.034  0.00  0.00    -0.050 A 
ATOM      3  C   LIG d   1      10.158   5.967  -2.288  0.00  0.00     0.029 A 
ATOM      4  C   LIG d   1      10.172   7.350  -2.561  0.00  0.00     0.288 A 
ATOM      5  C   LIG d   1      10.078   9.350  -3.407  0.00  0.00     0.232 A 
ATOM      6  C   LIG d   1      10.418   9.490  -2.095  0.00  0.00     0.087 A 
ATOM      7  N   LIG d   1      10.478   8.235  -1.558  0.00  0.00    -0.264 N 
ATOM      8  C   LIG d   1      10.768   7.784  -0.303  0.00  0.00     0.018 A 
ATOM      9  H   LIG d   1      10.440   4.475  -0.810  0.00  0.00     0.062 H 
ATOM     10  H   LIG d   1       9.918   5.260  -3.070  0.00  0.00     0.070 H 
ATOM     11  H   LIG d   1      10.604  10.419  -1.577  0.00  0.00     0.088 H 
ATOM     12  H   LIG d   1      11.008   8.490   0.477  0.00  0.00     0.082 H 
ATOM     13  N   LIG d   1       9.930   8.042  -3.663  0.00  0.00    -0.188 N 
ATOM     14  H   LIG d   1       9.669   7.640  -4.571  0.00  0.00     0.455 HD
ENDROOT
BRANCH   5  15
ATOM     15  C   LIG d   1       9.897  10.454  -4.381  0.00  0.00     0.048 A 
ATOM     16  C   LIG d   1      10.056  10.216  -5.744  0.00  0.00    -0.042 A 
ATOM     17  C   LIG d   1       9.886  11.247  -6.647  0.00  0.00     0.016 A 
ATOM     18  H   LIG d   1      10.311   9.227  -6.096  0.00  0.00     0.063 H 
ATOM     19  C   LIG d   1       9.558  12.514  -6.199  0.00  0.00     0.273 A 
ATOM     20  H   LIG d   1      10.008  11.064  -7.704  0.00  0.00     0.069 H 
ATOM     21  C   LIG d   1       9.400  12.757  -4.847  0.00  0.00     0.016 A 
ATOM     22  C   LIG d   1       9.563  11.732  -3.936  0.00  0.00    -0.042 A 
ATOM     23  H   LIG d   1       9.145  13.747  -4.503  0.00  0.00     0.069 H 
ATOM     24  H   LIG d   1       9.435  11.920  -2.881  0.00  0.00     0.063 H 
BRANCH  19  25
ATOM     25  N   LIG d   1       9.378  13.616  -7.171  0.00  0.00     0.080 N 
ATOM     26  O   LIG d   1       9.465  14.774  -6.802  0.00  0.00     0.041 OA
ATOM     27  O   LIG d   1       9.143  13.365  -8.340  0.00  0.00    -0.576 OA
ENDBRANCH  19  25
ENDBRANCH   5  15
BRANCH   1  28
ATOM     28  C   LIG d   1      11.080   5.984   1.364  0.00  0.00    -0.038 C 
ATOM     29  H   LIG d   1      10.427   5.151   1.623  0.00  0.00     0.028 H 
ATOM     30  H   LIG d   1      12.119   5.656   1.404  0.00  0.00     0.028 H 
ATOM     31  H   LIG d   1      10.930   6.798   2.073  0.00  0.00     0.028 H 
ENDBRANCH   1  28
TORSDOF 3
ENDMDL
MODEL 6
REMARK VINA RESULT:      -5.5      5.457      7.697
REMARK  3 active torsions:
REMARK  status: ('A' for Active; 'I' for Inactive)
REMARK    1  A    between atoms: C_1  and  C_2 
REMARK    2  A    between atoms: C_6  and  C_10 
REMARK    3  A    between atoms: C_13  and  N_16 
ROOT
ATOM      1  C   LIG d   1      10.514  -6.289  -4.568  0.00  0.00    -0.034 A 
ATOM      2  C   LIG d   1      11.146  -5.786  -3.417  0.00  0.00    -0.050 A 
ATOM      3  C   LIG d   1      10.611  -4.719  -2.767  0.00  0.00     0.029 A 
ATOM      4  C   LIG d   1       9.427  -4.132  -3.260  0.00  0.00     0.288 A 
ATOM      5  C   LIG d   1       7.655  -2.940  -3.660  0.00  0.00     0.232 A 
ATOM      6  C   LIG d   1       7.720  -3.892  -4.633  0.00  0.00     0.087 A 
ATOM      7  N   LIG d   1       8.834  -4.644  -4.385  0.00  0.00    -0.264 N 
ATOM      8  C   LIG d   1       9.381  -5.716  -5.028  0.00  0.00     0.018 A 
ATOM      9  H   LIG d   1      12.052  -6.247  -3.052  0.00  0.00     0.062 H 
ATOM     10  H   LIG d   1      11.088  -4.324  -1.882  0.00  0.00     0.070 H 
ATOM     11  H   LIG d   1       7.023  -4.027  -5.446  0.00  0.00     0.088 H 
ATOM     12  H   LIG d   1       8.905  -6.111  -5.913  0.00  0.00     0.082 H 
ATOM     13  N   LIG d   1       8.704  -3.104  -2.843  0.00  0.00    -0.188 N 
ATOM     14  H   LIG d   1       8.916  -2.524  -2.022  0.00  0.00     0.455 HD
ENDROOT
BRANCH   5  15
ATOM     15  C   LIG d   1       6.606  -1.898  -3.532  0.00  0.00     0.048 A 
ATOM     16  C   LIG d   1       6.963  -0.560  -3.391  0.00  0.00    -0.042 A 
ATOM     17  C   LIG d   1       5.984   0.405  -3.272  0.00  0.00     0.016 A 
ATOM     18  H   LIG d   1       8.006  -0.277  -3.374  0.00  0.00     0.063 H 
ATOM     19  C   LIG d   1       4.648   0.045  -3.295  0.00  0.00     0.273 A 
ATOM     20  H   LIG d   1       6.260   1.444  -3.163  0.00  0.00     0.069 H 
ATOM     21  C   LIG d   1       4.287  -1.283  -3.434  0.00  0.00     0.016 A 
ATOM     22  C   LIG d   1       5.258  -2.255  -3.558  0.00  0.00    -0.042 A 
ATOM     23  H   LIG d   1       3.244  -1.559  -3.451  0.00  0.00     0.069 H 
ATOM     24  H   LIG d   1       4.976  -3.291  -3.672  0.00  0.00     0.063 H 
BRANCH  19  25
ATOM     25  N   LIG d   1       3.602   1.084  -3.167  0.00  0.00     0.080 N 
ATOM     26  O   LIG d   1       3.311   1.523  -2.068  0.00  0.00     0.041 OA
ATOM     27  O   LIG d   1       3.033   1.501  -4.160  0.00  0.00    -0.576 OA
ENDBRANCH  19  25
ENDBRANCH   5  15
BRANCH   1  28
ATOM     28  C   LIG d   1      11.104  -7.472  -5.291  0.00  0.00    -0.038 C 
ATOM     29  H   LIG d   1      11.279  -8.281  -4.583  0.00  0.00     0.028 H 
ATOM     30  H   LIG d   1      10.411  -7.809  -6.062  0.00  0.00     0.028 H 
ATOM     31  H   LIG d   1      12.047  -7.182  -5.754  0.00  0.00     0.028 H 
ENDBRANCH   1  28
TORSDOF 3
ENDMDL
MODEL 7
REMARK VINA RESULT:      -5.4      9.517     12.436
REMARK  3 active torsions:
REMARK  status: ('A' for Active; 'I' for Inactive)
REMARK    1  A    between atoms: C_1  and  C_2 
REMARK    2  A    between atoms: C_6  and  C_10 
REMARK    3  A    between atoms: C_13  and  N_16 
ROOT
ATOM      1  C   LIG d   1      10.691   6.560  -0.053  0.00  0.00    -0.034 A 
ATOM      2  C   LIG d   1      10.344   7.922  -0.089  0.00  0.00    -0.050 A 
ATOM      3  C   LIG d   1      10.018   8.503  -1.274  0.00  0.00     0.029 A 
ATOM      4  C   LIG d   1      10.034   7.728  -2.452  0.00  0.00     0.288 A 
ATOM      5  C   LIG d   1       9.930   6.928  -4.470  0.00  0.00     0.232 A 
ATOM      6  C   LIG d   1      10.310   5.903  -3.656  0.00  0.00     0.087 A 
ATOM      7  N   LIG d   1      10.377   6.402  -2.386  0.00  0.00    -0.264 N 
ATOM      8  C   LIG d   1      10.702   5.831  -1.189  0.00  0.00     0.018 A 
ATOM      9  H   LIG d   1      10.337   8.503   0.821  0.00  0.00     0.062 H 
ATOM     10  H   LIG d   1       9.751   9.549  -1.313  0.00  0.00     0.070 H 
ATOM     11  H   LIG d   1      10.519   4.888  -3.959  0.00  0.00     0.088 H 
ATOM     12  H   LIG d   1      10.969   4.786  -1.150  0.00  0.00     0.082 H 
ATOM     13  N   LIG d   1       9.774   8.025  -3.715  0.00  0.00    -0.188 N 
ATOM     14  H   LIG d   1       9.497   8.951  -4.062  0.00  0.00     0.455 HD
ENDROOT
BRANCH   5  15
ATOM     15  C   LIG d   1       9.730   6.845  -5.938  0.00  0.00     0.048 A 
ATOM     16  C   LIG d   1       9.878   5.626  -6.595  0.00  0.00    -0.042 A 
ATOM     17  C   LIG d   1       9.690   5.554  -7.961  0.00  0.00     0.016 A 
ATOM     18  H   LIG d   1      10.138   4.738  -6.038  0.00  0.00     0.063 H 
ATOM     19  C   LIG d   1       9.355   6.690  -8.676  0.00  0.00     0.273 A 
ATOM     20  H   LIG d   1       9.804   4.609  -8.472  0.00  0.00     0.069 H 
ATOM     21  C   LIG d   1       9.208   7.903  -8.029  0.00  0.00     0.016 A 
ATOM     22  C   LIG d   1       9.388   7.985  -6.663  0.00  0.00    -0.042 A 
ATOM     23  H   LIG d   1       8.946   8.786  -8.592  0.00  0.00     0.069 H 
ATOM     24  H   LIG d   1       9.268   8.931  -6.157  0.00  0.00     0.063 H 
BRANCH  19  25
ATOM     25  N   LIG d   1       9.156   6.607 -10.141  0.00  0.00     0.080 N 
ATOM     26  O   LIG d   1       9.786   7.338 -10.883  0.00  0.00     0.041 OA
ATOM     27  O   LIG d   1       8.362   5.806 -10.603  0.00  0.00    -0.576 OA
ENDBRANCH  19  25
ENDBRANCH   5  15
BRANCH   1  28
ATOM     28  C   LIG d   1      11.052   5.912   1.257  0.00  0.00    -0.038 C 
ATOM     29  H   LIG d   1      12.123   5.714   1.282  0.00  0.00     0.028 H 
ATOM     30  H   LIG d   1      10.788   6.580   2.078  0.00  0.00     0.028 H 
ATOM     31  H   LIG d   1      10.506   4.975   1.363  0.00  0.00     0.028 H 
ENDBRANCH   1  28
TORSDOF 3
ENDMDL
MODEL 8
REMARK VINA RESULT:      -5.3     13.217     15.136
REMARK  3 active torsions:
REMARK  status: ('A' for Active; 'I' for Inactive)
REMARK    1  A    between atoms: C_1  and  C_2 
REMARK    2  A    between atoms: C_6  and  C_10 
REMARK    3  A    between atoms: C_13  and  N_16 
ROOT
ATOM      1  C   LIG d   1      10.982   7.056   0.740  0.00  0.00    -0.034 A 
ATOM      2  C   LIG d   1      11.364   8.195   1.470  0.00  0.00    -0.050 A 
ATOM      3  C   LIG d   1      11.336   9.417   0.876  0.00  0.00     0.029 A 
ATOM      4  C   LIG d   1      10.921   9.524  -0.468  0.00  0.00     0.288 A 
ATOM      5  C   LIG d   1      10.363  10.138  -2.476  0.00  0.00     0.232 A 
ATOM      6  C   LIG d   1      10.204   8.786  -2.416  0.00  0.00     0.087 A 
ATOM      7  N   LIG d   1      10.554   8.395  -1.155  0.00  0.00    -0.264 N 
ATOM      8  C   LIG d   1      10.587   7.174  -0.546  0.00  0.00     0.018 A 
ATOM      9  H   LIG d   1      11.680   8.097   2.498  0.00  0.00     0.062 H 
ATOM     10  H   LIG d   1      11.629  10.299   1.428  0.00  0.00     0.070 H 
ATOM     11  H   LIG d   1       9.865   8.144  -3.216  0.00  0.00     0.088 H 
ATOM     12  H   LIG d   1      10.295   6.293  -1.097  0.00  0.00     0.082 H 
ATOM     13  N   LIG d   1      10.804  10.560  -1.282  0.00  0.00    -0.188 N 
ATOM     14  H   LIG d   1      11.018  11.534  -1.038  0.00  0.00     0.455 HD
ENDROOT
BRANCH   5  15
ATOM     15  C   LIG d   1      10.100  10.993  -3.660  0.00  0.00     0.048 A 
ATOM     16  C   LIG d   1       9.787  12.340  -3.493  0.00  0.00    -0.042 A 
ATOM     17  C   LIG d   1       9.543  13.131  -4.597  0.00  0.00     0.016 A 
ATOM     18  H   LIG d   1       9.735  12.765  -2.501  0.00  0.00     0.063 H 
ATOM     19  C   LIG d   1       9.610  12.589  -5.868  0.00  0.00     0.273 A 
ATOM     20  H   LIG d   1       9.301  14.176  -4.470  0.00  0.00     0.069 H 
ATOM     21  C   LIG d   1       9.920  11.251  -6.040  0.00  0.00     0.016 A 
ATOM     22  C   LIG d   1      10.170  10.453  -4.943  0.00  0.00    -0.042 A 
ATOM     23  H   LIG d   1       9.970  10.833  -7.034  0.00  0.00     0.069 H 
ATOM     24  H   LIG d   1      10.417   9.410  -5.077  0.00  0.00     0.063 H 
BRANCH  19  25
ATOM     25  N   LIG d   1       9.347  13.442  -7.049  0.00  0.00     0.080 N 
ATOM     26  O   LIG d   1       9.061  12.931  -8.117  0.00  0.00     0.041 OA
ATOM     27  O   LIG d   1       9.416  14.654  -6.952  0.00  0.00    -0.576 OA
ENDBRANCH  19  25
ENDBRANCH   5  15
BRANCH   1  28
ATOM     28  C   LIG d   1      11.012   5.700   1.394  0.00  0.00    -0.038 C 
ATOM     29  H   LIG d   1       9.992   5.340   1.532  0.00  0.00     0.028 H 
ATOM     30  H   LIG d   1      11.561   5.003   0.762  0.00  0.00     0.028 H 
ATOM     31  H   LIG d   1      11.505   5.775   2.364  0.00  0.00     0.028 H 
ENDBRANCH   1  28
TORSDOF 3
ENDMDL
MODEL 9
REMARK VINA RESULT:      -5.2      8.290     11.736
REMARK  3 active torsions:
REMARK  status: ('A' for Active; 'I' for Inactive)
REMARK    1  A    between atoms: C_1  and  C_2 
REMARK    2  A    between atoms: C_6  and  C_10 
REMARK    3  A    between atoms: C_13  and  N_16 
ROOT
ATOM      1  C   LIG d   1      10.937   8.381   0.329  0.00  0.00    -0.034 A 
ATOM      2  C   LIG d   1      11.355   7.275   1.089  0.00  0.00    -0.050 A 
ATOM      3  C   LIG d   1      11.253   6.024   0.570  0.00  0.00     0.029 A 
ATOM      4  C   LIG d   1      10.727   5.854  -0.728  0.00  0.00     0.288 A 
ATOM      5  C   LIG d   1       9.992   5.146  -2.646  0.00  0.00     0.232 A 
ATOM      6  C   LIG d   1       9.866   6.502  -2.651  0.00  0.00     0.087 A 
ATOM      7  N   LIG d   1      10.328   6.953  -1.446  0.00  0.00    -0.264 N 
ATOM      8  C   LIG d   1      10.436   8.204  -0.912  0.00  0.00     0.018 A 
ATOM      9  H   LIG d   1      11.754   7.421   2.082  0.00  0.00     0.062 H 
ATOM     10  H   LIG d   1      11.570   5.166   1.145  0.00  0.00     0.070 H 
ATOM     11  H   LIG d   1       9.476   7.108  -3.455  0.00  0.00     0.088 H 
ATOM     12  H   LIG d   1      10.119   9.061  -1.487  0.00  0.00     0.082 H 
ATOM     13  N   LIG d   1      10.512   4.777  -1.467  0.00  0.00    -0.188 N 
ATOM     14  H   LIG d   1      10.712   3.812  -1.181  0.00  0.00     0.455 HD
ENDROOT
BRANCH   5  15
ATOM     15  C   LIG d   1       9.612   4.234  -3.754  0.00  0.00     0.048 A 
ATOM     16  C   LIG d   1       9.105   2.967  -3.473  0.00  0.00    -0.042 A 
ATOM     17  C   LIG d   1       8.753   2.123  -4.507  0.00  0.00     0.016 A 
ATOM     18  H   LIG d   1       8.986   2.646  -2.449  0.00  0.00     0.063 H 
ATOM     19  C   LIG d   1       8.903   2.533  -5.820  0.00  0.00     0.273 A 
ATOM     20  H   LIG d   1       8.359   1.141  -4.291  0.00  0.00     0.069 H 
ATOM     21  C   LIG d   1       9.408   3.789  -6.104  0.00  0.00     0.016 A 
ATOM     22  C   LIG d   1       9.758   4.643  -5.078  0.00  0.00    -0.042 A 
ATOM     23  H   LIG d   1       9.523   4.104  -7.130  0.00  0.00     0.069 H 
ATOM     24  H   LIG d   1      10.146   5.625  -5.300  0.00  0.00     0.063 H 
BRANCH  19  25
ATOM     25  N   LIG d   1       8.525   1.623  -6.924  0.00  0.00     0.080 N 
ATOM     26  O   LIG d   1       7.351   1.467  -7.209  0.00  0.00     0.041 OA
ATOM     27  O   LIG d   1       9.387   1.033  -7.550  0.00  0.00    -0.576 OA
ENDBRANCH  19  25
ENDBRANCH   5  15
BRANCH   1  28
ATOM     28  C   LIG d   1      11.049   9.770   0.902  0.00  0.00    -0.038 C 
ATOM     29  H   LIG d   1      11.890   9.812   1.593  0.00  0.00     0.028 H 
ATOM     30  H   LIG d   1      11.206  10.485   0.094  0.00  0.00     0.028 H 
ATOM     31  H   LIG d   1      10.130  10.020   1.432  0.00  0.00     0.028 H 
ENDBRANCH   1  28
TORSDOF 3
ENDMDL
MODEL 10
REMARK VINA RESULT:      -5.2     11.228     13.252
REMARK  3 active torsions:
REMARK  status: ('A' for Active; 'I' for Inactive)
REMARK    1  A    between atoms: C_1  and  C_2 
REMARK    2  A    between atoms: C_6  and  C_10 
REMARK    3  A    between atoms: C_13  and  N_16 
ROOT
ATOM      1  C   LIG d   1      10.445   4.504  -2.788  0.00  0.00    -0.034 A 
ATOM      2  C   LIG d   1      10.296   5.188  -1.569  0.00  0.00    -0.050 A 
ATOM      3  C   LIG d   1      10.113   6.534  -1.570  0.00  0.00     0.029 A 
ATOM      4  C   LIG d   1      10.077   7.227  -2.798  0.00  0.00     0.288 A 
ATOM      5  C   LIG d   1       9.959   8.665  -4.423  0.00  0.00     0.232 A 
ATOM      6  C   LIG d   1      10.151   7.441  -4.990  0.00  0.00     0.087 A 
ATOM      7  N   LIG d   1      10.226   6.533  -3.971  0.00  0.00    -0.264 N 
ATOM      8  C   LIG d   1      10.409   5.181  -3.956  0.00  0.00     0.018 A 
ATOM      9  H   LIG d   1      10.327   4.644  -0.636  0.00  0.00     0.062 H 
ATOM     10  H   LIG d   1       9.998   7.070  -0.638  0.00  0.00     0.070 H 
ATOM     11  H   LIG d   1      10.229   7.229  -6.046  0.00  0.00     0.088 H 
ATOM     12  H   LIG d   1      10.524   4.646  -4.887  0.00  0.00     0.082 H 
ATOM     13  N   LIG d   1       9.922   8.508  -3.092  0.00  0.00    -0.188 N 
ATOM     14  H   LIG d   1       9.795   9.263  -2.407  0.00  0.00     0.455 HD
ENDROOT
BRANCH   5  15
ATOM     15  C   LIG d   1       9.820   9.949  -5.153  0.00  0.00     0.048 A 
ATOM     16  C   LIG d   1       9.387  11.091  -4.482  0.00  0.00    -0.042 A 
ATOM     17  C   LIG d   1       9.260  12.283  -5.166  0.00  0.00     0.016 A 
ATOM     18  H   LIG d   1       9.151  11.044  -3.429  0.00  0.00     0.063 H 
ATOM     19  C   LIG d   1       9.562  12.346  -6.515  0.00  0.00     0.273 A 
ATOM     20  H   LIG d   1       8.925  13.169  -4.647  0.00  0.00     0.069 H 
ATOM     21  C   LIG d   1       9.992  11.215  -7.186  0.00  0.00     0.016 A 
ATOM     22  C   LIG d   1      10.127  10.019  -6.511  0.00  0.00    -0.042 A 
ATOM     23  H   LIG d   1      10.226  11.270  -8.238  0.00  0.00     0.069 H 
ATOM     24  H   LIG d   1      10.467   9.138  -7.033  0.00  0.00     0.063 H 
BRANCH  19  25
ATOM     25  N   LIG d   1       9.424  13.627  -7.243  0.00  0.00     0.080 N 
ATOM     26  O   LIG d   1       9.279  13.627  -8.452  0.00  0.00     0.041 OA
ATOM     27  O   LIG d   1       9.454  14.681  -6.632  0.00  0.00    -0.576 OA
ENDBRANCH  19  25
ENDBRANCH   5  15
BRANCH   1  28
ATOM     28  C   LIG d   1      10.648   3.012  -2.792  0.00  0.00    -0.038 C 
ATOM     29  H   LIG d   1      10.429   2.617  -3.784  0.00  0.00     0.028 H 
ATOM     30  H   LIG d   1      11.682   2.784  -2.531  0.00  0.00     0.028 H 
ATOM     31  H   LIG d   1       9.981   2.552  -2.062  0.00  0.00     0.028 H 
ENDBRANCH   1  28
TORSDOF 3
ENDMDL
