MODEL 1
REMARK VINA RESULT:      -6.2      0.000      0.000
REMARK  8 active torsions:
REMARK  status: ('A' for Active; 'I' for Inactive)
REMARK    1  A    between atoms: C_1  and  C_2 
REMARK    2  A    between atoms: C_2  and  C_3 
REMARK    3  A    between atoms: C_2  and  O_4 
REMARK    4  A    between atoms: O_4  and  C_5 
REMARK    5  A    between atoms: C_5  and  C_7 
REMARK    6  A    between atoms: C_7  and  O_8 
REMARK    7  A    between atoms: O_8  and  C_9 
REMARK    8  A    between atoms: C_17  and  C_20 
ROOT
ATOM      1  C   LIG d   1       2.722  -1.880 -10.549  0.00  0.00     0.125 A 
ATOM      2  C   LIG d   1       2.225  -0.594 -10.349  0.00  0.00    -0.019 A 
ATOM      3  C   LIG d   1       2.399   0.036  -9.150  0.00  0.00    -0.044 A 
ATOM      4  C   LIG d   1       3.078  -0.616  -8.118  0.00  0.00     0.065 A 
ATOM      5  C   LIG d   1       3.584  -1.914  -8.308  0.00  0.00     0.142 A 
ATOM      6  C   LIG d   1       3.399  -2.539  -9.535  0.00  0.00     0.023 A 
ATOM      7  O   LIG d   1       4.240  -2.541  -7.312  0.00  0.00    -0.462 OA
ATOM      8  C   LIG d   1       4.449  -1.992  -6.114  0.00  0.00     0.104 A 
ATOM      9  C   LIG d   1       4.015  -0.746  -5.794  0.00  0.00     0.066 A 
ATOM     10  C   LIG d   1       3.285   0.031  -6.810  0.00  0.00     0.200 A 
ATOM     11  O   LIG d   1       2.872   1.156  -6.582  0.00  0.00    -0.286 OA
ATOM     12  H   LIG d   1       1.700  -0.091 -11.149  0.00  0.00     0.065 H 
ATOM     13  H   LIG d   1       2.013   1.032  -8.999  0.00  0.00     0.063 H 
ATOM     14  H   LIG d   1       3.780  -3.535  -9.699  0.00  0.00     0.069 H 
ATOM     15  H   LIG d   1       4.988  -2.560  -5.370  0.00  0.00     0.104 H 
ENDROOT
BRANCH   1  16
ATOM     16  O   LIG d   1       2.542  -2.493 -11.746  0.00  0.00    -0.481 OA
BRANCH  16  17
ATOM     17  C   LIG d   1       1.953  -3.795 -11.724  0.00  0.00     0.186 C 
ATOM     18  H   LIG d   1       2.157  -4.302 -12.668  0.00  0.00     0.082 H 
ATOM     19  H   LIG d   1       2.377  -4.372 -10.902  0.00  0.00     0.082 H 
BRANCH  17  20
ATOM     20  C   LIG d   1       0.464  -3.668 -11.533  0.00  0.00     0.345 C 
ATOM     21  O   LIG d   1      -0.200  -3.066 -12.342  0.00  0.00    -0.247 OA
BRANCH  20  22
ATOM     22  O   LIG d   1      -0.125  -4.227 -10.464  0.00  0.00    -0.460 OA
BRANCH  22  23
ATOM     23  C   LIG d   1      -0.986  -5.370 -10.709  0.00  0.00     0.098 C 
ATOM     24  H   LIG d   1      -1.145  -5.484 -11.781  0.00  0.00     0.073 H 
BRANCH  23  25
ATOM     25  C   LIG d   1      -0.326  -6.634 -10.154  0.00  0.00    -0.028 C 
ATOM     26  H   LIG d   1      -0.828  -6.933  -9.234  0.00  0.00     0.026 H 
ATOM     27  H   LIG d   1      -0.404  -7.437 -10.887  0.00  0.00     0.026 H 
ATOM     28  H   LIG d   1       0.725  -6.433  -9.945  0.00  0.00     0.026 H 
ENDBRANCH  23  25
BRANCH  23  29
ATOM     29  C   LIG d   1      -2.333  -5.152 -10.015  0.00  0.00    -0.028 C 
ATOM     30  H   LIG d   1      -2.448  -4.097  -9.770  0.00  0.00     0.026 H 
ATOM     31  H   LIG d   1      -3.139  -5.461 -10.682  0.00  0.00     0.026 H 
ATOM     32  H   LIG d   1      -2.371  -5.745  -9.101  0.00  0.00     0.026 H 
ENDBRANCH  23  29
ENDBRANCH  22  23
ENDBRANCH  20  22
ENDBRANCH  17  20
ENDBRANCH  16  17
ENDBRANCH   1  16
BRANCH   9  33
ATOM     33  C   LIG d   1       4.272  -0.177  -4.448  0.00  0.00     0.007 A 
ATOM     34  C   LIG d   1       5.548   0.279  -4.114  0.00  0.00     0.049 A 
ATOM     35  C   LIG d   1       5.780   0.812  -2.860  0.00  0.00    -0.043 A 
ATOM     36 CL   LIG d   1       6.837   0.186  -5.272  0.00  0.00    -0.083 Cl
ATOM     37  C   LIG d   1       4.754   0.882  -1.936  0.00  0.00    -0.060 A 
ATOM     38  H   LIG d   1       6.765   1.170  -2.601  0.00  0.00     0.063 H 
ATOM     39  C   LIG d   1       3.489   0.426  -2.261  0.00  0.00    -0.061 A 
ATOM     40  H   LIG d   1       4.942   1.295  -0.956  0.00  0.00     0.062 H 
ATOM     41  C   LIG d   1       3.243  -0.103  -3.512  0.00  0.00    -0.052 A 
ATOM     42  H   LIG d   1       2.693   0.484  -1.534  0.00  0.00     0.062 H 
ATOM     43  H   LIG d   1       2.256  -0.460  -3.764  0.00  0.00     0.062 H 
ENDBRANCH   9  33
TORSDOF 8
ENDMDL
MODEL 2
REMARK VINA RESULT:      -6.1      8.040     11.668
REMARK  8 active torsions:
REMARK  status: ('A' for Active; 'I' for Inactive)
REMARK    1  A    between atoms: C_1  and  C_2 
REMARK    2  A    between atoms: C_2  and  C_3 
REMARK    3  A    between atoms: C_2  and  O_4 
REMARK    4  A    between atoms: O_4  and  C_5 
REMARK    5  A    between atoms: C_5  and  C_7 
REMARK    6  A    between atoms: C_7  and  O_8 
REMARK    7  A    between atoms: O_8  and  C_9 
REMARK    8  A    between atoms: C_17  and  C_20 
ROOT
ATOM      1  C   LIG d   1       9.574   3.958  -4.267  0.00  0.00     0.125 A 
ATOM      2  C   LIG d   1       9.540   5.088  -5.080  0.00  0.00    -0.019 A 
ATOM      3  C   LIG d   1       9.804   6.323  -4.559  0.00  0.00    -0.044 A 
ATOM      4  C   LIG d   1      10.109   6.450  -3.202  0.00  0.00     0.065 A 
ATOM      5  C   LIG d   1      10.146   5.316  -2.372  0.00  0.00     0.142 A 
ATOM      6  C   LIG d   1       9.876   4.068  -2.919  0.00  0.00     0.023 A 
ATOM      7  O   LIG d   1      10.442   5.441  -1.063  0.00  0.00    -0.462 OA
ATOM      8  C   LIG d   1      10.711   6.612  -0.481  0.00  0.00     0.104 A 
ATOM      9  C   LIG d   1      10.709   7.785  -1.164  0.00  0.00     0.066 A 
ATOM     10  C   LIG d   1      10.399   7.766  -2.604  0.00  0.00     0.200 A 
ATOM     11  O   LIG d   1      10.383   8.787  -3.269  0.00  0.00    -0.286 OA
ATOM     12  H   LIG d   1       9.303   4.988  -6.130  0.00  0.00     0.065 H 
ATOM     13  H   LIG d   1       9.776   7.197  -5.192  0.00  0.00     0.063 H 
ATOM     14  H   LIG d   1       9.900   3.187  -2.296  0.00  0.00     0.069 H 
ATOM     15  H   LIG d   1      10.943   6.626   0.574  0.00  0.00     0.104 H 
ENDROOT
BRANCH   1  16
ATOM     16  O   LIG d   1       9.310   2.738  -4.798  0.00  0.00    -0.481 OA
BRANCH  16  17
ATOM     17  C   LIG d   1       8.875   1.719  -3.895  0.00  0.00     0.186 C 
ATOM     18  H   LIG d   1       9.413   0.794  -4.105  0.00  0.00     0.082 H 
ATOM     19  H   LIG d   1       9.073   2.032  -2.871  0.00  0.00     0.082 H 
BRANCH  17  20
ATOM     20  C   LIG d   1       7.396   1.490  -4.072  0.00  0.00     0.345 C 
ATOM     21  O   LIG d   1       6.941   1.299  -5.175  0.00  0.00    -0.247 OA
BRANCH  20  22
ATOM     22  O   LIG d   1       6.583   1.497  -3.003  0.00  0.00    -0.460 OA
BRANCH  22  23
ATOM     23  C   LIG d   1       5.469   0.566  -3.016  0.00  0.00     0.098 C 
ATOM     24  H   LIG d   1       4.896   0.696  -3.935  0.00  0.00     0.073 H 
BRANCH  23  25
ATOM     25  C   LIG d   1       6.002  -0.867  -2.947  0.00  0.00    -0.028 C 
ATOM     26  H   LIG d   1       5.289  -1.543  -3.419  0.00  0.00     0.026 H 
ATOM     27  H   LIG d   1       6.958  -0.925  -3.469  0.00  0.00     0.026 H 
ATOM     28  H   LIG d   1       6.139  -1.154  -1.904  0.00  0.00     0.026 H 
ENDBRANCH  23  25
BRANCH  23  29
ATOM     29  C   LIG d   1       4.567   0.833  -1.811  0.00  0.00    -0.028 C 
ATOM     30  H   LIG d   1       3.750   1.491  -2.107  0.00  0.00     0.026 H 
ATOM     31  H   LIG d   1       4.158  -0.110  -1.446  0.00  0.00     0.026 H 
ATOM     32  H   LIG d   1       5.148   1.306  -1.020  0.00  0.00     0.026 H 
ENDBRANCH  23  29
ENDBRANCH  22  23
ENDBRANCH  20  22
ENDBRANCH  17  20
ENDBRANCH  16  17
ENDBRANCH   1  16
BRANCH   9  33
ATOM     33  C   LIG d   1      11.016   9.062  -0.474  0.00  0.00     0.007 A 
ATOM     34  C   LIG d   1       9.987   9.951  -0.160  0.00  0.00     0.049 A 
ATOM     35  C   LIG d   1      10.279  11.137   0.487  0.00  0.00    -0.043 A 
ATOM     36 CL   LIG d   1       8.346   9.566  -0.573  0.00  0.00    -0.083 Cl
ATOM     37  C   LIG d   1      11.587  11.447   0.812  0.00  0.00    -0.060 A 
ATOM     38  H   LIG d   1       9.483  11.825   0.735  0.00  0.00     0.063 H 
ATOM     39  C   LIG d   1      12.610  10.571   0.498  0.00  0.00    -0.061 A 
ATOM     40  H   LIG d   1      11.809  12.377   1.313  0.00  0.00     0.062 H 
ATOM     41  C   LIG d   1      12.331   9.381  -0.144  0.00  0.00    -0.052 A 
ATOM     42  H   LIG d   1      13.629  10.819   0.755  0.00  0.00     0.062 H 
ATOM     43  H   LIG d   1      13.131   8.699  -0.390  0.00  0.00     0.062 H 
ENDBRANCH   9  33
TORSDOF 8
ENDMDL
MODEL 3
REMARK VINA RESULT:      -6.1      5.181      8.914
REMARK  8 active torsions:
REMARK  status: ('A' for Active; 'I' for Inactive)
REMARK    1  A    between atoms: C_1  and  C_2 
REMARK    2  A    between atoms: C_2  and  C_3 
REMARK    3  A    between atoms: C_2  and  O_4 
REMARK    4  A    between atoms: O_4  and  C_5 
REMARK    5  A    between atoms: C_5  and  C_7 
REMARK    6  A    between atoms: C_7  and  O_8 
REMARK    7  A    between atoms: O_8  and  C_9 
REMARK    8  A    between atoms: C_17  and  C_20 
ROOT
ATOM      1  C   LIG d   1       6.601  -1.984  -5.328  0.00  0.00     0.125 A 
ATOM      2  C   LIG d   1       5.224  -2.085  -5.515  0.00  0.00    -0.019 A 
ATOM      3  C   LIG d   1       4.630  -3.310  -5.621  0.00  0.00    -0.044 A 
ATOM      4  C   LIG d   1       5.409  -4.466  -5.542  0.00  0.00     0.065 A 
ATOM      5  C   LIG d   1       6.798  -4.376  -5.352  0.00  0.00     0.142 A 
ATOM      6  C   LIG d   1       7.386  -3.122  -5.246  0.00  0.00     0.023 A 
ATOM      7  O   LIG d   1       7.549  -5.493  -5.275  0.00  0.00    -0.462 OA
ATOM      8  C   LIG d   1       7.041  -6.724  -5.369  0.00  0.00     0.104 A 
ATOM      9  C   LIG d   1       5.716  -6.957  -5.553  0.00  0.00     0.066 A 
ATOM     10  C   LIG d   1       4.803  -5.805  -5.652  0.00  0.00     0.200 A 
ATOM     11  O   LIG d   1       3.603  -5.952  -5.816  0.00  0.00    -0.286 OA
ATOM     12  H   LIG d   1       4.624  -1.189  -5.577  0.00  0.00     0.065 H 
ATOM     13  H   LIG d   1       3.563  -3.385  -5.767  0.00  0.00     0.063 H 
ATOM     14  H   LIG d   1       8.453  -3.034  -5.100  0.00  0.00     0.069 H 
ATOM     15  H   LIG d   1       7.710  -7.568  -5.293  0.00  0.00     0.104 H 
ENDROOT
BRANCH   1  16
ATOM     16  O   LIG d   1       7.179  -0.760  -5.224  0.00  0.00    -0.481 OA
BRANCH  16  17
ATOM     17  C   LIG d   1       7.567  -0.336  -3.916  0.00  0.00     0.186 C 
ATOM     18  H   LIG d   1       7.354  -1.129  -3.199  0.00  0.00     0.082 H 
ATOM     19  H   LIG d   1       8.633  -0.114  -3.907  0.00  0.00     0.082 H 
BRANCH  17  20
ATOM     20  C   LIG d   1       6.793   0.902  -3.540  0.00  0.00     0.345 C 
ATOM     21  O   LIG d   1       6.958   1.927  -4.155  0.00  0.00    -0.247 OA
BRANCH  20  22
ATOM     22  O   LIG d   1       5.919   0.863  -2.520  0.00  0.00    -0.460 OA
BRANCH  22  23
ATOM     23  C   LIG d   1       4.608   0.305  -2.799  0.00  0.00     0.098 C 
ATOM     24  H   LIG d   1       4.533   0.061  -3.858  0.00  0.00     0.073 H 
BRANCH  23  25
ATOM     25  C   LIG d   1       4.407  -0.964  -1.968  0.00  0.00    -0.028 C 
ATOM     26  H   LIG d   1       3.730  -0.754  -1.141  0.00  0.00     0.026 H 
ATOM     27  H   LIG d   1       3.980  -1.746  -2.597  0.00  0.00     0.026 H 
ATOM     28  H   LIG d   1       5.368  -1.297  -1.575  0.00  0.00     0.026 H 
ENDBRANCH  23  25
BRANCH  23  29
ATOM     29  C   LIG d   1       3.531   1.329  -2.434  0.00  0.00    -0.028 C 
ATOM     30  H   LIG d   1       2.753   0.843  -1.845  0.00  0.00     0.026 H 
ATOM     31  H   LIG d   1       3.978   2.135  -1.850  0.00  0.00     0.026 H 
ATOM     32  H   LIG d   1       3.096   1.738  -3.345  0.00  0.00     0.026 H 
ENDBRANCH  23  29
ENDBRANCH  22  23
ENDBRANCH  20  22
ENDBRANCH  17  20
ENDBRANCH  16  17
ENDBRANCH   1  16
BRANCH   9  33
ATOM     33  C   LIG d   1       5.198  -8.343  -5.652  0.00  0.00     0.007 A 
ATOM     34  C   LIG d   1       5.052  -8.948  -6.901  0.00  0.00     0.049 A 
ATOM     35  C   LIG d   1       4.573 -10.242  -6.985  0.00  0.00    -0.043 A 
ATOM     36 CL   LIG d   1       5.478  -8.082  -8.343  0.00  0.00    -0.083 Cl
ATOM     37  C   LIG d   1       4.229 -10.931  -5.836  0.00  0.00    -0.060 A 
ATOM     38  H   LIG d   1       4.464 -10.713  -7.950  0.00  0.00     0.063 H 
ATOM     39  C   LIG d   1       4.368 -10.333  -4.596  0.00  0.00    -0.061 A 
ATOM     40  H   LIG d   1       3.851 -11.940  -5.908  0.00  0.00     0.062 H 
ATOM     41  C   LIG d   1       4.849  -9.043  -4.498  0.00  0.00    -0.052 A 
ATOM     42  H   LIG d   1       4.097 -10.877  -3.704  0.00  0.00     0.062 H 
ATOM     43  H   LIG d   1       4.956  -8.578  -3.530  0.00  0.00     0.062 H 
ENDBRANCH   9  33
TORSDOF 8
ENDMDL
MODEL 4
REMARK VINA RESULT:      -6.0      2.254      3.789
REMARK  8 active torsions:
REMARK  status: ('A' for Active; 'I' for Inactive)
REMARK    1  A    between atoms: C_1  and  C_2 
REMARK    2  A    between atoms: C_2  and  C_3 
REMARK    3  A    between atoms: C_2  and  O_4 
REMARK    4  A    between atoms: O_4  and  C_5 
REMARK    5  A    between atoms: C_5  and  C_7 
REMARK    6  A    between atoms: C_7  and  O_8 
REMARK    7  A    between atoms: O_8  and  C_9 
REMARK    8  A    between atoms: C_17  and  C_20 
ROOT
ATOM      1  C   LIG d   1       2.677  -1.716 -10.574  0.00  0.00     0.125 A 
ATOM      2  C   LIG d   1       2.201  -0.428 -10.340  0.00  0.00    -0.019 A 
ATOM      3  C   LIG d   1       2.388   0.166  -9.124  0.00  0.00    -0.044 A 
ATOM      4  C   LIG d   1       3.060  -0.523  -8.113  0.00  0.00     0.065 A 
ATOM      5  C   LIG d   1       3.545  -1.823  -8.339  0.00  0.00     0.142 A 
ATOM      6  C   LIG d   1       3.347  -2.412  -9.581  0.00  0.00     0.023 A 
ATOM      7  O   LIG d   1       4.194  -2.486  -7.362  0.00  0.00    -0.462 OA
ATOM      8  C   LIG d   1       4.416  -1.972  -6.150  0.00  0.00     0.104 A 
ATOM      9  C   LIG d   1       4.002  -0.728  -5.796  0.00  0.00     0.066 A 
ATOM     10  C   LIG d   1       3.281   0.086  -6.789  0.00  0.00     0.200 A 
ATOM     11  O   LIG d   1       2.886   1.211  -6.529  0.00  0.00    -0.286 OA
ATOM     12  H   LIG d   1       1.681   0.103 -11.124  0.00  0.00     0.065 H 
ATOM     13  H   LIG d   1       2.018   1.164  -8.946  0.00  0.00     0.063 H 
ATOM     14  H   LIG d   1       3.712  -3.410  -9.772  0.00  0.00     0.069 H 
ATOM     15  H   LIG d   1       4.948  -2.568  -5.423  0.00  0.00     0.104 H 
ENDROOT
BRANCH   1  16
ATOM     16  O   LIG d   1       2.484  -2.295 -11.787  0.00  0.00    -0.481 OA
BRANCH  16  17
ATOM     17  C   LIG d   1       2.995  -1.599 -12.925  0.00  0.00     0.186 C 
ATOM     18  H   LIG d   1       2.544  -2.004 -13.831  0.00  0.00     0.082 H 
ATOM     19  H   LIG d   1       2.754  -0.540 -12.842  0.00  0.00     0.082 H 
BRANCH  17  20
ATOM     20  C   LIG d   1       4.491  -1.771 -12.989  0.00  0.00     0.345 C 
ATOM     21  O   LIG d   1       4.964  -2.826 -13.335  0.00  0.00    -0.247 OA
BRANCH  20  22
ATOM     22  O   LIG d   1       5.298  -0.748 -12.661  0.00  0.00    -0.460 OA
BRANCH  22  23
ATOM     23  C   LIG d   1       6.220  -0.963 -11.561  0.00  0.00     0.098 C 
ATOM     24  H   LIG d   1       6.059  -1.956 -11.139  0.00  0.00     0.073 H 
BRANCH  23  25
ATOM     25  C   LIG d   1       7.658  -0.854 -12.071  0.00  0.00    -0.028 C 
ATOM     26  H   LIG d   1       8.194  -0.104 -11.490  0.00  0.00     0.026 H 
ATOM     27  H   LIG d   1       8.155  -1.819 -11.966  0.00  0.00     0.026 H 
ATOM     28  H   LIG d   1       7.649  -0.562 -13.122  0.00  0.00     0.026 H 
ENDBRANCH  23  25
BRANCH  23  29
ATOM     29  C   LIG d   1       5.981   0.094 -10.481  0.00  0.00    -0.028 C 
ATOM     30  H   LIG d   1       4.947   0.037 -10.139  0.00  0.00     0.026 H 
ATOM     31  H   LIG d   1       6.651  -0.087  -9.640  0.00  0.00     0.026 H 
ATOM     32  H   LIG d   1       6.174   1.084 -10.893  0.00  0.00     0.026 H 
ENDBRANCH  23  29
ENDBRANCH  22  23
ENDBRANCH  20  22
ENDBRANCH  17  20
ENDBRANCH  16  17
ENDBRANCH   1  16
BRANCH   9  33
ATOM     33  C   LIG d   1       4.272  -0.199  -4.437  0.00  0.00     0.007 A 
ATOM     34  C   LIG d   1       5.546   0.263  -4.106  0.00  0.00     0.049 A 
ATOM     35  C   LIG d   1       5.790   0.758  -2.840  0.00  0.00    -0.043 A 
ATOM     36 CL   LIG d   1       6.820   0.222  -5.285  0.00  0.00    -0.083 Cl
ATOM     37  C   LIG d   1       4.777   0.786  -1.899  0.00  0.00    -0.060 A 
ATOM     38  H   LIG d   1       6.775   1.120  -2.584  0.00  0.00     0.063 H 
ATOM     39  C   LIG d   1       3.513   0.324  -2.220  0.00  0.00    -0.061 A 
ATOM     40  H   LIG d   1       4.975   1.169  -0.909  0.00  0.00     0.062 H 
ATOM     41  C   LIG d   1       3.256  -0.169  -3.484  0.00  0.00    -0.052 A 
ATOM     42  H   LIG d   1       2.727   0.349  -1.481  0.00  0.00     0.062 H 
ATOM     43  H   LIG d   1       2.269  -0.530  -3.732  0.00  0.00     0.062 H 
ENDBRANCH   9  33
TORSDOF 8
ENDMDL
MODEL 5
REMARK VINA RESULT:      -5.8      5.798      8.309
REMARK  8 active torsions:
REMARK  status: ('A' for Active; 'I' for Inactive)
REMARK    1  A    between atoms: C_1  and  C_2 
REMARK    2  A    between atoms: C_2  and  C_3 
REMARK    3  A    between atoms: C_2  and  O_4 
REMARK    4  A    between atoms: O_4  and  C_5 
REMARK    5  A    between atoms: C_5  and  C_7 
REMARK    6  A    between atoms: C_7  and  O_8 
REMARK    7  A    between atoms: O_8  and  C_9 
REMARK    8  A    between atoms: C_17  and  C_20 
ROOT
ATOM      1  C   LIG d   1       8.254  -6.742  -5.227  0.00  0.00     0.125 A 
ATOM      2  C   LIG d   1       7.003  -7.145  -5.689  0.00  0.00    -0.019 A 
ATOM      3  C   LIG d   1       5.961  -6.262  -5.722  0.00  0.00    -0.044 A 
ATOM      4  C   LIG d   1       6.154  -4.949  -5.288  0.00  0.00     0.065 A 
ATOM      5  C   LIG d   1       7.412  -4.532  -4.820  0.00  0.00     0.142 A 
ATOM      6  C   LIG d   1       8.460  -5.443  -4.794  0.00  0.00     0.023 A 
ATOM      7  O   LIG d   1       7.596  -3.263  -4.402  0.00  0.00    -0.462 OA
ATOM      8  C   LIG d   1       6.628  -2.344  -4.404  0.00  0.00     0.104 A 
ATOM      9  C   LIG d   1       5.366  -2.611  -4.830  0.00  0.00     0.066 A 
ATOM     10  C   LIG d   1       5.053  -3.968  -5.308  0.00  0.00     0.200 A 
ATOM     11  O   LIG d   1       3.939  -4.267  -5.703  0.00  0.00    -0.286 OA
ATOM     12  H   LIG d   1       6.856  -8.162  -6.024  0.00  0.00     0.065 H 
ATOM     13  H   LIG d   1       4.994  -6.578  -6.080  0.00  0.00     0.063 H 
ATOM     14  H   LIG d   1       9.433  -5.139  -4.438  0.00  0.00     0.069 H 
ATOM     15  H   LIG d   1       6.858  -1.348  -4.057  0.00  0.00     0.104 H 
ENDROOT
BRANCH   1  16
ATOM     16  O   LIG d   1       9.280  -7.630  -5.200  0.00  0.00    -0.481 OA
BRANCH  16  17
ATOM     17  C   LIG d   1       9.063  -8.848  -4.485  0.00  0.00     0.186 C 
ATOM     18  H   LIG d   1       8.109  -9.281  -4.786  0.00  0.00     0.082 H 
ATOM     19  H   LIG d   1       9.867  -9.549  -4.709  0.00  0.00     0.082 H 
BRANCH  17  20
ATOM     20  C   LIG d   1       9.043  -8.565  -3.005  0.00  0.00     0.345 C 
ATOM     21  O   LIG d   1      10.025  -8.119  -2.462  0.00  0.00    -0.247 OA
BRANCH  20  22
ATOM     22  O   LIG d   1       7.932  -8.807  -2.291  0.00  0.00    -0.460 OA
BRANCH  22  23
ATOM     23  C   LIG d   1       7.417 -10.164  -2.314  0.00  0.00     0.098 C 
ATOM     24  H   LIG d   1       8.018 -10.770  -2.991  0.00  0.00     0.073 H 
BRANCH  23  25
ATOM     25  C   LIG d   1       7.480 -10.757  -0.905  0.00  0.00    -0.028 C 
ATOM     26  H   LIG d   1       8.180 -10.182  -0.299  0.00  0.00     0.026 H 
ATOM     27  H   LIG d   1       6.490 -10.719  -0.450  0.00  0.00     0.026 H 
ATOM     28  H   LIG d   1       7.814 -11.793  -0.962  0.00  0.00     0.026 H 
ENDBRANCH  23  25
BRANCH  23  29
ATOM     29  C   LIG d   1       5.965 -10.150  -2.796  0.00  0.00    -0.028 C 
ATOM     30  H   LIG d   1       5.878 -10.746  -3.705  0.00  0.00     0.026 H 
ATOM     31  H   LIG d   1       5.321 -10.571  -2.023  0.00  0.00     0.026 H 
ATOM     32  H   LIG d   1       5.660  -9.125  -3.003  0.00  0.00     0.026 H 
ENDBRANCH  23  29
ENDBRANCH  22  23
ENDBRANCH  20  22
ENDBRANCH  17  20
ENDBRANCH  16  17
ENDBRANCH   1  16
BRANCH   9  33
ATOM     33  C   LIG d   1       4.324  -1.556  -4.813  0.00  0.00     0.007 A 
ATOM     34  C   LIG d   1       3.555  -1.350  -3.667  0.00  0.00     0.049 A 
ATOM     35  C   LIG d   1       2.588  -0.363  -3.658  0.00  0.00    -0.043 A 
ATOM     36 CL   LIG d   1       3.816  -2.326  -2.256  0.00  0.00    -0.083 Cl
ATOM     37  C   LIG d   1       2.376   0.412  -4.783  0.00  0.00    -0.060 A 
ATOM     38  H   LIG d   1       1.995  -0.199  -2.770  0.00  0.00     0.063 H 
ATOM     39  C   LIG d   1       3.133   0.208  -5.924  0.00  0.00    -0.061 A 
ATOM     40  H   LIG d   1       1.616   1.179  -4.772  0.00  0.00     0.062 H 
ATOM     41  C   LIG d   1       4.104  -0.772  -5.944  0.00  0.00    -0.052 A 
ATOM     42  H   LIG d   1       2.962   0.816  -6.799  0.00  0.00     0.062 H 
ATOM     43  H   LIG d   1       4.693  -0.931  -6.835  0.00  0.00     0.062 H 
ENDBRANCH   9  33
TORSDOF 8
ENDMDL
MODEL 6
REMARK VINA RESULT:      -5.8      2.924      8.740
REMARK  8 active torsions:
REMARK  status: ('A' for Active; 'I' for Inactive)
REMARK    1  A    between atoms: C_1  and  C_2 
REMARK    2  A    between atoms: C_2  and  C_3 
REMARK    3  A    between atoms: C_2  and  O_4 
REMARK    4  A    between atoms: O_4  and  C_5 
REMARK    5  A    between atoms: C_5  and  C_7 
REMARK    6  A    between atoms: C_7  and  O_8 
REMARK    7  A    between atoms: O_8  and  C_9 
REMARK    8  A    between atoms: C_17  and  C_20 
ROOT
ATOM      1  C   LIG d   1       3.140   0.517  -8.280  0.00  0.00     0.125 A 
ATOM      2  C   LIG d   1       3.901   1.107  -9.286  0.00  0.00    -0.019 A 
ATOM      3  C   LIG d   1       3.847   0.628 -10.564  0.00  0.00    -0.044 A 
ATOM      4  C   LIG d   1       3.025  -0.461 -10.860  0.00  0.00     0.065 A 
ATOM      5  C   LIG d   1       2.253  -1.065  -9.853  0.00  0.00     0.142 A 
ATOM      6  C   LIG d   1       2.319  -0.564  -8.559  0.00  0.00     0.023 A 
ATOM      7  O   LIG d   1       1.460  -2.116 -10.141  0.00  0.00    -0.462 OA
ATOM      8  C   LIG d   1       1.354  -2.639 -11.364  0.00  0.00     0.104 A 
ATOM      9  C   LIG d   1       2.043  -2.155 -12.430  0.00  0.00     0.066 A 
ATOM     10  C   LIG d   1       2.942  -1.006 -12.228  0.00  0.00     0.200 A 
ATOM     11  O   LIG d   1       3.585  -0.527 -13.146  0.00  0.00    -0.286 OA
ATOM     12  H   LIG d   1       4.536   1.950  -9.054  0.00  0.00     0.065 H 
ATOM     13  H   LIG d   1       4.438   1.088 -11.341  0.00  0.00     0.063 H 
ATOM     14  H   LIG d   1       1.733  -1.015  -7.772  0.00  0.00     0.069 H 
ATOM     15  H   LIG d   1       0.692  -3.480 -11.513  0.00  0.00     0.104 H 
ENDROOT
BRANCH   1  16
ATOM     16  O   LIG d   1       3.202   1.003  -7.014  0.00  0.00    -0.481 OA
BRANCH  16  17
ATOM     17  C   LIG d   1       3.233   0.046  -5.953  0.00  0.00     0.186 C 
ATOM     18  H   LIG d   1       2.547  -0.770  -6.180  0.00  0.00     0.082 H 
ATOM     19  H   LIG d   1       4.244  -0.347  -5.848  0.00  0.00     0.082 H 
BRANCH  17  20
ATOM     20  C   LIG d   1       2.817   0.711  -4.666  0.00  0.00     0.345 C 
ATOM     21  O   LIG d   1       2.555   1.889  -4.652  0.00  0.00    -0.247 OA
BRANCH  20  22
ATOM     22  O   LIG d   1       2.735  -0.009  -3.535  0.00  0.00    -0.460 OA
BRANCH  22  23
ATOM     23  C   LIG d   1       3.984  -0.465  -2.953  0.00  0.00     0.098 C 
ATOM     24  H   LIG d   1       4.760  -0.479  -3.720  0.00  0.00     0.073 H 
BRANCH  23  25
ATOM     25  C   LIG d   1       4.398   0.485  -1.827  0.00  0.00    -0.028 C 
ATOM     26  H   LIG d   1       4.423  -0.060  -0.883  0.00  0.00     0.026 H 
ATOM     27  H   LIG d   1       5.388   0.890  -2.039  0.00  0.00     0.026 H 
ATOM     28  H   LIG d   1       3.678   1.301  -1.757  0.00  0.00     0.026 H 
ENDBRANCH  23  25
BRANCH  23  29
ATOM     29  C   LIG d   1       3.800  -1.875  -2.389  0.00  0.00    -0.028 C 
ATOM     30  H   LIG d   1       4.728  -2.202  -1.920  0.00  0.00     0.026 H 
ATOM     31  H   LIG d   1       3.000  -1.868  -1.648  0.00  0.00     0.026 H 
ATOM     32  H   LIG d   1       3.540  -2.558  -3.197  0.00  0.00     0.026 H 
ENDBRANCH  23  29
ENDBRANCH  22  23
ENDBRANCH  20  22
ENDBRANCH  17  20
ENDBRANCH  16  17
ENDBRANCH   1  16
BRANCH   9  33
ATOM     33  C   LIG d   1       1.893  -2.771 -13.771  0.00  0.00     0.007 A 
ATOM     34  C   LIG d   1       2.791  -3.750 -14.195  0.00  0.00     0.049 A 
ATOM     35  C   LIG d   1       2.643  -4.323 -15.444  0.00  0.00    -0.043 A 
ATOM     36 CL   LIG d   1       4.087  -4.253 -13.156  0.00  0.00    -0.083 Cl
ATOM     37  C   LIG d   1       1.614  -3.919 -16.275  0.00  0.00    -0.060 A 
ATOM     38  H   LIG d   1       3.335  -5.084 -15.773  0.00  0.00     0.063 H 
ATOM     39  C   LIG d   1       0.724  -2.944 -15.860  0.00  0.00    -0.061 A 
ATOM     40  H   LIG d   1       1.505  -4.367 -17.252  0.00  0.00     0.062 H 
ATOM     41  C   LIG d   1       0.858  -2.369 -14.613  0.00  0.00    -0.052 A 
ATOM     42  H   LIG d   1      -0.078  -2.634 -16.514  0.00  0.00     0.062 H 
ATOM     43  H   LIG d   1       0.163  -1.607 -14.291  0.00  0.00     0.062 H 
ENDBRANCH   9  33
TORSDOF 8
ENDMDL
MODEL 7
REMARK VINA RESULT:      -5.8      6.894     10.397
REMARK  8 active torsions:
REMARK  status: ('A' for Active; 'I' for Inactive)
REMARK    1  A    between atoms: C_1  and  C_2 
REMARK    2  A    between atoms: C_2  and  C_3 
REMARK    3  A    between atoms: C_2  and  O_4 
REMARK    4  A    between atoms: O_4  and  C_5 
REMARK    5  A    between atoms: C_5  and  C_7 
REMARK    6  A    between atoms: C_7  and  O_8 
REMARK    7  A    between atoms: O_8  and  C_9 
REMARK    8  A    between atoms: C_17  and  C_20 
ROOT
ATOM      1  C   LIG d   1       9.181   2.145  -4.749  0.00  0.00     0.125 A 
ATOM      2  C   LIG d   1       9.873   1.903  -3.564  0.00  0.00    -0.019 A 
ATOM      3  C   LIG d   1      10.262   2.942  -2.767  0.00  0.00    -0.044 A 
ATOM      4  C   LIG d   1       9.963   4.253  -3.145  0.00  0.00     0.065 A 
ATOM      5  C   LIG d   1       9.266   4.509  -4.338  0.00  0.00     0.142 A 
ATOM      6  C   LIG d   1       8.878   3.440  -5.136  0.00  0.00     0.023 A 
ATOM      7  O   LIG d   1       8.978   5.774  -4.700  0.00  0.00    -0.462 OA
ATOM      8  C   LIG d   1       9.324   6.840  -3.975  0.00  0.00     0.104 A 
ATOM      9  C   LIG d   1      10.001   6.738  -2.801  0.00  0.00     0.066 A 
ATOM     10  C   LIG d   1      10.367   5.399  -2.310  0.00  0.00     0.200 A 
ATOM     11  O   LIG d   1      10.973   5.245  -1.263  0.00  0.00    -0.286 OA
ATOM     12  H   LIG d   1      10.103   0.888  -3.275  0.00  0.00     0.065 H 
ATOM     13  H   LIG d   1      10.798   2.751  -1.850  0.00  0.00     0.063 H 
ATOM     14  H   LIG d   1       8.341   3.618  -6.056  0.00  0.00     0.069 H 
ATOM     15  H   LIG d   1       9.052   7.822  -4.333  0.00  0.00     0.104 H 
ENDROOT
BRANCH   1  16
ATOM     16  O   LIG d   1       8.801   1.103  -5.532  0.00  0.00    -0.481 OA
BRANCH  16  17
ATOM     17  C   LIG d   1       8.328  -0.069  -4.865  0.00  0.00     0.186 C 
ATOM     18  H   LIG d   1       8.408  -0.925  -5.535  0.00  0.00     0.082 H 
ATOM     19  H   LIG d   1       8.929  -0.247  -3.974  0.00  0.00     0.082 H 
BRANCH  17  20
ATOM     20  C   LIG d   1       6.887   0.127  -4.469  0.00  0.00     0.345 C 
ATOM     21  O   LIG d   1       6.064   0.411  -5.306  0.00  0.00    -0.247 OA
BRANCH  20  22
ATOM     22  O   LIG d   1       6.519  -0.017  -3.186  0.00  0.00    -0.460 OA
BRANCH  22  23
ATOM     23  C   LIG d   1       5.097  -0.138  -2.919  0.00  0.00     0.098 C 
ATOM     24  H   LIG d   1       4.536   0.072  -3.829  0.00  0.00     0.073 H 
BRANCH  23  25
ATOM     25  C   LIG d   1       4.786  -1.559  -2.445  0.00  0.00    -0.028 C 
ATOM     26  H   LIG d   1       3.958  -1.963  -3.026  0.00  0.00     0.026 H 
ATOM     27  H   LIG d   1       5.667  -2.189  -2.582  0.00  0.00     0.026 H 
ATOM     28  H   LIG d   1       4.514  -1.539  -1.389  0.00  0.00     0.026 H 
ENDBRANCH  23  25
BRANCH  23  29
ATOM     29  C   LIG d   1       4.696   0.861  -1.831  0.00  0.00    -0.028 C 
ATOM     30  H   LIG d   1       5.146   1.830  -2.045  0.00  0.00     0.026 H 
ATOM     31  H   LIG d   1       3.610   0.961  -1.812  0.00  0.00     0.026 H 
ATOM     32  H   LIG d   1       5.044   0.503  -0.863  0.00  0.00     0.026 H 
ENDBRANCH  23  29
ENDBRANCH  22  23
ENDBRANCH  20  22
ENDBRANCH  17  20
ENDBRANCH  16  17
ENDBRANCH   1  16
BRANCH   9  33
ATOM     33  C   LIG d   1      10.363   7.952  -2.030  0.00  0.00     0.007 A 
ATOM     34  C   LIG d   1      11.606   8.556  -2.219  0.00  0.00     0.049 A 
ATOM     35  C   LIG d   1      11.935   9.689  -1.500  0.00  0.00    -0.043 A 
ATOM     36 CL   LIG d   1      12.733   7.891  -3.359  0.00  0.00    -0.083 Cl
ATOM     37  C   LIG d   1      11.040  10.217  -0.588  0.00  0.00    -0.060 A 
ATOM     38  H   LIG d   1      12.896  10.161  -1.649  0.00  0.00     0.063 H 
ATOM     39  C   LIG d   1       9.808   9.618  -0.393  0.00  0.00    -0.061 A 
ATOM     40  H   LIG d   1      11.305  11.100  -0.025  0.00  0.00     0.062 H 
ATOM     41  C   LIG d   1       9.466   8.489  -1.109  0.00  0.00    -0.052 A 
ATOM     42  H   LIG d   1       9.114  10.035   0.321  0.00  0.00     0.062 H 
ATOM     43  H   LIG d   1       8.504   8.022  -0.954  0.00  0.00     0.062 H 
ENDBRANCH   9  33
TORSDOF 8
ENDMDL
MODEL 8
REMARK VINA RESULT:      -5.6      5.677      8.257
REMARK  8 active torsions:
REMARK  status: ('A' for Active; 'I' for Inactive)
REMARK    1  A    between atoms: C_1  and  C_2 
REMARK    2  A    between atoms: C_2  and  C_3 
REMARK    3  A    between atoms: C_2  and  O_4 
REMARK    4  A    between atoms: O_4  and  C_5 
REMARK    5  A    between atoms: C_5  and  C_7 
REMARK    6  A    between atoms: C_7  and  O_8 
REMARK    7  A    between atoms: O_8  and  C_9 
REMARK    8  A    between atoms: C_17  and  C_20 
ROOT
ATOM      1  C   LIG d   1       7.295  -0.662  -5.423  0.00  0.00     0.125 A 
ATOM      2  C   LIG d   1       7.551  -0.194  -6.709  0.00  0.00    -0.019 A 
ATOM      3  C   LIG d   1       8.130   1.029  -6.896  0.00  0.00    -0.044 A 
ATOM      4  C   LIG d   1       8.465   1.812  -5.790  0.00  0.00     0.065 A 
ATOM      5  C   LIG d   1       8.211   1.349  -4.487  0.00  0.00     0.142 A 
ATOM      6  C   LIG d   1       7.622   0.103  -4.316  0.00  0.00     0.023 A 
ATOM      7  O   LIG d   1       8.535   2.107  -3.420  0.00  0.00    -0.462 OA
ATOM      8  C   LIG d   1       9.104   3.310  -3.522  0.00  0.00     0.104 A 
ATOM      9  C   LIG d   1       9.404   3.878  -4.719  0.00  0.00     0.066 A 
ATOM     10  C   LIG d   1       9.091   3.137  -5.952  0.00  0.00     0.200 A 
ATOM     11  O   LIG d   1       9.338   3.596  -7.055  0.00  0.00    -0.286 OA
ATOM     12  H   LIG d   1       7.291  -0.802  -7.564  0.00  0.00     0.065 H 
ATOM     13  H   LIG d   1       8.328   1.389  -7.894  0.00  0.00     0.063 H 
ATOM     14  H   LIG d   1       7.420  -0.268  -3.322  0.00  0.00     0.069 H 
ATOM     15  H   LIG d   1       9.336   3.852  -2.618  0.00  0.00     0.104 H 
ENDROOT
BRANCH   1  16
ATOM     16  O   LIG d   1       6.719  -1.879  -5.251  0.00  0.00    -0.481 OA
BRANCH  16  17
ATOM     17  C   LIG d   1       5.292  -1.933  -5.300  0.00  0.00     0.186 C 
ATOM     18  H   LIG d   1       4.897  -0.935  -5.491  0.00  0.00     0.082 H 
ATOM     19  H   LIG d   1       4.980  -2.607  -6.097  0.00  0.00     0.082 H 
BRANCH  17  20
ATOM     20  C   LIG d   1       4.764  -2.438  -3.981  0.00  0.00     0.345 C 
ATOM     21  O   LIG d   1       4.292  -3.546  -3.904  0.00  0.00    -0.247 OA
BRANCH  20  22
ATOM     22  O   LIG d   1       4.821  -1.654  -2.892  0.00  0.00    -0.460 OA
BRANCH  22  23
ATOM     23  C   LIG d   1       4.168  -0.361  -2.976  0.00  0.00     0.098 C 
ATOM     24  H   LIG d   1       4.481   0.147  -3.889  0.00  0.00     0.073 H 
BRANCH  23  25
ATOM     25  C   LIG d   1       2.651  -0.556  -2.996  0.00  0.00    -0.028 C 
ATOM     26  H   LIG d   1       2.159   0.414  -2.930  0.00  0.00     0.026 H 
ATOM     27  H   LIG d   1       2.360  -1.049  -3.924  0.00  0.00     0.026 H 
ATOM     28  H   LIG d   1       2.353  -1.173  -2.148  0.00  0.00     0.026 H 
ENDBRANCH  23  25
BRANCH  23  29
ATOM     29  C   LIG d   1       4.557   0.487  -1.763  0.00  0.00    -0.028 C 
ATOM     30  H   LIG d   1       5.420   0.040  -1.270  0.00  0.00     0.026 H 
ATOM     31  H   LIG d   1       4.809   1.497  -2.091  0.00  0.00     0.026 H 
ATOM     32  H   LIG d   1       3.721   0.529  -1.066  0.00  0.00     0.026 H 
ENDBRANCH  23  29
ENDBRANCH  22  23
ENDBRANCH  20  22
ENDBRANCH  17  20
ENDBRANCH  16  17
ENDBRANCH   1  16
BRANCH   9  33
ATOM     33  C   LIG d   1      10.035   5.219  -4.782  0.00  0.00     0.007 A 
ATOM     34  C   LIG d   1      11.425   5.336  -4.828  0.00  0.00     0.049 A 
ATOM     35  C   LIG d   1      12.007   6.588  -4.891  0.00  0.00    -0.043 A 
ATOM     36 CL   LIG d   1      12.419   3.914  -4.815  0.00  0.00    -0.083 Cl
ATOM     37  C   LIG d   1      11.215   7.721  -4.897  0.00  0.00    -0.060 A 
ATOM     38  H   LIG d   1      13.082   6.680  -4.932  0.00  0.00     0.063 H 
ATOM     39  C   LIG d   1       9.837   7.610  -4.846  0.00  0.00    -0.061 A 
ATOM     40  H   LIG d   1      11.676   8.697  -4.942  0.00  0.00     0.062 H 
ATOM     41  C   LIG d   1       9.244   6.366  -4.788  0.00  0.00    -0.052 A 
ATOM     42  H   LIG d   1       9.225   8.500  -4.851  0.00  0.00     0.062 H 
ATOM     43  H   LIG d   1       8.168   6.281  -4.747  0.00  0.00     0.062 H 
ENDBRANCH   9  33
TORSDOF 8
ENDMDL
MODEL 9
REMARK VINA RESULT:      -5.6      2.234      2.690
REMARK  8 active torsions:
REMARK  status: ('A' for Active; 'I' for Inactive)
REMARK    1  A    between atoms: C_1  and  C_2 
REMARK    2  A    between atoms: C_2  and  C_3 
REMARK    3  A    between atoms: C_2  and  O_4 
REMARK    4  A    between atoms: O_4  and  C_5 
REMARK    5  A    between atoms: C_5  and  C_7 
REMARK    6  A    between atoms: C_7  and  O_8 
REMARK    7  A    between atoms: O_8  and  C_9 
REMARK    8  A    between atoms: C_17  and  C_20 
ROOT
ATOM      1  C   LIG d   1       3.819  -0.198 -10.675  0.00  0.00     0.125 A 
ATOM      2  C   LIG d   1       2.578   0.092 -10.114  0.00  0.00    -0.019 A 
ATOM      3  C   LIG d   1       2.424   0.127  -8.757  0.00  0.00    -0.044 A 
ATOM      4  C   LIG d   1       3.519  -0.131  -7.930  0.00  0.00     0.065 A 
ATOM      5  C   LIG d   1       4.776  -0.425  -8.485  0.00  0.00     0.142 A 
ATOM      6  C   LIG d   1       4.915  -0.455  -9.867  0.00  0.00     0.023 A 
ATOM      7  O   LIG d   1       5.832  -0.674  -7.686  0.00  0.00    -0.462 OA
ATOM      8  C   LIG d   1       5.761  -0.657  -6.353  0.00  0.00     0.104 A 
ATOM      9  C   LIG d   1       4.610  -0.389  -5.685  0.00  0.00     0.066 A 
ATOM     10  C   LIG d   1       3.392  -0.102  -6.462  0.00  0.00     0.200 A 
ATOM     11  O   LIG d   1       2.329   0.147  -5.917  0.00  0.00    -0.286 OA
ATOM     12  H   LIG d   1       1.732   0.292 -10.756  0.00  0.00     0.065 H 
ATOM     13  H   LIG d   1       1.461   0.353  -8.326  0.00  0.00     0.063 H 
ATOM     14  H   LIG d   1       5.873  -0.680 -10.311  0.00  0.00     0.069 H 
ATOM     15  H   LIG d   1       6.655  -0.863  -5.783  0.00  0.00     0.104 H 
ENDROOT
BRANCH   1  16
ATOM     16  O   LIG d   1       3.957  -0.229 -12.025  0.00  0.00    -0.481 OA
BRANCH  16  17
ATOM     17  C   LIG d   1       4.450  -1.442 -12.597  0.00  0.00     0.186 C 
ATOM     18  H   LIG d   1       5.223  -1.210 -13.330  0.00  0.00     0.082 H 
ATOM     19  H   LIG d   1       4.870  -2.070 -11.812  0.00  0.00     0.082 H 
BRANCH  17  20
ATOM     20  C   LIG d   1       3.319  -2.174 -13.273  0.00  0.00     0.345 C 
ATOM     21  O   LIG d   1       3.535  -3.198 -13.875  0.00  0.00    -0.247 OA
BRANCH  20  22
ATOM     22  O   LIG d   1       2.069  -1.686 -13.205  0.00  0.00    -0.460 OA
BRANCH  22  23
ATOM     23  C   LIG d   1       1.022  -2.612 -12.815  0.00  0.00     0.098 C 
ATOM     24  H   LIG d   1       1.098  -3.521 -13.411  0.00  0.00     0.073 H 
BRANCH  23  25
ATOM     25  C   LIG d   1       1.175  -2.959 -11.333  0.00  0.00    -0.028 C 
ATOM     26  H   LIG d   1       1.578  -3.966 -11.235  0.00  0.00     0.026 H 
ATOM     27  H   LIG d   1       1.855  -2.248 -10.861  0.00  0.00     0.026 H 
ATOM     28  H   LIG d   1       0.201  -2.908 -10.845  0.00  0.00     0.026 H 
ENDBRANCH  23  25
BRANCH  23  29
ATOM     29  C   LIG d   1      -0.344  -1.963 -13.048  0.00  0.00    -0.028 C 
ATOM     30  H   LIG d   1      -0.850  -2.468 -13.872  0.00  0.00     0.026 H 
ATOM     31  H   LIG d   1      -0.948  -2.052 -12.144  0.00  0.00     0.026 H 
ATOM     32  H   LIG d   1      -0.210  -0.910 -13.293  0.00  0.00     0.026 H 
ENDBRANCH  23  29
ENDBRANCH  22  23
ENDBRANCH  20  22
ENDBRANCH  17  20
ENDBRANCH  16  17
ENDBRANCH   1  16
BRANCH   9  33
ATOM     33  C   LIG d   1       4.580  -0.382  -4.202  0.00  0.00     0.007 A 
ATOM     34  C   LIG d   1       4.549  -1.586  -3.498  0.00  0.00     0.049 A 
ATOM     35  C   LIG d   1       4.526  -1.573  -2.116  0.00  0.00    -0.043 A 
ATOM     36 CL   LIG d   1       4.547  -3.096  -4.354  0.00  0.00    -0.083 Cl
ATOM     37  C   LIG d   1       4.522  -0.370  -1.433  0.00  0.00    -0.060 A 
ATOM     38  H   LIG d   1       4.506  -2.504  -1.569  0.00  0.00     0.063 H 
ATOM     39  C   LIG d   1       4.547   0.826  -2.128  0.00  0.00    -0.061 A 
ATOM     40  H   LIG d   1       4.499  -0.366  -0.354  0.00  0.00     0.062 H 
ATOM     41  C   LIG d   1       4.576   0.826  -3.508  0.00  0.00    -0.052 A 
ATOM     42  H   LIG d   1       4.544   1.761  -1.588  0.00  0.00     0.062 H 
ATOM     43  H   LIG d   1       4.594   1.761  -4.048  0.00  0.00     0.062 H 
ENDBRANCH   9  33
TORSDOF 8
ENDMDL
MODEL 10
REMARK VINA RESULT:      -5.6      1.224      1.518
REMARK  8 active torsions:
REMARK  status: ('A' for Active; 'I' for Inactive)
REMARK    1  A    between atoms: C_1  and  C_2 
REMARK    2  A    between atoms: C_2  and  C_3 
REMARK    3  A    between atoms: C_2  and  O_4 
REMARK    4  A    between atoms: O_4  and  C_5 
REMARK    5  A    between atoms: C_5  and  C_7 
REMARK    6  A    between atoms: C_7  and  O_8 
REMARK    7  A    between atoms: O_8  and  C_9 
REMARK    8  A    between atoms: C_17  and  C_20 
ROOT
ATOM      1  C   LIG d   1       2.721  -1.587 -10.653  0.00  0.00     0.125 A 
ATOM      2  C   LIG d   1       2.212  -0.313 -10.411  0.00  0.00    -0.019 A 
ATOM      3  C   LIG d   1       2.372   0.274  -9.188  0.00  0.00    -0.044 A 
ATOM      4  C   LIG d   1       3.049  -0.410  -8.176  0.00  0.00     0.065 A 
ATOM      5  C   LIG d   1       3.566  -1.696  -8.409  0.00  0.00     0.142 A 
ATOM      6  C   LIG d   1       3.395  -2.277  -9.659  0.00  0.00     0.023 A 
ATOM      7  O   LIG d   1       4.220  -2.354  -7.432  0.00  0.00    -0.462 OA
ATOM      8  C   LIG d   1       4.417  -1.847  -6.212  0.00  0.00     0.104 A 
ATOM      9  C   LIG d   1       3.970  -0.617  -5.851  0.00  0.00     0.066 A 
ATOM     10  C   LIG d   1       3.241   0.191  -6.844  0.00  0.00     0.200 A 
ATOM     11  O   LIG d   1       2.818   1.303  -6.577  0.00  0.00    -0.286 OA
ATOM     12  H   LIG d   1       1.688   0.215 -11.195  0.00  0.00     0.065 H 
ATOM     13  H   LIG d   1       1.977   1.261  -9.004  0.00  0.00     0.063 H 
ATOM     14  H   LIG d   1       3.786  -3.264  -9.856  0.00  0.00     0.069 H 
ATOM     15  H   LIG d   1       4.954  -2.438  -5.486  0.00  0.00     0.104 H 
ENDROOT
BRANCH   1  16
ATOM     16  O   LIG d   1       2.554  -2.158 -11.873  0.00  0.00    -0.481 OA
BRANCH  16  17
ATOM     17  C   LIG d   1       1.252  -2.073 -12.455  0.00  0.00     0.186 C 
ATOM     18  H   LIG d   1       0.653  -1.349 -11.903  0.00  0.00     0.082 H 
ATOM     19  H   LIG d   1       1.338  -1.757 -13.494  0.00  0.00     0.082 H 
BRANCH  17  20
ATOM     20  C   LIG d   1       0.587  -3.424 -12.395  0.00  0.00     0.345 C 
ATOM     21  O   LIG d   1       1.238  -4.426 -12.570  0.00  0.00    -0.247 OA
BRANCH  20  22
ATOM     22  O   LIG d   1      -0.729  -3.514 -12.145  0.00  0.00    -0.460 OA
BRANCH  22  23
ATOM     23  C   LIG d   1      -1.564  -4.057 -13.201  0.00  0.00     0.098 C 
ATOM     24  H   LIG d   1      -1.015  -4.829 -13.739  0.00  0.00     0.073 H 
BRANCH  23  25
ATOM     25  C   LIG d   1      -2.830  -4.662 -12.590  0.00  0.00    -0.028 C 
ATOM     26  H   LIG d   1      -3.173  -4.034 -11.769  0.00  0.00     0.026 H 
ATOM     27  H   LIG d   1      -3.608  -4.722 -13.352  0.00  0.00     0.026 H 
ATOM     28  H   LIG d   1      -2.610  -5.662 -12.216  0.00  0.00     0.026 H 
ENDBRANCH  23  25
BRANCH  23  29
ATOM     29  C   LIG d   1      -1.952  -2.938 -14.171  0.00  0.00    -0.028 C 
ATOM     30  H   LIG d   1      -1.231  -2.901 -14.989  0.00  0.00     0.026 H 
ATOM     31  H   LIG d   1      -2.947  -3.134 -14.573  0.00  0.00     0.026 H 
ATOM     32  H   LIG d   1      -1.954  -1.985 -13.644  0.00  0.00     0.026 H 
ENDBRANCH  23  29
ENDBRANCH  22  23
ENDBRANCH  20  22
ENDBRANCH  17  20
ENDBRANCH  16  17
ENDBRANCH   1  16
BRANCH   9  33
ATOM     33  C   LIG d   1       4.213  -0.096  -4.483  0.00  0.00     0.007 A 
ATOM     34  C   LIG d   1       5.498   0.292  -4.101  0.00  0.00     0.049 A 
ATOM     35  C   LIG d   1       5.716   0.780  -2.827  0.00  0.00    -0.043 A 
ATOM     36 CL   LIG d   1       6.816   0.167  -5.223  0.00  0.00    -0.083 Cl
ATOM     37  C   LIG d   1       4.668   0.875  -1.930  0.00  0.00    -0.060 A 
ATOM     38  H   LIG d   1       6.710   1.085  -2.530  0.00  0.00     0.063 H 
ATOM     39  C   LIG d   1       3.394   0.487  -2.304  0.00  0.00    -0.061 A 
ATOM     40  H   LIG d   1       4.846   1.253  -0.934  0.00  0.00     0.062 H 
ATOM     41  C   LIG d   1       3.161   0.002  -3.575  0.00  0.00    -0.052 A 
ATOM     42  H   LIG d   1       2.580   0.564  -1.599  0.00  0.00     0.062 H 
ATOM     43  H   LIG d   1       2.166  -0.301  -3.865  0.00  0.00     0.062 H 
ENDBRANCH   9  33
TORSDOF 8
ENDMDL
