MODEL 1
REMARK VINA RESULT:      -6.6      0.000      0.000
REMARK  10 active torsions:
REMARK  status: ('A' for Active; 'I' for Inactive)
REMARK    1  A    between atoms: C_1  and  O_2 
REMARK    2  A    between atoms: O_2  and  C_3 
REMARK    3  A    between atoms: C_5  and  C_13 
REMARK    4  A    between atoms: C_7  and  O_11 
REMARK    5  A    between atoms: C_8  and  O_9 
REMARK    6  A    between atoms: O_9  and  C_10 
REMARK    7  A    between atoms: O_11  and  C_12 
REMARK    8  A    between atoms: C_20  and  O_24 
REMARK    9  A    between atoms: O_24  and  C_25 
REMARK   10  A    between atoms: C_25  and  C_27 
ROOT
ATOM      1  C   LIG d   1      10.487   5.757  -4.337  0.00  0.00    -0.008 C 
ATOM      2  C   LIG d   1       9.891   4.574  -4.634  0.00  0.00     0.176 A 
ATOM      3  C   LIG d   1       9.618   4.054  -5.981  0.00  0.00     0.232 A 
ATOM      4  O   LIG d   1       9.871   4.581  -7.050  0.00  0.00    -0.283 OA
ATOM      5  C   LIG d   1       8.960   2.755  -5.750  0.00  0.00     0.068 A 
ATOM      6  C   LIG d   1       8.466   1.770  -6.604  0.00  0.00    -0.044 A 
ATOM      7  C   LIG d   1       7.904   0.637  -6.085  0.00  0.00    -0.018 A 
ATOM      8  C   LIG d   1       7.829   0.461  -4.706  0.00  0.00     0.136 A 
ATOM      9  C   LIG d   1       8.321   1.429  -3.846  0.00  0.00     0.024 A 
ATOM     10  C   LIG d   1       8.896   2.587  -4.357  0.00  0.00     0.143 A 
ATOM     11  O   LIG d   1       9.440   3.660  -3.743  0.00  0.00    -0.451 OA
ATOM     12  H   LIG d   1      10.900   6.367  -5.126  0.00  0.00     0.066 H 
ATOM     13  H   LIG d   1       8.522   1.904  -7.675  0.00  0.00     0.063 H 
ATOM     14  H   LIG d   1       7.517  -0.124  -6.747  0.00  0.00     0.065 H 
ATOM     15  H   LIG d   1       8.258   1.285  -2.777  0.00  0.00     0.069 H 
ENDROOT
BRANCH   1  16
ATOM     16  C   LIG d   1      10.570   6.208  -2.943  0.00  0.00    -0.014 A 
ATOM     17  C   LIG d   1      11.670   5.847  -2.153  0.00  0.00    -0.009 A 
ATOM     18  C   LIG d   1      11.745   6.273  -0.841  0.00  0.00     0.166 A 
ATOM     19  H   LIG d   1      12.456   5.235  -2.569  0.00  0.00     0.066 H 
ATOM     20  C   LIG d   1      10.731   7.063  -0.304  0.00  0.00     0.203 A 
ATOM     21  C   LIG d   1       9.636   7.424  -1.085  0.00  0.00     0.166 A 
ATOM     22  C   LIG d   1       9.556   7.006  -2.400  0.00  0.00    -0.009 A 
ATOM     23  H   LIG d   1       8.709   7.291  -3.007  0.00  0.00     0.066 H 
BRANCH  18  24
ATOM     24  O   LIG d   1      12.812   5.922  -0.073  0.00  0.00    -0.491 OA
BRANCH  24  25
ATOM     25  C   LIG d   1      14.100   5.979  -0.689  0.00  0.00     0.079 C 
ATOM     26  H   LIG d   1      14.294   5.042  -1.212  0.00  0.00     0.066 H 
ATOM     27  H   LIG d   1      14.126   6.804  -1.401  0.00  0.00     0.066 H 
ATOM     28  H   LIG d   1      14.862   6.133   0.074  0.00  0.00     0.066 H 
ENDBRANCH  24  25
ENDBRANCH  18  24
BRANCH  20  29
ATOM     29  O   LIG d   1      10.810   7.480   0.987  0.00  0.00    -0.488 OA
BRANCH  29  30
ATOM     30  C   LIG d   1      11.575   8.660   1.241  0.00  0.00     0.079 C 
ATOM     31  H   LIG d   1      12.241   8.487   2.086  0.00  0.00     0.066 H 
ATOM     32  H   LIG d   1      12.165   8.908   0.359  0.00  0.00     0.066 H 
ATOM     33  H   LIG d   1      10.902   9.486   1.471  0.00  0.00     0.066 H 
ENDBRANCH  29  30
ENDBRANCH  20  29
BRANCH  21  34
ATOM     34  O   LIG d   1       8.648   8.194  -0.556  0.00  0.00    -0.491 OA
BRANCH  34  35
ATOM     35  C   LIG d   1       8.700   9.595  -0.829  0.00  0.00     0.079 C 
ATOM     36  H   LIG d   1       8.261   9.792  -1.807  0.00  0.00     0.066 H 
ATOM     37  H   LIG d   1       8.142  10.135  -0.065  0.00  0.00     0.066 H 
ATOM     38  H   LIG d   1       9.738   9.928  -0.824  0.00  0.00     0.066 H 
ENDBRANCH  34  35
ENDBRANCH  21  34
ENDBRANCH   1  16
BRANCH   8  39
ATOM     39  O   LIG d   1       7.269  -0.667  -4.201  0.00  0.00    -0.420 OA
BRANCH  39  40
ATOM     40  C   LIG d   1       5.931  -0.809  -4.301  0.00  0.00     0.380 C 
ATOM     41  O   LIG d   1       5.463  -1.679  -5.010  0.00  0.00    -0.241 OA
BRANCH  40  42
ATOM     42  C   LIG d   1       5.041   0.084  -3.554  0.00  0.00     0.212 A 
ATOM     43  O   LIG d   1       4.086   0.876  -4.084  0.00  0.00    -0.456 OA
ATOM     44  C   LIG d   1       3.470   1.547  -3.102  0.00  0.00     0.093 A 
ATOM     45  C   LIG d   1       4.030   1.201  -1.921  0.00  0.00    -0.023 A 
ATOM     46  H   LIG d   1       2.662   2.251  -3.232  0.00  0.00     0.103 H 
ATOM     47  C   LIG d   1       5.036   0.264  -2.200  0.00  0.00    -0.009 A 
ATOM     48  H   LIG d   1       3.753   1.575  -0.946  0.00  0.00     0.065 H 
ATOM     49  H   LIG d   1       5.683  -0.220  -1.483  0.00  0.00     0.066 H 
ENDBRANCH  40  42
ENDBRANCH  39  40
ENDBRANCH   8  39
TORSDOF 10
ENDMDL
MODEL 2
REMARK VINA RESULT:      -6.6      0.034      2.224
REMARK  10 active torsions:
REMARK  status: ('A' for Active; 'I' for Inactive)
REMARK    1  A    between atoms: C_1  and  O_2 
REMARK    2  A    between atoms: O_2  and  C_3 
REMARK    3  A    between atoms: C_5  and  C_13 
REMARK    4  A    between atoms: C_7  and  O_11 
REMARK    5  A    between atoms: C_8  and  O_9 
REMARK    6  A    between atoms: O_9  and  C_10 
REMARK    7  A    between atoms: O_11  and  C_12 
REMARK    8  A    between atoms: C_20  and  O_24 
REMARK    9  A    between atoms: O_24  and  C_25 
REMARK   10  A    between atoms: C_25  and  C_27 
ROOT
ATOM      1  C   LIG d   1      10.467   5.744  -4.341  0.00  0.00    -0.008 C 
ATOM      2  C   LIG d   1       9.872   4.559  -4.632  0.00  0.00     0.176 A 
ATOM      3  C   LIG d   1       9.593   4.034  -5.976  0.00  0.00     0.232 A 
ATOM      4  O   LIG d   1       9.840   4.558  -7.048  0.00  0.00    -0.283 OA
ATOM      5  C   LIG d   1       8.940   2.734  -5.737  0.00  0.00     0.068 A 
ATOM      6  C   LIG d   1       8.443   1.745  -6.586  0.00  0.00    -0.044 A 
ATOM      7  C   LIG d   1       7.886   0.613  -6.060  0.00  0.00    -0.018 A 
ATOM      8  C   LIG d   1       7.818   0.442  -4.680  0.00  0.00     0.136 A 
ATOM      9  C   LIG d   1       8.312   1.413  -3.825  0.00  0.00     0.024 A 
ATOM     10  C   LIG d   1       8.882   2.571  -4.343  0.00  0.00     0.143 A 
ATOM     11  O   LIG d   1       9.427   3.646  -3.735  0.00  0.00    -0.451 OA
ATOM     12  H   LIG d   1      10.875   6.352  -5.134  0.00  0.00     0.066 H 
ATOM     13  H   LIG d   1       8.493   1.876  -7.657  0.00  0.00     0.063 H 
ATOM     14  H   LIG d   1       7.497  -0.150  -6.718  0.00  0.00     0.065 H 
ATOM     15  H   LIG d   1       8.255   1.272  -2.756  0.00  0.00     0.069 H 
ENDROOT
BRANCH   1  16
ATOM     16  C   LIG d   1      10.557   6.199  -2.949  0.00  0.00    -0.014 A 
ATOM     17  C   LIG d   1       9.542   6.996  -2.404  0.00  0.00    -0.009 A 
ATOM     18  C   LIG d   1       9.630   7.422  -1.093  0.00  0.00     0.166 A 
ATOM     19  H   LIG d   1       8.693   7.278  -3.008  0.00  0.00     0.066 H 
ATOM     20  C   LIG d   1      10.725   7.059  -0.311  0.00  0.00     0.203 A 
ATOM     21  C   LIG d   1      11.736   6.266  -0.849  0.00  0.00     0.166 A 
ATOM     22  C   LIG d   1      11.653   5.832  -2.158  0.00  0.00    -0.009 A 
ATOM     23  H   LIG d   1      12.435   5.213  -2.573  0.00  0.00     0.066 H 
BRANCH  18  24
ATOM     24  O   LIG d   1       8.645   8.197  -0.563  0.00  0.00    -0.491 OA
BRANCH  24  25
ATOM     25  C   LIG d   1       8.704   9.598  -0.837  0.00  0.00     0.079 C 
ATOM     26  H   LIG d   1       9.167  10.113   0.006  0.00  0.00     0.066 H 
ATOM     27  H   LIG d   1       9.297   9.768  -1.736  0.00  0.00     0.066 H 
ATOM     28  H   LIG d   1       7.696   9.982  -0.988  0.00  0.00     0.066 H 
ENDBRANCH  24  25
ENDBRANCH  18  24
BRANCH  20  29
ATOM     29  O   LIG d   1      10.806   7.479   0.978  0.00  0.00    -0.488 OA
BRANCH  29  30
ATOM     30  C   LIG d   1      11.574   8.657   1.229  0.00  0.00     0.079 C 
ATOM     31  H   LIG d   1      12.448   8.667   0.577  0.00  0.00     0.066 H 
ATOM     32  H   LIG d   1      10.964   9.538   1.030  0.00  0.00     0.066 H 
ATOM     33  H   LIG d   1      11.896   8.666   2.270  0.00  0.00     0.066 H 
ENDBRANCH  29  30
ENDBRANCH  20  29
BRANCH  21  34
ATOM     34  O   LIG d   1      12.803   5.914  -0.084  0.00  0.00    -0.491 OA
BRANCH  34  35
ATOM     35  C   LIG d   1      14.091   5.974  -0.699  0.00  0.00     0.079 C 
ATOM     36  H   LIG d   1      14.188   5.161  -1.418  0.00  0.00     0.066 H 
ATOM     37  H   LIG d   1      14.204   6.928  -1.213  0.00  0.00     0.066 H 
ATOM     38  H   LIG d   1      14.863   5.878   0.064  0.00  0.00     0.066 H 
ENDBRANCH  34  35
ENDBRANCH  21  34
ENDBRANCH   1  16
BRANCH   8  39
ATOM     39  O   LIG d   1       7.263  -0.685  -4.169  0.00  0.00    -0.420 OA
BRANCH  39  40
ATOM     40  C   LIG d   1       5.924  -0.831  -4.262  0.00  0.00     0.380 C 
ATOM     41  O   LIG d   1       5.455  -1.708  -4.961  0.00  0.00    -0.241 OA
BRANCH  40  42
ATOM     42  C   LIG d   1       5.036   0.068  -3.520  0.00  0.00     0.212 A 
ATOM     43  O   LIG d   1       4.127   0.907  -4.058  0.00  0.00    -0.456 OA
ATOM     44  C   LIG d   1       3.497   1.567  -3.078  0.00  0.00     0.093 A 
ATOM     45  C   LIG d   1       4.001   1.166  -1.889  0.00  0.00    -0.023 A 
ATOM     46  H   LIG d   1       2.718   2.302  -3.215  0.00  0.00     0.103 H 
ATOM     47  C   LIG d   1       4.987   0.206  -2.161  0.00  0.00    -0.009 A 
ATOM     48  H   LIG d   1       3.700   1.519  -0.914  0.00  0.00     0.065 H 
ATOM     49  H   LIG d   1       5.590  -0.321  -1.437  0.00  0.00     0.066 H 
ENDBRANCH  40  42
ENDBRANCH  39  40
ENDBRANCH   8  39
TORSDOF 10
ENDMDL
MODEL 3
REMARK VINA RESULT:      -6.4      1.446      8.528
REMARK  10 active torsions:
REMARK  status: ('A' for Active; 'I' for Inactive)
REMARK    1  A    between atoms: C_1  and  O_2 
REMARK    2  A    between atoms: O_2  and  C_3 
REMARK    3  A    between atoms: C_5  and  C_13 
REMARK    4  A    between atoms: C_7  and  O_11 
REMARK    5  A    between atoms: C_8  and  O_9 
REMARK    6  A    between atoms: O_9  and  C_10 
REMARK    7  A    between atoms: O_11  and  C_12 
REMARK    8  A    between atoms: C_20  and  O_24 
REMARK    9  A    between atoms: O_24  and  C_25 
REMARK   10  A    between atoms: C_25  and  C_27 
ROOT
ATOM      1  C   LIG d   1       8.201   1.853  -5.255  0.00  0.00    -0.008 C 
ATOM      2  C   LIG d   1       9.032   2.756  -4.674  0.00  0.00     0.176 A 
ATOM      3  C   LIG d   1       9.972   3.645  -5.372  0.00  0.00     0.232 A 
ATOM      4  O   LIG d   1      10.169   3.729  -6.571  0.00  0.00    -0.283 OA
ATOM      5  C   LIG d   1      10.628   4.409  -4.294  0.00  0.00     0.068 A 
ATOM      6  C   LIG d   1      11.600   5.409  -4.289  0.00  0.00    -0.044 A 
ATOM      7  C   LIG d   1      12.015   5.949  -3.103  0.00  0.00    -0.018 A 
ATOM      8  C   LIG d   1      11.466   5.506  -1.902  0.00  0.00     0.136 A 
ATOM      9  C   LIG d   1      10.496   4.518  -1.894  0.00  0.00     0.024 A 
ATOM     10  C   LIG d   1      10.063   3.958  -3.090  0.00  0.00     0.143 A 
ATOM     11  O   LIG d   1       9.146   3.000  -3.347  0.00  0.00    -0.451 OA
ATOM     12  H   LIG d   1       8.118   1.810  -6.331  0.00  0.00     0.066 H 
ATOM     13  H   LIG d   1      12.028   5.753  -5.219  0.00  0.00     0.063 H 
ATOM     14  H   LIG d   1      12.771   6.720  -3.099  0.00  0.00     0.065 H 
ATOM     15  H   LIG d   1      10.077   4.180  -0.957  0.00  0.00     0.069 H 
ENDROOT
BRANCH   1  16
ATOM     16  C   LIG d   1       7.416   0.935  -4.421  0.00  0.00    -0.014 A 
ATOM     17  C   LIG d   1       6.477   1.442  -3.514  0.00  0.00    -0.009 A 
ATOM     18  C   LIG d   1       5.739   0.574  -2.731  0.00  0.00     0.166 A 
ATOM     19  H   LIG d   1       6.330   2.507  -3.425  0.00  0.00     0.066 H 
ATOM     20  C   LIG d   1       5.926  -0.801  -2.845  0.00  0.00     0.203 A 
ATOM     21  C   LIG d   1       6.859  -1.309  -3.746  0.00  0.00     0.166 A 
ATOM     22  C   LIG d   1       7.598  -0.449  -4.536  0.00  0.00    -0.009 A 
ATOM     23  H   LIG d   1       8.317  -0.843  -5.239  0.00  0.00     0.066 H 
BRANCH  18  24
ATOM     24  O   LIG d   1       4.827   1.065  -1.849  0.00  0.00    -0.491 OA
BRANCH  24  25
ATOM     25  C   LIG d   1       3.570   1.484  -2.383  0.00  0.00     0.079 C 
ATOM     26  H   LIG d   1       3.014   0.612  -2.729  0.00  0.00     0.066 H 
ATOM     27  H   LIG d   1       2.997   1.995  -1.608  0.00  0.00     0.066 H 
ATOM     28  H   LIG d   1       3.737   2.163  -3.219  0.00  0.00     0.066 H 
ENDBRANCH  24  25
ENDBRANCH  18  24
BRANCH  20  29
ATOM     29  O   LIG d   1       5.197  -1.650  -2.074  0.00  0.00    -0.488 OA
BRANCH  29  30
ATOM     30  C   LIG d   1       3.969  -2.132  -2.622  0.00  0.00     0.079 C 
ATOM     31  H   LIG d   1       3.155  -1.470  -2.328  0.00  0.00     0.066 H 
ATOM     32  H   LIG d   1       4.042  -2.157  -3.709  0.00  0.00     0.066 H 
ATOM     33  H   LIG d   1       3.774  -3.137  -2.248  0.00  0.00     0.066 H 
ENDBRANCH  29  30
ENDBRANCH  20  29
BRANCH  21  34
ATOM     34  O   LIG d   1       7.040  -2.652  -3.853  0.00  0.00    -0.491 OA
BRANCH  34  35
ATOM     35  C   LIG d   1       6.558  -3.279  -5.043  0.00  0.00     0.079 C 
ATOM     36  H   LIG d   1       6.145  -4.258  -4.797  0.00  0.00     0.066 H 
ATOM     37  H   LIG d   1       5.781  -2.660  -5.491  0.00  0.00     0.066 H 
ATOM     38  H   LIG d   1       7.380  -3.399  -5.749  0.00  0.00     0.066 H 
ENDBRANCH  34  35
ENDBRANCH  21  34
ENDBRANCH   1  16
BRANCH   8  39
ATOM     39  O   LIG d   1      11.886   6.049  -0.732  0.00  0.00    -0.420 OA
BRANCH  39  40
ATOM     40  C   LIG d   1      10.951   6.533   0.113  0.00  0.00     0.380 C 
ATOM     41  O   LIG d   1      10.666   5.918   1.122  0.00  0.00    -0.241 OA
BRANCH  40  42
ATOM     42  C   LIG d   1      10.280   7.800  -0.187  0.00  0.00     0.212 A 
ATOM     43  O   LIG d   1       9.054   7.938  -0.734  0.00  0.00    -0.456 OA
ATOM     44  C   LIG d   1       8.767   9.241  -0.857  0.00  0.00     0.093 A 
ATOM     45  C   LIG d   1       9.813   9.963  -0.397  0.00  0.00    -0.023 A 
ATOM     46  H   LIG d   1       7.852   9.647  -1.262  0.00  0.00     0.103 H 
ATOM     47  C   LIG d   1      10.786   9.050   0.035  0.00  0.00    -0.009 A 
ATOM     48  H   LIG d   1       9.885  11.040  -0.368  0.00  0.00     0.065 H 
ATOM     49  H   LIG d   1      11.751   9.288   0.459  0.00  0.00     0.066 H 
ENDBRANCH  40  42
ENDBRANCH  39  40
ENDBRANCH   8  39
TORSDOF 10
ENDMDL
MODEL 4
REMARK VINA RESULT:      -6.2      1.680      2.251
REMARK  10 active torsions:
REMARK  status: ('A' for Active; 'I' for Inactive)
REMARK    1  A    between atoms: C_1  and  O_2 
REMARK    2  A    between atoms: O_2  and  C_3 
REMARK    3  A    between atoms: C_5  and  C_13 
REMARK    4  A    between atoms: C_7  and  O_11 
REMARK    5  A    between atoms: C_8  and  O_9 
REMARK    6  A    between atoms: O_9  and  C_10 
REMARK    7  A    between atoms: O_11  and  C_12 
REMARK    8  A    between atoms: C_20  and  O_24 
REMARK    9  A    between atoms: O_24  and  C_25 
REMARK   10  A    between atoms: C_25  and  C_27 
ROOT
ATOM      1  C   LIG d   1      11.767   3.795  -3.079  0.00  0.00    -0.008 C 
ATOM      2  C   LIG d   1      10.951   2.895  -3.685  0.00  0.00     0.176 A 
ATOM      3  C   LIG d   1      11.368   1.648  -4.340  0.00  0.00     0.232 A 
ATOM      4  O   LIG d   1      12.498   1.208  -4.455  0.00  0.00    -0.283 OA
ATOM      5  C   LIG d   1      10.113   1.052  -4.834  0.00  0.00     0.068 A 
ATOM      6  C   LIG d   1       9.823  -0.124  -5.525  0.00  0.00    -0.044 A 
ATOM      7  C   LIG d   1       8.528  -0.422  -5.847  0.00  0.00    -0.018 A 
ATOM      8  C   LIG d   1       7.499   0.441  -5.482  0.00  0.00     0.136 A 
ATOM      9  C   LIG d   1       7.772   1.609  -4.790  0.00  0.00     0.024 A 
ATOM     10  C   LIG d   1       9.083   1.928  -4.455  0.00  0.00     0.143 A 
ATOM     11  O   LIG d   1       9.604   2.985  -3.795  0.00  0.00    -0.451 OA
ATOM     12  H   LIG d   1      12.818   3.576  -2.959  0.00  0.00     0.066 H 
ATOM     13  H   LIG d   1      10.619  -0.795  -5.812  0.00  0.00     0.063 H 
ATOM     14  H   LIG d   1       8.304  -1.331  -6.387  0.00  0.00     0.065 H 
ATOM     15  H   LIG d   1       6.968   2.273  -4.511  0.00  0.00     0.069 H 
ENDROOT
BRANCH   1  16
ATOM     16  C   LIG d   1      11.223   5.066  -2.586  0.00  0.00    -0.014 A 
ATOM     17  C   LIG d   1      11.046   5.267  -1.211  0.00  0.00    -0.009 A 
ATOM     18  C   LIG d   1      10.534   6.465  -0.750  0.00  0.00     0.166 A 
ATOM     19  H   LIG d   1      11.310   4.488  -0.512  0.00  0.00     0.066 H 
ATOM     20  C   LIG d   1      10.194   7.472  -1.651  0.00  0.00     0.203 A 
ATOM     21  C   LIG d   1      10.368   7.276  -3.019  0.00  0.00     0.166 A 
ATOM     22  C   LIG d   1      10.885   6.083  -3.487  0.00  0.00    -0.009 A 
ATOM     23  H   LIG d   1      11.024   5.933  -4.548  0.00  0.00     0.066 H 
BRANCH  18  24
ATOM     24  O   LIG d   1      10.362   6.661   0.585  0.00  0.00    -0.491 OA
BRANCH  24  25
ATOM     25  C   LIG d   1      11.071   5.787   1.465  0.00  0.00     0.079 C 
ATOM     26  H   LIG d   1      10.704   5.921   2.483  0.00  0.00     0.066 H 
ATOM     27  H   LIG d   1      10.913   4.754   1.156  0.00  0.00     0.066 H 
ATOM     28  H   LIG d   1      12.135   6.019   1.429  0.00  0.00     0.066 H 
ENDBRANCH  24  25
ENDBRANCH  18  24
BRANCH  20  29
ATOM     29  O   LIG d   1       9.692   8.648  -1.193  0.00  0.00    -0.488 OA
BRANCH  29  30
ATOM     30  C   LIG d   1      10.632   9.675  -0.874  0.00  0.00     0.079 C 
ATOM     31  H   LIG d   1      11.462   9.247  -0.311  0.00  0.00     0.066 H 
ATOM     32  H   LIG d   1      11.010  10.120  -1.795  0.00  0.00     0.066 H 
ATOM     33  H   LIG d   1      10.143  10.443  -0.274  0.00  0.00     0.066 H 
ENDBRANCH  29  30
ENDBRANCH  20  29
BRANCH  21  34
ATOM     34  O   LIG d   1      10.034   8.261  -3.894  0.00  0.00    -0.491 OA
BRANCH  34  35
ATOM     35  C   LIG d   1       9.690   7.861  -5.221  0.00  0.00     0.079 C 
ATOM     36  H   LIG d   1       9.210   6.883  -5.193  0.00  0.00     0.066 H 
ATOM     37  H   LIG d   1       9.005   8.589  -5.655  0.00  0.00     0.066 H 
ATOM     38  H   LIG d   1      10.593   7.805  -5.830  0.00  0.00     0.066 H 
ENDBRANCH  34  35
ENDBRANCH  21  34
ENDBRANCH   1  16
BRANCH   8  39
ATOM     39  O   LIG d   1       6.217   0.135  -5.806  0.00  0.00    -0.420 OA
BRANCH  39  40
ATOM     40  C   LIG d   1       5.488  -0.568  -4.914  0.00  0.00     0.380 C 
ATOM     41  O   LIG d   1       5.322  -1.762  -5.070  0.00  0.00    -0.241 OA
BRANCH  40  42
ATOM     42  C   LIG d   1       4.898   0.108  -3.756  0.00  0.00     0.212 A 
ATOM     43  O   LIG d   1       3.944   1.062  -3.796  0.00  0.00    -0.456 OA
ATOM     44  C   LIG d   1       3.647   1.445  -2.547  0.00  0.00     0.093 A 
ATOM     45  C   LIG d   1       4.415   0.746  -1.683  0.00  0.00    -0.023 A 
ATOM     46  H   LIG d   1       2.916   2.192  -2.276  0.00  0.00     0.103 H 
ATOM     47  C   LIG d   1       5.220  -0.113  -2.447  0.00  0.00    -0.009 A 
ATOM     48  H   LIG d   1       4.410   0.832  -0.606  0.00  0.00     0.065 H 
ATOM     49  H   LIG d   1       5.952  -0.813  -2.072  0.00  0.00     0.066 H 
ENDBRANCH  40  42
ENDBRANCH  39  40
ENDBRANCH   8  39
TORSDOF 10
ENDMDL
MODEL 5
REMARK VINA RESULT:      -6.2      2.124      3.016
REMARK  10 active torsions:
REMARK  status: ('A' for Active; 'I' for Inactive)
REMARK    1  A    between atoms: C_1  and  O_2 
REMARK    2  A    between atoms: O_2  and  C_3 
REMARK    3  A    between atoms: C_5  and  C_13 
REMARK    4  A    between atoms: C_7  and  O_11 
REMARK    5  A    between atoms: C_8  and  O_9 
REMARK    6  A    between atoms: O_9  and  C_10 
REMARK    7  A    between atoms: O_11  and  C_12 
REMARK    8  A    between atoms: C_20  and  O_24 
REMARK    9  A    between atoms: O_24  and  C_25 
REMARK   10  A    between atoms: C_25  and  C_27 
ROOT
ATOM      1  C   LIG d   1      10.811   3.539  -3.917  0.00  0.00    -0.008 C 
ATOM      2  C   LIG d   1       9.850   2.584  -3.996  0.00  0.00     0.176 A 
ATOM      3  C   LIG d   1       9.975   1.278  -4.658  0.00  0.00     0.232 A 
ATOM      4  O   LIG d   1      10.944   0.829  -5.244  0.00  0.00    -0.283 OA
ATOM      5  C   LIG d   1       8.662   0.637  -4.462  0.00  0.00     0.068 A 
ATOM      6  C   LIG d   1       8.139  -0.601  -4.835  0.00  0.00    -0.044 A 
ATOM      7  C   LIG d   1       6.857  -0.930  -4.494  0.00  0.00    -0.018 A 
ATOM      8  C   LIG d   1       6.073  -0.035  -3.771  0.00  0.00     0.136 A 
ATOM      9  C   LIG d   1       6.581   1.196  -3.389  0.00  0.00     0.024 A 
ATOM     10  C   LIG d   1       7.884   1.546  -3.727  0.00  0.00     0.143 A 
ATOM     11  O   LIG d   1       8.601   2.663  -3.478  0.00  0.00    -0.451 OA
ATOM     12  H   LIG d   1      11.808   3.333  -4.278  0.00  0.00     0.066 H 
ATOM     13  H   LIG d   1       8.745  -1.297  -5.397  0.00  0.00     0.063 H 
ATOM     14  H   LIG d   1       6.451  -1.887  -4.788  0.00  0.00     0.065 H 
ATOM     15  H   LIG d   1       5.966   1.884  -2.829  0.00  0.00     0.069 H 
ENDROOT
BRANCH   1  16
ATOM     16  C   LIG d   1      10.498   4.852  -3.341  0.00  0.00    -0.014 A 
ATOM     17  C   LIG d   1      10.471   5.020  -1.951  0.00  0.00    -0.009 A 
ATOM     18  C   LIG d   1      10.176   6.258  -1.412  0.00  0.00     0.166 A 
ATOM     19  H   LIG d   1      10.680   4.184  -1.301  0.00  0.00     0.066 H 
ATOM     20  C   LIG d   1       9.907   7.338  -2.249  0.00  0.00     0.203 A 
ATOM     21  C   LIG d   1       9.933   7.176  -3.632  0.00  0.00     0.166 A 
ATOM     22  C   LIG d   1      10.232   5.942  -4.179  0.00  0.00    -0.009 A 
ATOM     23  H   LIG d   1      10.257   5.818  -5.252  0.00  0.00     0.066 H 
BRANCH  18  24
ATOM     24  O   LIG d   1      10.149   6.422  -0.062  0.00  0.00    -0.491 OA
BRANCH  24  25
ATOM     25  C   LIG d   1      11.227   5.851   0.682  0.00  0.00     0.079 C 
ATOM     26  H   LIG d   1      10.882   5.597   1.684  0.00  0.00     0.066 H 
ATOM     27  H   LIG d   1      11.579   4.950   0.179  0.00  0.00     0.066 H 
ATOM     28  H   LIG d   1      12.043   6.571   0.750  0.00  0.00     0.066 H 
ENDBRANCH  24  25
ENDBRANCH  18  24
BRANCH  20  29
ATOM     29  O   LIG d   1       9.618   8.554  -1.715  0.00  0.00    -0.488 OA
BRANCH  29  30
ATOM     30  C   LIG d   1      10.720   9.424  -1.450  0.00  0.00     0.079 C 
ATOM     31  H   LIG d   1      11.152   9.180  -0.480  0.00  0.00     0.066 H 
ATOM     32  H   LIG d   1      11.476   9.299  -2.226  0.00  0.00     0.066 H 
ATOM     33  H   LIG d   1      10.373  10.457  -1.445  0.00  0.00     0.066 H 
ENDBRANCH  29  30
ENDBRANCH  20  29
BRANCH  21  34
ATOM     34  O   LIG d   1       9.669   8.233  -4.446  0.00  0.00    -0.491 OA
BRANCH  34  35
ATOM     35  C   LIG d   1       9.289   7.937  -5.791  0.00  0.00     0.079 C 
ATOM     36  H   LIG d   1       8.306   7.465  -5.795  0.00  0.00     0.066 H 
ATOM     37  H   LIG d   1       9.250   8.861  -6.369  0.00  0.00     0.066 H 
ATOM     38  H   LIG d   1      10.019   7.261  -6.235  0.00  0.00     0.066 H 
ENDBRANCH  34  35
ENDBRANCH  21  34
ENDBRANCH   1  16
BRANCH   8  39
ATOM     39  O   LIG d   1       4.802  -0.371  -3.438  0.00  0.00    -0.420 OA
BRANCH  39  40
ATOM     40  C   LIG d   1       4.125  -1.190  -4.270  0.00  0.00     0.380 C 
ATOM     41  O   LIG d   1       3.817  -2.309  -3.905  0.00  0.00    -0.241 OA
BRANCH  40  42
ATOM     42  C   LIG d   1       3.760  -0.732  -5.613  0.00  0.00     0.212 A 
ATOM     43  O   LIG d   1       4.212  -1.245  -6.776  0.00  0.00    -0.456 OA
ATOM     44  C   LIG d   1       3.661  -0.579  -7.799  0.00  0.00     0.093 A 
ATOM     45  C   LIG d   1       2.850   0.383  -7.306  0.00  0.00    -0.023 A 
ATOM     46  H   LIG d   1       3.839  -0.776  -8.846  0.00  0.00     0.103 H 
ATOM     47  C   LIG d   1       2.906   0.293  -5.907  0.00  0.00    -0.009 A 
ATOM     48  H   LIG d   1       2.268   1.087  -7.881  0.00  0.00     0.065 H 
ATOM     49  H   LIG d   1       2.377   0.914  -5.200  0.00  0.00     0.066 H 
ENDBRANCH  40  42
ENDBRANCH  39  40
ENDBRANCH   8  39
TORSDOF 10
ENDMDL
MODEL 6
REMARK VINA RESULT:      -6.1      8.147     14.300
REMARK  10 active torsions:
REMARK  status: ('A' for Active; 'I' for Inactive)
REMARK    1  A    between atoms: C_1  and  O_2 
REMARK    2  A    between atoms: O_2  and  C_3 
REMARK    3  A    between atoms: C_5  and  C_13 
REMARK    4  A    between atoms: C_7  and  O_11 
REMARK    5  A    between atoms: C_8  and  O_9 
REMARK    6  A    between atoms: O_9  and  C_10 
REMARK    7  A    between atoms: O_11  and  C_12 
REMARK    8  A    between atoms: C_20  and  O_24 
REMARK    9  A    between atoms: O_24  and  C_25 
REMARK   10  A    between atoms: C_25  and  C_27 
ROOT
ATOM      1  C   LIG d   1       0.547  -3.532 -12.015  0.00  0.00    -0.008 C 
ATOM      2  C   LIG d   1       1.225  -2.547 -11.372  0.00  0.00     0.176 A 
ATOM      3  C   LIG d   1       2.057  -1.512 -12.001  0.00  0.00     0.232 A 
ATOM      4  O   LIG d   1       2.283  -1.356 -13.188  0.00  0.00    -0.283 OA
ATOM      5  C   LIG d   1       2.563  -0.709 -10.872  0.00  0.00     0.068 A 
ATOM      6  C   LIG d   1       3.387   0.414 -10.794  0.00  0.00    -0.044 A 
ATOM      7  C   LIG d   1       3.681   0.959  -9.576  0.00  0.00    -0.018 A 
ATOM      8  C   LIG d   1       3.157   0.400  -8.413  0.00  0.00     0.136 A 
ATOM      9  C   LIG d   1       2.332  -0.711  -8.477  0.00  0.00     0.024 A 
ATOM     10  C   LIG d   1       2.023  -1.278  -9.708  0.00  0.00     0.143 A 
ATOM     11  O   LIG d   1       1.257  -2.341 -10.034  0.00  0.00    -0.451 OA
ATOM     12  H   LIG d   1       0.508  -3.545 -13.094  0.00  0.00     0.066 H 
ATOM     13  H   LIG d   1       3.797   0.849 -11.694  0.00  0.00     0.063 H 
ATOM     14  H   LIG d   1       4.324   1.825  -9.515  0.00  0.00     0.065 H 
ATOM     15  H   LIG d   1       1.931  -1.138  -7.570  0.00  0.00     0.069 H 
ENDROOT
BRANCH   1  16
ATOM     16  C   LIG d   1      -0.134  -4.580 -11.245  0.00  0.00    -0.014 A 
ATOM     17  C   LIG d   1       0.556  -5.743 -10.881  0.00  0.00    -0.009 A 
ATOM     18  C   LIG d   1      -0.088  -6.727 -10.155  0.00  0.00     0.166 A 
ATOM     19  H   LIG d   1       1.589  -5.871 -11.166  0.00  0.00     0.066 H 
ATOM     20  C   LIG d   1      -1.421  -6.562  -9.785  0.00  0.00     0.203 A 
ATOM     21  C   LIG d   1      -2.111  -5.407 -10.146  0.00  0.00     0.166 A 
ATOM     22  C   LIG d   1      -1.472  -4.416 -10.867  0.00  0.00    -0.009 A 
ATOM     23  H   LIG d   1      -2.006  -3.519 -11.142  0.00  0.00     0.066 H 
BRANCH  18  24
ATOM     24  O   LIG d   1       0.581  -7.857  -9.801  0.00  0.00    -0.491 OA
BRANCH  24  25
ATOM     25  C   LIG d   1       1.011  -8.714 -10.859  0.00  0.00     0.079 C 
ATOM     26  H   LIG d   1       0.394  -8.540 -11.741  0.00  0.00     0.066 H 
ATOM     27  H   LIG d   1       2.053  -8.502 -11.098  0.00  0.00     0.066 H 
ATOM     28  H   LIG d   1       0.914  -9.754 -10.548  0.00  0.00     0.066 H 
ENDBRANCH  24  25
ENDBRANCH  18  24
BRANCH  20  29
ATOM     29  O   LIG d   1      -2.050  -7.532  -9.071  0.00  0.00    -0.488 OA
BRANCH  29  30
ATOM     30  C   LIG d   1      -2.698  -8.567  -9.813  0.00  0.00     0.079 C 
ATOM     31  H   LIG d   1      -2.027  -8.931 -10.591  0.00  0.00     0.066 H 
ATOM     32  H   LIG d   1      -2.955  -9.388  -9.143  0.00  0.00     0.066 H 
ATOM     33  H   LIG d   1      -3.605  -8.173 -10.269  0.00  0.00     0.066 H 
ENDBRANCH  29  30
ENDBRANCH  20  29
BRANCH  21  34
ATOM     34  O   LIG d   1      -3.412  -5.251  -9.783  0.00  0.00    -0.491 OA
BRANCH  34  35
ATOM     35  C   LIG d   1      -4.392  -5.370 -10.816  0.00  0.00     0.079 C 
ATOM     36  H   LIG d   1      -5.083  -6.177 -10.570  0.00  0.00     0.066 H 
ATOM     37  H   LIG d   1      -4.944  -4.434 -10.903  0.00  0.00     0.066 H 
ATOM     38  H   LIG d   1      -3.898  -5.590 -11.762  0.00  0.00     0.066 H 
ENDBRANCH  34  35
ENDBRANCH  21  34
ENDBRANCH   1  16
BRANCH   8  39
ATOM     39  O   LIG d   1       3.456   0.949  -7.209  0.00  0.00    -0.420 OA
BRANCH  39  40
ATOM     40  C   LIG d   1       4.257   0.251  -6.376  0.00  0.00     0.380 C 
ATOM     41  O   LIG d   1       5.420   0.056  -6.673  0.00  0.00    -0.241 OA
BRANCH  40  42
ATOM     42  C   LIG d   1       3.725  -0.271  -5.115  0.00  0.00     0.212 A 
ATOM     43  O   LIG d   1       4.236  -1.297  -4.403  0.00  0.00    -0.456 OA
ATOM     44  C   LIG d   1       3.493  -1.490  -3.306  0.00  0.00     0.093 A 
ATOM     45  C   LIG d   1       2.483  -0.592  -3.301  0.00  0.00    -0.023 A 
ATOM     46  H   LIG d   1       3.669  -2.243  -2.552  0.00  0.00     0.103 H 
ATOM     47  C   LIG d   1       2.623   0.194  -4.454  0.00  0.00    -0.009 A 
ATOM     48  H   LIG d   1       1.713  -0.497  -2.549  0.00  0.00     0.065 H 
ATOM     49  H   LIG d   1       1.983   1.008  -4.762  0.00  0.00     0.066 H 
ENDBRANCH  40  42
ENDBRANCH  39  40
ENDBRANCH   8  39
TORSDOF 10
ENDMDL
MODEL 7
REMARK VINA RESULT:      -6.0      1.779      2.656
REMARK  10 active torsions:
REMARK  status: ('A' for Active; 'I' for Inactive)
REMARK    1  A    between atoms: C_1  and  O_2 
REMARK    2  A    between atoms: O_2  and  C_3 
REMARK    3  A    between atoms: C_5  and  C_13 
REMARK    4  A    between atoms: C_7  and  O_11 
REMARK    5  A    between atoms: C_8  and  O_9 
REMARK    6  A    between atoms: O_9  and  C_10 
REMARK    7  A    between atoms: O_11  and  C_12 
REMARK    8  A    between atoms: C_20  and  O_24 
REMARK    9  A    between atoms: O_24  and  C_25 
REMARK   10  A    between atoms: C_25  and  C_27 
ROOT
ATOM      1  C   LIG d   1      12.216   4.322  -3.037  0.00  0.00    -0.008 C 
ATOM      2  C   LIG d   1      11.494   3.277  -3.515  0.00  0.00     0.176 A 
ATOM      3  C   LIG d   1      12.025   2.117  -4.245  0.00  0.00     0.232 A 
ATOM      4  O   LIG d   1      13.184   1.891  -4.546  0.00  0.00    -0.283 OA
ATOM      5  C   LIG d   1      10.839   1.291  -4.539  0.00  0.00     0.068 A 
ATOM      6  C   LIG d   1      10.665   0.069  -5.190  0.00  0.00    -0.044 A 
ATOM      7  C   LIG d   1       9.414  -0.469  -5.303  0.00  0.00    -0.018 A 
ATOM      8  C   LIG d   1       8.314   0.195  -4.766  0.00  0.00     0.136 A 
ATOM      9  C   LIG d   1       8.474   1.406  -4.112  0.00  0.00     0.024 A 
ATOM     10  C   LIG d   1       9.740   1.967  -3.988  0.00  0.00     0.143 A 
ATOM     11  O   LIG d   1      10.154   3.114  -3.407  0.00  0.00    -0.451 OA
ATOM     12  H   LIG d   1      13.295   4.303  -3.091  0.00  0.00     0.066 H 
ATOM     13  H   LIG d   1      11.516  -0.447  -5.609  0.00  0.00     0.063 H 
ATOM     14  H   LIG d   1       9.278  -1.412  -5.812  0.00  0.00     0.065 H 
ATOM     15  H   LIG d   1       7.616   1.914  -3.699  0.00  0.00     0.069 H 
ENDROOT
BRANCH   1  16
ATOM     16  C   LIG d   1      11.532   5.478  -2.446  0.00  0.00    -0.014 A 
ATOM     17  C   LIG d   1      11.101   6.532  -3.263  0.00  0.00    -0.009 A 
ATOM     18  C   LIG d   1      10.457   7.618  -2.703  0.00  0.00     0.166 A 
ATOM     19  H   LIG d   1      11.273   6.495  -4.328  0.00  0.00     0.066 H 
ATOM     20  C   LIG d   1      10.234   7.666  -1.329  0.00  0.00     0.203 A 
ATOM     21  C   LIG d   1      10.660   6.621  -0.513  0.00  0.00     0.166 A 
ATOM     22  C   LIG d   1      11.301   5.528  -1.066  0.00  0.00    -0.009 A 
ATOM     23  H   LIG d   1      11.627   4.716  -0.434  0.00  0.00     0.066 H 
BRANCH  18  24
ATOM     24  O   LIG d   1      10.039   8.642  -3.496  0.00  0.00    -0.491 OA
BRANCH  24  25
ATOM     25  C   LIG d   1       9.978   8.390  -4.901  0.00  0.00     0.079 C 
ATOM     26  H   LIG d   1      10.770   7.696  -5.179  0.00  0.00     0.066 H 
ATOM     27  H   LIG d   1       9.010   7.956  -5.151  0.00  0.00     0.066 H 
ATOM     28  H   LIG d   1      10.108   9.326  -5.444  0.00  0.00     0.066 H 
ENDBRANCH  24  25
ENDBRANCH  18  24
BRANCH  20  29
ATOM     29  O   LIG d   1       9.599   8.737  -0.784  0.00  0.00    -0.488 OA
BRANCH  29  30
ATOM     30  C   LIG d   1      10.418   9.814  -0.328  0.00  0.00     0.079 C 
ATOM     31  H   LIG d   1      11.459   9.611  -0.580  0.00  0.00     0.066 H 
ATOM     32  H   LIG d   1      10.103  10.740  -0.811  0.00  0.00     0.066 H 
ATOM     33  H   LIG d   1      10.318   9.916   0.752  0.00  0.00     0.066 H 
ENDBRANCH  29  30
ENDBRANCH  20  29
BRANCH  21  34
ATOM     34  O   LIG d   1      10.441   6.673   0.828  0.00  0.00    -0.491 OA
BRANCH  34  35
ATOM     35  C   LIG d   1      11.039   5.648   1.623  0.00  0.00     0.079 C 
ATOM     36  H   LIG d   1      10.332   5.320   2.385  0.00  0.00     0.066 H 
ATOM     37  H   LIG d   1      11.304   4.803   0.987  0.00  0.00     0.066 H 
ATOM     38  H   LIG d   1      11.937   6.037   2.103  0.00  0.00     0.066 H 
ENDBRANCH  34  35
ENDBRANCH  21  34
ENDBRANCH   1  16
BRANCH   8  39
ATOM     39  O   LIG d   1       7.077  -0.348  -4.884  0.00  0.00    -0.420 OA
BRANCH  39  40
ATOM     40  C   LIG d   1       6.460  -0.770  -3.760  0.00  0.00     0.380 C 
ATOM     41  O   LIG d   1       6.890  -1.733  -3.156  0.00  0.00    -0.241 OA
BRANCH  40  42
ATOM     42  C   LIG d   1       5.272  -0.067  -3.269  0.00  0.00     0.212 A 
ATOM     43  O   LIG d   1       5.009   1.248  -3.421  0.00  0.00    -0.456 OA
ATOM     44  C   LIG d   1       3.833   1.534  -2.847  0.00  0.00     0.093 A 
ATOM     45  C   LIG d   1       3.325   0.404  -2.307  0.00  0.00    -0.023 A 
ATOM     46  H   LIG d   1       3.369   2.509  -2.818  0.00  0.00     0.103 H 
ATOM     47  C   LIG d   1       4.239  -0.627  -2.572  0.00  0.00    -0.009 A 
ATOM     48  H   LIG d   1       2.392   0.313  -1.772  0.00  0.00     0.065 H 
ATOM     49  H   LIG d   1       4.145  -1.662  -2.280  0.00  0.00     0.066 H 
ENDBRANCH  40  42
ENDBRANCH  39  40
ENDBRANCH   8  39
TORSDOF 10
ENDMDL
MODEL 8
REMARK VINA RESULT:      -5.9      8.018     14.364
REMARK  10 active torsions:
REMARK  status: ('A' for Active; 'I' for Inactive)
REMARK    1  A    between atoms: C_1  and  O_2 
REMARK    2  A    between atoms: O_2  and  C_3 
REMARK    3  A    between atoms: C_5  and  C_13 
REMARK    4  A    between atoms: C_7  and  O_11 
REMARK    5  A    between atoms: C_8  and  O_9 
REMARK    6  A    between atoms: O_9  and  C_10 
REMARK    7  A    between atoms: O_11  and  C_12 
REMARK    8  A    between atoms: C_20  and  O_24 
REMARK    9  A    between atoms: O_24  and  C_25 
REMARK   10  A    between atoms: C_25  and  C_27 
ROOT
ATOM      1  C   LIG d   1       0.578  -3.506 -11.904  0.00  0.00    -0.008 C 
ATOM      2  C   LIG d   1       1.294  -2.558 -11.246  0.00  0.00     0.176 A 
ATOM      3  C   LIG d   1       2.122  -1.512 -11.863  0.00  0.00     0.232 A 
ATOM      4  O   LIG d   1       2.311  -1.313 -13.050  0.00  0.00    -0.283 OA
ATOM      5  C   LIG d   1       2.679  -0.761 -10.723  0.00  0.00     0.068 A 
ATOM      6  C   LIG d   1       3.524   0.344 -10.630  0.00  0.00    -0.044 A 
ATOM      7  C   LIG d   1       3.869   0.836  -9.402  0.00  0.00    -0.018 A 
ATOM      8  C   LIG d   1       3.374   0.241  -8.245  0.00  0.00     0.136 A 
ATOM      9  C   LIG d   1       2.529  -0.853  -8.323  0.00  0.00     0.024 A 
ATOM     10  C   LIG d   1       2.169  -1.367  -9.563  0.00  0.00     0.143 A 
ATOM     11  O   LIG d   1       1.374  -2.405  -9.903  0.00  0.00    -0.451 OA
ATOM     12  H   LIG d   1       0.503  -3.476 -12.981  0.00  0.00     0.066 H 
ATOM     13  H   LIG d   1       3.911   0.807 -11.526  0.00  0.00     0.063 H 
ATOM     14  H   LIG d   1       4.527   1.690  -9.329  0.00  0.00     0.065 H 
ATOM     15  H   LIG d   1       2.151  -1.309  -7.420  0.00  0.00     0.069 H 
ENDROOT
BRANCH   1  16
ATOM     16  C   LIG d   1      -0.094  -4.572 -11.152  0.00  0.00    -0.014 A 
ATOM     17  C   LIG d   1      -1.416  -4.401 -10.722  0.00  0.00    -0.009 A 
ATOM     18  C   LIG d   1      -2.046  -5.407 -10.015  0.00  0.00     0.166 A 
ATOM     19  H   LIG d   1      -1.942  -3.484 -10.942  0.00  0.00     0.066 H 
ATOM     20  C   LIG d   1      -1.369  -6.591  -9.731  0.00  0.00     0.203 A 
ATOM     21  C   LIG d   1      -0.054  -6.765 -10.157  0.00  0.00     0.166 A 
ATOM     22  C   LIG d   1       0.581  -5.766 -10.869  0.00  0.00    -0.009 A 
ATOM     23  H   LIG d   1       1.599  -5.903 -11.203  0.00  0.00     0.066 H 
BRANCH  18  24
ATOM     24  O   LIG d   1      -3.330  -5.242  -9.597  0.00  0.00    -0.491 OA
BRANCH  24  25
ATOM     25  C   LIG d   1      -4.237  -4.631 -10.516  0.00  0.00     0.079 C 
ATOM     26  H   LIG d   1      -5.051  -5.322 -10.735  0.00  0.00     0.066 H 
ATOM     27  H   LIG d   1      -4.643  -3.720 -10.076  0.00  0.00     0.066 H 
ATOM     28  H   LIG d   1      -3.711  -4.386 -11.438  0.00  0.00     0.066 H 
ENDBRANCH  24  25
ENDBRANCH  18  24
BRANCH  20  29
ATOM     29  O   LIG d   1      -1.993  -7.578  -9.036  0.00  0.00    -0.488 OA
BRANCH  29  30
ATOM     30  C   LIG d   1      -2.745  -8.528  -9.792  0.00  0.00     0.079 C 
ATOM     31  H   LIG d   1      -2.078  -9.305 -10.166  0.00  0.00     0.066 H 
ATOM     32  H   LIG d   1      -3.507  -8.978  -9.156  0.00  0.00     0.066 H 
ATOM     33  H   LIG d   1      -3.225  -8.026 -10.632  0.00  0.00     0.066 H 
ENDBRANCH  29  30
ENDBRANCH  20  29
BRANCH  21  34
ATOM     34  O   LIG d   1       0.603  -7.922  -9.876  0.00  0.00    -0.491 OA
BRANCH  34  35
ATOM     35  C   LIG d   1       0.818  -8.825 -10.961  0.00  0.00     0.079 C 
ATOM     36  H   LIG d   1       1.755  -9.362 -10.807  0.00  0.00     0.066 H 
ATOM     37  H   LIG d   1      -0.005  -9.538 -11.009  0.00  0.00     0.066 H 
ATOM     38  H   LIG d   1       0.869  -8.266 -11.896  0.00  0.00     0.066 H 
ENDBRANCH  34  35
ENDBRANCH  21  34
ENDBRANCH   1  16
BRANCH   8  39
ATOM     39  O   LIG d   1       3.722   0.738  -7.031  0.00  0.00    -0.420 OA
BRANCH  39  40
ATOM     40  C   LIG d   1       4.349  -0.087  -6.165  0.00  0.00     0.380 C 
ATOM     41  O   LIG d   1       5.262  -0.792  -6.550  0.00  0.00    -0.241 OA
BRANCH  40  42
ATOM     42  C   LIG d   1       3.929  -0.132  -4.762  0.00  0.00     0.212 A 
ATOM     43  O   LIG d   1       3.701   0.935  -3.968  0.00  0.00    -0.456 OA
ATOM     44  C   LIG d   1       3.330   0.513  -2.753  0.00  0.00     0.093 A 
ATOM     45  C   LIG d   1       3.321  -0.839  -2.745  0.00  0.00    -0.023 A 
ATOM     46  H   LIG d   1       3.081   1.148  -1.915  0.00  0.00     0.103 H 
ATOM     47  C   LIG d   1       3.703  -1.261  -4.027  0.00  0.00    -0.009 A 
ATOM     48  H   LIG d   1       3.068  -1.473  -1.909  0.00  0.00     0.065 H 
ATOM     49  H   LIG d   1       3.801  -2.281  -4.368  0.00  0.00     0.066 H 
ENDBRANCH  40  42
ENDBRANCH  39  40
ENDBRANCH   8  39
TORSDOF 10
ENDMDL
MODEL 9
REMARK VINA RESULT:      -5.7      2.310      3.526
REMARK  10 active torsions:
REMARK  status: ('A' for Active; 'I' for Inactive)
REMARK    1  A    between atoms: C_1  and  O_2 
REMARK    2  A    between atoms: O_2  and  C_3 
REMARK    3  A    between atoms: C_5  and  C_13 
REMARK    4  A    between atoms: C_7  and  O_11 
REMARK    5  A    between atoms: C_8  and  O_9 
REMARK    6  A    between atoms: O_9  and  C_10 
REMARK    7  A    between atoms: O_11  and  C_12 
REMARK    8  A    between atoms: C_20  and  O_24 
REMARK    9  A    between atoms: O_24  and  C_25 
REMARK   10  A    between atoms: C_25  and  C_27 
ROOT
ATOM      1  C   LIG d   1      10.582   6.144  -6.463  0.00  0.00    -0.008 C 
ATOM      2  C   LIG d   1       9.976   4.970  -6.149  0.00  0.00     0.176 A 
ATOM      3  C   LIG d   1       9.733   3.847  -7.065  0.00  0.00     0.232 A 
ATOM      4  O   LIG d   1      10.024   3.770  -8.246  0.00  0.00    -0.283 OA
ATOM      5  C   LIG d   1       9.050   2.836  -6.237  0.00  0.00     0.068 A 
ATOM      6  C   LIG d   1       8.564   1.556  -6.502  0.00  0.00    -0.044 A 
ATOM      7  C   LIG d   1       7.971   0.833  -5.505  0.00  0.00    -0.018 A 
ATOM      8  C   LIG d   1       7.855   1.369  -4.225  0.00  0.00     0.136 A 
ATOM      9  C   LIG d   1       8.338   2.637  -3.947  0.00  0.00     0.024 A 
ATOM     10  C   LIG d   1       8.944   3.386  -4.950  0.00  0.00     0.143 A 
ATOM     11  O   LIG d   1       9.487   4.622  -4.936  0.00  0.00    -0.451 OA
ATOM     12  H   LIG d   1      11.026   6.279  -7.438  0.00  0.00     0.066 H 
ATOM     13  H   LIG d   1       8.651   1.138  -7.494  0.00  0.00     0.063 H 
ATOM     14  H   LIG d   1       7.590  -0.157  -5.711  0.00  0.00     0.065 H 
ATOM     15  H   LIG d   1       8.242   3.045  -2.952  0.00  0.00     0.069 H 
ENDROOT
BRANCH   1  16
ATOM     16  C   LIG d   1      10.634   7.230  -5.477  0.00  0.00    -0.014 A 
ATOM     17  C   LIG d   1       9.835   8.369  -5.645  0.00  0.00    -0.009 A 
ATOM     18  C   LIG d   1       9.887   9.389  -4.715  0.00  0.00     0.166 A 
ATOM     19  H   LIG d   1       9.181   8.450  -6.500  0.00  0.00     0.066 H 
ATOM     20  C   LIG d   1      10.729   9.286  -3.610  0.00  0.00     0.203 A 
ATOM     21  C   LIG d   1      11.524   8.155  -3.439  0.00  0.00     0.166 A 
ATOM     22  C   LIG d   1      11.475   7.128  -4.363  0.00  0.00    -0.009 A 
ATOM     23  H   LIG d   1      12.089   6.250  -4.228  0.00  0.00     0.066 H 
BRANCH  18  24
ATOM     24  O   LIG d   1       9.112  10.496  -4.877  0.00  0.00    -0.491 OA
BRANCH  24  25
ATOM     25  C   LIG d   1       9.611  11.514  -5.746  0.00  0.00     0.079 C 
ATOM     26  H   LIG d   1       9.238  11.344  -6.756  0.00  0.00     0.066 H 
ATOM     27  H   LIG d   1       9.274  12.490  -5.394  0.00  0.00     0.066 H 
ATOM     28  H   LIG d   1      10.700  11.486  -5.751  0.00  0.00     0.066 H 
ENDBRANCH  24  25
ENDBRANCH  18  24
BRANCH  20  29
ATOM     29  O   LIG d   1      10.775  10.292  -2.697  0.00  0.00    -0.488 OA
BRANCH  29  30
ATOM     30  C   LIG d   1       9.839  10.233  -1.620  0.00  0.00     0.079 C 
ATOM     31  H   LIG d   1      10.268  10.709  -0.739  0.00  0.00     0.066 H 
ATOM     32  H   LIG d   1       8.925  10.755  -1.905  0.00  0.00     0.066 H 
ATOM     33  H   LIG d   1       9.608   9.192  -1.396  0.00  0.00     0.066 H 
ENDBRANCH  29  30
ENDBRANCH  20  29
BRANCH  21  34
ATOM     34  O   LIG d   1      12.346   8.059  -2.360  0.00  0.00    -0.491 OA
BRANCH  34  35
ATOM     35  C   LIG d   1      13.748   8.196  -2.598  0.00  0.00     0.079 C 
ATOM     36  H   LIG d   1      13.910   8.868  -3.441  0.00  0.00     0.066 H 
ATOM     37  H   LIG d   1      14.229   8.605  -1.709  0.00  0.00     0.066 H 
ATOM     38  H   LIG d   1      14.175   7.219  -2.825  0.00  0.00     0.066 H 
ENDBRANCH  34  35
ENDBRANCH  21  34
ENDBRANCH   1  16
BRANCH   8  39
ATOM     39  O   LIG d   1       7.264   0.643  -3.243  0.00  0.00    -0.420 OA
BRANCH  39  40
ATOM     40  C   LIG d   1       5.917   0.666  -3.161  0.00  0.00     0.380 C 
ATOM     41  O   LIG d   1       5.325   1.727  -3.175  0.00  0.00    -0.241 OA
BRANCH  40  42
ATOM     42  C   LIG d   1       5.169  -0.590  -3.056  0.00  0.00     0.212 A 
ATOM     43  O   LIG d   1       5.176  -1.595  -3.957  0.00  0.00    -0.456 OA
ATOM     44  C   LIG d   1       4.379  -2.582  -3.527  0.00  0.00     0.093 A 
ATOM     45  C   LIG d   1       3.838  -2.220  -2.342  0.00  0.00    -0.023 A 
ATOM     46  H   LIG d   1       4.196  -3.512  -4.044  0.00  0.00     0.103 H 
ATOM     47  C   LIG d   1       4.338  -0.946  -2.032  0.00  0.00    -0.009 A 
ATOM     48  H   LIG d   1       3.151  -2.802  -1.747  0.00  0.00     0.065 H 
ATOM     49  H   LIG d   1       4.109  -0.360  -1.154  0.00  0.00     0.066 H 
ENDBRANCH  40  42
ENDBRANCH  39  40
ENDBRANCH   8  39
TORSDOF 10
ENDMDL
