MODEL 1
REMARK VINA RESULT:      -6.3      0.000      0.000
REMARK  13 active torsions:
REMARK  status: ('A' for Active; 'I' for Inactive)
REMARK    1  A    between atoms: C_1  and  C_2 
REMARK    2  A    between atoms: C_3  and  C_4 
REMARK    3  A    between atoms: C_3  and  C_5 
REMARK    4  A    between atoms: C_5  and  O_7 
REMARK    5  A    between atoms: O_7  and  C_8 
REMARK    6  A    between atoms: C_22  and  C_24 
REMARK    7  A    between atoms: C_24  and  C_25 
REMARK    8  A    between atoms: C_24  and  C_26 
REMARK    9  A    between atoms: C_24  and  O_27 
REMARK   10  A    between atoms: O_27  and  C_28 
REMARK   11  A    between atoms: C_28  and  C_30 
REMARK   12  A    between atoms: C_30  and  C_33 
REMARK   13  A    between atoms: C_31  and  C_32 
ROOT
ATOM      1  C   LIG d   1       5.856  -1.452  -7.101  0.00  0.00     0.175 C 
ATOM      2  H   LIG d   1       6.567  -1.381  -7.924  0.00  0.00     0.083 H 
ATOM      3  C   LIG d   1       5.106  -2.770  -7.146  0.00  0.00     0.081 A 
ATOM      4  C   LIG d   1       5.115  -3.290  -5.860  0.00  0.00     0.132 A 
ATOM      5  C   LIG d   1       4.495  -4.520  -5.613  0.00  0.00    -0.019 A 
ATOM      6  C   LIG d   1       3.880  -5.206  -6.617  0.00  0.00    -0.048 A 
ATOM      7  C   LIG d   1       3.863  -4.684  -7.914  0.00  0.00     0.018 A 
ATOM      8  C   LIG d   1       4.486  -3.449  -8.179  0.00  0.00     0.149 A 
ATOM      9  O   LIG d   1       4.469  -2.945  -9.431  0.00  0.00    -0.422 OA
ATOM     10  C   LIG d   1       3.872  -3.597 -10.442  0.00  0.00     0.337 A 
ATOM     11  O   LIG d   1       3.886  -3.104 -11.555  0.00  0.00    -0.245 OA
ATOM     12  C   LIG d   1       3.229  -4.836 -10.248  0.00  0.00     0.024 A 
ATOM     13  C   LIG d   1       3.207  -5.398  -9.010  0.00  0.00    -0.044 A 
ATOM     14  O   LIG d   1       5.756  -2.455  -4.997  0.00  0.00    -0.480 OA
ATOM     15  C   LIG d   1       6.589  -1.549  -5.742  0.00  0.00     0.180 C 
ATOM     16  H   LIG d   1       7.590  -1.962  -5.871  0.00  0.00     0.082 H 
ATOM     17  H   LIG d   1       4.504  -4.931  -4.613  0.00  0.00     0.065 H 
ATOM     18  H   LIG d   1       3.406  -6.154  -6.410  0.00  0.00     0.063 H 
ATOM     19  H   LIG d   1       2.755  -5.337 -11.078  0.00  0.00     0.069 H 
ATOM     20  H   LIG d   1       2.720  -6.348  -8.841  0.00  0.00     0.063 H 
ENDROOT
BRANCH  15  21
ATOM     21  C   LIG d   1       6.650  -0.181  -5.060  0.00  0.00     0.149 C 
BRANCH  21  22
ATOM     22  C   LIG d   1       7.278  -0.330  -3.674  0.00  0.00    -0.021 C 
ATOM     23  H   LIG d   1       6.490  -0.435  -2.927  0.00  0.00     0.027 H 
ATOM     24  H   LIG d   1       7.915  -1.215  -3.656  0.00  0.00     0.027 H 
ATOM     25  H   LIG d   1       7.876   0.553  -3.448  0.00  0.00     0.027 H 
ENDBRANCH  21  22
BRANCH  21  26
ATOM     26  C   LIG d   1       7.498   0.773  -5.904  0.00  0.00    -0.021 C 
ATOM     27  H   LIG d   1       7.251   0.643  -6.958  0.00  0.00     0.027 H 
ATOM     28  H   LIG d   1       7.293   1.800  -5.606  0.00  0.00     0.027 H 
ATOM     29  H   LIG d   1       8.554   0.553  -5.749  0.00  0.00     0.027 H 
ENDBRANCH  21  26
BRANCH  21  30
ATOM     30  O   LIG d   1       5.328   0.345  -4.930  0.00  0.00    -0.452 OA
BRANCH  30  31
ATOM     31  C   LIG d   1       4.867   0.541  -3.679  0.00  0.00     0.335 C 
ATOM     32  O   LIG d   1       5.234   1.507  -3.040  0.00  0.00    -0.245 OA
BRANCH  31  33
ATOM     33  C   LIG d   1       3.920  -0.415  -3.087  0.00  0.00     0.029 C 
ATOM     34  C   LIG d   1       2.688  -0.523  -3.580  0.00  0.00    -0.077 C 
ATOM     35  H   LIG d   1       1.993  -1.225  -3.144  0.00  0.00     0.057 H 
BRANCH  34  36
ATOM     36  C   LIG d   1       2.266   0.332  -4.746  0.00  0.00    -0.046 C 
ATOM     37  H   LIG d   1       1.193   0.519  -4.691  0.00  0.00     0.027 H 
ATOM     38  H   LIG d   1       2.802   1.281  -4.714  0.00  0.00     0.027 H 
ATOM     39  H   LIG d   1       2.497  -0.184  -5.678  0.00  0.00     0.027 H 
ENDBRANCH  34  36
BRANCH  33  40
ATOM     40  C   LIG d   1       4.343  -1.270  -1.920  0.00  0.00    -0.033 C 
ATOM     41  H   LIG d   1       4.929  -2.115  -2.283  0.00  0.00     0.028 H 
ATOM     42  H   LIG d   1       4.947  -0.676  -1.235  0.00  0.00     0.028 H 
ATOM     43  H   LIG d   1       3.459  -1.637  -1.401  0.00  0.00     0.028 H 
ENDBRANCH  33  40
ENDBRANCH  31  33
ENDBRANCH  30  31
ENDBRANCH  21  30
ENDBRANCH  15  21
BRANCH   1  44
ATOM     44  O   LIG d   1       4.949  -0.348  -7.114  0.00  0.00    -0.449 OA
BRANCH  44  45
ATOM     45  C   LIG d   1       4.669   0.200  -8.314  0.00  0.00     0.335 C 
ATOM     46  O   LIG d   1       5.562   0.395  -9.116  0.00  0.00    -0.245 OA
BRANCH  45  47
ATOM     47  C   LIG d   1       3.286   0.561  -8.652  0.00  0.00     0.029 C 
ATOM     48  C   LIG d   1       2.999   1.798  -9.051  0.00  0.00    -0.077 C 
ATOM     49  H   LIG d   1       1.983   2.063  -9.299  0.00  0.00     0.057 H 
BRANCH  48  50
ATOM     50  C   LIG d   1       4.095   2.828  -9.157  0.00  0.00    -0.046 C 
ATOM     51  H   LIG d   1       3.673   3.774  -9.496  0.00  0.00     0.027 H 
ATOM     52  H   LIG d   1       4.559   2.966  -8.181  0.00  0.00     0.027 H 
ATOM     53  H   LIG d   1       4.845   2.488  -9.871  0.00  0.00     0.027 H 
ENDBRANCH  48  50
BRANCH  47  54
ATOM     54  C   LIG d   1       2.190  -0.469  -8.546  0.00  0.00    -0.033 C 
ATOM     55  H   LIG d   1       2.617  -1.421  -8.229  0.00  0.00     0.028 H 
ATOM     56  H   LIG d   1       1.452  -0.141  -7.815  0.00  0.00     0.028 H 
ATOM     57  H   LIG d   1       1.712  -0.591  -9.518  0.00  0.00     0.028 H 
ENDBRANCH  47  54
ENDBRANCH  45  47
ENDBRANCH  44  45
ENDBRANCH   1  44
TORSDOF 13
ENDMDL
MODEL 2
REMARK VINA RESULT:      -5.9      2.526      5.288
REMARK  13 active torsions:
REMARK  status: ('A' for Active; 'I' for Inactive)
REMARK    1  A    between atoms: C_1  and  C_2 
REMARK    2  A    between atoms: C_3  and  C_4 
REMARK    3  A    between atoms: C_3  and  C_5 
REMARK    4  A    between atoms: C_5  and  O_7 
REMARK    5  A    between atoms: O_7  and  C_8 
REMARK    6  A    between atoms: C_22  and  C_24 
REMARK    7  A    between atoms: C_24  and  C_25 
REMARK    8  A    between atoms: C_24  and  C_26 
REMARK    9  A    between atoms: C_24  and  O_27 
REMARK   10  A    between atoms: O_27  and  C_28 
REMARK   11  A    between atoms: C_28  and  C_30 
REMARK   12  A    between atoms: C_30  and  C_33 
REMARK   13  A    between atoms: C_31  and  C_32 
ROOT
ATOM      1  C   LIG d   1       5.366  -1.928  -6.453  0.00  0.00     0.175 C 
ATOM      2  H   LIG d   1       6.083  -1.124  -6.616  0.00  0.00     0.083 H 
ATOM      3  C   LIG d   1       4.364  -1.997  -7.589  0.00  0.00     0.081 A 
ATOM      4  C   LIG d   1       4.255  -3.330  -7.958  0.00  0.00     0.132 A 
ATOM      5  C   LIG d   1       3.396  -3.685  -9.004  0.00  0.00    -0.019 A 
ATOM      6  C   LIG d   1       2.662  -2.740  -9.657  0.00  0.00    -0.048 A 
ATOM      7  C   LIG d   1       2.763  -1.396  -9.285  0.00  0.00     0.018 A 
ATOM      8  C   LIG d   1       3.627  -1.023  -8.237  0.00  0.00     0.149 A 
ATOM      9  O   LIG d   1       3.724   0.275  -7.878  0.00  0.00    -0.422 OA
ATOM     10  C   LIG d   1       3.015   1.230  -8.501  0.00  0.00     0.337 A 
ATOM     11  O   LIG d   1       3.139   2.388  -8.145  0.00  0.00    -0.245 OA
ATOM     12  C   LIG d   1       2.132   0.927  -9.558  0.00  0.00     0.024 A 
ATOM     13  C   LIG d   1       1.985  -0.360  -9.967  0.00  0.00    -0.044 A 
ATOM     14  O   LIG d   1       5.045  -4.121  -7.182  0.00  0.00    -0.480 OA
ATOM     15  C   LIG d   1       6.052  -3.311  -6.548  0.00  0.00     0.180 C 
ATOM     16  H   LIG d   1       6.948  -3.256  -7.166  0.00  0.00     0.082 H 
ATOM     17  H   LIG d   1       3.313  -4.722  -9.298  0.00  0.00     0.065 H 
ATOM     18  H   LIG d   1       2.004  -3.030 -10.461  0.00  0.00     0.063 H 
ATOM     19  H   LIG d   1       1.573   1.715 -10.039  0.00  0.00     0.069 H 
ATOM     20  H   LIG d   1       1.314  -0.612 -10.774  0.00  0.00     0.063 H 
ENDROOT
BRANCH  15  21
ATOM     21  C   LIG d   1       6.385  -3.849  -5.155  0.00  0.00     0.149 C 
BRANCH  21  22
ATOM     22  C   LIG d   1       7.174  -2.795  -4.377  0.00  0.00    -0.021 C 
ATOM     23  H   LIG d   1       6.483  -2.087  -3.920  0.00  0.00     0.027 H 
ATOM     24  H   LIG d   1       7.762  -3.282  -3.599  0.00  0.00     0.027 H 
ATOM     25  H   LIG d   1       7.840  -2.263  -5.057  0.00  0.00     0.027 H 
ENDBRANCH  21  22
BRANCH  21  26
ATOM     26  C   LIG d   1       5.088  -4.169  -4.408  0.00  0.00    -0.021 C 
ATOM     27  H   LIG d   1       5.231  -3.994  -3.342  0.00  0.00     0.027 H 
ATOM     28  H   LIG d   1       4.288  -3.529  -4.779  0.00  0.00     0.027 H 
ATOM     29  H   LIG d   1       4.824  -5.214  -4.573  0.00  0.00     0.027 H 
ENDBRANCH  21  26
BRANCH  21  30
ATOM     30  O   LIG d   1       7.170  -5.036  -5.278  0.00  0.00    -0.452 OA
BRANCH  30  31
ATOM     31  C   LIG d   1       8.492  -4.923  -5.047  0.00  0.00     0.335 C 
ATOM     32  O   LIG d   1       9.206  -4.366  -5.858  0.00  0.00    -0.245 OA
BRANCH  31  33
ATOM     33  C   LIG d   1       9.073  -5.472  -3.814  0.00  0.00     0.029 C 
ATOM     34  C   LIG d   1       9.139  -6.790  -3.638  0.00  0.00    -0.077 C 
ATOM     35  H   LIG d   1       9.565  -7.193  -2.732  0.00  0.00     0.057 H 
BRANCH  34  36
ATOM     36  C   LIG d   1       8.620  -7.718  -4.705  0.00  0.00    -0.046 C 
ATOM     37  H   LIG d   1       7.882  -8.394  -4.272  0.00  0.00     0.027 H 
ATOM     38  H   LIG d   1       8.156  -7.135  -5.500  0.00  0.00     0.027 H 
ATOM     39  H   LIG d   1       9.446  -8.298  -5.115  0.00  0.00     0.027 H 
ENDBRANCH  34  36
BRANCH  33  40
ATOM     40  C   LIG d   1       9.592  -4.543  -2.746  0.00  0.00    -0.033 C 
ATOM     41  H   LIG d   1      10.682  -4.573  -2.738  0.00  0.00     0.028 H 
ATOM     42  H   LIG d   1       9.258  -3.527  -2.956  0.00  0.00     0.028 H 
ATOM     43  H   LIG d   1       9.212  -4.858  -1.775  0.00  0.00     0.028 H 
ENDBRANCH  33  40
ENDBRANCH  31  33
ENDBRANCH  30  31
ENDBRANCH  21  30
ENDBRANCH  15  21
BRANCH   1  44
ATOM     44  O   LIG d   1       4.703  -1.773  -5.197  0.00  0.00    -0.449 OA
BRANCH  44  45
ATOM     45  C   LIG d   1       4.552  -0.515  -4.736  0.00  0.00     0.335 C 
ATOM     46  O   LIG d   1       5.444   0.298  -4.886  0.00  0.00    -0.245 OA
BRANCH  45  47
ATOM     47  C   LIG d   1       3.312  -0.127  -4.050  0.00  0.00     0.029 C 
ATOM     48  C   LIG d   1       3.164  -0.375  -2.750  0.00  0.00    -0.077 C 
ATOM     49  H   LIG d   1       2.253  -0.090  -2.247  0.00  0.00     0.057 H 
BRANCH  48  50
ATOM     50  C   LIG d   1       4.269  -1.054  -1.982  0.00  0.00    -0.046 C 
ATOM     51  H   LIG d   1       4.076  -0.966  -0.914  0.00  0.00     0.027 H 
ATOM     52  H   LIG d   1       4.311  -2.107  -2.259  0.00  0.00     0.027 H 
ATOM     53  H   LIG d   1       5.221  -0.578  -2.220  0.00  0.00     0.027 H 
ENDBRANCH  48  50
BRANCH  47  54
ATOM     54  C   LIG d   1       2.207   0.552  -4.818  0.00  0.00    -0.033 C 
ATOM     55  H   LIG d   1       2.537   1.544  -5.126  0.00  0.00     0.028 H 
ATOM     56  H   LIG d   1       1.961  -0.040  -5.699  0.00  0.00     0.028 H 
ATOM     57  H   LIG d   1       1.326   0.643  -4.182  0.00  0.00     0.028 H 
ENDBRANCH  47  54
ENDBRANCH  45  47
ENDBRANCH  44  45
ENDBRANCH   1  44
TORSDOF 13
ENDMDL
MODEL 3
REMARK VINA RESULT:      -5.8      1.902      4.969
REMARK  13 active torsions:
REMARK  status: ('A' for Active; 'I' for Inactive)
REMARK    1  A    between atoms: C_1  and  C_2 
REMARK    2  A    between atoms: C_3  and  C_4 
REMARK    3  A    between atoms: C_3  and  C_5 
REMARK    4  A    between atoms: C_5  and  O_7 
REMARK    5  A    between atoms: O_7  and  C_8 
REMARK    6  A    between atoms: C_22  and  C_24 
REMARK    7  A    between atoms: C_24  and  C_25 
REMARK    8  A    between atoms: C_24  and  C_26 
REMARK    9  A    between atoms: C_24  and  O_27 
REMARK   10  A    between atoms: O_27  and  C_28 
REMARK   11  A    between atoms: C_28  and  C_30 
REMARK   12  A    between atoms: C_30  and  C_33 
REMARK   13  A    between atoms: C_31  and  C_32 
ROOT
ATOM      1  C   LIG d   1       5.266  -2.093  -6.549  0.00  0.00     0.175 C 
ATOM      2  H   LIG d   1       6.009  -1.309  -6.692  0.00  0.00     0.083 H 
ATOM      3  C   LIG d   1       4.251  -2.090  -7.677  0.00  0.00     0.081 A 
ATOM      4  C   LIG d   1       4.094  -3.406  -8.088  0.00  0.00     0.132 A 
ATOM      5  C   LIG d   1       3.213  -3.696  -9.136  0.00  0.00    -0.019 A 
ATOM      6  C   LIG d   1       2.506  -2.705  -9.750  0.00  0.00    -0.048 A 
ATOM      7  C   LIG d   1       2.656  -1.379  -9.334  0.00  0.00     0.018 A 
ATOM      8  C   LIG d   1       3.542  -1.070  -8.283  0.00  0.00     0.149 A 
ATOM      9  O   LIG d   1       3.686   0.210  -7.882  0.00  0.00    -0.422 OA
ATOM     10  C   LIG d   1       3.005   1.210  -8.466  0.00  0.00     0.337 A 
ATOM     11  O   LIG d   1       3.171   2.350  -8.073  0.00  0.00    -0.245 OA
ATOM     12  C   LIG d   1       2.102   0.973  -9.523  0.00  0.00     0.024 A 
ATOM     13  C   LIG d   1       1.908  -0.295  -9.973  0.00  0.00    -0.044 A 
ATOM     14  O   LIG d   1       4.864  -4.249  -7.347  0.00  0.00    -0.480 OA
ATOM     15  C   LIG d   1       5.903  -3.495  -6.698  0.00  0.00     0.180 C 
ATOM     16  H   LIG d   1       6.796  -3.449  -7.323  0.00  0.00     0.082 H 
ATOM     17  H   LIG d   1       3.092  -4.719  -9.464  0.00  0.00     0.065 H 
ATOM     18  H   LIG d   1       1.830  -2.945 -10.556  0.00  0.00     0.063 H 
ATOM     19  H   LIG d   1       1.566   1.795  -9.971  0.00  0.00     0.069 H 
ATOM     20  H   LIG d   1       1.220  -0.496 -10.781  0.00  0.00     0.063 H 
ENDROOT
BRANCH  15  21
ATOM     21  C   LIG d   1       6.231  -4.090  -5.327  0.00  0.00     0.149 C 
BRANCH  21  22
ATOM     22  C   LIG d   1       4.932  -4.361  -4.565  0.00  0.00    -0.021 C 
ATOM     23  H   LIG d   1       4.151  -4.649  -5.268  0.00  0.00     0.027 H 
ATOM     24  H   LIG d   1       5.092  -5.167  -3.849  0.00  0.00     0.027 H 
ATOM     25  H   LIG d   1       4.627  -3.459  -4.034  0.00  0.00     0.027 H 
ENDBRANCH  21  22
BRANCH  21  26
ATOM     26  C   LIG d   1       6.998  -5.401  -5.510  0.00  0.00    -0.021 C 
ATOM     27  H   LIG d   1       7.799  -5.459  -4.773  0.00  0.00     0.027 H 
ATOM     28  H   LIG d   1       6.317  -6.241  -5.373  0.00  0.00     0.027 H 
ATOM     29  H   LIG d   1       7.422  -5.437  -6.513  0.00  0.00     0.027 H 
ENDBRANCH  21  26
BRANCH  21  30
ATOM     30  O   LIG d   1       7.033  -3.168  -4.587  0.00  0.00    -0.452 OA
BRANCH  30  31
ATOM     31  C   LIG d   1       8.369  -3.342  -4.637  0.00  0.00     0.335 C 
ATOM     32  O   LIG d   1       8.939  -3.928  -3.737  0.00  0.00    -0.245 OA
BRANCH  31  33
ATOM     33  C   LIG d   1       9.137  -2.824  -5.777  0.00  0.00     0.029 C 
ATOM     34  C   LIG d   1       9.265  -1.510  -5.953  0.00  0.00    -0.077 C 
ATOM     35  H   LIG d   1       9.828  -1.131  -6.792  0.00  0.00     0.057 H 
BRANCH  34  36
ATOM     36  C   LIG d   1       8.623  -0.556  -4.980  0.00  0.00    -0.046 C 
ATOM     37  H   LIG d   1       8.730  -0.942  -3.967  0.00  0.00     0.027 H 
ATOM     38  H   LIG d   1       9.109   0.417  -5.051  0.00  0.00     0.027 H 
ATOM     39  H   LIG d   1       7.565  -0.450  -5.219  0.00  0.00     0.027 H 
ENDBRANCH  34  36
BRANCH  33  40
ATOM     40  C   LIG d   1       9.778  -3.780  -6.750  0.00  0.00    -0.033 C 
ATOM     41  H   LIG d   1       9.083  -4.590  -6.975  0.00  0.00     0.028 H 
ATOM     42  H   LIG d   1      10.026  -3.250  -7.670  0.00  0.00     0.028 H 
ATOM     43  H   LIG d   1      10.686  -4.191  -6.310  0.00  0.00     0.028 H 
ENDBRANCH  33  40
ENDBRANCH  31  33
ENDBRANCH  30  31
ENDBRANCH  21  30
ENDBRANCH  15  21
BRANCH   1  44
ATOM     44  O   LIG d   1       4.621  -1.958  -5.281  0.00  0.00    -0.449 OA
BRANCH  44  45
ATOM     45  C   LIG d   1       4.474  -0.708  -4.800  0.00  0.00     0.335 C 
ATOM     46  O   LIG d   1       5.349   0.118  -4.975  0.00  0.00    -0.245 OA
BRANCH  45  47
ATOM     47  C   LIG d   1       3.258  -0.343  -4.061  0.00  0.00     0.029 C 
ATOM     48  C   LIG d   1       3.152  -0.633  -2.766  0.00  0.00    -0.077 C 
ATOM     49  H   LIG d   1       2.258  -0.364  -2.224  0.00  0.00     0.057 H 
BRANCH  48  50
ATOM     50  C   LIG d   1       4.281  -1.336  -2.057  0.00  0.00    -0.046 C 
ATOM     51  H   LIG d   1       3.873  -2.056  -1.350  0.00  0.00     0.027 H 
ATOM     52  H   LIG d   1       4.902  -1.854  -2.788  0.00  0.00     0.027 H 
ATOM     53  H   LIG d   1       4.886  -0.603  -1.522  0.00  0.00     0.027 H 
ENDBRANCH  48  50
BRANCH  47  54
ATOM     54  C   LIG d   1       2.128   0.361  -4.770  0.00  0.00    -0.033 C 
ATOM     55  H   LIG d   1       1.190   0.147  -4.258  0.00  0.00     0.028 H 
ATOM     56  H   LIG d   1       2.309   1.435  -4.765  0.00  0.00     0.028 H 
ATOM     57  H   LIG d   1       2.070   0.006  -5.799  0.00  0.00     0.028 H 
ENDBRANCH  47  54
ENDBRANCH  45  47
ENDBRANCH  44  45
ENDBRANCH   1  44
TORSDOF 13
ENDMDL
MODEL 4
REMARK VINA RESULT:      -5.8      2.136      4.448
REMARK  13 active torsions:
REMARK  status: ('A' for Active; 'I' for Inactive)
REMARK    1  A    between atoms: C_1  and  C_2 
REMARK    2  A    between atoms: C_3  and  C_4 
REMARK    3  A    between atoms: C_3  and  C_5 
REMARK    4  A    between atoms: C_5  and  O_7 
REMARK    5  A    between atoms: O_7  and  C_8 
REMARK    6  A    between atoms: C_22  and  C_24 
REMARK    7  A    between atoms: C_24  and  C_25 
REMARK    8  A    between atoms: C_24  and  C_26 
REMARK    9  A    between atoms: C_24  and  O_27 
REMARK   10  A    between atoms: O_27  and  C_28 
REMARK   11  A    between atoms: C_28  and  C_30 
REMARK   12  A    between atoms: C_30  and  C_33 
REMARK   13  A    between atoms: C_31  and  C_32 
ROOT
ATOM      1  C   LIG d   1       3.993  -0.869  -6.797  0.00  0.00     0.175 C 
ATOM      2  H   LIG d   1       3.673  -1.894  -6.983  0.00  0.00     0.083 H 
ATOM      3  C   LIG d   1       3.744   0.005  -8.011  0.00  0.00     0.081 A 
ATOM      4  C   LIG d   1       3.146   1.173  -7.559  0.00  0.00     0.132 A 
ATOM      5  C   LIG d   1       2.793   2.165  -8.480  0.00  0.00    -0.019 A 
ATOM      6  C   LIG d   1       3.035   1.999  -9.812  0.00  0.00    -0.048 A 
ATOM      7  C   LIG d   1       3.643   0.827 -10.272  0.00  0.00     0.018 A 
ATOM      8  C   LIG d   1       4.001  -0.181  -9.357  0.00  0.00     0.149 A 
ATOM      9  O   LIG d   1       4.588  -1.313  -9.802  0.00  0.00    -0.422 OA
ATOM     10  C   LIG d   1       4.839  -1.506 -11.106  0.00  0.00     0.337 A 
ATOM     11  O   LIG d   1       5.368  -2.545 -11.460  0.00  0.00    -0.245 OA
ATOM     12  C   LIG d   1       4.509  -0.538 -12.077  0.00  0.00     0.024 A 
ATOM     13  C   LIG d   1       3.918   0.625 -11.695  0.00  0.00    -0.044 A 
ATOM     14  O   LIG d   1       3.006   1.161  -6.205  0.00  0.00    -0.480 OA
ATOM     15  C   LIG d   1       3.099  -0.194  -5.730  0.00  0.00     0.180 C 
ATOM     16  H   LIG d   1       2.114  -0.661  -5.699  0.00  0.00     0.082 H 
ATOM     17  H   LIG d   1       2.322   3.073  -8.133  0.00  0.00     0.065 H 
ATOM     18  H   LIG d   1       2.757   2.774 -10.510  0.00  0.00     0.063 H 
ATOM     19  H   LIG d   1       4.725  -0.720 -13.118  0.00  0.00     0.069 H 
ATOM     20  H   LIG d   1       3.656   1.378 -12.424  0.00  0.00     0.063 H 
ENDROOT
BRANCH  15  21
ATOM     21  C   LIG d   1       3.766  -0.243  -4.354  0.00  0.00     0.149 C 
BRANCH  21  22
ATOM     22  C   LIG d   1       2.788   0.267  -3.294  0.00  0.00    -0.021 C 
ATOM     23  H   LIG d   1       1.994   0.837  -3.777  0.00  0.00     0.027 H 
ATOM     24  H   LIG d   1       2.354  -0.580  -2.762  0.00  0.00     0.027 H 
ATOM     25  H   LIG d   1       3.317   0.907  -2.588  0.00  0.00     0.027 H 
ENDBRANCH  21  22
BRANCH  21  26
ATOM     26  C   LIG d   1       4.164  -1.685  -4.030  0.00  0.00    -0.021 C 
ATOM     27  H   LIG d   1       5.006  -1.682  -3.338  0.00  0.00     0.027 H 
ATOM     28  H   LIG d   1       3.319  -2.199  -3.573  0.00  0.00     0.027 H 
ATOM     29  H   LIG d   1       4.448  -2.197  -4.948  0.00  0.00     0.027 H 
ENDBRANCH  21  26
BRANCH  21  30
ATOM     30  O   LIG d   1       4.932   0.582  -4.361  0.00  0.00    -0.452 OA
BRANCH  30  31
ATOM     31  C   LIG d   1       5.756   0.488  -3.298  0.00  0.00     0.335 C 
ATOM     32  O   LIG d   1       5.418   0.947  -2.224  0.00  0.00    -0.245 OA
BRANCH  31  33
ATOM     33  C   LIG d   1       7.063  -0.170  -3.437  0.00  0.00     0.029 C 
ATOM     34  C   LIG d   1       8.108   0.515  -3.895  0.00  0.00    -0.077 C 
ATOM     35  H   LIG d   1       9.067   0.031  -3.997  0.00  0.00     0.057 H 
BRANCH  34  36
ATOM     36  C   LIG d   1       7.952   1.966  -4.270  0.00  0.00    -0.046 C 
ATOM     37  H   LIG d   1       6.958   2.311  -3.983  0.00  0.00     0.027 H 
ATOM     38  H   LIG d   1       8.706   2.559  -3.752  0.00  0.00     0.027 H 
ATOM     39  H   LIG d   1       8.078   2.078  -5.347  0.00  0.00     0.027 H 
ENDBRANCH  34  36
BRANCH  33  40
ATOM     40  C   LIG d   1       7.219  -1.621  -3.062  0.00  0.00    -0.033 C 
ATOM     41  H   LIG d   1       8.279  -1.865  -2.988  0.00  0.00     0.028 H 
ATOM     42  H   LIG d   1       6.737  -1.803  -2.102  0.00  0.00     0.028 H 
ATOM     43  H   LIG d   1       6.755  -2.245  -3.826  0.00  0.00     0.028 H 
ENDBRANCH  33  40
ENDBRANCH  31  33
ENDBRANCH  30  31
ENDBRANCH  21  30
ENDBRANCH  15  21
BRANCH   1  44
ATOM     44  O   LIG d   1       5.368  -0.827  -6.411  0.00  0.00    -0.449 OA
BRANCH  44  45
ATOM     45  C   LIG d   1       6.162  -1.817  -6.865  0.00  0.00     0.335 C 
ATOM     46  O   LIG d   1       5.669  -2.845  -7.287  0.00  0.00    -0.245 OA
BRANCH  45  47
ATOM     47  C   LIG d   1       7.622  -1.656  -6.848  0.00  0.00     0.029 C 
ATOM     48  C   LIG d   1       8.180  -0.583  -7.407  0.00  0.00    -0.077 C 
ATOM     49  H   LIG d   1       9.253  -0.465  -7.394  0.00  0.00     0.057 H 
BRANCH  48  50
ATOM     50  C   LIG d   1       7.313   0.465  -8.055  0.00  0.00    -0.046 C 
ATOM     51  H   LIG d   1       6.407   0.603  -7.466  0.00  0.00     0.027 H 
ATOM     52  H   LIG d   1       7.860   1.407  -8.108  0.00  0.00     0.027 H 
ATOM     53  H   LIG d   1       7.046   0.143  -9.062  0.00  0.00     0.027 H 
ENDBRANCH  48  50
BRANCH  47  54
ATOM     54  C   LIG d   1       8.489  -2.704  -6.200  0.00  0.00    -0.033 C 
ATOM     55  H   LIG d   1       9.519  -2.351  -6.163  0.00  0.00     0.028 H 
ATOM     56  H   LIG d   1       8.133  -2.895  -5.188  0.00  0.00     0.028 H 
ATOM     57  H   LIG d   1       8.441  -3.625  -6.782  0.00  0.00     0.028 H 
ENDBRANCH  47  54
ENDBRANCH  45  47
ENDBRANCH  44  45
ENDBRANCH   1  44
TORSDOF 13
ENDMDL
MODEL 5
REMARK VINA RESULT:      -5.8      1.795      4.113
REMARK  13 active torsions:
REMARK  status: ('A' for Active; 'I' for Inactive)
REMARK    1  A    between atoms: C_1  and  C_2 
REMARK    2  A    between atoms: C_3  and  C_4 
REMARK    3  A    between atoms: C_3  and  C_5 
REMARK    4  A    between atoms: C_5  and  O_7 
REMARK    5  A    between atoms: O_7  and  C_8 
REMARK    6  A    between atoms: C_22  and  C_24 
REMARK    7  A    between atoms: C_24  and  C_25 
REMARK    8  A    between atoms: C_24  and  C_26 
REMARK    9  A    between atoms: C_24  and  O_27 
REMARK   10  A    between atoms: O_27  and  C_28 
REMARK   11  A    between atoms: C_28  and  C_30 
REMARK   12  A    between atoms: C_30  and  C_33 
REMARK   13  A    between atoms: C_31  and  C_32 
ROOT
ATOM      1  C   LIG d   1       4.303  -2.111  -7.256  0.00  0.00     0.175 C 
ATOM      2  H   LIG d   1       3.740  -2.981  -6.919  0.00  0.00     0.083 H 
ATOM      3  C   LIG d   1       3.475  -1.264  -8.203  0.00  0.00     0.081 A 
ATOM      4  C   LIG d   1       3.612   0.055  -7.798  0.00  0.00     0.132 A 
ATOM      5  C   LIG d   1       2.938   1.062  -8.499  0.00  0.00    -0.019 A 
ATOM      6  C   LIG d   1       2.156   0.761  -9.575  0.00  0.00    -0.048 A 
ATOM      7  C   LIG d   1       2.020  -0.567  -9.990  0.00  0.00     0.018 A 
ATOM      8  C   LIG d   1       2.689  -1.591  -9.293  0.00  0.00     0.149 A 
ATOM      9  O   LIG d   1       2.558  -2.873  -9.696  0.00  0.00    -0.422 OA
ATOM     10  C   LIG d   1       1.795  -3.202 -10.751  0.00  0.00     0.337 A 
ATOM     11  O   LIG d   1       1.704  -4.372 -11.074  0.00  0.00    -0.245 OA
ATOM     12  C   LIG d   1       1.098  -2.228 -11.494  0.00  0.00     0.024 A 
ATOM     13  C   LIG d   1       1.190  -0.918 -11.144  0.00  0.00    -0.044 A 
ATOM     14  O   LIG d   1       4.443   0.157  -6.725  0.00  0.00    -0.480 OA
ATOM     15  C   LIG d   1       4.555  -1.128  -6.088  0.00  0.00     0.180 C 
ATOM     16  H   LIG d   1       3.794  -1.243  -5.315  0.00  0.00     0.082 H 
ATOM     17  H   LIG d   1       3.037   2.091  -8.183  0.00  0.00     0.065 H 
ATOM     18  H   LIG d   1       1.643   1.549 -10.104  0.00  0.00     0.063 H 
ATOM     19  H   LIG d   1       0.494  -2.521 -12.339  0.00  0.00     0.069 H 
ATOM     20  H   LIG d   1       0.663  -0.157 -11.701  0.00  0.00     0.063 H 
ENDROOT
BRANCH  15  21
ATOM     21  C   LIG d   1       5.955  -1.326  -5.505  0.00  0.00     0.149 C 
BRANCH  21  22
ATOM     22  C   LIG d   1       6.147  -2.796  -5.127  0.00  0.00    -0.021 C 
ATOM     23  H   LIG d   1       5.567  -3.424  -5.803  0.00  0.00     0.027 H 
ATOM     24  H   LIG d   1       7.203  -3.057  -5.204  0.00  0.00     0.027 H 
ATOM     25  H   LIG d   1       5.808  -2.956  -4.103  0.00  0.00     0.027 H 
ENDBRANCH  21  22
BRANCH  21  26
ATOM     26  C   LIG d   1       7.003  -0.926  -6.546  0.00  0.00    -0.021 C 
ATOM     27  H   LIG d   1       7.671  -1.767  -6.729  0.00  0.00     0.027 H 
ATOM     28  H   LIG d   1       6.504  -0.648  -7.473  0.00  0.00     0.027 H 
ATOM     29  H   LIG d   1       7.578  -0.078  -6.173  0.00  0.00     0.027 H 
ENDBRANCH  21  26
BRANCH  21  30
ATOM     30  O   LIG d   1       6.105  -0.512  -4.340  0.00  0.00    -0.452 OA
BRANCH  30  31
ATOM     31  C   LIG d   1       5.931  -1.113  -3.146  0.00  0.00     0.335 C 
ATOM     32  O   LIG d   1       6.868  -1.665  -2.602  0.00  0.00    -0.245 OA
BRANCH  31  33
ATOM     33  C   LIG d   1       4.611  -1.100  -2.502  0.00  0.00     0.029 C 
ATOM     34  C   LIG d   1       4.135   0.030  -1.982  0.00  0.00    -0.077 C 
ATOM     35  H   LIG d   1       3.165   0.038  -1.508  0.00  0.00     0.057 H 
BRANCH  34  36
ATOM     36  C   LIG d   1       4.949   1.294  -2.056  0.00  0.00    -0.046 C 
ATOM     37  H   LIG d   1       5.775   1.156  -2.754  0.00  0.00     0.027 H 
ATOM     38  H   LIG d   1       4.318   2.115  -2.398  0.00  0.00     0.027 H 
ATOM     39  H   LIG d   1       5.345   1.529  -1.068  0.00  0.00     0.027 H 
ENDBRANCH  34  36
BRANCH  33  40
ATOM     40  C   LIG d   1       3.796  -2.365  -2.428  0.00  0.00    -0.033 C 
ATOM     41  H   LIG d   1       3.208  -2.365  -1.510  0.00  0.00     0.028 H 
ATOM     42  H   LIG d   1       3.129  -2.419  -3.287  0.00  0.00     0.028 H 
ATOM     43  H   LIG d   1       4.463  -3.227  -2.431  0.00  0.00     0.028 H 
ENDBRANCH  33  40
ENDBRANCH  31  33
ENDBRANCH  30  31
ENDBRANCH  21  30
ENDBRANCH  15  21
BRANCH   1  44
ATOM     44  O   LIG d   1       5.533  -2.505  -7.865  0.00  0.00    -0.449 OA
BRANCH  44  45
ATOM     45  C   LIG d   1       5.514  -3.624  -8.616  0.00  0.00     0.335 C 
ATOM     46  O   LIG d   1       5.666  -3.551  -9.820  0.00  0.00    -0.245 OA
BRANCH  45  47
ATOM     47  C   LIG d   1       5.307  -4.933  -7.980  0.00  0.00     0.029 C 
ATOM     48  C   LIG d   1       6.348  -5.617  -7.510  0.00  0.00    -0.077 C 
ATOM     49  H   LIG d   1       6.195  -6.578  -7.043  0.00  0.00     0.057 H 
BRANCH  48  50
ATOM     50  C   LIG d   1       7.739  -5.049  -7.631  0.00  0.00    -0.046 C 
ATOM     51  H   LIG d   1       8.141  -4.859  -6.636  0.00  0.00     0.027 H 
ATOM     52  H   LIG d   1       8.378  -5.761  -8.152  0.00  0.00     0.027 H 
ATOM     53  H   LIG d   1       7.702  -4.115  -8.192  0.00  0.00     0.027 H 
ENDBRANCH  48  50
BRANCH  47  54
ATOM     54  C   LIG d   1       3.916  -5.500  -7.860  0.00  0.00    -0.033 C 
ATOM     55  H   LIG d   1       3.959  -6.586  -7.948  0.00  0.00     0.028 H 
ATOM     56  H   LIG d   1       3.495  -5.231  -6.891  0.00  0.00     0.028 H 
ATOM     57  H   LIG d   1       3.289  -5.096  -8.654  0.00  0.00     0.028 H 
ENDBRANCH  47  54
ENDBRANCH  45  47
ENDBRANCH  44  45
ENDBRANCH   1  44
TORSDOF 13
ENDMDL
MODEL 6
REMARK VINA RESULT:      -5.8      1.676      5.845
REMARK  13 active torsions:
REMARK  status: ('A' for Active; 'I' for Inactive)
REMARK    1  A    between atoms: C_1  and  C_2 
REMARK    2  A    between atoms: C_3  and  C_4 
REMARK    3  A    between atoms: C_3  and  C_5 
REMARK    4  A    between atoms: C_5  and  O_7 
REMARK    5  A    between atoms: O_7  and  C_8 
REMARK    6  A    between atoms: C_22  and  C_24 
REMARK    7  A    between atoms: C_24  and  C_25 
REMARK    8  A    between atoms: C_24  and  C_26 
REMARK    9  A    between atoms: C_24  and  O_27 
REMARK   10  A    between atoms: O_27  and  C_28 
REMARK   11  A    between atoms: C_28  and  C_30 
REMARK   12  A    between atoms: C_30  and  C_33 
REMARK   13  A    between atoms: C_31  and  C_32 
ROOT
ATOM      1  C   LIG d   1       4.676  -1.324  -7.163  0.00  0.00     0.175 C 
ATOM      2  H   LIG d   1       3.872  -0.629  -7.405  0.00  0.00     0.083 H 
ATOM      3  C   LIG d   1       4.585  -1.773  -5.717  0.00  0.00     0.081 A 
ATOM      4  C   LIG d   1       4.746  -3.151  -5.705  0.00  0.00     0.132 A 
ATOM      5  C   LIG d   1       4.695  -3.838  -4.487  0.00  0.00    -0.019 A 
ATOM      6  C   LIG d   1       4.497  -3.169  -3.316  0.00  0.00    -0.048 A 
ATOM      7  C   LIG d   1       4.341  -1.780  -3.321  0.00  0.00     0.018 A 
ATOM      8  C   LIG d   1       4.386  -1.075  -4.540  0.00  0.00     0.149 A 
ATOM      9  O   LIG d   1       4.236   0.266  -4.544  0.00  0.00    -0.422 OA
ATOM     10  C   LIG d   1       4.039   0.954  -3.408  0.00  0.00     0.337 A 
ATOM     11  O   LIG d   1       3.905   2.163  -3.462  0.00  0.00    -0.245 OA
ATOM     12  C   LIG d   1       3.984   0.313  -2.154  0.00  0.00     0.024 A 
ATOM     13  C   LIG d   1       4.131  -1.036  -2.078  0.00  0.00    -0.044 A 
ATOM     14  O   LIG d   1       4.951  -3.632  -6.962  0.00  0.00    -0.480 OA
ATOM     15  C   LIG d   1       4.501  -2.660  -7.923  0.00  0.00     0.180 C 
ATOM     16  H   LIG d   1       3.454  -2.826  -8.178  0.00  0.00     0.082 H 
ATOM     17  H   LIG d   1       4.813  -4.912  -4.475  0.00  0.00     0.065 H 
ATOM     18  H   LIG d   1       4.461  -3.713  -2.385  0.00  0.00     0.063 H 
ATOM     19  H   LIG d   1       3.827   0.892  -1.256  0.00  0.00     0.069 H 
ATOM     20  H   LIG d   1       4.091  -1.546  -1.127  0.00  0.00     0.063 H 
ENDROOT
BRANCH  15  21
ATOM     21  C   LIG d   1       5.376  -2.690  -9.177  0.00  0.00     0.149 C 
BRANCH  21  22
ATOM     22  C   LIG d   1       6.847  -2.802  -8.770  0.00  0.00    -0.021 C 
ATOM     23  H   LIG d   1       7.475  -2.744  -9.658  0.00  0.00     0.027 H 
ATOM     24  H   LIG d   1       7.100  -1.986  -8.092  0.00  0.00     0.027 H 
ATOM     25  H   LIG d   1       7.014  -3.756  -8.269  0.00  0.00     0.027 H 
ENDBRANCH  21  22
BRANCH  21  26
ATOM     26  C   LIG d   1       4.993  -3.894 -10.039  0.00  0.00    -0.021 C 
ATOM     27  H   LIG d   1       4.786  -3.561 -11.056  0.00  0.00     0.027 H 
ATOM     28  H   LIG d   1       5.815  -4.609 -10.050  0.00  0.00     0.027 H 
ATOM     29  H   LIG d   1       4.103  -4.369  -9.624  0.00  0.00     0.027 H 
ENDBRANCH  21  26
BRANCH  21  30
ATOM     30  O   LIG d   1       5.179  -1.488  -9.923  0.00  0.00    -0.452 OA
BRANCH  30  31
ATOM     31  C   LIG d   1       4.149  -1.468 -10.792  0.00  0.00     0.335 C 
ATOM     32  O   LIG d   1       4.276  -1.955 -11.898  0.00  0.00    -0.245 OA
BRANCH  31  33
ATOM     33  C   LIG d   1       2.870  -0.857 -10.402  0.00  0.00     0.029 C 
ATOM     34  C   LIG d   1       2.729   0.467 -10.428  0.00  0.00    -0.077 C 
ATOM     35  H   LIG d   1       1.790   0.915 -10.141  0.00  0.00     0.057 H 
BRANCH  34  36
ATOM     36  C   LIG d   1       3.880   1.338 -10.859  0.00  0.00    -0.046 C 
ATOM     37  H   LIG d   1       4.466   1.625  -9.986  0.00  0.00     0.027 H 
ATOM     38  H   LIG d   1       4.512   0.787 -11.556  0.00  0.00     0.027 H 
ATOM     39  H   LIG d   1       3.495   2.233 -11.348  0.00  0.00     0.027 H 
ENDBRANCH  34  36
BRANCH  33  40
ATOM     40  C   LIG d   1       1.719  -1.729  -9.970  0.00  0.00    -0.033 C 
ATOM     41  H   LIG d   1       1.142  -2.027 -10.845  0.00  0.00     0.028 H 
ATOM     42  H   LIG d   1       2.104  -2.617  -9.469  0.00  0.00     0.028 H 
ATOM     43  H   LIG d   1       1.080  -1.173  -9.285  0.00  0.00     0.028 H 
ENDBRANCH  33  40
ENDBRANCH  31  33
ENDBRANCH  30  31
ENDBRANCH  21  30
ENDBRANCH  15  21
BRANCH   1  44
ATOM     44  O   LIG d   1       5.952  -0.744  -7.439  0.00  0.00    -0.449 OA
BRANCH  44  45
ATOM     45  C   LIG d   1       5.986   0.586  -7.653  0.00  0.00     0.335 C 
ATOM     46  O   LIG d   1       4.948   1.212  -7.756  0.00  0.00    -0.245 OA
BRANCH  45  47
ATOM     47  C   LIG d   1       7.276   1.281  -7.764  0.00  0.00     0.029 C 
ATOM     48  C   LIG d   1       8.035   1.452  -6.684  0.00  0.00    -0.077 C 
ATOM     49  H   LIG d   1       8.982   1.963  -6.765  0.00  0.00     0.057 H 
BRANCH  48  50
ATOM     50  C   LIG d   1       7.571   0.934  -5.347  0.00  0.00    -0.046 C 
ATOM     51  H   LIG d   1       8.055   1.497  -4.550  0.00  0.00     0.027 H 
ATOM     52  H   LIG d   1       6.490   1.049  -5.268  0.00  0.00     0.027 H 
ATOM     53  H   LIG d   1       7.831  -0.121  -5.257  0.00  0.00     0.027 H 
ENDBRANCH  48  50
BRANCH  47  54
ATOM     54  C   LIG d   1       7.740   1.799  -9.101  0.00  0.00    -0.033 C 
ATOM     55  H   LIG d   1       8.639   2.401  -8.964  0.00  0.00     0.028 H 
ATOM     56  H   LIG d   1       7.961   0.960  -9.759  0.00  0.00     0.028 H 
ATOM     57  H   LIG d   1       6.956   2.413  -9.544  0.00  0.00     0.028 H 
ENDBRANCH  47  54
ENDBRANCH  45  47
ENDBRANCH  44  45
ENDBRANCH   1  44
TORSDOF 13
ENDMDL
MODEL 7
REMARK VINA RESULT:      -5.7      1.832      6.038
REMARK  13 active torsions:
REMARK  status: ('A' for Active; 'I' for Inactive)
REMARK    1  A    between atoms: C_1  and  C_2 
REMARK    2  A    between atoms: C_3  and  C_4 
REMARK    3  A    between atoms: C_3  and  C_5 
REMARK    4  A    between atoms: C_5  and  O_7 
REMARK    5  A    between atoms: O_7  and  C_8 
REMARK    6  A    between atoms: C_22  and  C_24 
REMARK    7  A    between atoms: C_24  and  C_25 
REMARK    8  A    between atoms: C_24  and  C_26 
REMARK    9  A    between atoms: C_24  and  O_27 
REMARK   10  A    between atoms: O_27  and  C_28 
REMARK   11  A    between atoms: C_28  and  C_30 
REMARK   12  A    between atoms: C_30  and  C_33 
REMARK   13  A    between atoms: C_31  and  C_32 
ROOT
ATOM      1  C   LIG d   1       4.123  -1.567  -6.889  0.00  0.00     0.175 C 
ATOM      2  H   LIG d   1       3.045  -1.430  -6.811  0.00  0.00     0.083 H 
ATOM      3  C   LIG d   1       4.786  -1.434  -5.532  0.00  0.00     0.081 A 
ATOM      4  C   LIG d   1       5.671  -2.494  -5.403  0.00  0.00     0.132 A 
ATOM      5  C   LIG d   1       6.419  -2.625  -4.228  0.00  0.00    -0.019 A 
ATOM      6  C   LIG d   1       6.292  -1.721  -3.215  0.00  0.00    -0.048 A 
ATOM      7  C   LIG d   1       5.406  -0.648  -3.342  0.00  0.00     0.018 A 
ATOM      8  C   LIG d   1       4.644  -0.505  -4.517  0.00  0.00     0.149 A 
ATOM      9  O   LIG d   1       3.789   0.533  -4.640  0.00  0.00    -0.422 OA
ATOM     10  C   LIG d   1       3.641   1.439  -3.660  0.00  0.00     0.337 A 
ATOM     11  O   LIG d   1       2.854   2.356  -3.815  0.00  0.00    -0.245 OA
ATOM     12  C   LIG d   1       4.372   1.358  -2.458  0.00  0.00     0.024 A 
ATOM     13  C   LIG d   1       5.253   0.339  -2.271  0.00  0.00    -0.044 A 
ATOM     14  O   LIG d   1       5.672  -3.272  -6.520  0.00  0.00    -0.480 OA
ATOM     15  C   LIG d   1       4.470  -3.025  -7.272  0.00  0.00     0.180 C 
ATOM     16  H   LIG d   1       3.675  -3.705  -6.964  0.00  0.00     0.082 H 
ATOM     17  H   LIG d   1       7.105  -3.453  -4.121  0.00  0.00     0.065 H 
ATOM     18  H   LIG d   1       6.877  -1.836  -2.314  0.00  0.00     0.063 H 
ATOM     19  H   LIG d   1       4.235   2.102  -1.689  0.00  0.00     0.069 H 
ATOM     20  H   LIG d   1       5.822   0.259  -1.357  0.00  0.00     0.063 H 
ENDROOT
BRANCH  15  21
ATOM     21  C   LIG d   1       4.735  -3.143  -8.774  0.00  0.00     0.149 C 
BRANCH  21  22
ATOM     22  C   LIG d   1       6.050  -2.441  -9.117  0.00  0.00    -0.021 C 
ATOM     23  H   LIG d   1       5.837  -1.483  -9.591  0.00  0.00     0.027 H 
ATOM     24  H   LIG d   1       6.623  -2.276  -8.204  0.00  0.00     0.027 H 
ATOM     25  H   LIG d   1       6.627  -3.064  -9.801  0.00  0.00     0.027 H 
ENDBRANCH  21  22
BRANCH  21  26
ATOM     26  C   LIG d   1       4.830  -4.621  -9.161  0.00  0.00    -0.021 C 
ATOM     27  H   LIG d   1       5.284  -5.182  -8.344  0.00  0.00     0.027 H 
ATOM     28  H   LIG d   1       3.831  -5.009  -9.357  0.00  0.00     0.027 H 
ATOM     29  H   LIG d   1       5.442  -4.722 -10.057  0.00  0.00     0.027 H 
ENDBRANCH  21  26
BRANCH  21  30
ATOM     30  O   LIG d   1       3.665  -2.530  -9.495  0.00  0.00    -0.452 OA
BRANCH  30  31
ATOM     31  C   LIG d   1       3.801  -2.441 -10.833  0.00  0.00     0.335 C 
ATOM     32  O   LIG d   1       3.945  -3.448 -11.498  0.00  0.00    -0.245 OA
BRANCH  31  33
ATOM     33  C   LIG d   1       3.774  -1.126 -11.490  0.00  0.00     0.029 C 
ATOM     34  C   LIG d   1       2.614  -0.498 -11.673  0.00  0.00    -0.077 C 
ATOM     35  H   LIG d   1       2.595   0.468 -12.156  0.00  0.00     0.057 H 
BRANCH  34  36
ATOM     36  C   LIG d   1       1.331  -1.134 -11.206  0.00  0.00    -0.046 C 
ATOM     37  H   LIG d   1       0.489  -0.679 -11.728  0.00  0.00     0.027 H 
ATOM     38  H   LIG d   1       1.356  -2.202 -11.419  0.00  0.00     0.027 H 
ATOM     39  H   LIG d   1       1.219  -0.980 -10.133  0.00  0.00     0.027 H 
ENDBRANCH  34  36
BRANCH  33  40
ATOM     40  C   LIG d   1       5.057  -0.491 -11.957  0.00  0.00    -0.033 C 
ATOM     41  H   LIG d   1       5.106   0.537 -11.595  0.00  0.00     0.028 H 
ATOM     42  H   LIG d   1       5.905  -1.053 -11.566  0.00  0.00     0.028 H 
ATOM     43  H   LIG d   1       5.089  -0.495 -13.046  0.00  0.00     0.028 H 
ENDBRANCH  33  40
ENDBRANCH  31  33
ENDBRANCH  30  31
ENDBRANCH  21  30
ENDBRANCH  15  21
BRANCH   1  44
ATOM     44  O   LIG d   1       4.686  -0.646  -7.825  0.00  0.00    -0.449 OA
BRANCH  44  45
ATOM     45  C   LIG d   1       3.975   0.467  -8.092  0.00  0.00     0.335 C 
ATOM     46  O   LIG d   1       2.844   0.584  -7.661  0.00  0.00    -0.245 OA
BRANCH  45  47
ATOM     47  C   LIG d   1       4.564   1.539  -8.906  0.00  0.00     0.029 C 
ATOM     48  C   LIG d   1       5.870   1.789  -8.834  0.00  0.00    -0.077 C 
ATOM     49  H   LIG d   1       6.303   2.577  -9.431  0.00  0.00     0.057 H 
BRANCH  48  50
ATOM     50  C   LIG d   1       6.744   0.971  -7.918  0.00  0.00    -0.046 C 
ATOM     51  H   LIG d   1       7.547   0.513  -8.495  0.00  0.00     0.027 H 
ATOM     52  H   LIG d   1       7.170   1.616  -7.150  0.00  0.00     0.027 H 
ATOM     53  H   LIG d   1       6.145   0.191  -7.446  0.00  0.00     0.027 H 
ENDBRANCH  48  50
BRANCH  47  54
ATOM     54  C   LIG d   1       3.691   2.357  -9.822  0.00  0.00    -0.033 C 
ATOM     55  H   LIG d   1       4.294   2.758 -10.636  0.00  0.00     0.028 H 
ATOM     56  H   LIG d   1       2.901   1.727 -10.230  0.00  0.00     0.028 H 
ATOM     57  H   LIG d   1       3.246   3.180  -9.260  0.00  0.00     0.028 H 
ENDBRANCH  47  54
ENDBRANCH  45  47
ENDBRANCH  44  45
ENDBRANCH   1  44
TORSDOF 13
ENDMDL
MODEL 8
REMARK VINA RESULT:      -5.7      2.678      5.224
REMARK  13 active torsions:
REMARK  status: ('A' for Active; 'I' for Inactive)
REMARK    1  A    between atoms: C_1  and  C_2 
REMARK    2  A    between atoms: C_3  and  C_4 
REMARK    3  A    between atoms: C_3  and  C_5 
REMARK    4  A    between atoms: C_5  and  O_7 
REMARK    5  A    between atoms: O_7  and  C_8 
REMARK    6  A    between atoms: C_22  and  C_24 
REMARK    7  A    between atoms: C_24  and  C_25 
REMARK    8  A    between atoms: C_24  and  C_26 
REMARK    9  A    between atoms: C_24  and  O_27 
REMARK   10  A    between atoms: O_27  and  C_28 
REMARK   11  A    between atoms: C_28  and  C_30 
REMARK   12  A    between atoms: C_30  and  C_33 
REMARK   13  A    between atoms: C_31  and  C_32 
ROOT
ATOM      1  C   LIG d   1       5.981  -2.039  -5.043  0.00  0.00     0.175 C 
ATOM      2  H   LIG d   1       5.746  -2.073  -3.979  0.00  0.00     0.083 H 
ATOM      3  C   LIG d   1       6.610  -3.342  -5.500  0.00  0.00     0.081 A 
ATOM      4  C   LIG d   1       5.975  -3.711  -6.677  0.00  0.00     0.132 A 
ATOM      5  C   LIG d   1       6.354  -4.895  -7.319  0.00  0.00    -0.019 A 
ATOM      6  C   LIG d   1       7.343  -5.682  -6.806  0.00  0.00    -0.048 A 
ATOM      7  C   LIG d   1       7.990  -5.311  -5.624  0.00  0.00     0.018 A 
ATOM      8  C   LIG d   1       7.616  -4.124  -4.965  0.00  0.00     0.149 A 
ATOM      9  O   LIG d   1       8.242  -3.766  -3.824  0.00  0.00    -0.422 OA
ATOM     10  C   LIG d   1       9.219  -4.519  -3.292  0.00  0.00     0.337 A 
ATOM     11  O   LIG d   1       9.752  -4.157  -2.260  0.00  0.00    -0.245 OA
ATOM     12  C   LIG d   1       9.644  -5.718  -3.900  0.00  0.00     0.024 A 
ATOM     13  C   LIG d   1       9.057  -6.135  -5.053  0.00  0.00    -0.044 A 
ATOM     14  O   LIG d   1       5.036  -2.794  -7.038  0.00  0.00    -0.480 OA
ATOM     15  C   LIG d   1       4.690  -1.992  -5.894  0.00  0.00     0.180 C 
ATOM     16  H   LIG d   1       3.853  -2.434  -5.352  0.00  0.00     0.082 H 
ATOM     17  H   LIG d   1       5.858  -5.190  -8.233  0.00  0.00     0.065 H 
ATOM     18  H   LIG d   1       7.624  -6.592  -7.314  0.00  0.00     0.063 H 
ATOM     19  H   LIG d   1      10.433  -6.302  -3.453  0.00  0.00     0.069 H 
ATOM     20  H   LIG d   1       9.368  -7.051  -5.534  0.00  0.00     0.063 H 
ENDROOT
BRANCH  15  21
ATOM     21  C   LIG d   1       4.369  -0.557  -6.314  0.00  0.00     0.149 C 
BRANCH  21  22
ATOM     22  C   LIG d   1       5.489  -0.025  -7.210  0.00  0.00    -0.021 C 
ATOM     23  H   LIG d   1       6.271   0.415  -6.591  0.00  0.00     0.027 H 
ATOM     24  H   LIG d   1       5.907  -0.844  -7.796  0.00  0.00     0.027 H 
ATOM     25  H   LIG d   1       5.088   0.735  -7.882  0.00  0.00     0.027 H 
ENDBRANCH  21  22
BRANCH  21  26
ATOM     26  C   LIG d   1       3.046  -0.533  -7.083  0.00  0.00    -0.021 C 
ATOM     27  H   LIG d   1       2.520  -1.475  -6.928  0.00  0.00     0.027 H 
ATOM     28  H   LIG d   1       2.432   0.291  -6.722  0.00  0.00     0.027 H 
ATOM     29  H   LIG d   1       3.247  -0.399  -8.145  0.00  0.00     0.027 H 
ENDBRANCH  21  26
BRANCH  21  30
ATOM     30  O   LIG d   1       4.259   0.266  -5.151  0.00  0.00    -0.452 OA
BRANCH  30  31
ATOM     31  C   LIG d   1       3.304  -0.061  -4.257  0.00  0.00     0.335 C 
ATOM     32  O   LIG d   1       2.130   0.043  -4.557  0.00  0.00    -0.245 OA
BRANCH  31  33
ATOM     33  C   LIG d   1       3.681  -0.545  -2.922  0.00  0.00     0.029 C 
ATOM     34  C   LIG d   1       4.204   0.296  -2.032  0.00  0.00    -0.077 C 
ATOM     35  H   LIG d   1       4.481  -0.060  -1.052  0.00  0.00     0.057 H 
BRANCH  34  36
ATOM     36  C   LIG d   1       4.408   1.744  -2.395  0.00  0.00    -0.046 C 
ATOM     37  H   LIG d   1       4.288   2.362  -1.505  0.00  0.00     0.027 H 
ATOM     38  H   LIG d   1       5.411   1.880  -2.799  0.00  0.00     0.027 H 
ATOM     39  H   LIG d   1       3.672   2.038  -3.143  0.00  0.00     0.027 H 
ENDBRANCH  34  36
BRANCH  33  40
ATOM     40  C   LIG d   1       3.478  -1.994  -2.560  0.00  0.00    -0.033 C 
ATOM     41  H   LIG d   1       3.765  -2.622  -3.403  0.00  0.00     0.028 H 
ATOM     42  H   LIG d   1       4.093  -2.242  -1.696  0.00  0.00     0.028 H 
ATOM     43  H   LIG d   1       2.428  -2.164  -2.321  0.00  0.00     0.028 H 
ENDBRANCH  33  40
ENDBRANCH  31  33
ENDBRANCH  30  31
ENDBRANCH  21  30
ENDBRANCH  15  21
BRANCH   1  44
ATOM     44  O   LIG d   1       6.830  -0.930  -5.341  0.00  0.00    -0.449 OA
BRANCH  44  45
ATOM     45  C   LIG d   1       7.460  -0.345  -4.304  0.00  0.00     0.335 C 
ATOM     46  O   LIG d   1       7.230  -0.712  -3.167  0.00  0.00    -0.245 OA
BRANCH  45  47
ATOM     47  C   LIG d   1       8.425   0.737  -4.544  0.00  0.00     0.029 C 
ATOM     48  C   LIG d   1       9.627   0.459  -5.045  0.00  0.00    -0.077 C 
ATOM     49  H   LIG d   1      10.335   1.254  -5.221  0.00  0.00     0.057 H 
BRANCH  48  50
ATOM     50  C   LIG d   1       9.998  -0.966  -5.365  0.00  0.00    -0.046 C 
ATOM     51  H   LIG d   1      10.874  -1.253  -4.784  0.00  0.00     0.027 H 
ATOM     52  H   LIG d   1       9.165  -1.624  -5.116  0.00  0.00     0.027 H 
ATOM     53  H   LIG d   1      10.223  -1.052  -6.429  0.00  0.00     0.027 H 
ENDBRANCH  48  50
BRANCH  47  54
ATOM     54  C   LIG d   1       8.054   2.162  -4.224  0.00  0.00    -0.033 C 
ATOM     55  H   LIG d   1       8.413   2.818  -5.017  0.00  0.00     0.028 H 
ATOM     56  H   LIG d   1       6.971   2.247  -4.145  0.00  0.00     0.028 H 
ATOM     57  H   LIG d   1       8.512   2.452  -3.278  0.00  0.00     0.028 H 
ENDBRANCH  47  54
ENDBRANCH  45  47
ENDBRANCH  44  45
ENDBRANCH   1  44
TORSDOF 13
ENDMDL
MODEL 9
REMARK VINA RESULT:      -5.6      2.047      6.716
REMARK  13 active torsions:
REMARK  status: ('A' for Active; 'I' for Inactive)
REMARK    1  A    between atoms: C_1  and  C_2 
REMARK    2  A    between atoms: C_3  and  C_4 
REMARK    3  A    between atoms: C_3  and  C_5 
REMARK    4  A    between atoms: C_5  and  O_7 
REMARK    5  A    between atoms: O_7  and  C_8 
REMARK    6  A    between atoms: C_22  and  C_24 
REMARK    7  A    between atoms: C_24  and  C_25 
REMARK    8  A    between atoms: C_24  and  C_26 
REMARK    9  A    between atoms: C_24  and  O_27 
REMARK   10  A    between atoms: O_27  and  C_28 
REMARK   11  A    between atoms: C_28  and  C_30 
REMARK   12  A    between atoms: C_30  and  C_33 
REMARK   13  A    between atoms: C_31  and  C_32 
ROOT
ATOM      1  C   LIG d   1       6.222  -0.542  -6.753  0.00  0.00     0.175 C 
ATOM      2  H   LIG d   1       6.724  -1.165  -6.013  0.00  0.00     0.083 H 
ATOM      3  C   LIG d   1       7.113   0.604  -7.190  0.00  0.00     0.081 A 
ATOM      4  C   LIG d   1       7.056   0.662  -8.575  0.00  0.00     0.132 A 
ATOM      5  C   LIG d   1       7.802   1.633  -9.254  0.00  0.00    -0.019 A 
ATOM      6  C   LIG d   1       8.576   2.523  -8.570  0.00  0.00    -0.048 A 
ATOM      7  C   LIG d   1       8.632   2.473  -7.174  0.00  0.00     0.018 A 
ATOM      8  C   LIG d   1       7.890   1.499  -6.478  0.00  0.00     0.149 A 
ATOM      9  O   LIG d   1       7.944   1.452  -5.130  0.00  0.00    -0.422 OA
ATOM     10  C   LIG d   1       8.697   2.314  -4.427  0.00  0.00     0.337 A 
ATOM     11  O   LIG d   1       8.717   2.230  -3.213  0.00  0.00    -0.245 OA
ATOM     12  C   LIG d   1       9.464   3.314  -5.059  0.00  0.00     0.024 A 
ATOM     13  C   LIG d   1       9.452   3.418  -6.414  0.00  0.00    -0.044 A 
ATOM     14  O   LIG d   1       6.220  -0.290  -9.073  0.00  0.00    -0.480 OA
ATOM     15  C   LIG d   1       6.019  -1.312  -8.080  0.00  0.00     0.180 C 
ATOM     16  H   LIG d   1       6.761  -2.103  -8.184  0.00  0.00     0.082 H 
ATOM     17  H   LIG d   1       7.764   1.677 -10.333  0.00  0.00     0.065 H 
ATOM     18  H   LIG d   1       9.145   3.266  -9.108  0.00  0.00     0.063 H 
ATOM     19  H   LIG d   1      10.058   3.995  -4.469  0.00  0.00     0.069 H 
ATOM     20  H   LIG d   1      10.033   4.178  -6.917  0.00  0.00     0.063 H 
ENDROOT
BRANCH  15  21
ATOM     21  C   LIG d   1       4.602  -1.881  -8.165  0.00  0.00     0.149 C 
BRANCH  21  22
ATOM     22  C   LIG d   1       4.404  -2.556  -9.523  0.00  0.00    -0.021 C 
ATOM     23  H   LIG d   1       4.070  -3.582  -9.374  0.00  0.00     0.027 H 
ATOM     24  H   LIG d   1       3.655  -2.009 -10.096  0.00  0.00     0.027 H 
ATOM     25  H   LIG d   1       5.348  -2.558 -10.070  0.00  0.00     0.027 H 
ENDBRANCH  21  22
BRANCH  21  26
ATOM     26  C   LIG d   1       4.397  -2.909  -7.050  0.00  0.00    -0.021 C 
ATOM     27  H   LIG d   1       5.310  -3.490  -6.919  0.00  0.00     0.027 H 
ATOM     28  H   LIG d   1       4.156  -2.394  -6.121  0.00  0.00     0.027 H 
ATOM     29  H   LIG d   1       3.578  -3.576  -7.318  0.00  0.00     0.027 H 
ENDBRANCH  21  26
BRANCH  21  30
ATOM     30  O   LIG d   1       3.654  -0.823  -8.017  0.00  0.00    -0.452 OA
BRANCH  30  31
ATOM     31  C   LIG d   1       2.886  -0.534  -9.087  0.00  0.00     0.335 C 
ATOM     32  O   LIG d   1       1.872  -1.170  -9.297  0.00  0.00    -0.245 OA
BRANCH  31  33
ATOM     33  C   LIG d   1       3.274   0.551  -9.999  0.00  0.00     0.029 C 
ATOM     34  C   LIG d   1       3.255   1.814  -9.578  0.00  0.00    -0.077 C 
ATOM     35  H   LIG d   1       3.540   2.610 -10.249  0.00  0.00     0.057 H 
BRANCH  34  36
ATOM     36  C   LIG d   1       2.837   2.130  -8.166  0.00  0.00    -0.046 C 
ATOM     37  H   LIG d   1       2.439   3.144  -8.122  0.00  0.00     0.027 H 
ATOM     38  H   LIG d   1       2.070   1.425  -7.847  0.00  0.00     0.027 H 
ATOM     39  H   LIG d   1       3.700   2.051  -7.505  0.00  0.00     0.027 H 
ENDBRANCH  34  36
BRANCH  33  40
ATOM     40  C   LIG d   1       3.692   0.234 -11.411  0.00  0.00    -0.033 C 
ATOM     41  H   LIG d   1       4.779   0.266 -11.484  0.00  0.00     0.028 H 
ATOM     42  H   LIG d   1       3.339  -0.762 -11.680  0.00  0.00     0.028 H 
ATOM     43  H   LIG d   1       3.261   0.968 -12.091  0.00  0.00     0.028 H 
ENDBRANCH  33  40
ENDBRANCH  31  33
ENDBRANCH  30  31
ENDBRANCH  21  30
ENDBRANCH  15  21
BRANCH   1  44
ATOM     44  O   LIG d   1       4.976  -0.056  -6.249  0.00  0.00    -0.449 OA
BRANCH  44  45
ATOM     45  C   LIG d   1       4.720  -0.268  -4.943  0.00  0.00     0.335 C 
ATOM     46  O   LIG d   1       5.431  -1.014  -4.298  0.00  0.00    -0.245 OA
BRANCH  45  47
ATOM     47  C   LIG d   1       3.580   0.399  -4.300  0.00  0.00     0.029 C 
ATOM     48  C   LIG d   1       3.771   1.143  -3.212  0.00  0.00    -0.077 C 
ATOM     49  H   LIG d   1       2.933   1.633  -2.740  0.00  0.00     0.057 H 
BRANCH  48  50
ATOM     50  C   LIG d   1       5.157   1.300  -2.641  0.00  0.00    -0.046 C 
ATOM     51  H   LIG d   1       5.872   1.431  -3.453  0.00  0.00     0.027 H 
ATOM     52  H   LIG d   1       5.184   2.173  -1.989  0.00  0.00     0.027 H 
ATOM     53  H   LIG d   1       5.416   0.410  -2.068  0.00  0.00     0.027 H 
ENDBRANCH  48  50
BRANCH  47  54
ATOM     54  C   LIG d   1       2.194   0.241  -4.871  0.00  0.00    -0.033 C 
ATOM     55  H   LIG d   1       1.520   0.950  -4.389  0.00  0.00     0.028 H 
ATOM     56  H   LIG d   1       2.218   0.434  -5.943  0.00  0.00     0.028 H 
ATOM     57  H   LIG d   1       1.841  -0.775  -4.691  0.00  0.00     0.028 H 
ENDBRANCH  47  54
ENDBRANCH  45  47
ENDBRANCH  44  45
ENDBRANCH   1  44
TORSDOF 13
ENDMDL
