MODEL 1
REMARK VINA RESULT:      -5.4      0.000      0.000
REMARK  6 active torsions:
REMARK  status: ('A' for Active; 'I' for Inactive)
REMARK    1  A    between atoms: C_1  and  C_2 
REMARK    2  A    between atoms: C_2  and  C_3 
REMARK    3  A    between atoms: C_5  and  C_18 
REMARK    4  A    between atoms: N_7  and  S_8 
REMARK    5  A    between atoms: S_8  and  C_11 
REMARK    6  A    between atoms: C_14  and  C_17 
ROOT
ATOM      1  S   LIG d   1       4.608  -0.723  -6.073  0.00  0.00     0.061 S 
ATOM      2  O   LIG d   1       5.541   0.334  -6.251  0.00  0.00    -0.153 OA
ATOM      3  O   LIG d   1       5.012  -2.055  -5.787  0.00  0.00    -0.153 OA
ENDROOT
BRANCH   1   4
ATOM      4  N   LIG d   1       3.597  -0.260  -4.846  0.00  0.00    -0.168 N 
ATOM      5  C   LIG d   1       2.791  -0.633  -3.672  0.00  0.00     0.049 A 
ATOM      6  H   LIG d   1       1.861  -1.173  -3.845  0.00  0.00     0.050 H 
ATOM      7  C   LIG d   1       2.875   0.814  -4.160  0.00  0.00     0.047 A 
ATOM      8  H   LIG d   1       1.998   1.231  -4.657  0.00  0.00     0.049 H 
BRANCH   5   9
ATOM      9  C   LIG d   1       3.538  -0.992  -2.386  0.00  0.00    -0.037 C 
ATOM     10  H   LIG d   1       4.424  -0.366  -2.292  0.00  0.00     0.028 H 
ATOM     11  H   LIG d   1       2.885  -0.827  -1.528  0.00  0.00     0.028 H 
BRANCH   9  12
ATOM     12  C   LIG d   1       3.956  -2.464  -2.433  0.00  0.00    -0.064 C 
ATOM     13  H   LIG d   1       4.113  -2.828  -1.418  0.00  0.00     0.023 H 
ATOM     14  H   LIG d   1       3.169  -3.048  -2.910  0.00  0.00     0.023 H 
ATOM     15  H   LIG d   1       4.879  -2.563  -3.001  0.00  0.00     0.023 H 
ENDBRANCH   9  12
ENDBRANCH   5   9
BRANCH   7  16
ATOM     16  C   LIG d   1       3.693   1.800  -3.325  0.00  0.00    -0.046 C 
ATOM     17  H   LIG d   1       3.105   2.700  -3.143  0.00  0.00     0.025 H 
ATOM     18  H   LIG d   1       3.957   1.338  -2.373  0.00  0.00     0.025 H 
ATOM     19  H   LIG d   1       4.604   2.065  -3.864  0.00  0.00     0.025 H 
ENDBRANCH   7  16
ENDBRANCH   1   4
BRANCH   1  20
ATOM     20  C   LIG d   1       3.642  -0.794  -7.545  0.00  0.00     0.105 A 
ATOM     21  C   LIG d   1       2.945   0.323  -7.969  0.00  0.00    -0.035 A 
ATOM     22  C   LIG d   1       2.188   0.266  -9.124  0.00  0.00    -0.057 A 
ATOM     23  H   LIG d   1       2.994   1.239  -7.399  0.00  0.00     0.064 H 
ATOM     24  C   LIG d   1       2.127  -0.905  -9.855  0.00  0.00    -0.050 A 
ATOM     25  H   LIG d   1       1.645   1.139  -9.457  0.00  0.00     0.062 H 
ATOM     26  C   LIG d   1       2.822  -2.022  -9.430  0.00  0.00    -0.057 A 
ATOM     27  C   LIG d   1       3.584  -1.964  -8.278  0.00  0.00    -0.035 A 
ATOM     28  H   LIG d   1       2.775  -2.937 -10.001  0.00  0.00     0.062 H 
ATOM     29  H   LIG d   1       4.133  -2.835  -7.949  0.00  0.00     0.064 H 
BRANCH  24  30
ATOM     30  C   LIG d   1       1.301  -0.966 -11.114  0.00  0.00    -0.040 C 
ATOM     31  H   LIG d   1       1.142   0.043 -11.493  0.00  0.00     0.028 H 
ATOM     32  H   LIG d   1       1.826  -1.558 -11.864  0.00  0.00     0.028 H 
ATOM     33  H   LIG d   1       0.338  -1.428 -10.895  0.00  0.00     0.028 H 
ENDBRANCH  24  30
ENDBRANCH   1  20
TORSDOF 6
ENDMDL
MODEL 2
REMARK VINA RESULT:      -5.4      2.345      2.943
REMARK  6 active torsions:
REMARK  status: ('A' for Active; 'I' for Inactive)
REMARK    1  A    between atoms: C_1  and  C_2 
REMARK    2  A    between atoms: C_2  and  C_3 
REMARK    3  A    between atoms: C_5  and  C_18 
REMARK    4  A    between atoms: N_7  and  S_8 
REMARK    5  A    between atoms: S_8  and  C_11 
REMARK    6  A    between atoms: C_14  and  C_17 
ROOT
ATOM      1  S   LIG d   1       2.709   0.619  -4.645  0.00  0.00     0.061 S 
ATOM      2  O   LIG d   1       1.654  -0.254  -4.265  0.00  0.00    -0.153 OA
ATOM      3  O   LIG d   1       2.478   1.960  -5.054  0.00  0.00    -0.153 OA
ENDROOT
BRANCH   1   4
ATOM      4  N   LIG d   1       3.750   0.689  -3.358  0.00  0.00    -0.168 N 
ATOM      5  C   LIG d   1       4.149   0.186  -2.034  0.00  0.00     0.049 A 
ATOM      6  H   LIG d   1       3.532   0.463  -1.179  0.00  0.00     0.050 H 
ATOM      7  C   LIG d   1       4.928   1.298  -2.737  0.00  0.00     0.047 A 
ATOM      8  H   LIG d   1       4.828   2.311  -2.347  0.00  0.00     0.049 H 
BRANCH   5   9
ATOM      9  C   LIG d   1       4.792  -1.201  -1.968  0.00  0.00    -0.037 C 
ATOM     10  H   LIG d   1       5.624  -1.249  -2.669  0.00  0.00     0.028 H 
ATOM     11  H   LIG d   1       5.158  -1.383  -0.957  0.00  0.00     0.028 H 
BRANCH   9  12
ATOM     12  C   LIG d   1       3.753  -2.263  -2.332  0.00  0.00    -0.064 C 
ATOM     13  H   LIG d   1       3.856  -3.116  -1.662  0.00  0.00     0.023 H 
ATOM     14  H   LIG d   1       2.753  -1.841  -2.232  0.00  0.00     0.023 H 
ATOM     15  H   LIG d   1       3.910  -2.588  -3.360  0.00  0.00     0.023 H 
ENDBRANCH   9  12
ENDBRANCH   5   9
BRANCH   7  16
ATOM     16  C   LIG d   1       6.299   0.946  -3.318  0.00  0.00    -0.046 C 
ATOM     17  H   LIG d   1       6.619  -0.023  -2.936  0.00  0.00     0.025 H 
ATOM     18  H   LIG d   1       6.232   0.904  -4.406  0.00  0.00     0.025 H 
ATOM     19  H   LIG d   1       7.023   1.708  -3.029  0.00  0.00     0.025 H 
ENDBRANCH   7  16
ENDBRANCH   1   4
BRANCH   1  20
ATOM     20  C   LIG d   1       3.565  -0.172  -5.965  0.00  0.00     0.105 A 
ATOM     21  C   LIG d   1       3.251   0.138  -7.276  0.00  0.00    -0.035 A 
ATOM     22  C   LIG d   1       3.924  -0.482  -8.312  0.00  0.00    -0.057 A 
ATOM     23  H   LIG d   1       2.482   0.866  -7.490  0.00  0.00     0.064 H 
ATOM     24  C   LIG d   1       4.909  -1.412  -8.039  0.00  0.00    -0.050 A 
ATOM     25  H   LIG d   1       3.680  -0.239  -9.336  0.00  0.00     0.062 H 
ATOM     26  C   LIG d   1       5.222  -1.723  -6.729  0.00  0.00    -0.057 A 
ATOM     27  C   LIG d   1       4.554  -1.099  -5.692  0.00  0.00    -0.035 A 
ATOM     28  H   LIG d   1       5.992  -2.449  -6.515  0.00  0.00     0.062 H 
ATOM     29  H   LIG d   1       4.802  -1.337  -4.668  0.00  0.00     0.064 H 
BRANCH  24  30
ATOM     30  C   LIG d   1       5.642  -2.088  -9.168  0.00  0.00    -0.040 C 
ATOM     31  H   LIG d   1       6.043  -3.041  -8.823  0.00  0.00     0.028 H 
ATOM     32  H   LIG d   1       4.955  -2.261  -9.996  0.00  0.00     0.028 H 
ATOM     33  H   LIG d   1       6.461  -1.451  -9.504  0.00  0.00     0.028 H 
ENDBRANCH  24  30
ENDBRANCH   1  20
TORSDOF 6
ENDMDL
MODEL 3
REMARK VINA RESULT:      -5.2      2.827      5.998
REMARK  6 active torsions:
REMARK  status: ('A' for Active; 'I' for Inactive)
REMARK    1  A    between atoms: C_1  and  C_2 
REMARK    2  A    between atoms: C_2  and  C_3 
REMARK    3  A    between atoms: C_5  and  C_18 
REMARK    4  A    between atoms: N_7  and  S_8 
REMARK    5  A    between atoms: S_8  and  C_11 
REMARK    6  A    between atoms: C_14  and  C_17 
ROOT
ATOM      1  S   LIG d   1       5.342  -3.824  -5.116  0.00  0.00     0.061 S 
ATOM      2  O   LIG d   1       4.283  -4.724  -4.823  0.00  0.00    -0.153 OA
ATOM      3  O   LIG d   1       6.709  -4.201  -5.023  0.00  0.00    -0.153 OA
ENDROOT
BRANCH   1   4
ATOM      4  N   LIG d   1       5.101  -3.298  -6.668  0.00  0.00    -0.168 N 
ATOM      5  C   LIG d   1       4.344  -2.453  -7.607  0.00  0.00     0.049 A 
ATOM      6  H   LIG d   1       3.329  -2.759  -7.860  0.00  0.00     0.050 H 
ATOM      7  C   LIG d   1       5.493  -3.346  -8.078  0.00  0.00     0.047 A 
ATOM      8  H   LIG d   1       5.238  -4.242  -8.645  0.00  0.00     0.049 H 
BRANCH   5   9
ATOM      9  C   LIG d   1       4.591  -0.944  -7.557  0.00  0.00    -0.037 C 
ATOM     10  H   LIG d   1       5.576  -0.750  -7.135  0.00  0.00     0.028 H 
ATOM     11  H   LIG d   1       4.542  -0.536  -8.567  0.00  0.00     0.028 H 
BRANCH   9  12
ATOM     12  C   LIG d   1       3.521  -0.281  -6.687  0.00  0.00    -0.064 C 
ATOM     13  H   LIG d   1       3.639  -0.610  -5.655  0.00  0.00     0.023 H 
ATOM     14  H   LIG d   1       3.634   0.802  -6.737  0.00  0.00     0.023 H 
ATOM     15  H   LIG d   1       2.533  -0.561  -7.047  0.00  0.00     0.023 H 
ENDBRANCH   9  12
ENDBRANCH   5   9
BRANCH   7  16
ATOM     16  C   LIG d   1       6.805  -2.665  -8.474  0.00  0.00    -0.046 C 
ATOM     17  H   LIG d   1       7.645  -3.292  -8.176  0.00  0.00     0.025 H 
ATOM     18  H   LIG d   1       6.826  -2.517  -9.554  0.00  0.00     0.025 H 
ATOM     19  H   LIG d   1       6.878  -1.699  -7.974  0.00  0.00     0.025 H 
ENDBRANCH   7  16
ENDBRANCH   1   4
BRANCH   1  20
ATOM     20  C   LIG d   1       5.130  -2.434  -4.056  0.00  0.00     0.105 A 
ATOM     21  C   LIG d   1       4.077  -2.402  -3.159  0.00  0.00    -0.035 A 
ATOM     22  C   LIG d   1       3.912  -1.311  -2.327  0.00  0.00    -0.057 A 
ATOM     23  H   LIG d   1       3.386  -3.230  -3.109  0.00  0.00     0.064 H 
ATOM     24  C   LIG d   1       4.797  -0.251  -2.391  0.00  0.00    -0.050 A 
ATOM     25  H   LIG d   1       3.090  -1.287  -1.626  0.00  0.00     0.062 H 
ATOM     26  C   LIG d   1       5.849  -0.282  -3.287  0.00  0.00    -0.057 A 
ATOM     27  C   LIG d   1       6.018  -1.376  -4.116  0.00  0.00    -0.035 A 
ATOM     28  H   LIG d   1       6.541   0.545  -3.337  0.00  0.00     0.062 H 
ATOM     29  H   LIG d   1       6.843  -1.403  -4.813  0.00  0.00     0.064 H 
BRANCH  24  30
ATOM     30  C   LIG d   1       4.616   0.938  -1.483  0.00  0.00    -0.040 C 
ATOM     31  H   LIG d   1       3.620   1.356  -1.627  0.00  0.00     0.028 H 
ATOM     32  H   LIG d   1       4.733   0.624  -0.446  0.00  0.00     0.028 H 
ATOM     33  H   LIG d   1       5.366   1.694  -1.721  0.00  0.00     0.028 H 
ENDBRANCH  24  30
ENDBRANCH   1  20
TORSDOF 6
ENDMDL
MODEL 4
REMARK VINA RESULT:      -5.2      2.605      5.755
REMARK  6 active torsions:
REMARK  status: ('A' for Active; 'I' for Inactive)
REMARK    1  A    between atoms: C_1  and  C_2 
REMARK    2  A    between atoms: C_2  and  C_3 
REMARK    3  A    between atoms: C_5  and  C_18 
REMARK    4  A    between atoms: N_7  and  S_8 
REMARK    5  A    between atoms: S_8  and  C_11 
REMARK    6  A    between atoms: C_14  and  C_17 
ROOT
ATOM      1  S   LIG d   1       3.101   0.495  -7.613  0.00  0.00     0.061 S 
ATOM      2  O   LIG d   1       2.918   1.891  -7.425  0.00  0.00    -0.153 OA
ATOM      3  O   LIG d   1       2.136  -0.318  -8.267  0.00  0.00    -0.153 OA
ENDROOT
BRANCH   1   4
ATOM      4  N   LIG d   1       4.520   0.311  -8.447  0.00  0.00    -0.168 N 
ATOM      5  C   LIG d   1       5.234  -0.249  -9.606  0.00  0.00     0.049 A 
ATOM      6  H   LIG d   1       5.428  -1.322  -9.612  0.00  0.00     0.050 H 
ATOM      7  C   LIG d   1       5.952   0.596  -8.552  0.00  0.00     0.047 A 
ATOM      8  H   LIG d   1       6.622   0.082  -7.862  0.00  0.00     0.049 H 
BRANCH   5   9
ATOM      9  C   LIG d   1       4.976   0.388 -10.972  0.00  0.00    -0.037 C 
ATOM     10  H   LIG d   1       5.073   1.470 -10.893  0.00  0.00     0.028 H 
ATOM     11  H   LIG d   1       5.703   0.010 -11.692  0.00  0.00     0.028 H 
BRANCH   9  12
ATOM     12  C   LIG d   1       3.563   0.034 -11.442  0.00  0.00    -0.064 C 
ATOM     13  H   LIG d   1       3.407   0.424 -12.447  0.00  0.00     0.023 H 
ATOM     14  H   LIG d   1       3.445  -1.049 -11.450  0.00  0.00     0.023 H 
ATOM     15  H   LIG d   1       2.834   0.475 -10.764  0.00  0.00     0.023 H 
ENDBRANCH   9  12
ENDBRANCH   5   9
BRANCH   7  16
ATOM     16  C   LIG d   1       6.367   2.015  -8.942  0.00  0.00    -0.046 C 
ATOM     17  H   LIG d   1       7.081   2.400  -8.214  0.00  0.00     0.025 H 
ATOM     18  H   LIG d   1       6.829   2.000  -9.931  0.00  0.00     0.025 H 
ATOM     19  H   LIG d   1       5.488   2.659  -8.963  0.00  0.00     0.025 H 
ENDBRANCH   7  16
ENDBRANCH   1   4
BRANCH   1  20
ATOM     20  C   LIG d   1       3.343  -0.201  -6.013  0.00  0.00     0.105 A 
ATOM     21  C   LIG d   1       2.579   0.235  -4.946  0.00  0.00    -0.035 A 
ATOM     22  C   LIG d   1       2.770  -0.312  -3.691  0.00  0.00    -0.057 A 
ATOM     23  H   LIG d   1       1.832   1.001  -5.095  0.00  0.00     0.064 H 
ATOM     24  C   LIG d   1       3.724  -1.293  -3.501  0.00  0.00    -0.050 A 
ATOM     25  H   LIG d   1       2.171   0.028  -2.858  0.00  0.00     0.062 H 
ATOM     26  C   LIG d   1       4.489  -1.728  -4.567  0.00  0.00    -0.057 A 
ATOM     27  C   LIG d   1       4.295  -1.186  -5.824  0.00  0.00    -0.035 A 
ATOM     28  H   LIG d   1       5.234  -2.495  -4.420  0.00  0.00     0.062 H 
ATOM     29  H   LIG d   1       4.889  -1.530  -6.659  0.00  0.00     0.064 H 
BRANCH  24  30
ATOM     30  C   LIG d   1       3.931  -1.889  -2.133  0.00  0.00    -0.040 C 
ATOM     31  H   LIG d   1       2.968  -2.000  -1.636  0.00  0.00     0.028 H 
ATOM     32  H   LIG d   1       4.406  -2.866  -2.230  0.00  0.00     0.028 H 
ATOM     33  H   LIG d   1       4.570  -1.231  -1.543  0.00  0.00     0.028 H 
ENDBRANCH  24  30
ENDBRANCH   1  20
TORSDOF 6
ENDMDL
MODEL 5
REMARK VINA RESULT:      -5.2      1.992      5.922
REMARK  6 active torsions:
REMARK  status: ('A' for Active; 'I' for Inactive)
REMARK    1  A    between atoms: C_1  and  C_2 
REMARK    2  A    between atoms: C_2  and  C_3 
REMARK    3  A    between atoms: C_5  and  C_18 
REMARK    4  A    between atoms: N_7  and  S_8 
REMARK    5  A    between atoms: S_8  and  C_11 
REMARK    6  A    between atoms: C_14  and  C_17 
ROOT
ATOM      1  S   LIG d   1       3.641   0.731  -7.602  0.00  0.00     0.061 S 
ATOM      2  O   LIG d   1       4.994   0.853  -8.016  0.00  0.00    -0.153 OA
ATOM      3  O   LIG d   1       2.791   1.858  -7.437  0.00  0.00    -0.153 OA
ENDROOT
BRANCH   1   4
ATOM      4  N   LIG d   1       2.899  -0.265  -8.698  0.00  0.00    -0.168 N 
ATOM      5  C   LIG d   1       2.264  -0.434 -10.015  0.00  0.00     0.049 A 
ATOM      6  H   LIG d   1       1.267  -0.017 -10.156  0.00  0.00     0.050 H 
ATOM      7  C   LIG d   1       2.413  -1.603  -9.041  0.00  0.00     0.047 A 
ATOM      8  H   LIG d   1       1.514  -1.959  -8.537  0.00  0.00     0.049 H 
BRANCH   5   9
ATOM      9  C   LIG d   1       3.172  -0.416 -11.247  0.00  0.00    -0.037 C 
ATOM     10  H   LIG d   1       3.872  -1.248 -11.195  0.00  0.00     0.028 H 
ATOM     11  H   LIG d   1       2.564  -0.508 -12.147  0.00  0.00     0.028 H 
BRANCH   9  12
ATOM     12  C   LIG d   1       3.948   0.903 -11.288  0.00  0.00    -0.064 C 
ATOM     13  H   LIG d   1       3.578   1.515 -12.111  0.00  0.00     0.023 H 
ATOM     14  H   LIG d   1       3.807   1.436 -10.348  0.00  0.00     0.023 H 
ATOM     15  H   LIG d   1       5.007   0.698 -11.435  0.00  0.00     0.023 H 
ENDBRANCH   9  12
ENDBRANCH   5   9
BRANCH   7  16
ATOM     16  C   LIG d   1       3.455  -2.674  -9.370  0.00  0.00    -0.046 C 
ATOM     17  H   LIG d   1       3.953  -2.422 -10.306  0.00  0.00     0.025 H 
ATOM     18  H   LIG d   1       4.192  -2.723  -8.567  0.00  0.00     0.025 H 
ATOM     19  H   LIG d   1       2.963  -3.642  -9.469  0.00  0.00     0.025 H 
ENDBRANCH   7  16
ENDBRANCH   1   4
BRANCH   1  20
ATOM     20  C   LIG d   1       3.661  -0.116  -6.058  0.00  0.00     0.105 A 
ATOM     21  C   LIG d   1       4.539  -1.165  -5.856  0.00  0.00    -0.035 A 
ATOM     22  C   LIG d   1       4.554  -1.829  -4.644  0.00  0.00    -0.057 A 
ATOM     23  H   LIG d   1       5.213  -1.464  -6.645  0.00  0.00     0.064 H 
ATOM     24  C   LIG d   1       3.692  -1.446  -3.634  0.00  0.00    -0.050 A 
ATOM     25  H   LIG d   1       5.241  -2.648  -4.486  0.00  0.00     0.062 H 
ATOM     26  C   LIG d   1       2.813  -0.398  -3.836  0.00  0.00    -0.057 A 
ATOM     27  C   LIG d   1       2.801   0.270  -5.046  0.00  0.00    -0.035 A 
ATOM     28  H   LIG d   1       2.140  -0.098  -3.048  0.00  0.00     0.062 H 
ATOM     29  H   LIG d   1       2.119   1.093  -5.203  0.00  0.00     0.064 H 
BRANCH  24  30
ATOM     30  C   LIG d   1       3.709  -2.170  -2.313  0.00  0.00    -0.040 C 
ATOM     31  H   LIG d   1       3.132  -3.091  -2.396  0.00  0.00     0.028 H 
ATOM     32  H   LIG d   1       4.738  -2.408  -2.042  0.00  0.00     0.028 H 
ATOM     33  H   LIG d   1       3.269  -1.534  -1.544  0.00  0.00     0.028 H 
ENDBRANCH  24  30
ENDBRANCH   1  20
TORSDOF 6
ENDMDL
MODEL 6
REMARK VINA RESULT:      -5.1      2.455      5.827
REMARK  6 active torsions:
REMARK  status: ('A' for Active; 'I' for Inactive)
REMARK    1  A    between atoms: C_1  and  C_2 
REMARK    2  A    between atoms: C_2  and  C_3 
REMARK    3  A    between atoms: C_5  and  C_18 
REMARK    4  A    between atoms: N_7  and  S_8 
REMARK    5  A    between atoms: S_8  and  C_11 
REMARK    6  A    between atoms: C_14  and  C_17 
ROOT
ATOM      1  S   LIG d   1       4.116  -1.065  -8.018  0.00  0.00     0.061 S 
ATOM      2  O   LIG d   1       2.809  -1.414  -8.455  0.00  0.00    -0.153 OA
ATOM      3  O   LIG d   1       5.188  -1.997  -8.004  0.00  0.00    -0.153 OA
ENDROOT
BRANCH   1   4
ATOM      4  N   LIG d   1       4.605   0.207  -8.960  0.00  0.00    -0.168 N 
ATOM      5  C   LIG d   1       5.040   0.703 -10.276  0.00  0.00     0.049 A 
ATOM      6  H   LIG d   1       6.045   0.445 -10.609  0.00  0.00     0.050 H 
ATOM      7  C   LIG d   1       4.909   1.635  -9.071  0.00  0.00     0.047 A 
ATOM      8  H   LIG d   1       5.828   1.994  -8.607  0.00  0.00     0.049 H 
BRANCH   5   9
ATOM      9  C   LIG d   1       3.982   0.812 -11.376  0.00  0.00    -0.037 C 
ATOM     10  H   LIG d   1       3.111   1.339 -10.992  0.00  0.00     0.028 H 
ATOM     11  H   LIG d   1       4.395   1.362 -12.223  0.00  0.00     0.028 H 
BRANCH   9  12
ATOM     12  C   LIG d   1       3.573  -0.591 -11.831  0.00  0.00    -0.064 C 
ATOM     13  H   LIG d   1       3.474  -0.606 -12.916  0.00  0.00     0.023 H 
ATOM     14  H   LIG d   1       4.336  -1.308 -11.526  0.00  0.00     0.023 H 
ATOM     15  H   LIG d   1       2.620  -0.857 -11.375  0.00  0.00     0.023 H 
ENDBRANCH   9  12
ENDBRANCH   5   9
BRANCH   7  16
ATOM     16  C   LIG d   1       3.734   2.614  -9.054  0.00  0.00    -0.046 C 
ATOM     17  H   LIG d   1       4.095   3.614  -8.811  0.00  0.00     0.025 H 
ATOM     18  H   LIG d   1       3.259   2.628 -10.036  0.00  0.00     0.025 H 
ATOM     19  H   LIG d   1       3.007   2.299  -8.304  0.00  0.00     0.025 H 
ENDBRANCH   7  16
ENDBRANCH   1   4
BRANCH   1  20
ATOM     20  C   LIG d   1       3.951  -0.460  -6.372  0.00  0.00     0.105 A 
ATOM     21  C   LIG d   1       4.975  -0.649  -5.461  0.00  0.00    -0.035 A 
ATOM     22  C   LIG d   1       4.845  -0.174  -4.169  0.00  0.00    -0.057 A 
ATOM     23  H   LIG d   1       5.874  -1.166  -5.759  0.00  0.00     0.064 H 
ATOM     24  C   LIG d   1       3.693   0.489  -3.788  0.00  0.00    -0.050 A 
ATOM     25  H   LIG d   1       5.645  -0.320  -3.457  0.00  0.00     0.062 H 
ATOM     26  C   LIG d   1       2.671   0.676  -4.698  0.00  0.00    -0.057 A 
ATOM     27  C   LIG d   1       2.801   0.206  -5.992  0.00  0.00    -0.035 A 
ATOM     28  H   LIG d   1       1.771   1.194  -4.401  0.00  0.00     0.062 H 
ATOM     29  H   LIG d   1       2.005   0.358  -6.705  0.00  0.00     0.064 H 
BRANCH  24  30
ATOM     30  C   LIG d   1       3.553   1.006  -2.380  0.00  0.00    -0.040 C 
ATOM     31  H   LIG d   1       2.536   1.369  -2.226  0.00  0.00     0.028 H 
ATOM     32  H   LIG d   1       3.762   0.202  -1.674  0.00  0.00     0.028 H 
ATOM     33  H   LIG d   1       4.258   1.822  -2.220  0.00  0.00     0.028 H 
ENDBRANCH  24  30
ENDBRANCH   1  20
TORSDOF 6
ENDMDL
MODEL 7
REMARK VINA RESULT:      -5.0      1.560      2.748
REMARK  6 active torsions:
REMARK  status: ('A' for Active; 'I' for Inactive)
REMARK    1  A    between atoms: C_1  and  C_2 
REMARK    2  A    between atoms: C_2  and  C_3 
REMARK    3  A    between atoms: C_5  and  C_18 
REMARK    4  A    between atoms: N_7  and  S_8 
REMARK    5  A    between atoms: S_8  and  C_11 
REMARK    6  A    between atoms: C_14  and  C_17 
ROOT
ATOM      1  S   LIG d   1       6.340  -0.336  -5.245  0.00  0.00     0.061 S 
ATOM      2  O   LIG d   1       6.706   1.035  -5.168  0.00  0.00    -0.153 OA
ATOM      3  O   LIG d   1       7.273  -1.355  -5.576  0.00  0.00    -0.153 OA
ENDROOT
BRANCH   1   4
ATOM      4  N   LIG d   1       5.702  -0.739  -3.770  0.00  0.00    -0.168 N 
ATOM      5  C   LIG d   1       5.117  -0.304  -2.492  0.00  0.00     0.049 A 
ATOM      6  H   LIG d   1       5.782   0.149  -1.756  0.00  0.00     0.050 H 
ATOM      7  C   LIG d   1       5.320  -1.784  -2.818  0.00  0.00     0.047 A 
ATOM      8  H   LIG d   1       6.120  -2.311  -2.298  0.00  0.00     0.049 H 
BRANCH   5   9
ATOM      9  C   LIG d   1       3.686   0.239  -2.517  0.00  0.00    -0.037 C 
ATOM     10  H   LIG d   1       3.120  -0.264  -3.298  0.00  0.00     0.028 H 
ATOM     11  H   LIG d   1       3.213   0.058  -1.551  0.00  0.00     0.028 H 
BRANCH   9  12
ATOM     12  C   LIG d   1       3.717   1.743  -2.795  0.00  0.00    -0.064 C 
ATOM     13  H   LIG d   1       4.719   2.034  -3.108  0.00  0.00     0.023 H 
ATOM     14  H   LIG d   1       3.006   1.980  -3.587  0.00  0.00     0.023 H 
ATOM     15  H   LIG d   1       3.447   2.287  -1.890  0.00  0.00     0.023 H 
ENDBRANCH   9  12
ENDBRANCH   5   9
BRANCH   7  16
ATOM     16  C   LIG d   1       4.079  -2.618  -3.139  0.00  0.00    -0.046 C 
ATOM     17  H   LIG d   1       4.306  -3.676  -3.008  0.00  0.00     0.025 H 
ATOM     18  H   LIG d   1       3.267  -2.334  -2.468  0.00  0.00     0.025 H 
ATOM     19  H   LIG d   1       3.776  -2.437  -4.171  0.00  0.00     0.025 H 
ENDBRANCH   7  16
ENDBRANCH   1   4
BRANCH   1  20
ATOM     20  C   LIG d   1       5.036  -0.444  -6.424  0.00  0.00     0.105 A 
ATOM     21  C   LIG d   1       5.286  -0.946  -7.688  0.00  0.00    -0.035 A 
ATOM     22  C   LIG d   1       4.262  -1.031  -8.612  0.00  0.00    -0.057 A 
ATOM     23  H   LIG d   1       6.281  -1.274  -7.951  0.00  0.00     0.064 H 
ATOM     24  C   LIG d   1       2.989  -0.613  -8.275  0.00  0.00    -0.050 A 
ATOM     25  H   LIG d   1       4.457  -1.425  -9.600  0.00  0.00     0.062 H 
ATOM     26  C   LIG d   1       2.739  -0.110  -7.012  0.00  0.00    -0.057 A 
ATOM     27  C   LIG d   1       3.761  -0.030  -6.085  0.00  0.00    -0.035 A 
ATOM     28  H   LIG d   1       1.744   0.216  -6.748  0.00  0.00     0.062 H 
ATOM     29  H   LIG d   1       3.565   0.358  -5.096  0.00  0.00     0.064 H 
BRANCH  24  30
ATOM     30  C   LIG d   1       1.873  -0.706  -9.283  0.00  0.00    -0.040 C 
ATOM     31  H   LIG d   1       2.116  -1.466 -10.025  0.00  0.00     0.028 H 
ATOM     32  H   LIG d   1       0.946  -0.976  -8.776  0.00  0.00     0.028 H 
ATOM     33  H   LIG d   1       1.749   0.258  -9.778  0.00  0.00     0.028 H 
ENDBRANCH  24  30
ENDBRANCH   1  20
TORSDOF 6
ENDMDL
MODEL 8
REMARK VINA RESULT:      -5.0      2.819      5.553
REMARK  6 active torsions:
REMARK  status: ('A' for Active; 'I' for Inactive)
REMARK    1  A    between atoms: C_1  and  C_2 
REMARK    2  A    between atoms: C_2  and  C_3 
REMARK    3  A    between atoms: C_5  and  C_18 
REMARK    4  A    between atoms: N_7  and  S_8 
REMARK    5  A    between atoms: S_8  and  C_11 
REMARK    6  A    between atoms: C_14  and  C_17 
ROOT
ATOM      1  S   LIG d   1       3.130   0.639  -7.712  0.00  0.00     0.061 S 
ATOM      2  O   LIG d   1       2.842   2.011  -7.479  0.00  0.00    -0.153 OA
ATOM      3  O   LIG d   1       2.257  -0.208  -8.448  0.00  0.00    -0.153 OA
ENDROOT
BRANCH   1   4
ATOM      4  N   LIG d   1       4.597   0.587  -8.479  0.00  0.00    -0.168 N 
ATOM      5  C   LIG d   1       5.966   1.111  -8.611  0.00  0.00     0.049 A 
ATOM      6  H   LIG d   1       6.091   2.096  -9.061  0.00  0.00     0.050 H 
ATOM      7  C   LIG d   1       5.449  -0.017  -9.505  0.00  0.00     0.047 A 
ATOM      8  H   LIG d   1       5.233   0.221 -10.547  0.00  0.00     0.049 H 
BRANCH   5   9
ATOM      9  C   LIG d   1       6.972   0.747  -7.518  0.00  0.00    -0.037 C 
ATOM     10  H   LIG d   1       6.464   0.704  -6.556  0.00  0.00     0.028 H 
ATOM     11  H   LIG d   1       7.413  -0.226  -7.740  0.00  0.00     0.028 H 
BRANCH   9  12
ATOM     12  C   LIG d   1       8.075   1.806  -7.466  0.00  0.00    -0.064 C 
ATOM     13  H   LIG d   1       7.973   2.478  -8.319  0.00  0.00     0.023 H 
ATOM     14  H   LIG d   1       7.987   2.377  -6.542  0.00  0.00     0.023 H 
ATOM     15  H   LIG d   1       9.049   1.320  -7.502  0.00  0.00     0.023 H 
ENDBRANCH   9  12
ENDBRANCH   5   9
BRANCH   7  16
ATOM     16  C   LIG d   1       5.980  -1.428  -9.246  0.00  0.00    -0.046 C 
ATOM     17  H   LIG d   1       5.612  -2.104 -10.019  0.00  0.00     0.025 H 
ATOM     18  H   LIG d   1       7.071  -1.415  -9.265  0.00  0.00     0.025 H 
ATOM     19  H   LIG d   1       5.638  -1.772  -8.270  0.00  0.00     0.025 H 
ENDBRANCH   7  16
ENDBRANCH   1   4
BRANCH   1  20
ATOM     20  C   LIG d   1       3.341  -0.107  -6.131  0.00  0.00     0.105 A 
ATOM     21  C   LIG d   1       4.266  -1.121  -5.962  0.00  0.00    -0.035 A 
ATOM     22  C   LIG d   1       4.431  -1.705  -4.720  0.00  0.00    -0.057 A 
ATOM     23  H   LIG d   1       4.860  -1.455  -6.800  0.00  0.00     0.064 H 
ATOM     24  C   LIG d   1       3.673  -1.277  -3.647  0.00  0.00    -0.050 A 
ATOM     25  H   LIG d   1       5.155  -2.497  -4.588  0.00  0.00     0.062 H 
ATOM     26  C   LIG d   1       2.748  -0.264  -3.816  0.00  0.00    -0.057 A 
ATOM     27  C   LIG d   1       2.585   0.324  -5.056  0.00  0.00    -0.035 A 
ATOM     28  H   LIG d   1       2.155   0.071  -2.978  0.00  0.00     0.062 H 
ATOM     29  H   LIG d   1       1.866   1.120  -5.187  0.00  0.00     0.064 H 
BRANCH  24  30
ATOM     30  C   LIG d   1       3.854  -1.914  -2.294  0.00  0.00    -0.040 C 
ATOM     31  H   LIG d   1       2.882  -2.033  -1.816  0.00  0.00     0.028 H 
ATOM     32  H   LIG d   1       4.323  -2.891  -2.412  0.00  0.00     0.028 H 
ATOM     33  H   LIG d   1       4.488  -1.279  -1.675  0.00  0.00     0.028 H 
ENDBRANCH  24  30
ENDBRANCH   1  20
TORSDOF 6
ENDMDL
MODEL 9
REMARK VINA RESULT:      -5.0      2.164      2.714
REMARK  6 active torsions:
REMARK  status: ('A' for Active; 'I' for Inactive)
REMARK    1  A    between atoms: C_1  and  C_2 
REMARK    2  A    between atoms: C_2  and  C_3 
REMARK    3  A    between atoms: C_5  and  C_18 
REMARK    4  A    between atoms: N_7  and  S_8 
REMARK    5  A    between atoms: S_8  and  C_11 
REMARK    6  A    between atoms: C_14  and  C_17 
ROOT
ATOM      1  S   LIG d   1       5.209  -2.050  -5.380  0.00  0.00     0.061 S 
ATOM      2  O   LIG d   1       6.629  -2.004  -5.345  0.00  0.00    -0.153 OA
ATOM      3  O   LIG d   1       4.494  -3.232  -5.716  0.00  0.00    -0.153 OA
ENDROOT
BRANCH   1   4
ATOM      4  N   LIG d   1       4.683  -1.588  -3.879  0.00  0.00    -0.168 N 
ATOM      5  C   LIG d   1       4.971  -0.938  -2.590  0.00  0.00     0.049 A 
ATOM      6  H   LIG d   1       5.609  -1.470  -1.885  0.00  0.00     0.050 H 
ATOM      7  C   LIG d   1       3.598  -1.537  -2.897  0.00  0.00     0.047 A 
ATOM      8  H   LIG d   1       3.327  -2.466  -2.394  0.00  0.00     0.049 H 
BRANCH   5   9
ATOM      9  C   LIG d   1       5.094   0.587  -2.579  0.00  0.00    -0.037 C 
ATOM     10  H   LIG d   1       4.204   1.027  -3.025  0.00  0.00     0.028 H 
ATOM     11  H   LIG d   1       5.195   0.935  -1.550  0.00  0.00     0.028 H 
BRANCH   9  12
ATOM     12  C   LIG d   1       6.329   1.005  -3.380  0.00  0.00    -0.064 C 
ATOM     13  H   LIG d   1       6.665   0.168  -3.991  0.00  0.00     0.023 H 
ATOM     14  H   LIG d   1       6.074   1.846  -4.026  0.00  0.00     0.023 H 
ATOM     15  H   LIG d   1       7.124   1.299  -2.697  0.00  0.00     0.023 H 
ENDBRANCH   9  12
ENDBRANCH   5   9
BRANCH   7  16
ATOM     16  C   LIG d   1       2.444  -0.569  -3.163  0.00  0.00    -0.046 C 
ATOM     17  H   LIG d   1       2.625  -0.034  -4.096  0.00  0.00     0.025 H 
ATOM     18  H   LIG d   1       1.511  -1.128  -3.240  0.00  0.00     0.025 H 
ATOM     19  H   LIG d   1       2.372   0.145  -2.343  0.00  0.00     0.025 H 
ENDBRANCH   7  16
ENDBRANCH   1   4
BRANCH   1  20
ATOM     20  C   LIG d   1       4.693  -0.809  -6.518  0.00  0.00     0.105 A 
ATOM     21  C   LIG d   1       3.396  -0.330  -6.478  0.00  0.00    -0.035 A 
ATOM     22  C   LIG d   1       2.992   0.645  -7.372  0.00  0.00    -0.057 A 
ATOM     23  H   LIG d   1       2.700  -0.716  -5.749  0.00  0.00     0.064 H 
ATOM     24  C   LIG d   1       3.883   1.140  -8.305  0.00  0.00    -0.050 A 
ATOM     25  H   LIG d   1       1.979   1.020  -7.340  0.00  0.00     0.062 H 
ATOM     26  C   LIG d   1       5.179   0.661  -8.345  0.00  0.00    -0.057 A 
ATOM     27  C   LIG d   1       5.585  -0.310  -7.449  0.00  0.00    -0.035 A 
ATOM     28  H   LIG d   1       5.876   1.048  -9.074  0.00  0.00     0.062 H 
ATOM     29  H   LIG d   1       6.600  -0.680  -7.476  0.00  0.00     0.064 H 
BRANCH  24  30
ATOM     30  C   LIG d   1       3.443   2.203  -9.278  0.00  0.00    -0.040 C 
ATOM     31  H   LIG d   1       4.249   2.408  -9.982  0.00  0.00     0.028 H 
ATOM     32  H   LIG d   1       2.565   1.855  -9.822  0.00  0.00     0.028 H 
ATOM     33  H   LIG d   1       3.195   3.115  -8.734  0.00  0.00     0.028 H 
ENDBRANCH  24  30
ENDBRANCH   1  20
TORSDOF 6
ENDMDL
