MODEL 1
REMARK VINA RESULT:      -6.7      0.000      0.000
REMARK  12 active torsions:
REMARK  status: ('A' for Active; 'I' for Inactive)
REMARK    1  A    between atoms: C_1  and  N_2 
REMARK    2  A    between atoms: N_2  and  C_3 
REMARK    3  A    between atoms: N_2  and  C_4 
REMARK    4  A    between atoms: C_7  and  C_10 
REMARK       I    between atoms: C_10  and  N_12 
REMARK    5  A    between atoms: N_12  and  C_13 
REMARK    6  A    between atoms: C_13  and  C_14 
REMARK    7  A    between atoms: C_22  and  C_24 
REMARK    8  A    between atoms: C_24  and  N_70 
REMARK    9  A    between atoms: C_25  and  N_70 
REMARK   10  A    between atoms: C_26  and  C_27 
REMARK   11  A    between atoms: C_26  and  N_70 
REMARK   12  A    between atoms: C_27  and  C_28 
ROOT
ATOM      1  C   LIG d   1       8.521  -0.150  -4.982  0.00  0.00    -0.005 C 
ATOM      2  H   LIG d   1       9.410  -0.148  -4.350  0.00  0.00     0.087 H 
ATOM      3  C   LIG d   1       7.274  -0.307  -4.106  0.00  0.00    -0.005 C 
ATOM      4  C   LIG d   1       6.533  -1.585  -4.524  0.00  0.00    -0.019 C 
ATOM      5  H   LIG d   1       5.637  -1.713  -3.917  0.00  0.00     0.031 H 
ATOM      6  C   LIG d   1       7.481  -2.777  -4.352  0.00  0.00    -0.009 C 
ATOM      7  C   LIG d   1       8.723  -2.552  -5.219  0.00  0.00    -0.031 C 
ATOM      8  C   LIG d   1       7.434  -1.279  -6.828  0.00  0.00    -0.024 C 
ATOM      9  C   LIG d   1       6.156  -1.468  -6.006  0.00  0.00     0.042 C 
ATOM     10  H   LIG d   1       5.646  -2.377  -6.326  0.00  0.00     0.041 H 
ATOM     11  H   LIG d   1       7.569  -0.381  -3.060  0.00  0.00     0.032 H 
ATOM     12  H   LIG d   1       6.621   0.555  -4.244  0.00  0.00     0.032 H 
ATOM     13  H   LIG d   1       7.777  -2.862  -3.306  0.00  0.00     0.032 H 
ATOM     14  H   LIG d   1       6.978  -3.692  -4.664  0.00  0.00     0.032 H 
ATOM     15  H   LIG d   1       8.813  -3.361  -5.944  0.00  0.00     0.081 H 
ATOM     16  H   LIG d   1       9.610  -2.530  -4.587  0.00  0.00     0.081 H 
ATOM     17  H   LIG d   1       7.531  -2.099  -7.541  0.00  0.00     0.082 H 
ATOM     18  H   LIG d   1       7.384  -0.333  -7.366  0.00  0.00     0.082 H 
ATOM     19  N   LIG d   1       8.619  -1.268  -5.945  0.00  0.00     0.239 N 
ATOM     20  H   LIG d   1       9.461  -1.140  -6.518  0.00  0.00     0.204 HD
ENDROOT
BRANCH   1  21
ATOM     21  C   LIG d   1       8.440   1.167  -5.754  0.00  0.00     0.055 C 
ATOM     22  H   LIG d   1       9.230   1.196  -6.506  0.00  0.00     0.052 H 
ATOM     23  H   LIG d   1       7.470   1.243  -6.243  0.00  0.00     0.052 H 
BRANCH  21  24
ATOM     24  N   LIG d   1       8.608   2.288  -4.826  0.00  0.00    -0.306 N 
ATOM     25  C   LIG d   1       9.485   3.273  -5.110  0.00  0.00     0.244 C 
ATOM     26  O   LIG d   1      10.136   3.230  -6.136  0.00  0.00    -0.270 OA
ATOM     27  H   LIG d   1       8.090   2.323  -4.008  0.00  0.00     0.149 HD
BRANCH  25  28
ATOM     28  C   LIG d   1       9.654   4.401  -4.175  0.00  0.00     0.037 A 
ATOM     29  C   LIG d   1       9.376   5.706  -4.595  0.00  0.00    -0.048 A 
ATOM     30  C   LIG d   1       9.534   6.756  -3.721  0.00  0.00    -0.040 A 
ATOM     31  H   LIG d   1       9.036   5.888  -5.604  0.00  0.00     0.063 H 
ATOM     32  C   LIG d   1       9.970   6.522  -2.420  0.00  0.00     0.029 A 
ATOM     33  H   LIG d   1       9.319   7.764  -4.045  0.00  0.00     0.064 H 
ATOM     34  C   LIG d   1      10.249   5.225  -2.000  0.00  0.00    -0.040 A 
ATOM     35  C   LIG d   1      10.087   4.169  -2.867  0.00  0.00    -0.048 A 
ATOM     36  H   LIG d   1      10.588   5.046  -0.990  0.00  0.00     0.064 H 
ATOM     37  H   LIG d   1      10.298   3.161  -2.539  0.00  0.00     0.063 H 
BRANCH  32  38
ATOM     38  N   LIG d   1      10.130   7.586  -1.539  0.00  0.00    -0.336 N 
BRANCH  38  39
ATOM     39  C   LIG d   1       9.887   8.957  -1.996  0.00  0.00     0.000 C 
ATOM     40  H   LIG d   1       9.887   8.982  -3.085  0.00  0.00     0.043 H 
ATOM     41  H   LIG d   1       8.919   9.296  -1.625  0.00  0.00     0.043 H 
ATOM     42  H   LIG d   1      10.671   9.612  -1.617  0.00  0.00     0.043 H 
ENDBRANCH  38  39
BRANCH  38  43
ATOM     43  C   LIG d   1      10.541   7.336  -0.155  0.00  0.00     0.000 C 
ATOM     44  H   LIG d   1      11.236   6.498  -0.129  0.00  0.00     0.043 H 
ATOM     45  H   LIG d   1      11.028   8.225   0.245  0.00  0.00     0.043 H 
ATOM     46  H   LIG d   1       9.663   7.100   0.447  0.00  0.00     0.043 H 
ENDBRANCH  38  43
ENDBRANCH  32  38
ENDBRANCH  25  28
ENDBRANCH  21  24
ENDBRANCH   1  21
BRANCH   9  47
ATOM     47  C   LIG d   1       5.234  -0.264  -6.207  0.00  0.00    -0.024 C 
ATOM     48  H   LIG d   1       5.492   0.240  -7.138  0.00  0.00     0.082 H 
ATOM     49  H   LIG d   1       5.352   0.427  -5.373  0.00  0.00     0.082 H 
BRANCH  47  50
ATOM     50  N   LIG d   1       3.837  -0.745  -6.288  0.00  0.00     0.234 N 
ATOM     51  H   LIG d   1       3.688  -1.458  -5.565  0.00  0.00     0.203 HD
BRANCH  50  52
ATOM     52  C   LIG d   1       3.587  -1.346  -7.615  0.00  0.00    -0.043 C 
ATOM     53  H   LIG d   1       2.600  -1.808  -7.616  0.00  0.00     0.078 H 
ATOM     54  H   LIG d   1       3.619  -0.559  -8.370  0.00  0.00     0.078 H 
ATOM     55  H   LIG d   1       4.342  -2.098  -7.843  0.00  0.00     0.078 H 
ENDBRANCH  50  52
BRANCH  50  56
ATOM     56  C   LIG d   1       2.903   0.377  -6.057  0.00  0.00    -0.027 C 
ATOM     57  H   LIG d   1       3.476   1.285  -5.867  0.00  0.00     0.082 H 
ATOM     58  H   LIG d   1       2.263   0.527  -6.926  0.00  0.00     0.082 H 
BRANCH  56  59
ATOM     59  C   LIG d   1       2.039   0.055  -4.835  0.00  0.00     0.030 C 
ATOM     60  H   LIG d   1       1.438   0.927  -4.576  0.00  0.00     0.038 H 
ATOM     61  H   LIG d   1       1.382  -0.784  -5.066  0.00  0.00     0.038 H 
BRANCH  59  62
ATOM     62  C   LIG d   1       2.927  -0.306  -3.673  0.00  0.00     0.046 A 
ATOM     63  N   LIG d   1       3.109  -1.575  -3.362  0.00  0.00    -0.260 NA
ATOM     64  C   LIG d   1       3.878  -1.939  -2.354  0.00  0.00     0.028 A 
ATOM     65  C   LIG d   1       4.523  -0.993  -1.580  0.00  0.00    -0.044 A 
ATOM     66  H   LIG d   1       4.003  -2.988  -2.129  0.00  0.00     0.083 H 
ATOM     67  C   LIG d   1       4.356   0.351  -1.877  0.00  0.00    -0.059 A 
ATOM     68  H   LIG d   1       5.151  -1.297  -0.755  0.00  0.00     0.063 H 
ATOM     69  C   LIG d   1       3.546   0.694  -2.948  0.00  0.00    -0.040 A 
ATOM     70  H   LIG d   1       4.848   1.112  -1.290  0.00  0.00     0.062 H 
ATOM     71  H   LIG d   1       3.398   1.732  -3.211  0.00  0.00     0.064 H 
ENDBRANCH  59  62
ENDBRANCH  56  59
ENDBRANCH  50  56
ENDBRANCH  47  50
ENDBRANCH   9  47
TORSDOF 12
ENDMDL
MODEL 2
REMARK VINA RESULT:      -6.5      2.197      4.182
REMARK  12 active torsions:
REMARK  status: ('A' for Active; 'I' for Inactive)
REMARK    1  A    between atoms: C_1  and  N_2 
REMARK    2  A    between atoms: N_2  and  C_3 
REMARK    3  A    between atoms: N_2  and  C_4 
REMARK    4  A    between atoms: C_7  and  C_10 
REMARK       I    between atoms: C_10  and  N_12 
REMARK    5  A    between atoms: N_12  and  C_13 
REMARK    6  A    between atoms: C_13  and  C_14 
REMARK    7  A    between atoms: C_22  and  C_24 
REMARK    8  A    between atoms: C_24  and  N_70 
REMARK    9  A    between atoms: C_25  and  N_70 
REMARK   10  A    between atoms: C_26  and  C_27 
REMARK   11  A    between atoms: C_26  and  N_70 
REMARK   12  A    between atoms: C_27  and  C_28 
ROOT
ATOM      1  C   LIG d   1       5.880  -0.260  -3.344  0.00  0.00    -0.005 C 
ATOM      2  H   LIG d   1       5.986   0.470  -2.541  0.00  0.00     0.087 H 
ATOM      3  C   LIG d   1       4.725   0.154  -4.260  0.00  0.00    -0.005 C 
ATOM      4  C   LIG d   1       3.669  -0.960  -4.260  0.00  0.00    -0.019 C 
ATOM      5  H   LIG d   1       2.839  -0.689  -4.912  0.00  0.00     0.031 H 
ATOM      6  C   LIG d   1       3.183  -1.172  -2.821  0.00  0.00    -0.009 C 
ATOM      7  C   LIG d   1       4.381  -1.548  -1.944  0.00  0.00    -0.031 C 
ATOM      8  C   LIG d   1       5.492  -2.603  -3.821  0.00  0.00    -0.024 C 
ATOM      9  C   LIG d   1       4.325  -2.256  -4.751  0.00  0.00     0.042 C 
ATOM     10  H   LIG d   1       3.595  -3.064  -4.738  0.00  0.00     0.041 H 
ATOM     11  H   LIG d   1       4.281   1.078  -3.893  0.00  0.00     0.032 H 
ATOM     12  H   LIG d   1       5.098   0.302  -5.274  0.00  0.00     0.032 H 
ATOM     13  H   LIG d   1       2.732  -0.252  -2.448  0.00  0.00     0.032 H 
ATOM     14  H   LIG d   1       2.446  -1.975  -2.799  0.00  0.00     0.032 H 
ATOM     15  H   LIG d   1       4.214  -2.530  -1.502  0.00  0.00     0.081 H 
ATOM     16  H   LIG d   1       4.500  -0.808  -1.153  0.00  0.00     0.081 H 
ATOM     17  H   LIG d   1       5.315  -3.578  -3.367  0.00  0.00     0.082 H 
ATOM     18  H   LIG d   1       6.418  -2.631  -4.395  0.00  0.00     0.082 H 
ATOM     19  N   LIG d   1       5.618  -1.590  -2.752  0.00  0.00     0.239 N 
ATOM     20  H   LIG d   1       6.405  -1.844  -2.143  0.00  0.00     0.204 HD
ENDROOT
BRANCH   1  21
ATOM     21  C   LIG d   1       7.177  -0.322  -4.153  0.00  0.00     0.055 C 
ATOM     22  H   LIG d   1       7.670  -1.278  -3.975  0.00  0.00     0.052 H 
ATOM     23  H   LIG d   1       6.949  -0.222  -5.213  0.00  0.00     0.052 H 
BRANCH  21  24
ATOM     24  N   LIG d   1       8.062   0.769  -3.739  0.00  0.00    -0.306 N 
ATOM     25  C   LIG d   1       8.233   1.840  -4.541  0.00  0.00     0.244 C 
ATOM     26  O   LIG d   1       7.653   1.899  -5.608  0.00  0.00    -0.270 OA
ATOM     27  H   LIG d   1       8.525   0.723  -2.888  0.00  0.00     0.149 HD
BRANCH  25  28
ATOM     28  C   LIG d   1       9.124   2.939  -4.124  0.00  0.00     0.037 A 
ATOM     29  C   LIG d   1       9.114   4.151  -4.819  0.00  0.00    -0.048 A 
ATOM     30  C   LIG d   1       9.945   5.175  -4.428  0.00  0.00    -0.040 A 
ATOM     31  H   LIG d   1       8.452   4.285  -5.663  0.00  0.00     0.063 H 
ATOM     32  C   LIG d   1      10.798   5.004  -3.340  0.00  0.00     0.029 A 
ATOM     33  H   LIG d   1       9.937   6.111  -4.965  0.00  0.00     0.064 H 
ATOM     34  C   LIG d   1      10.811   3.798  -2.646  0.00  0.00    -0.040 A 
ATOM     35  C   LIG d   1       9.977   2.772  -3.029  0.00  0.00    -0.048 A 
ATOM     36  H   LIG d   1      11.473   3.668  -1.803  0.00  0.00     0.064 H 
ATOM     37  H   LIG d   1       9.984   1.838  -2.487  0.00  0.00     0.063 H 
BRANCH  32  38
ATOM     38  N   LIG d   1      11.638   6.040  -2.947  0.00  0.00    -0.336 N 
BRANCH  38  39
ATOM     39  C   LIG d   1      11.079   7.232  -2.305  0.00  0.00     0.000 C 
ATOM     40  H   LIG d   1      11.875   7.782  -1.804  0.00  0.00     0.043 H 
ATOM     41  H   LIG d   1      10.617   7.868  -3.061  0.00  0.00     0.043 H 
ATOM     42  H   LIG d   1      10.328   6.933  -1.574  0.00  0.00     0.043 H 
ENDBRANCH  38  39
BRANCH  38  43
ATOM     43  C   LIG d   1      13.082   5.939  -3.175  0.00  0.00     0.000 C 
ATOM     44  H   LIG d   1      13.329   6.381  -4.140  0.00  0.00     0.043 H 
ATOM     45  H   LIG d   1      13.612   6.470  -2.385  0.00  0.00     0.043 H 
ATOM     46  H   LIG d   1      13.378   4.889  -3.170  0.00  0.00     0.043 H 
ENDBRANCH  38  43
ENDBRANCH  32  38
ENDBRANCH  25  28
ENDBRANCH  21  24
ENDBRANCH   1  21
BRANCH   9  47
ATOM     47  C   LIG d   1       4.847  -2.058  -6.176  0.00  0.00    -0.024 C 
ATOM     48  H   LIG d   1       5.861  -2.449  -6.249  0.00  0.00     0.082 H 
ATOM     49  H   LIG d   1       4.847  -0.996  -6.419  0.00  0.00     0.082 H 
BRANCH  47  50
ATOM     50  N   LIG d   1       3.972  -2.802  -7.108  0.00  0.00     0.234 N 
ATOM     51  H   LIG d   1       2.993  -2.651  -6.839  0.00  0.00     0.203 HD
BRANCH  50  52
ATOM     52  C   LIG d   1       4.273  -4.247  -7.037  0.00  0.00    -0.043 C 
ATOM     53  H   LIG d   1       5.287  -4.381  -6.661  0.00  0.00     0.078 H 
ATOM     54  H   LIG d   1       3.568  -4.721  -6.352  0.00  0.00     0.078 H 
ATOM     55  H   LIG d   1       4.186  -4.705  -8.021  0.00  0.00     0.078 H 
ENDBRANCH  50  52
BRANCH  50  56
ATOM     56  C   LIG d   1       4.173  -2.312  -8.488  0.00  0.00    -0.027 C 
ATOM     57  H   LIG d   1       4.979  -1.579  -8.492  0.00  0.00     0.082 H 
ATOM     58  H   LIG d   1       4.428  -3.137  -9.154  0.00  0.00     0.082 H 
BRANCH  56  59
ATOM     59  C   LIG d   1       2.879  -1.649  -8.969  0.00  0.00     0.030 C 
ATOM     60  H   LIG d   1       2.546  -2.129  -9.888  0.00  0.00     0.038 H 
ATOM     61  H   LIG d   1       2.110  -1.756  -8.203  0.00  0.00     0.038 H 
BRANCH  59  62
ATOM     62  C   LIG d   1       3.131  -0.186  -9.228  0.00  0.00     0.046 A 
ATOM     63  N   LIG d   1       3.665   0.191 -10.373  0.00  0.00    -0.260 NA
ATOM     64  C   LIG d   1       3.903   1.460 -10.643  0.00  0.00     0.028 A 
ATOM     65  C   LIG d   1       3.598   2.447  -9.726  0.00  0.00    -0.044 A 
ATOM     66  H   LIG d   1       4.341   1.730 -11.592  0.00  0.00     0.083 H 
ATOM     67  C   LIG d   1       3.034   2.089  -8.510  0.00  0.00    -0.059 A 
ATOM     68  H   LIG d   1       3.795   3.484  -9.953  0.00  0.00     0.063 H 
ATOM     69  C   LIG d   1       2.794   0.746  -8.264  0.00  0.00    -0.040 A 
ATOM     70  H   LIG d   1       2.786   2.839  -7.774  0.00  0.00     0.062 H 
ATOM     71  H   LIG d   1       2.351   0.432  -7.330  0.00  0.00     0.064 H 
ENDBRANCH  59  62
ENDBRANCH  56  59
ENDBRANCH  50  56
ENDBRANCH  47  50
ENDBRANCH   9  47
TORSDOF 12
ENDMDL
MODEL 3
REMARK VINA RESULT:      -6.2      2.203      2.858
REMARK  12 active torsions:
REMARK  status: ('A' for Active; 'I' for Inactive)
REMARK    1  A    between atoms: C_1  and  N_2 
REMARK    2  A    between atoms: N_2  and  C_3 
REMARK    3  A    between atoms: N_2  and  C_4 
REMARK    4  A    between atoms: C_7  and  C_10 
REMARK       I    between atoms: C_10  and  N_12 
REMARK    5  A    between atoms: N_12  and  C_13 
REMARK    6  A    between atoms: C_13  and  C_14 
REMARK    7  A    between atoms: C_22  and  C_24 
REMARK    8  A    between atoms: C_24  and  N_70 
REMARK    9  A    between atoms: C_25  and  N_70 
REMARK   10  A    between atoms: C_26  and  C_27 
REMARK   11  A    between atoms: C_26  and  N_70 
REMARK   12  A    between atoms: C_27  and  C_28 
ROOT
ATOM      1  C   LIG d   1       8.646  -0.620  -5.955  0.00  0.00    -0.005 C 
ATOM      2  H   LIG d   1       9.656  -0.534  -5.553  0.00  0.00     0.087 H 
ATOM      3  C   LIG d   1       7.668   0.123  -5.040  0.00  0.00    -0.005 C 
ATOM      4  C   LIG d   1       6.628  -0.874  -4.512  0.00  0.00    -0.019 C 
ATOM      5  H   LIG d   1       5.917  -0.365  -3.862  0.00  0.00     0.031 H 
ATOM      6  C   LIG d   1       7.360  -1.986  -3.751  0.00  0.00    -0.009 C 
ATOM      7  C   LIG d   1       8.348  -2.670  -4.701  0.00  0.00    -0.031 C 
ATOM      8  C   LIG d   1       6.926  -2.197  -6.605  0.00  0.00    -0.024 C 
ATOM      9  C   LIG d   1       5.899  -1.499  -5.708  0.00  0.00     0.042 C 
ATOM     10  H   LIG d   1       5.169  -2.226  -5.353  0.00  0.00     0.041 H 
ATOM     11  H   LIG d   1       8.212   0.561  -4.203  0.00  0.00     0.032 H 
ATOM     12  H   LIG d   1       7.166   0.909  -5.604  0.00  0.00     0.032 H 
ATOM     13  H   LIG d   1       7.903  -1.556  -2.908  0.00  0.00     0.032 H 
ATOM     14  H   LIG d   1       6.638  -2.716  -3.386  0.00  0.00     0.032 H 
ATOM     15  H   LIG d   1       8.097  -3.727  -4.787  0.00  0.00     0.081 H 
ATOM     16  H   LIG d   1       9.360  -2.566  -4.310  0.00  0.00     0.081 H 
ATOM     17  H   LIG d   1       6.683  -3.257  -6.676  0.00  0.00     0.082 H 
ATOM     18  H   LIG d   1       6.904  -1.750  -7.598  0.00  0.00     0.082 H 
ATOM     19  N   LIG d   1       8.285  -2.051  -6.042  0.00  0.00     0.239 N 
ATOM     20  H   LIG d   1       8.954  -2.526  -6.659  0.00  0.00     0.204 HD
ENDROOT
BRANCH   1  21
ATOM     21  C   LIG d   1       8.599  -0.008  -7.356  0.00  0.00     0.055 C 
ATOM     22  H   LIG d   1       9.478  -0.323  -7.919  0.00  0.00     0.052 H 
ATOM     23  H   LIG d   1       7.699  -0.345  -7.870  0.00  0.00     0.052 H 
BRANCH  21  24
ATOM     24  N   LIG d   1       8.584   1.453  -7.250  0.00  0.00    -0.306 N 
ATOM     25  C   LIG d   1       9.715   2.156  -7.465  0.00  0.00     0.244 C 
ATOM     26  O   LIG d   1      10.747   1.576  -7.745  0.00  0.00    -0.270 OA
ATOM     27  H   LIG d   1       7.762   1.915  -7.027  0.00  0.00     0.149 HD
BRANCH  25  28
ATOM     28  C   LIG d   1       9.700   3.627  -7.359  0.00  0.00     0.037 A 
ATOM     29  C   LIG d   1       9.816   4.239  -6.107  0.00  0.00    -0.048 A 
ATOM     30  C   LIG d   1       9.802   5.612  -6.011  0.00  0.00    -0.040 A 
ATOM     31  H   LIG d   1       9.917   3.636  -5.217  0.00  0.00     0.063 H 
ATOM     32  C   LIG d   1       9.673   6.390  -7.158  0.00  0.00     0.029 A 
ATOM     33  H   LIG d   1       9.892   6.085  -5.045  0.00  0.00     0.064 H 
ATOM     34  C   LIG d   1       9.556   5.783  -8.405  0.00  0.00    -0.040 A 
ATOM     35  C   LIG d   1       9.575   4.411  -8.508  0.00  0.00    -0.048 A 
ATOM     36  H   LIG d   1       9.456   6.389  -9.293  0.00  0.00     0.064 H 
ATOM     37  H   LIG d   1       9.490   3.940  -9.477  0.00  0.00     0.063 H 
BRANCH  32  38
ATOM     38  N   LIG d   1       9.658   7.777  -7.057  0.00  0.00    -0.336 N 
BRANCH  38  39
ATOM     39  C   LIG d   1       9.401   8.415  -5.764  0.00  0.00     0.000 C 
ATOM     40  H   LIG d   1       8.348   8.690  -5.698  0.00  0.00     0.043 H 
ATOM     41  H   LIG d   1       9.645   7.718  -4.961  0.00  0.00     0.043 H 
ATOM     42  H   LIG d   1      10.017   9.308  -5.669  0.00  0.00     0.043 H 
ENDBRANCH  38  39
BRANCH  38  43
ATOM     43  C   LIG d   1       9.901   8.600  -8.245  0.00  0.00     0.000 C 
ATOM     44  H   LIG d   1       9.151   9.388  -8.300  0.00  0.00     0.043 H 
ATOM     45  H   LIG d   1      10.894   9.046  -8.181  0.00  0.00     0.043 H 
ATOM     46  H   LIG d   1       9.839   7.977  -9.138  0.00  0.00     0.043 H 
ENDBRANCH  38  43
ENDBRANCH  32  38
ENDBRANCH  25  28
ENDBRANCH  21  24
ENDBRANCH   1  21
BRANCH   9  47
ATOM     47  C   LIG d   1       5.185  -0.403  -6.502  0.00  0.00    -0.024 C 
ATOM     48  H   LIG d   1       5.547  -0.405  -7.530  0.00  0.00     0.082 H 
ATOM     49  H   LIG d   1       5.389   0.567  -6.047  0.00  0.00     0.082 H 
BRANCH  47  50
ATOM     50  N   LIG d   1       3.733  -0.683  -6.498  0.00  0.00     0.234 N 
ATOM     51  H   LIG d   1       3.544  -1.454  -5.847  0.00  0.00     0.203 HD
BRANCH  50  52
ATOM     52  C   LIG d   1       3.292  -1.077  -7.852  0.00  0.00    -0.043 C 
ATOM     53  H   LIG d   1       3.939  -0.602  -8.589  0.00  0.00     0.078 H 
ATOM     54  H   LIG d   1       3.370  -2.161  -7.946  0.00  0.00     0.078 H 
ATOM     55  H   LIG d   1       2.261  -0.771  -8.022  0.00  0.00     0.078 H 
ENDBRANCH  50  52
BRANCH  50  56
ATOM     56  C   LIG d   1       2.990   0.515  -6.052  0.00  0.00    -0.027 C 
ATOM     57  H   LIG d   1       3.700   1.278  -5.736  0.00  0.00     0.082 H 
ATOM     58  H   LIG d   1       2.374   0.905  -6.863  0.00  0.00     0.082 H 
BRANCH  56  59
ATOM     59  C   LIG d   1       2.096   0.129  -4.872  0.00  0.00     0.030 C 
ATOM     60  H   LIG d   1       1.472   0.979  -4.596  0.00  0.00     0.038 H 
ATOM     61  H   LIG d   1       1.461  -0.710  -5.156  0.00  0.00     0.038 H 
BRANCH  59  62
ATOM     62  C   LIG d   1       2.955  -0.266  -3.699  0.00  0.00     0.046 A 
ATOM     63  N   LIG d   1       3.120  -1.543  -3.412  0.00  0.00    -0.260 NA
ATOM     64  C   LIG d   1       3.864  -1.935  -2.396  0.00  0.00     0.028 A 
ATOM     65  C   LIG d   1       4.499  -1.012  -1.588  0.00  0.00    -0.044 A 
ATOM     66  H   LIG d   1       3.975  -2.990  -2.193  0.00  0.00     0.083 H 
ATOM     67  C   LIG d   1       4.349   0.340  -1.858  0.00  0.00    -0.059 A 
ATOM     68  H   LIG d   1       5.107  -1.340  -0.756  0.00  0.00     0.063 H 
ATOM     69  C   LIG d   1       3.566   0.714  -2.938  0.00  0.00    -0.040 A 
ATOM     70  H   LIG d   1       4.834   1.084  -1.243  0.00  0.00     0.062 H 
ATOM     71  H   LIG d   1       3.431   1.758  -3.181  0.00  0.00     0.064 H 
ENDBRANCH  59  62
ENDBRANCH  56  59
ENDBRANCH  50  56
ENDBRANCH  47  50
ENDBRANCH   9  47
TORSDOF 12
ENDMDL
MODEL 4
REMARK VINA RESULT:      -6.2      4.582      8.931
REMARK  12 active torsions:
REMARK  status: ('A' for Active; 'I' for Inactive)
REMARK    1  A    between atoms: C_1  and  N_2 
REMARK    2  A    between atoms: N_2  and  C_3 
REMARK    3  A    between atoms: N_2  and  C_4 
REMARK    4  A    between atoms: C_7  and  C_10 
REMARK       I    between atoms: C_10  and  N_12 
REMARK    5  A    between atoms: N_12  and  C_13 
REMARK    6  A    between atoms: C_13  and  C_14 
REMARK    7  A    between atoms: C_22  and  C_24 
REMARK    8  A    between atoms: C_24  and  N_70 
REMARK    9  A    between atoms: C_25  and  N_70 
REMARK   10  A    between atoms: C_26  and  C_27 
REMARK   11  A    between atoms: C_26  and  N_70 
REMARK   12  A    between atoms: C_27  and  C_28 
ROOT
ATOM      1  C   LIG d   1       3.128  -0.281  -4.216  0.00  0.00    -0.005 C 
ATOM      2  H   LIG d   1       2.125  -0.550  -3.883  0.00  0.00     0.087 H 
ATOM      3  C   LIG d   1       3.829  -1.522  -4.776  0.00  0.00    -0.005 C 
ATOM      4  C   LIG d   1       5.097  -1.788  -3.953  0.00  0.00    -0.019 C 
ATOM      5  H   LIG d   1       5.617  -2.665  -4.338  0.00  0.00     0.031 H 
ATOM      6  C   LIG d   1       4.693  -1.996  -2.488  0.00  0.00    -0.009 C 
ATOM      7  C   LIG d   1       3.966  -0.743  -1.991  0.00  0.00    -0.031 C 
ATOM      8  C   LIG d   1       5.242   0.660  -3.501  0.00  0.00    -0.024 C 
ATOM      9  C   LIG d   1       6.004  -0.555  -4.040  0.00  0.00     0.042 C 
ATOM     10  H   LIG d   1       6.902  -0.717  -3.443  0.00  0.00     0.041 H 
ATOM     11  H   LIG d   1       3.163  -2.381  -4.708  0.00  0.00     0.032 H 
ATOM     12  H   LIG d   1       4.101  -1.349  -5.818  0.00  0.00     0.032 H 
ATOM     13  H   LIG d   1       4.029  -2.857  -2.410  0.00  0.00     0.032 H 
ATOM     14  H   LIG d   1       5.584  -2.166  -1.884  0.00  0.00     0.032 H 
ATOM     15  H   LIG d   1       4.510  -0.317  -1.149  0.00  0.00     0.081 H 
ATOM     16  H   LIG d   1       2.957  -1.008  -1.677  0.00  0.00     0.081 H 
ATOM     17  H   LIG d   1       5.778   1.075  -2.647  0.00  0.00     0.082 H 
ATOM     18  H   LIG d   1       5.161   1.415  -4.282  0.00  0.00     0.082 H 
ATOM     19  N   LIG d   1       3.884   0.266  -3.069  0.00  0.00     0.239 N 
ATOM     20  H   LIG d   1       3.394   1.095  -2.713  0.00  0.00     0.204 HD
ENDROOT
BRANCH   1  21
ATOM     21  C   LIG d   1       3.034   0.788  -5.306  0.00  0.00     0.055 C 
ATOM     22  H   LIG d   1       2.179   1.435  -5.108  0.00  0.00     0.052 H 
ATOM     23  H   LIG d   1       3.946   1.383  -5.311  0.00  0.00     0.052 H 
BRANCH  21  24
ATOM     24  N   LIG d   1       2.865   0.142  -6.610  0.00  0.00    -0.306 N 
ATOM     25  C   LIG d   1       2.826   0.888  -7.732  0.00  0.00     0.244 C 
ATOM     26  O   LIG d   1       2.929   2.098  -7.662  0.00  0.00    -0.270 OA
ATOM     27  H   LIG d   1       2.783  -0.823  -6.667  0.00  0.00     0.149 HD
BRANCH  25  28
ATOM     28  C   LIG d   1       2.656   0.237  -9.045  0.00  0.00     0.037 A 
ATOM     29  C   LIG d   1       1.698  -0.768  -9.209  0.00  0.00    -0.048 A 
ATOM     30  C   LIG d   1       1.542  -1.373 -10.435  0.00  0.00    -0.040 A 
ATOM     31  H   LIG d   1       1.081  -1.069  -8.375  0.00  0.00     0.063 H 
ATOM     32  C   LIG d   1       2.336  -0.986 -11.511  0.00  0.00     0.029 A 
ATOM     33  H   LIG d   1       0.802  -2.149 -10.563  0.00  0.00     0.064 H 
ATOM     34  C   LIG d   1       3.291   0.014 -11.350  0.00  0.00    -0.040 A 
ATOM     35  C   LIG d   1       3.448   0.628 -10.128  0.00  0.00    -0.048 A 
ATOM     36  H   LIG d   1       3.906   0.313 -12.186  0.00  0.00     0.064 H 
ATOM     37  H   LIG d   1       4.186   1.407 -10.005  0.00  0.00     0.063 H 
BRANCH  32  38
ATOM     38  N   LIG d   1       2.176  -1.600 -12.749  0.00  0.00    -0.336 N 
BRANCH  38  39
ATOM     39  C   LIG d   1       3.281  -1.604 -13.711  0.00  0.00     0.000 C 
ATOM     40  H   LIG d   1       4.184  -1.972 -13.224  0.00  0.00     0.043 H 
ATOM     41  H   LIG d   1       3.029  -2.255 -14.549  0.00  0.00     0.043 H 
ATOM     42  H   LIG d   1       3.450  -0.591 -14.075  0.00  0.00     0.043 H 
ENDBRANCH  38  39
BRANCH  38  43
ATOM     43  C   LIG d   1       0.904  -2.241 -13.089  0.00  0.00     0.000 C 
ATOM     44  H   LIG d   1       0.873  -2.439 -14.160  0.00  0.00     0.043 H 
ATOM     45  H   LIG d   1       0.813  -3.180 -12.543  0.00  0.00     0.043 H 
ATOM     46  H   LIG d   1       0.080  -1.581 -12.818  0.00  0.00     0.043 H 
ENDBRANCH  38  43
ENDBRANCH  32  38
ENDBRANCH  25  28
ENDBRANCH  21  24
ENDBRANCH   1  21
BRANCH   9  47
ATOM     47  C   LIG d   1       6.395  -0.308  -5.498  0.00  0.00    -0.024 C 
ATOM     48  H   LIG d   1       6.837   0.684  -5.594  0.00  0.00     0.082 H 
ATOM     49  H   LIG d   1       5.509  -0.374  -6.128  0.00  0.00     0.082 H 
BRANCH  47  50
ATOM     50  N   LIG d   1       7.393  -1.323  -5.900  0.00  0.00     0.234 N 
ATOM     51  H   LIG d   1       7.132  -2.228  -5.490  0.00  0.00     0.203 HD
BRANCH  50  52
ATOM     52  C   LIG d   1       8.731  -0.939  -5.404  0.00  0.00    -0.043 C 
ATOM     53  H   LIG d   1       9.451  -1.027  -6.217  0.00  0.00     0.078 H 
ATOM     54  H   LIG d   1       8.696   0.097  -5.062  0.00  0.00     0.078 H 
ATOM     55  H   LIG d   1       9.033  -1.583  -4.579  0.00  0.00     0.078 H 
ENDBRANCH  50  52
BRANCH  50  56
ATOM     56  C   LIG d   1       7.417  -1.452  -7.372  0.00  0.00    -0.027 C 
ATOM     57  H   LIG d   1       8.233  -0.848  -7.769  0.00  0.00     0.082 H 
ATOM     58  H   LIG d   1       7.561  -2.493  -7.662  0.00  0.00     0.082 H 
BRANCH  56  59
ATOM     59  C   LIG d   1       6.087  -0.944  -7.933  0.00  0.00     0.030 C 
ATOM     60  H   LIG d   1       5.447  -0.621  -7.113  0.00  0.00     0.038 H 
ATOM     61  H   LIG d   1       6.272  -0.104  -8.603  0.00  0.00     0.038 H 
BRANCH  59  62
ATOM     62  C   LIG d   1       5.407  -2.053  -8.694  0.00  0.00     0.046 A 
ATOM     63  N   LIG d   1       5.720  -2.262  -9.959  0.00  0.00    -0.260 NA
ATOM     64  C   LIG d   1       5.151  -3.221 -10.664  0.00  0.00     0.028 A 
ATOM     65  C   LIG d   1       4.198  -4.045 -10.097  0.00  0.00    -0.044 A 
ATOM     66  H   LIG d   1       5.433  -3.362 -11.697  0.00  0.00     0.083 H 
ATOM     67  C   LIG d   1       3.844  -3.856  -8.769  0.00  0.00    -0.059 A 
ATOM     68  H   LIG d   1       3.736  -4.829 -10.680  0.00  0.00     0.063 H 
ATOM     69  C   LIG d   1       4.467  -2.843  -8.059  0.00  0.00    -0.040 A 
ATOM     70  H   LIG d   1       3.102  -4.485  -8.300  0.00  0.00     0.062 H 
ATOM     71  H   LIG d   1       4.220  -2.670  -7.021  0.00  0.00     0.064 H 
ENDBRANCH  59  62
ENDBRANCH  56  59
ENDBRANCH  50  56
ENDBRANCH  47  50
ENDBRANCH   9  47
TORSDOF 12
ENDMDL
MODEL 5
REMARK VINA RESULT:      -6.0      3.193      9.791
REMARK  12 active torsions:
REMARK  status: ('A' for Active; 'I' for Inactive)
REMARK    1  A    between atoms: C_1  and  N_2 
REMARK    2  A    between atoms: N_2  and  C_3 
REMARK    3  A    between atoms: N_2  and  C_4 
REMARK    4  A    between atoms: C_7  and  C_10 
REMARK       I    between atoms: C_10  and  N_12 
REMARK    5  A    between atoms: N_12  and  C_13 
REMARK    6  A    between atoms: C_13  and  C_14 
REMARK    7  A    between atoms: C_22  and  C_24 
REMARK    8  A    between atoms: C_24  and  N_70 
REMARK    9  A    between atoms: C_25  and  N_70 
REMARK   10  A    between atoms: C_26  and  C_27 
REMARK   11  A    between atoms: C_26  and  N_70 
REMARK   12  A    between atoms: C_27  and  C_28 
ROOT
ATOM      1  C   LIG d   1       3.951  -1.155  -4.803  0.00  0.00    -0.005 C 
ATOM      2  H   LIG d   1       3.030  -1.716  -4.968  0.00  0.00     0.087 H 
ATOM      3  C   LIG d   1       5.048  -2.106  -4.316  0.00  0.00    -0.005 C 
ATOM      4  C   LIG d   1       5.524  -1.646  -2.932  0.00  0.00    -0.019 C 
ATOM      5  H   LIG d   1       6.312  -2.306  -2.568  0.00  0.00     0.031 H 
ATOM      6  C   LIG d   1       4.325  -1.651  -1.976  0.00  0.00    -0.009 C 
ATOM      7  C   LIG d   1       3.247  -0.713  -2.528  0.00  0.00    -0.031 C 
ATOM      8  C   LIG d   1       4.926   0.689  -3.571  0.00  0.00    -0.024 C 
ATOM      9  C   LIG d   1       6.051  -0.210  -3.049  0.00  0.00     0.042 C 
ATOM     10  H   LIG d   1       6.375   0.142  -2.070  0.00  0.00     0.041 H 
ATOM     11  H   LIG d   1       4.650  -3.118  -4.247  0.00  0.00     0.032 H 
ATOM     12  H   LIG d   1       5.884  -2.087  -5.015  0.00  0.00     0.032 H 
ATOM     13  H   LIG d   1       3.924  -2.662  -1.898  0.00  0.00     0.032 H 
ATOM     14  H   LIG d   1       4.641  -1.306  -0.992  0.00  0.00     0.032 H 
ATOM     15  H   LIG d   1       3.048   0.077  -1.805  0.00  0.00     0.081 H 
ATOM     16  H   LIG d   1       2.333  -1.278  -2.712  0.00  0.00     0.081 H 
ATOM     17  H   LIG d   1       4.716   1.469  -2.840  0.00  0.00     0.082 H 
ATOM     18  H   LIG d   1       5.232   1.145  -4.513  0.00  0.00     0.082 H 
ATOM     19  N   LIG d   1       3.697  -0.102  -3.797  0.00  0.00     0.239 N 
ATOM     20  H   LIG d   1       2.959   0.521  -4.146  0.00  0.00     0.204 HD
ENDROOT
BRANCH   1  21
ATOM     21  C   LIG d   1       4.389  -0.497  -6.113  0.00  0.00     0.055 C 
ATOM     22  H   LIG d   1       4.081   0.548  -6.114  0.00  0.00     0.052 H 
ATOM     23  H   LIG d   1       5.473  -0.557  -6.204  0.00  0.00     0.052 H 
BRANCH  21  24
ATOM     24  N   LIG d   1       3.764  -1.193  -7.240  0.00  0.00    -0.306 N 
ATOM     25  C   LIG d   1       3.022  -0.503  -8.130  0.00  0.00     0.244 C 
ATOM     26  O   LIG d   1       2.871   0.697  -7.995  0.00  0.00    -0.270 OA
ATOM     27  H   LIG d   1       3.885  -2.149  -7.349  0.00  0.00     0.149 HD
BRANCH  25  28
ATOM     28  C   LIG d   1       2.393  -1.202  -9.266  0.00  0.00     0.037 A 
ATOM     29  C   LIG d   1       2.592  -2.575  -9.439  0.00  0.00    -0.048 A 
ATOM     30  C   LIG d   1       2.004  -3.226 -10.499  0.00  0.00    -0.040 A 
ATOM     31  H   LIG d   1       3.207  -3.125  -8.741  0.00  0.00     0.063 H 
ATOM     32  C   LIG d   1       1.211  -2.518 -11.399  0.00  0.00     0.029 A 
ATOM     33  H   LIG d   1       2.157  -4.286 -10.634  0.00  0.00     0.064 H 
ATOM     34  C   LIG d   1       1.011  -1.151 -11.229  0.00  0.00    -0.040 A 
ATOM     35  C   LIG d   1       1.592  -0.496 -10.167  0.00  0.00    -0.048 A 
ATOM     36  H   LIG d   1       0.395  -0.605 -11.928  0.00  0.00     0.064 H 
ATOM     37  H   LIG d   1       1.433   0.564 -10.033  0.00  0.00     0.063 H 
BRANCH  32  38
ATOM     38  N   LIG d   1       0.618  -3.178 -12.470  0.00  0.00    -0.336 N 
BRANCH  38  39
ATOM     39  C   LIG d   1       0.183  -2.420 -13.646  0.00  0.00     0.000 C 
ATOM     40  H   LIG d   1       0.485  -2.948 -14.550  0.00  0.00     0.043 H 
ATOM     41  H   LIG d   1      -0.903  -2.318 -13.630  0.00  0.00     0.043 H 
ATOM     42  H   LIG d   1       0.640  -1.431 -13.631  0.00  0.00     0.043 H 
ENDBRANCH  38  39
BRANCH  38  43
ATOM     43  C   LIG d   1       0.429  -4.630 -12.422  0.00  0.00     0.000 C 
ATOM     44  H   LIG d   1       0.411  -4.960 -11.384  0.00  0.00     0.043 H 
ATOM     45  H   LIG d   1      -0.514  -4.890 -12.903  0.00  0.00     0.043 H 
ATOM     46  H   LIG d   1       1.251  -5.121 -12.945  0.00  0.00     0.043 H 
ENDBRANCH  38  43
ENDBRANCH  32  38
ENDBRANCH  25  28
ENDBRANCH  21  24
ENDBRANCH   1  21
BRANCH   9  47
ATOM     47  C   LIG d   1       7.230  -0.174  -4.023  0.00  0.00    -0.024 C 
ATOM     48  H   LIG d   1       7.061  -0.893  -4.825  0.00  0.00     0.082 H 
ATOM     49  H   LIG d   1       8.147  -0.430  -3.493  0.00  0.00     0.082 H 
BRANCH  47  50
ATOM     50  N   LIG d   1       7.327   1.184  -4.601  0.00  0.00     0.234 N 
ATOM     51  H   LIG d   1       6.401   1.627  -4.568  0.00  0.00     0.203 HD
BRANCH  50  52
ATOM     52  C   LIG d   1       7.771   1.102  -6.009  0.00  0.00    -0.043 C 
ATOM     53  H   LIG d   1       7.539   2.042  -6.510  0.00  0.00     0.078 H 
ATOM     54  H   LIG d   1       8.849   0.936  -6.029  0.00  0.00     0.078 H 
ATOM     55  H   LIG d   1       7.268   0.282  -6.521  0.00  0.00     0.078 H 
ENDBRANCH  50  52
BRANCH  50  56
ATOM     56  C   LIG d   1       8.278   1.999  -3.817  0.00  0.00    -0.027 C 
ATOM     57  H   LIG d   1       7.722   2.622  -3.118  0.00  0.00     0.082 H 
ATOM     58  H   LIG d   1       8.966   1.358  -3.265  0.00  0.00     0.082 H 
BRANCH  56  59
ATOM     59  C   LIG d   1       9.070   2.891  -4.777  0.00  0.00     0.030 C 
ATOM     60  H   LIG d   1       9.987   2.382  -5.072  0.00  0.00     0.038 H 
ATOM     61  H   LIG d   1       8.467   3.098  -5.661  0.00  0.00     0.038 H 
BRANCH  59  62
ATOM     62  C   LIG d   1       9.414   4.187  -4.089  0.00  0.00     0.046 A 
ATOM     63  N   LIG d   1       9.850   4.168  -2.844  0.00  0.00    -0.260 NA
ATOM     64  C   LIG d   1      10.164   5.277  -2.203  0.00  0.00     0.028 A 
ATOM     65  C   LIG d   1      10.043   6.508  -2.819  0.00  0.00    -0.044 A 
ATOM     66  H   LIG d   1      10.518   5.222  -1.184  0.00  0.00     0.083 H 
ATOM     67  C   LIG d   1       9.587   6.567  -4.127  0.00  0.00    -0.059 A 
ATOM     68  H   LIG d   1      10.301   7.413  -2.288  0.00  0.00     0.063 H 
ATOM     69  C   LIG d   1       9.274   5.381  -4.771  0.00  0.00    -0.040 A 
ATOM     70  H   LIG d   1       9.483   7.515  -4.634  0.00  0.00     0.062 H 
ATOM     71  H   LIG d   1       8.921   5.389  -5.792  0.00  0.00     0.064 H 
ENDBRANCH  59  62
ENDBRANCH  56  59
ENDBRANCH  50  56
ENDBRANCH  47  50
ENDBRANCH   9  47
TORSDOF 12
ENDMDL
MODEL 6
REMARK VINA RESULT:      -6.0      5.164     10.910
REMARK  12 active torsions:
REMARK  status: ('A' for Active; 'I' for Inactive)
REMARK    1  A    between atoms: C_1  and  N_2 
REMARK    2  A    between atoms: N_2  and  C_3 
REMARK    3  A    between atoms: N_2  and  C_4 
REMARK    4  A    between atoms: C_7  and  C_10 
REMARK       I    between atoms: C_10  and  N_12 
REMARK    5  A    between atoms: N_12  and  C_13 
REMARK    6  A    between atoms: C_13  and  C_14 
REMARK    7  A    between atoms: C_22  and  C_24 
REMARK    8  A    between atoms: C_24  and  N_70 
REMARK    9  A    between atoms: C_25  and  N_70 
REMARK   10  A    between atoms: C_26  and  C_27 
REMARK   11  A    between atoms: C_26  and  N_70 
REMARK   12  A    between atoms: C_27  and  C_28 
ROOT
ATOM      1  C   LIG d   1       3.126  -0.186 -10.286  0.00  0.00    -0.005 C 
ATOM      2  H   LIG d   1       2.352   0.074 -11.010  0.00  0.00     0.087 H 
ATOM      3  C   LIG d   1       2.499  -0.326  -8.896  0.00  0.00    -0.005 C 
ATOM      4  C   LIG d   1       3.153   0.692  -7.953  0.00  0.00    -0.019 C 
ATOM      5  H   LIG d   1       2.725   0.606  -6.954  0.00  0.00     0.031 H 
ATOM      6  C   LIG d   1       2.928   2.099  -8.520  0.00  0.00    -0.009 C 
ATOM      7  C   LIG d   1       3.542   2.172  -9.921  0.00  0.00    -0.031 C 
ATOM      8  C   LIG d   1       5.228   0.537  -9.325  0.00  0.00    -0.024 C 
ATOM      9  C   LIG d   1       4.661   0.418  -7.907  0.00  0.00     0.042 C 
ATOM     10  H   LIG d   1       5.146   1.146  -7.257  0.00  0.00     0.041 H 
ATOM     11  H   LIG d   1       1.428  -0.132  -8.957  0.00  0.00     0.032 H 
ATOM     12  H   LIG d   1       2.669  -1.334  -8.519  0.00  0.00     0.032 H 
ATOM     13  H   LIG d   1       1.859   2.303  -8.580  0.00  0.00     0.032 H 
ATOM     14  H   LIG d   1       3.404   2.835  -7.872  0.00  0.00     0.032 H 
ATOM     15  H   LIG d   1       4.310   2.945  -9.942  0.00  0.00     0.081 H 
ATOM     16  H   LIG d   1       2.766   2.411 -10.647  0.00  0.00     0.081 H 
ATOM     17  H   LIG d   1       5.985   1.322  -9.348  0.00  0.00     0.082 H 
ATOM     18  H   LIG d   1       5.679  -0.411  -9.617  0.00  0.00     0.082 H 
ATOM     19  N   LIG d   1       4.155   0.876 -10.283  0.00  0.00     0.239 N 
ATOM     20  H   LIG d   1       4.560   0.950 -11.224  0.00  0.00     0.204 HD
ENDROOT
BRANCH   1  21
ATOM     21  C   LIG d   1       3.778  -1.510 -10.688  0.00  0.00     0.055 C 
ATOM     22  H   LIG d   1       3.974  -1.507 -11.761  0.00  0.00     0.052 H 
ATOM     23  H   LIG d   1       4.716  -1.632 -10.148  0.00  0.00     0.052 H 
BRANCH  21  24
ATOM     24  N   LIG d   1       2.877  -2.617 -10.359  0.00  0.00    -0.306 N 
ATOM     25  C   LIG d   1       2.290  -3.324 -11.345  0.00  0.00     0.244 C 
ATOM     26  O   LIG d   1       2.509  -3.043 -12.508  0.00  0.00    -0.270 OA
ATOM     27  H   LIG d   1       2.702  -2.842  -9.432  0.00  0.00     0.149 HD
BRANCH  25  28
ATOM     28  C   LIG d   1       1.383  -4.439 -11.014  0.00  0.00     0.037 A 
ATOM     29  C   LIG d   1       0.055  -4.180 -10.662  0.00  0.00    -0.048 A 
ATOM     30  C   LIG d   1      -0.789  -5.222 -10.354  0.00  0.00    -0.040 A 
ATOM     31  H   LIG d   1      -0.308  -3.163 -10.632  0.00  0.00     0.063 H 
ATOM     32  C   LIG d   1      -0.322  -6.533 -10.392  0.00  0.00     0.029 A 
ATOM     33  H   LIG d   1      -1.815  -5.022 -10.082  0.00  0.00     0.064 H 
ATOM     34  C   LIG d   1       0.999  -6.794 -10.741  0.00  0.00    -0.040 A 
ATOM     35  C   LIG d   1       1.847  -5.757 -11.057  0.00  0.00    -0.048 A 
ATOM     36  H   LIG d   1       1.359  -7.812 -10.770  0.00  0.00     0.064 H 
ATOM     37  H   LIG d   1       2.872  -5.960 -11.332  0.00  0.00     0.063 H 
BRANCH  32  38
ATOM     38  N   LIG d   1      -1.178  -7.584 -10.079  0.00  0.00    -0.336 N 
BRANCH  38  39
ATOM     39  C   LIG d   1      -0.991  -8.892 -10.713  0.00  0.00     0.000 C 
ATOM     40  H   LIG d   1      -1.859  -9.519 -10.512  0.00  0.00     0.043 H 
ATOM     41  H   LIG d   1      -0.879  -8.760 -11.789  0.00  0.00     0.043 H 
ATOM     42  H   LIG d   1      -0.097  -9.367 -10.310  0.00  0.00     0.043 H 
ENDBRANCH  38  39
BRANCH  38  43
ATOM     43  C   LIG d   1      -2.263  -7.383  -9.116  0.00  0.00     0.000 C 
ATOM     44  H   LIG d   1      -3.220  -7.567  -9.605  0.00  0.00     0.043 H 
ATOM     45  H   LIG d   1      -2.142  -8.076  -8.283  0.00  0.00     0.043 H 
ATOM     46  H   LIG d   1      -2.235  -6.359  -8.745  0.00  0.00     0.043 H 
ENDBRANCH  38  43
ENDBRANCH  32  38
ENDBRANCH  25  28
ENDBRANCH  21  24
ENDBRANCH   1  21
BRANCH   9  47
ATOM     47  C   LIG d   1       4.909  -0.994  -7.373  0.00  0.00    -0.024 C 
ATOM     48  H   LIG d   1       5.603  -1.515  -8.032  0.00  0.00     0.082 H 
ATOM     49  H   LIG d   1       3.966  -1.538  -7.333  0.00  0.00     0.082 H 
BRANCH  47  50
ATOM     50  N   LIG d   1       5.506  -0.892  -6.023  0.00  0.00     0.234 N 
ATOM     51  H   LIG d   1       4.904  -0.302  -5.436  0.00  0.00     0.203 HD
BRANCH  50  52
ATOM     52  C   LIG d   1       6.846  -0.275  -6.111  0.00  0.00    -0.043 C 
ATOM     53  H   LIG d   1       6.739   0.769  -6.405  0.00  0.00     0.078 H 
ATOM     54  H   LIG d   1       7.323  -0.327  -5.131  0.00  0.00     0.078 H 
ATOM     55  H   LIG d   1       7.461  -0.798  -6.842  0.00  0.00     0.078 H 
ENDBRANCH  50  52
BRANCH  50  56
ATOM     56  C   LIG d   1       5.606  -2.234  -5.413  0.00  0.00    -0.027 C 
ATOM     57  H   LIG d   1       5.577  -2.987  -6.201  0.00  0.00     0.082 H 
ATOM     58  H   LIG d   1       6.536  -2.331  -4.852  0.00  0.00     0.082 H 
BRANCH  56  59
ATOM     59  C   LIG d   1       4.418  -2.437  -4.470  0.00  0.00     0.030 C 
ATOM     60  H   LIG d   1       3.530  -2.679  -5.052  0.00  0.00     0.038 H 
ATOM     61  H   LIG d   1       4.636  -3.254  -3.781  0.00  0.00     0.038 H 
BRANCH  59  62
ATOM     62  C   LIG d   1       4.177  -1.172  -3.688  0.00  0.00     0.046 A 
ATOM     63  N   LIG d   1       3.382  -0.242  -4.182  0.00  0.00    -0.260 NA
ATOM     64  C   LIG d   1       3.142   0.881  -3.533  0.00  0.00     0.028 A 
ATOM     65  C   LIG d   1       3.721   1.124  -2.302  0.00  0.00    -0.044 A 
ATOM     66  H   LIG d   1       2.485   1.619  -3.969  0.00  0.00     0.083 H 
ATOM     67  C   LIG d   1       4.562   0.169  -1.750  0.00  0.00    -0.059 A 
ATOM     68  H   LIG d   1       3.520   2.045  -1.775  0.00  0.00     0.063 H 
ATOM     69  C   LIG d   1       4.786  -1.001  -2.459  0.00  0.00    -0.040 A 
ATOM     70  H   LIG d   1       5.028   0.331  -0.790  0.00  0.00     0.062 H 
ATOM     71  H   LIG d   1       5.431  -1.769  -2.057  0.00  0.00     0.064 H 
ENDBRANCH  59  62
ENDBRANCH  56  59
ENDBRANCH  50  56
ENDBRANCH  47  50
ENDBRANCH   9  47
TORSDOF 12
ENDMDL
MODEL 7
REMARK VINA RESULT:      -6.0      4.818      8.977
REMARK  12 active torsions:
REMARK  status: ('A' for Active; 'I' for Inactive)
REMARK    1  A    between atoms: C_1  and  N_2 
REMARK    2  A    between atoms: N_2  and  C_3 
REMARK    3  A    between atoms: N_2  and  C_4 
REMARK    4  A    between atoms: C_7  and  C_10 
REMARK       I    between atoms: C_10  and  N_12 
REMARK    5  A    between atoms: N_12  and  C_13 
REMARK    6  A    between atoms: C_13  and  C_14 
REMARK    7  A    between atoms: C_22  and  C_24 
REMARK    8  A    between atoms: C_24  and  N_70 
REMARK    9  A    between atoms: C_25  and  N_70 
REMARK   10  A    between atoms: C_26  and  C_27 
REMARK   11  A    between atoms: C_26  and  N_70 
REMARK   12  A    between atoms: C_27  and  C_28 
ROOT
ATOM      1  C   LIG d   1       4.144  -0.544  -4.778  0.00  0.00    -0.005 C 
ATOM      2  H   LIG d   1       3.085  -0.313  -4.902  0.00  0.00     0.087 H 
ATOM      3  C   LIG d   1       4.335  -2.064  -4.764  0.00  0.00    -0.005 C 
ATOM      4  C   LIG d   1       4.963  -2.471  -3.424  0.00  0.00    -0.019 C 
ATOM      5  H   LIG d   1       5.114  -3.550  -3.395  0.00  0.00     0.031 H 
ATOM      6  C   LIG d   1       4.032  -2.022  -2.292  0.00  0.00    -0.009 C 
ATOM      7  C   LIG d   1       3.847  -0.504  -2.375  0.00  0.00    -0.031 C 
ATOM      8  C   LIG d   1       6.058  -0.234  -3.328  0.00  0.00    -0.024 C 
ATOM      9  C   LIG d   1       6.304  -1.745  -3.272  0.00  0.00     0.042 C 
ATOM     10  H   LIG d   1       6.757  -2.006  -2.315  0.00  0.00     0.041 H 
ATOM     11  H   LIG d   1       3.369  -2.555  -4.880  0.00  0.00     0.032 H 
ATOM     12  H   LIG d   1       4.996  -2.356  -5.580  0.00  0.00     0.032 H 
ATOM     13  H   LIG d   1       3.064  -2.513  -2.397  0.00  0.00     0.032 H 
ATOM     14  H   LIG d   1       4.472  -2.286  -1.330  0.00  0.00     0.032 H 
ATOM     15  H   LIG d   1       4.198  -0.044  -1.452  0.00  0.00     0.081 H 
ATOM     16  H   LIG d   1       2.792  -0.273  -2.519  0.00  0.00     0.081 H 
ATOM     17  H   LIG d   1       6.394   0.223  -2.397  0.00  0.00     0.082 H 
ATOM     18  H   LIG d   1       6.611   0.194  -4.163  0.00  0.00     0.082 H 
ATOM     19  N   LIG d   1       4.618   0.048  -3.509  0.00  0.00     0.239 N 
ATOM     20  H   LIG d   1       4.479   1.064  -3.543  0.00  0.00     0.204 HD
ENDROOT
BRANCH   1  21
ATOM     21  C   LIG d   1       4.938   0.060  -5.937  0.00  0.00     0.055 C 
ATOM     22  H   LIG d   1       4.829   1.145  -5.925  0.00  0.00     0.052 H 
ATOM     23  H   LIG d   1       5.990  -0.201  -5.832  0.00  0.00     0.052 H 
BRANCH  21  24
ATOM     24  N   LIG d   1       4.428  -0.468  -7.205  0.00  0.00    -0.306 N 
ATOM     25  C   LIG d   1       3.627   0.293  -7.978  0.00  0.00     0.244 C 
ATOM     26  O   LIG d   1       3.327   1.417  -7.622  0.00  0.00    -0.270 OA
ATOM     27  H   LIG d   1       4.666  -1.364  -7.489  0.00  0.00     0.149 HD
BRANCH  25  28
ATOM     28  C   LIG d   1       3.113  -0.238  -9.255  0.00  0.00     0.037 A 
ATOM     29  C   LIG d   1       3.890  -0.147 -10.414  0.00  0.00    -0.048 A 
ATOM     30  C   LIG d   1       3.409  -0.644 -11.603  0.00  0.00    -0.040 A 
ATOM     31  H   LIG d   1       4.867   0.313 -10.376  0.00  0.00     0.063 H 
ATOM     32  C   LIG d   1       2.150  -1.237 -11.654  0.00  0.00     0.029 A 
ATOM     33  H   LIG d   1       4.008  -0.573 -12.499  0.00  0.00     0.064 H 
ATOM     34  C   LIG d   1       1.375  -1.329 -10.502  0.00  0.00    -0.040 A 
ATOM     35  C   LIG d   1       1.853  -0.839  -9.308  0.00  0.00    -0.048 A 
ATOM     36  H   LIG d   1       0.399  -1.789 -10.543  0.00  0.00     0.064 H 
ATOM     37  H   LIG d   1       1.252  -0.915  -8.413  0.00  0.00     0.063 H 
BRANCH  32  38
ATOM     38  N   LIG d   1       1.666  -1.737 -12.858  0.00  0.00    -0.336 N 
BRANCH  38  39
ATOM     39  C   LIG d   1       0.240  -2.036 -13.005  0.00  0.00     0.000 C 
ATOM     40  H   LIG d   1       0.053  -2.434 -14.002  0.00  0.00     0.043 H 
ATOM     41  H   LIG d   1      -0.055  -2.774 -12.258  0.00  0.00     0.043 H 
ATOM     42  H   LIG d   1      -0.340  -1.124 -12.863  0.00  0.00     0.043 H 
ENDBRANCH  38  39
BRANCH  38  43
ATOM     43  C   LIG d   1       2.583  -1.965 -13.978  0.00  0.00     0.000 C 
ATOM     44  H   LIG d   1       2.204  -2.777 -14.597  0.00  0.00     0.043 H 
ATOM     45  H   LIG d   1       2.658  -1.056 -14.576  0.00  0.00     0.043 H 
ATOM     46  H   LIG d   1       3.568  -2.230 -13.593  0.00  0.00     0.043 H 
ENDBRANCH  38  43
ENDBRANCH  32  38
ENDBRANCH  25  28
ENDBRANCH  21  24
ENDBRANCH   1  21
BRANCH   9  47
ATOM     47  C   LIG d   1       7.241  -2.154  -4.411  0.00  0.00    -0.024 C 
ATOM     48  H   LIG d   1       8.145  -1.545  -4.374  0.00  0.00     0.082 H 
ATOM     49  H   LIG d   1       6.739  -2.003  -5.366  0.00  0.00     0.082 H 
BRANCH  47  50
ATOM     50  N   LIG d   1       7.607  -3.576  -4.236  0.00  0.00     0.234 N 
ATOM     51  H   LIG d   1       6.863  -4.050  -3.711  0.00  0.00     0.203 HD
BRANCH  50  52
ATOM     52  C   LIG d   1       8.872  -3.682  -3.479  0.00  0.00    -0.043 C 
ATOM     53  H   LIG d   1       9.697  -3.369  -4.119  0.00  0.00     0.078 H 
ATOM     54  H   LIG d   1       8.818  -3.025  -2.610  0.00  0.00     0.078 H 
ATOM     55  H   LIG d   1       9.036  -4.707  -3.149  0.00  0.00     0.078 H 
ENDBRANCH  50  52
BRANCH  50  56
ATOM     56  C   LIG d   1       7.752  -4.225  -5.556  0.00  0.00    -0.027 C 
ATOM     57  H   LIG d   1       7.666  -3.470  -6.336  0.00  0.00     0.082 H 
ATOM     58  H   LIG d   1       8.720  -4.721  -5.634  0.00  0.00     0.082 H 
BRANCH  56  59
ATOM     59  C   LIG d   1       6.635  -5.259  -5.722  0.00  0.00     0.030 C 
ATOM     60  H   LIG d   1       7.066  -6.213  -6.024  0.00  0.00     0.038 H 
ATOM     61  H   LIG d   1       6.109  -5.381  -4.775  0.00  0.00     0.038 H 
BRANCH  59  62
ATOM     62  C   LIG d   1       5.668  -4.788  -6.777  0.00  0.00     0.046 A 
ATOM     63  N   LIG d   1       4.426  -5.234  -6.768  0.00  0.00    -0.260 NA
ATOM     64  C   LIG d   1       3.545  -4.849  -7.671  0.00  0.00     0.028 A 
ATOM     65  C   LIG d   1       3.897  -3.958  -8.667  0.00  0.00    -0.044 A 
ATOM     66  H   LIG d   1       2.538  -5.236  -7.632  0.00  0.00     0.083 H 
ATOM     67  C   LIG d   1       5.194  -3.467  -8.708  0.00  0.00    -0.059 A 
ATOM     68  H   LIG d   1       3.171  -3.647  -9.404  0.00  0.00     0.063 H 
ATOM     69  C   LIG d   1       6.090  -3.890  -7.739  0.00  0.00    -0.040 A 
ATOM     70  H   LIG d   1       5.497  -2.770  -9.475  0.00  0.00     0.062 H 
ATOM     71  H   LIG d   1       7.106  -3.524  -7.738  0.00  0.00     0.064 H 
ENDBRANCH  59  62
ENDBRANCH  56  59
ENDBRANCH  50  56
ENDBRANCH  47  50
ENDBRANCH   9  47
TORSDOF 12
ENDMDL
MODEL 8
REMARK VINA RESULT:      -5.8      3.640      9.605
REMARK  12 active torsions:
REMARK  status: ('A' for Active; 'I' for Inactive)
REMARK    1  A    between atoms: C_1  and  N_2 
REMARK    2  A    between atoms: N_2  and  C_3 
REMARK    3  A    between atoms: N_2  and  C_4 
REMARK    4  A    between atoms: C_7  and  C_10 
REMARK       I    between atoms: C_10  and  N_12 
REMARK    5  A    between atoms: N_12  and  C_13 
REMARK    6  A    between atoms: C_13  and  C_14 
REMARK    7  A    between atoms: C_22  and  C_24 
REMARK    8  A    between atoms: C_24  and  N_70 
REMARK    9  A    between atoms: C_25  and  N_70 
REMARK   10  A    between atoms: C_26  and  C_27 
REMARK   11  A    between atoms: C_26  and  N_70 
REMARK   12  A    between atoms: C_27  and  C_28 
ROOT
ATOM      1  C   LIG d   1       3.851  -1.996  -3.376  0.00  0.00    -0.005 C 
ATOM      2  H   LIG d   1       2.887  -2.401  -3.064  0.00  0.00     0.087 H 
ATOM      3  C   LIG d   1       4.620  -1.506  -2.145  0.00  0.00    -0.005 C 
ATOM      4  C   LIG d   1       4.898  -0.005  -2.300  0.00  0.00    -0.019 C 
ATOM      5  H   LIG d   1       5.452   0.364  -1.437  0.00  0.00     0.031 H 
ATOM      6  C   LIG d   1       3.559   0.729  -2.441  0.00  0.00    -0.009 C 
ATOM      7  C   LIG d   1       2.818   0.176  -3.663  0.00  0.00    -0.031 C 
ATOM      8  C   LIG d   1       4.913  -0.326  -4.772  0.00  0.00    -0.024 C 
ATOM      9  C   LIG d   1       5.712   0.211  -3.581  0.00  0.00     0.042 C 
ATOM     10  H   LIG d   1       5.903   1.276  -3.719  0.00  0.00     0.041 H 
ATOM     11  H   LIG d   1       4.023  -1.676  -1.250  0.00  0.00     0.032 H 
ATOM     12  H   LIG d   1       5.563  -2.046  -2.066  0.00  0.00     0.032 H 
ATOM     13  H   LIG d   1       2.957   0.567  -1.546  0.00  0.00     0.032 H 
ATOM     14  H   LIG d   1       3.739   1.795  -2.573  0.00  0.00     0.032 H 
ATOM     15  H   LIG d   1       2.643   0.981  -4.376  0.00  0.00     0.081 H 
ATOM     16  H   LIG d   1       1.864  -0.247  -3.349  0.00  0.00     0.081 H 
ATOM     17  H   LIG d   1       4.724   0.484  -5.477  0.00  0.00     0.082 H 
ATOM     18  H   LIG d   1       5.481  -1.113  -5.266  0.00  0.00     0.082 H 
ATOM     19  N   LIG d   1       3.620  -0.880  -4.318  0.00  0.00     0.239 N 
ATOM     20  H   LIG d   1       3.104  -1.233  -5.132  0.00  0.00     0.204 HD
ENDROOT
BRANCH   1  21
ATOM     21  C   LIG d   1       4.658  -3.085  -4.083  0.00  0.00     0.055 C 
ATOM     22  H   LIG d   1       5.653  -2.704  -4.318  0.00  0.00     0.052 H 
ATOM     23  H   LIG d   1       4.747  -3.953  -3.430  0.00  0.00     0.052 H 
BRANCH  21  24
ATOM     24  N   LIG d   1       3.977  -3.472  -5.320  0.00  0.00    -0.306 N 
ATOM     25  C   LIG d   1       4.690  -3.680  -6.446  0.00  0.00     0.244 C 
ATOM     26  O   LIG d   1       5.899  -3.545  -6.433  0.00  0.00    -0.270 OA
ATOM     27  H   LIG d   1       3.013  -3.579  -5.331  0.00  0.00     0.149 HD
BRANCH  25  28
ATOM     28  C   LIG d   1       4.004  -4.069  -7.692  0.00  0.00     0.037 A 
ATOM     29  C   LIG d   1       3.550  -3.087  -8.577  0.00  0.00    -0.048 A 
ATOM     30  C   LIG d   1       2.911  -3.453  -9.739  0.00  0.00    -0.040 A 
ATOM     31  H   LIG d   1       3.700  -2.042  -8.350  0.00  0.00     0.063 H 
ATOM     32  C   LIG d   1       2.717  -4.800 -10.035  0.00  0.00     0.029 A 
ATOM     33  H   LIG d   1       2.559  -2.695 -10.423  0.00  0.00     0.064 H 
ATOM     34  C   LIG d   1       3.168  -5.780  -9.155  0.00  0.00    -0.040 A 
ATOM     35  C   LIG d   1       3.813  -5.420  -7.994  0.00  0.00    -0.048 A 
ATOM     36  H   LIG d   1       3.016  -6.824  -9.386  0.00  0.00     0.064 H 
ATOM     37  H   LIG d   1       4.167  -6.181  -7.314  0.00  0.00     0.063 H 
BRANCH  32  38
ATOM     38  N   LIG d   1       2.070  -5.167 -11.210  0.00  0.00    -0.336 N 
BRANCH  38  39
ATOM     39  C   LIG d   1       0.669  -4.794 -11.420  0.00  0.00     0.000 C 
ATOM     40  H   LIG d   1       0.604  -4.076 -12.237  0.00  0.00     0.043 H 
ATOM     41  H   LIG d   1       0.091  -5.684 -11.672  0.00  0.00     0.043 H 
ATOM     42  H   LIG d   1       0.270  -4.348 -10.510  0.00  0.00     0.043 H 
ENDBRANCH  38  39
BRANCH  38  43
ATOM     43  C   LIG d   1       2.789  -5.926 -12.235  0.00  0.00     0.000 C 
ATOM     44  H   LIG d   1       2.082  -6.532 -12.801  0.00  0.00     0.043 H 
ATOM     45  H   LIG d   1       3.296  -5.235 -12.909  0.00  0.00     0.043 H 
ATOM     46  H   LIG d   1       3.525  -6.575 -11.759  0.00  0.00     0.043 H 
ENDBRANCH  38  43
ENDBRANCH  32  38
ENDBRANCH  25  28
ENDBRANCH  21  24
ENDBRANCH   1  21
BRANCH   9  47
ATOM     47  C   LIG d   1       7.042  -0.538  -3.476  0.00  0.00    -0.024 C 
ATOM     48  H   LIG d   1       7.018  -1.414  -4.124  0.00  0.00     0.082 H 
ATOM     49  H   LIG d   1       7.202  -0.851  -2.445  0.00  0.00     0.082 H 
BRANCH  47  50
ATOM     50  N   LIG d   1       8.130   0.362  -3.919  0.00  0.00     0.234 N 
ATOM     51  H   LIG d   1       8.946   0.222  -3.312  0.00  0.00     0.203 HD
BRANCH  50  52
ATOM     52  C   LIG d   1       7.691   1.769  -3.820  0.00  0.00    -0.043 C 
ATOM     53  H   LIG d   1       6.724   1.876  -4.313  0.00  0.00     0.078 H 
ATOM     54  H   LIG d   1       7.592   2.035  -2.767  0.00  0.00     0.078 H 
ATOM     55  H   LIG d   1       8.415   2.430  -4.295  0.00  0.00     0.078 H 
ENDBRANCH  50  52
BRANCH  50  56
ATOM     56  C   LIG d   1       8.509   0.047  -5.313  0.00  0.00    -0.027 C 
ATOM     57  H   LIG d   1       9.584  -0.123  -5.360  0.00  0.00     0.082 H 
ATOM     58  H   LIG d   1       7.984  -0.844  -5.660  0.00  0.00     0.082 H 
BRANCH  56  59
ATOM     59  C   LIG d   1       8.140   1.235  -6.204  0.00  0.00     0.030 C 
ATOM     60  H   LIG d   1       7.505   1.923  -5.647  0.00  0.00     0.038 H 
ATOM     61  H   LIG d   1       9.049   1.750  -6.517  0.00  0.00     0.038 H 
BRANCH  59  62
ATOM     62  C   LIG d   1       7.400   0.740  -7.420  0.00  0.00     0.046 A 
ATOM     63  N   LIG d   1       7.274  -0.557  -7.623  0.00  0.00    -0.260 NA
ATOM     64  C   LIG d   1       6.635  -1.036  -8.673  0.00  0.00     0.028 A 
ATOM     65  C   LIG d   1       6.071  -0.185  -9.605  0.00  0.00    -0.044 A 
ATOM     66  H   LIG d   1       6.552  -2.104  -8.806  0.00  0.00     0.083 H 
ATOM     67  C   LIG d   1       6.182   1.185  -9.424  0.00  0.00    -0.059 A 
ATOM     68  H   LIG d   1       5.548  -0.583 -10.463  0.00  0.00     0.063 H 
ATOM     69  C   LIG d   1       6.856   1.650  -8.307  0.00  0.00    -0.040 A 
ATOM     70  H   LIG d   1       5.752   1.873 -10.136  0.00  0.00     0.062 H 
ATOM     71  H   LIG d   1       6.958   2.712  -8.131  0.00  0.00     0.064 H 
ENDBRANCH  59  62
ENDBRANCH  56  59
ENDBRANCH  50  56
ENDBRANCH  47  50
ENDBRANCH   9  47
TORSDOF 12
ENDMDL
MODEL 9
REMARK VINA RESULT:      -5.7      6.175     11.395
REMARK  12 active torsions:
REMARK  status: ('A' for Active; 'I' for Inactive)
REMARK    1  A    between atoms: C_1  and  N_2 
REMARK    2  A    between atoms: N_2  and  C_3 
REMARK    3  A    between atoms: N_2  and  C_4 
REMARK    4  A    between atoms: C_7  and  C_10 
REMARK       I    between atoms: C_10  and  N_12 
REMARK    5  A    between atoms: N_12  and  C_13 
REMARK    6  A    between atoms: C_13  and  C_14 
REMARK    7  A    between atoms: C_22  and  C_24 
REMARK    8  A    between atoms: C_24  and  N_70 
REMARK    9  A    between atoms: C_25  and  N_70 
REMARK   10  A    between atoms: C_26  and  C_27 
REMARK   11  A    between atoms: C_26  and  N_70 
REMARK   12  A    between atoms: C_27  and  C_28 
ROOT
ATOM      1  C   LIG d   1       2.853   0.048 -11.098  0.00  0.00    -0.005 C 
ATOM      2  H   LIG d   1       2.372   0.711 -11.818  0.00  0.00     0.087 H 
ATOM      3  C   LIG d   1       1.942  -0.130  -9.880  0.00  0.00    -0.005 C 
ATOM      4  C   LIG d   1       2.683   0.369  -8.631  0.00  0.00    -0.019 C 
ATOM      5  H   LIG d   1       2.054   0.245  -7.749  0.00  0.00     0.031 H 
ATOM      6  C   LIG d   1       3.048   1.844  -8.836  0.00  0.00    -0.009 C 
ATOM      7  C   LIG d   1       3.927   1.968 -10.084  0.00  0.00    -0.031 C 
ATOM      8  C   LIG d   1       4.831  -0.252  -9.733  0.00  0.00    -0.024 C 
ATOM      9  C   LIG d   1       3.977  -0.439  -8.475  0.00  0.00     0.042 C 
ATOM     10  H   LIG d   1       4.527  -0.085  -7.604  0.00  0.00     0.041 H 
ATOM     11  H   LIG d   1       1.030   0.449 -10.019  0.00  0.00     0.032 H 
ATOM     12  H   LIG d   1       1.695  -1.184  -9.761  0.00  0.00     0.032 H 
ATOM     13  H   LIG d   1       2.139   2.431  -8.971  0.00  0.00     0.032 H 
ATOM     14  H   LIG d   1       3.593   2.209  -7.966  0.00  0.00     0.032 H 
ATOM     15  H   LIG d   1       4.891   2.395  -9.809  0.00  0.00     0.081 H 
ATOM     16  H   LIG d   1       3.437   2.614 -10.812  0.00  0.00     0.081 H 
ATOM     17  H   LIG d   1       5.789   0.191  -9.458  0.00  0.00     0.082 H 
ATOM     18  H   LIG d   1       4.999  -1.220 -10.205  0.00  0.00     0.082 H 
ATOM     19  N   LIG d   1       4.147   0.639 -10.694  0.00  0.00     0.239 N 
ATOM     20  H   LIG d   1       4.738   0.748 -11.526  0.00  0.00     0.204 HD
ENDROOT
BRANCH   1  21
ATOM     21  C   LIG d   1       3.109  -1.312 -11.748  0.00  0.00     0.055 C 
ATOM     22  H   LIG d   1       3.126  -1.199 -12.832  0.00  0.00     0.052 H 
ATOM     23  H   LIG d   1       4.067  -1.704 -11.409  0.00  0.00     0.052 H 
BRANCH  21  24
ATOM     24  N   LIG d   1       2.040  -2.241 -11.371  0.00  0.00    -0.306 N 
ATOM     25  C   LIG d   1       1.138  -2.640 -12.290  0.00  0.00     0.244 C 
ATOM     26  O   LIG d   1       1.211  -2.228 -13.433  0.00  0.00    -0.270 OA
ATOM     27  H   LIG d   1       1.982  -2.570 -10.461  0.00  0.00     0.149 HD
BRANCH  25  28
ATOM     28  C   LIG d   1       0.063  -3.575 -11.911  0.00  0.00     0.037 A 
ATOM     29  C   LIG d   1       0.138  -4.275 -10.703  0.00  0.00    -0.048 A 
ATOM     30  C   LIG d   1      -0.867  -5.146 -10.351  0.00  0.00    -0.040 A 
ATOM     31  H   LIG d   1       0.984  -4.132 -10.046  0.00  0.00     0.063 H 
ATOM     32  C   LIG d   1      -1.958  -5.332 -11.195  0.00  0.00     0.029 A 
ATOM     33  H   LIG d   1      -0.810  -5.687  -9.418  0.00  0.00     0.064 H 
ATOM     34  C   LIG d   1      -2.035  -4.637 -12.399  0.00  0.00    -0.040 A 
ATOM     35  C   LIG d   1      -1.036  -3.759 -12.754  0.00  0.00    -0.048 A 
ATOM     36  H   LIG d   1      -2.882  -4.782 -13.053  0.00  0.00     0.064 H 
ATOM     37  H   LIG d   1      -1.099  -3.216 -13.686  0.00  0.00     0.063 H 
BRANCH  32  38
ATOM     38  N   LIG d   1      -2.972  -6.214 -10.837  0.00  0.00    -0.336 N 
BRANCH  38  39
ATOM     39  C   LIG d   1      -3.251  -6.471  -9.422  0.00  0.00     0.000 C 
ATOM     40  H   LIG d   1      -2.867  -7.454  -9.150  0.00  0.00     0.043 H 
ATOM     41  H   LIG d   1      -2.766  -5.709  -8.812  0.00  0.00     0.043 H 
ATOM     42  H   LIG d   1      -4.327  -6.442  -9.253  0.00  0.00     0.043 H 
ENDBRANCH  38  39
BRANCH  38  43
ATOM     43  C   LIG d   1      -3.760  -6.884 -11.875  0.00  0.00     0.000 C 
ATOM     44  H   LIG d   1      -3.192  -7.722 -12.277  0.00  0.00     0.043 H 
ATOM     45  H   LIG d   1      -4.692  -7.250 -11.443  0.00  0.00     0.043 H 
ATOM     46  H   LIG d   1      -3.982  -6.178 -12.675  0.00  0.00     0.043 H 
ENDBRANCH  38  43
ENDBRANCH  32  38
ENDBRANCH  25  28
ENDBRANCH  21  24
ENDBRANCH   1  21
BRANCH   9  47
ATOM     47  C   LIG d   1       3.638  -1.921  -8.300  0.00  0.00    -0.024 C 
ATOM     48  H   LIG d   1       3.213  -2.308  -9.226  0.00  0.00     0.082 H 
ATOM     49  H   LIG d   1       2.917  -2.035  -7.492  0.00  0.00     0.082 H 
BRANCH  47  50
ATOM     50  N   LIG d   1       4.883  -2.658  -7.993  0.00  0.00     0.234 N 
ATOM     51  H   LIG d   1       5.676  -2.008  -8.041  0.00  0.00     0.203 HD
BRANCH  50  52
ATOM     52  C   LIG d   1       5.085  -3.739  -8.981  0.00  0.00    -0.043 C 
ATOM     53  H   LIG d   1       4.130  -3.974  -9.452  0.00  0.00     0.078 H 
ATOM     54  H   LIG d   1       5.788  -3.394  -9.741  0.00  0.00     0.078 H 
ATOM     55  H   LIG d   1       5.482  -4.630  -8.497  0.00  0.00     0.078 H 
ENDBRANCH  50  52
BRANCH  50  56
ATOM     56  C   LIG d   1       4.809  -3.227  -6.631  0.00  0.00    -0.027 C 
ATOM     57  H   LIG d   1       3.764  -3.292  -6.327  0.00  0.00     0.082 H 
ATOM     58  H   LIG d   1       5.258  -4.220  -6.606  0.00  0.00     0.082 H 
BRANCH  56  59
ATOM     59  C   LIG d   1       5.562  -2.303  -5.670  0.00  0.00     0.030 C 
ATOM     60  H   LIG d   1       6.366  -2.859  -5.188  0.00  0.00     0.038 H 
ATOM     61  H   LIG d   1       5.982  -1.465  -6.226  0.00  0.00     0.038 H 
BRANCH  59  62
ATOM     62  C   LIG d   1       4.610  -1.784  -4.623  0.00  0.00     0.046 A 
ATOM     63  N   LIG d   1       3.868  -0.726  -4.884  0.00  0.00    -0.260 NA
ATOM     64  C   LIG d   1       3.021  -0.237  -3.999  0.00  0.00     0.028 A 
ATOM     65  C   LIG d   1       2.884  -0.822  -2.754  0.00  0.00    -0.044 A 
ATOM     66  H   LIG d   1       2.430   0.631  -4.249  0.00  0.00     0.083 H 
ATOM     67  C   LIG d   1       3.648  -1.937  -2.444  0.00  0.00    -0.059 A 
ATOM     68  H   LIG d   1       2.189  -0.417  -2.033  0.00  0.00     0.063 H 
ATOM     69  C   LIG d   1       4.522  -2.426  -3.402  0.00  0.00    -0.040 A 
ATOM     70  H   LIG d   1       3.562  -2.415  -1.479  0.00  0.00     0.062 H 
ATOM     71  H   LIG d   1       5.129  -3.296  -3.196  0.00  0.00     0.064 H 
ENDBRANCH  59  62
ENDBRANCH  56  59
ENDBRANCH  50  56
ENDBRANCH  47  50
ENDBRANCH   9  47
TORSDOF 12
ENDMDL
MODEL 10
REMARK VINA RESULT:      -5.7      2.820      5.759
REMARK  12 active torsions:
REMARK  status: ('A' for Active; 'I' for Inactive)
REMARK    1  A    between atoms: C_1  and  N_2 
REMARK    2  A    between atoms: N_2  and  C_3 
REMARK    3  A    between atoms: N_2  and  C_4 
REMARK    4  A    between atoms: C_7  and  C_10 
REMARK       I    between atoms: C_10  and  N_12 
REMARK    5  A    between atoms: N_12  and  C_13 
REMARK    6  A    between atoms: C_13  and  C_14 
REMARK    7  A    between atoms: C_22  and  C_24 
REMARK    8  A    between atoms: C_24  and  N_70 
REMARK    9  A    between atoms: C_25  and  N_70 
REMARK   10  A    between atoms: C_26  and  C_27 
REMARK   11  A    between atoms: C_26  and  N_70 
REMARK   12  A    between atoms: C_27  and  C_28 
ROOT
ATOM      1  C   LIG d   1      11.218   5.255  -2.931  0.00  0.00    -0.005 C 
ATOM      2  H   LIG d   1      11.982   5.815  -2.390  0.00  0.00     0.087 H 
ATOM      3  C   LIG d   1      11.013   3.894  -2.260  0.00  0.00    -0.005 C 
ATOM      4  C   LIG d   1      11.332   2.788  -3.275  0.00  0.00    -0.019 C 
ATOM      5  H   LIG d   1      11.186   1.808  -2.820  0.00  0.00     0.031 H 
ATOM      6  C   LIG d   1      12.781   2.959  -3.744  0.00  0.00    -0.009 C 
ATOM      7  C   LIG d   1      12.939   4.346  -4.373  0.00  0.00    -0.031 C 
ATOM      8  C   LIG d   1      10.625   4.339  -5.094  0.00  0.00    -0.024 C 
ATOM      9  C   LIG d   1      10.403   2.952  -4.484  0.00  0.00     0.042 C 
ATOM     10  H   LIG d   1      10.629   2.187  -5.226  0.00  0.00     0.041 H 
ATOM     11  H   LIG d   1      11.679   3.805  -1.402  0.00  0.00     0.032 H 
ATOM     12  H   LIG d   1       9.977   3.801  -1.932  0.00  0.00     0.032 H 
ATOM     13  H   LIG d   1      13.455   2.866  -2.892  0.00  0.00     0.032 H 
ATOM     14  H   LIG d   1      13.019   2.193  -4.482  0.00  0.00     0.032 H 
ATOM     15  H   LIG d   1      13.253   4.241  -5.411  0.00  0.00     0.081 H 
ATOM     16  H   LIG d   1      13.687   4.914  -3.821  0.00  0.00     0.081 H 
ATOM     17  H   LIG d   1      10.956   4.233  -6.127  0.00  0.00     0.082 H 
ATOM     18  H   LIG d   1       9.692   4.902  -5.067  0.00  0.00     0.082 H 
ATOM     19  N   LIG d   1      11.655   5.079  -4.333  0.00  0.00     0.239 N 
ATOM     20  H   LIG d   1      11.785   6.003  -4.760  0.00  0.00     0.204 HD
ENDROOT
BRANCH   1  21
ATOM     21  C   LIG d   1       9.903   6.036  -2.914  0.00  0.00     0.055 C 
ATOM     22  H   LIG d   1       9.417   5.950  -3.886  0.00  0.00     0.052 H 
ATOM     23  H   LIG d   1       9.249   5.630  -2.143  0.00  0.00     0.052 H 
BRANCH  21  24
ATOM     24  N   LIG d   1      10.178   7.447  -2.629  0.00  0.00    -0.306 N 
ATOM     25  C   LIG d   1       9.567   8.056  -1.592  0.00  0.00     0.244 C 
ATOM     26  O   LIG d   1       8.788   7.435  -0.895  0.00  0.00    -0.270 OA
ATOM     27  H   LIG d   1      10.799   7.943  -3.184  0.00  0.00     0.149 HD
BRANCH  25  28
ATOM     28  C   LIG d   1       9.843   9.476  -1.305  0.00  0.00     0.037 A 
ATOM     29  C   LIG d   1      10.183   9.875  -0.009  0.00  0.00    -0.048 A 
ATOM     30  C   LIG d   1      10.441  11.200   0.256  0.00  0.00    -0.040 A 
ATOM     31  H   LIG d   1      10.243   9.143   0.784  0.00  0.00     0.063 H 
ATOM     32  C   LIG d   1      10.364  12.144  -0.764  0.00  0.00     0.029 A 
ATOM     33  H   LIG d   1      10.703  11.509   1.258  0.00  0.00     0.064 H 
ATOM     34  C   LIG d   1      10.026  11.750  -2.056  0.00  0.00    -0.040 A 
ATOM     35  C   LIG d   1       9.773  10.425  -2.329  0.00  0.00    -0.048 A 
ATOM     36  H   LIG d   1       9.968  12.484  -2.846  0.00  0.00     0.064 H 
ATOM     37  H   LIG d   1       9.515  10.119  -3.332  0.00  0.00     0.063 H 
BRANCH  32  38
ATOM     38  N   LIG d   1      10.625  13.483  -0.493  0.00  0.00    -0.336 N 
BRANCH  38  39
ATOM     39  C   LIG d   1      10.531  14.477  -1.565  0.00  0.00     0.000 C 
ATOM     40  H   LIG d   1      10.266  13.981  -2.498  0.00  0.00     0.043 H 
ATOM     41  H   LIG d   1       9.764  15.211  -1.312  0.00  0.00     0.043 H 
ATOM     42  H   LIG d   1      11.491  14.980  -1.680  0.00  0.00     0.043 H 
ENDBRANCH  38  39
BRANCH  38  43
ATOM     43  C   LIG d   1      10.992  13.898   0.863  0.00  0.00     0.000 C 
ATOM     44  H   LIG d   1      10.441  14.799   1.129  0.00  0.00     0.043 H 
ATOM     45  H   LIG d   1      10.747  13.101   1.565  0.00  0.00     0.043 H 
ATOM     46  H   LIG d   1      12.063  14.101   0.903  0.00  0.00     0.043 H 
ENDBRANCH  38  43
ENDBRANCH  32  38
ENDBRANCH  25  28
ENDBRANCH  21  24
ENDBRANCH   1  21
BRANCH   9  47
ATOM     47  C   LIG d   1       8.947   2.816  -4.035  0.00  0.00    -0.024 C 
ATOM     48  H   LIG d   1       8.289   3.204  -4.812  0.00  0.00     0.082 H 
ATOM     49  H   LIG d   1       8.796   3.382  -3.115  0.00  0.00     0.082 H 
BRANCH  47  50
ATOM     50  N   LIG d   1       8.649   1.384  -3.817  0.00  0.00     0.234 N 
ATOM     51  H   LIG d   1       9.166   1.058  -2.992  0.00  0.00     0.203 HD
BRANCH  50  52
ATOM     52  C   LIG d   1       9.074   0.597  -4.993  0.00  0.00    -0.043 C 
ATOM     53  H   LIG d   1       8.311   0.674  -5.767  0.00  0.00     0.078 H 
ATOM     54  H   LIG d   1      10.014   1.003  -5.369  0.00  0.00     0.078 H 
ATOM     55  H   LIG d   1       9.213  -0.449  -4.723  0.00  0.00     0.078 H 
ENDBRANCH  50  52
BRANCH  50  56
ATOM     56  C   LIG d   1       7.202   1.200  -3.581  0.00  0.00    -0.027 C 
ATOM     57  H   LIG d   1       6.949   1.585  -2.593  0.00  0.00     0.082 H 
ATOM     58  H   LIG d   1       6.621   1.729  -4.337  0.00  0.00     0.082 H 
BRANCH  56  59
ATOM     59  C   LIG d   1       6.878  -0.294  -3.643  0.00  0.00     0.030 C 
ATOM     60  H   LIG d   1       7.179  -0.691  -4.612  0.00  0.00     0.038 H 
ATOM     61  H   LIG d   1       7.419  -0.816  -2.853  0.00  0.00     0.038 H 
BRANCH  59  62
ATOM     62  C   LIG d   1       5.397  -0.496  -3.455  0.00  0.00     0.046 A 
ATOM     63  N   LIG d   1       4.547   0.294  -4.083  0.00  0.00    -0.260 NA
ATOM     64  C   LIG d   1       3.242   0.154  -3.949  0.00  0.00     0.028 A 
ATOM     65  C   LIG d   1       2.717  -0.833  -3.137  0.00  0.00    -0.044 A 
ATOM     66  H   LIG d   1       2.578   0.820  -4.479  0.00  0.00     0.083 H 
ATOM     67  C   LIG d   1       3.580  -1.683  -2.461  0.00  0.00    -0.059 A 
ATOM     68  H   LIG d   1       1.647  -0.942  -3.031  0.00  0.00     0.063 H 
ATOM     69  C   LIG d   1       4.944  -1.509  -2.632  0.00  0.00    -0.040 A 
ATOM     70  H   LIG d   1       3.197  -2.463  -1.820  0.00  0.00     0.062 H 
ATOM     71  H   LIG d   1       5.645  -2.157  -2.124  0.00  0.00     0.064 H 
ENDBRANCH  59  62
ENDBRANCH  56  59
ENDBRANCH  50  56
ENDBRANCH  47  50
ENDBRANCH   9  47
TORSDOF 12
ENDMDL
