MODEL 1
REMARK VINA RESULT:      -7.5      0.000      0.000
REMARK  3 active torsions:
REMARK  status: ('A' for Active; 'I' for Inactive)
REMARK    1  A    between atoms: C_11  and  C_18 
REMARK    2  A    between atoms: CA_13  and  C_16 
REMARK    3  A    between atoms: C_22  and  O_24 
ROOT
ATOM      1  C   LIG d   1       4.721   0.521  -1.704  0.00  0.00    -0.061 A 
ATOM      2  C   LIG d   1       3.692   1.362  -2.104  0.00  0.00    -0.060 A 
ATOM      3  C   LIG d   1       3.193   1.299  -3.387  0.00  0.00    -0.038 A 
ATOM      4  C   LIG d   1       3.722   0.384  -4.291  0.00  0.00     0.047 A 
ATOM      5  C   LIG d   1       4.766  -0.468  -3.881  0.00  0.00     0.004 A 
ATOM      6  C   LIG d   1       5.257  -0.385  -2.576  0.00  0.00    -0.052 A 
ATOM      7  C   LIG d   1       5.087  -1.289  -5.041  0.00  0.00    -0.008 A 
ATOM      8  C   LIG d   1       4.267  -0.911  -6.043  0.00  0.00     0.074 A 
ATOM      9  N   LIG d   1       3.446   0.088  -5.609  0.00  0.00    -0.353 N 
ATOM     10  H   LIG d   1       2.767   0.525  -6.147  0.00  0.00     0.166 HD
ATOM     11  C   LIG d   1       4.303  -1.539  -7.416  0.00  0.00     0.045 C 
ATOM     12  H   LIG d   1       3.469  -2.232  -7.527  0.00  0.00     0.097 H 
ATOM     13  CA  LIG d   1       5.798  -3.187  -6.434  0.00  0.00     0.023 C 
ATOM     14  HA  LIG d   1       6.633  -3.848  -6.666  0.00  0.00     0.092 H 
ATOM     15  C   LIG d   1       6.122  -2.377  -5.171  0.00  0.00     0.023 C 
ATOM     16  H   LIG d   1       5.103   0.583  -0.695  0.00  0.00     0.062 H 
ATOM     17  H   LIG d   1       3.275   2.069  -1.403  0.00  0.00     0.062 H 
ATOM     18  H   LIG d   1       2.391   1.957  -3.688  0.00  0.00     0.064 H 
ATOM     19  H   LIG d   1       6.058  -1.035  -2.256  0.00  0.00     0.062 H 
ATOM     20  H   LIG d   1       7.113  -1.933  -5.261  0.00  0.00     0.037 H 
ATOM     21  H   LIG d   1       6.087  -3.027  -4.296  0.00  0.00     0.037 H 
ATOM     22  N   LIG d   1       5.584  -2.267  -7.570  0.00  0.00     0.243 N 
ATOM     23  H1  LIG d   1       6.354  -1.590  -7.608  0.00  0.00     0.203 HD
ATOM     24  H2  LIG d   1       5.560  -2.808  -8.443  0.00  0.00     0.203 HD
ENDROOT
BRANCH  11  25
ATOM     25  C   LIG d   1       4.213  -0.465  -8.470  0.00  0.00     0.010 A 
ATOM     26  C   LIG d   1       5.093   0.599  -8.446  0.00  0.00    -0.011 A 
ATOM     27  C   LIG d   1       5.015   1.585  -9.418  0.00  0.00     0.117 A 
ATOM     28  H   LIG d   1       5.845   0.662  -7.671  0.00  0.00     0.066 H 
ATOM     29  C   LIG d   1       4.046   1.505 -10.408  0.00  0.00    -0.020 A 
ATOM     30  C   LIG d   1       3.166   0.439 -10.425  0.00  0.00    -0.058 A 
ATOM     31  H   LIG d   1       3.979   2.273 -11.164  0.00  0.00     0.065 H 
ATOM     32  C   LIG d   1       3.249  -0.543  -9.457  0.00  0.00    -0.053 A 
ATOM     33  H   LIG d   1       2.411   0.376 -11.195  0.00  0.00     0.062 H 
ATOM     34  H   LIG d   1       2.559  -1.376  -9.472  0.00  0.00     0.062 H 
BRANCH  27  35
ATOM     35  O   LIG d   1       5.882   2.632  -9.399  0.00  0.00    -0.507 OA
ATOM     36  H   LIG d   1       5.515   3.439  -9.016  0.00  0.00     0.292 HD
ENDBRANCH  27  35
ENDBRANCH  11  25
BRANCH  13  37
ATOM     37  C   LIG d   1       4.556  -4.007  -6.201  0.00  0.00     0.090 C 
ATOM     38  O   LIG d   1       4.208  -4.269  -5.074  0.00  0.00    -0.544 OA
ATOM     39  OXT LIG d   1       3.836  -4.447  -7.244  0.00  0.00    -0.544 OA
ENDBRANCH  13  37
TORSDOF 3
ENDMDL
MODEL 2
REMARK VINA RESULT:      -7.3      4.748      6.061
REMARK  3 active torsions:
REMARK  status: ('A' for Active; 'I' for Inactive)
REMARK    1  A    between atoms: C_11  and  C_18 
REMARK    2  A    between atoms: CA_13  and  C_16 
REMARK    3  A    between atoms: C_22  and  O_24 
ROOT
ATOM      1  C   LIG d   1       4.686  -1.520  -2.178  0.00  0.00    -0.061 A 
ATOM      2  C   LIG d   1       4.156  -0.283  -1.837  0.00  0.00    -0.060 A 
ATOM      3  C   LIG d   1       4.735   0.879  -2.298  0.00  0.00    -0.038 A 
ATOM      4  C   LIG d   1       5.862   0.816  -3.112  0.00  0.00     0.047 A 
ATOM      5  C   LIG d   1       6.396  -0.441  -3.454  0.00  0.00     0.004 A 
ATOM      6  C   LIG d   1       5.792  -1.606  -2.975  0.00  0.00    -0.052 A 
ATOM      7  C   LIG d   1       7.549  -0.164  -4.301  0.00  0.00    -0.008 A 
ATOM      8  C   LIG d   1       7.652   1.175  -4.419  0.00  0.00     0.074 A 
ATOM      9  N   LIG d   1       6.649   1.774  -3.714  0.00  0.00    -0.353 N 
ATOM     10  H   LIG d   1       6.511   2.732  -3.646  0.00  0.00     0.166 HD
ATOM     11  C   LIG d   1       8.736   1.849  -5.226  0.00  0.00     0.045 C 
ATOM     12  H   LIG d   1       8.329   2.194  -6.176  0.00  0.00     0.097 H 
ATOM     13  CA  LIG d   1       9.275  -0.379  -6.041  0.00  0.00     0.023 C 
ATOM     14  HA  LIG d   1      10.099  -0.997  -6.395  0.00  0.00     0.092 H 
ATOM     15  C   LIG d   1       8.493  -1.138  -4.959  0.00  0.00     0.023 C 
ATOM     16  H   LIG d   1       4.221  -2.422  -1.808  0.00  0.00     0.062 H 
ATOM     17  H   LIG d   1       3.278  -0.230  -1.211  0.00  0.00     0.062 H 
ATOM     18  H   LIG d   1       4.315   1.837  -2.029  0.00  0.00     0.064 H 
ATOM     19  H   LIG d   1       6.198  -2.573  -3.234  0.00  0.00     0.062 H 
ATOM     20  H   LIG d   1       9.184  -1.539  -4.218  0.00  0.00     0.037 H 
ATOM     21  H   LIG d   1       7.927  -1.951  -5.414  0.00  0.00     0.037 H 
ATOM     22  N   LIG d   1       9.821   0.871  -5.471  0.00  0.00     0.243 N 
ATOM     23  H1  LIG d   1      10.292   0.660  -4.584  0.00  0.00     0.203 HD
ATOM     24  H2  LIG d   1      10.497   1.275  -6.130  0.00  0.00     0.203 HD
ENDROOT
BRANCH  11  25
ATOM     25  C   LIG d   1       9.290   3.020  -4.457  0.00  0.00     0.010 A 
ATOM     26  C   LIG d   1       9.981   2.807  -3.279  0.00  0.00    -0.011 A 
ATOM     27  C   LIG d   1      10.495   3.885  -2.573  0.00  0.00     0.117 A 
ATOM     28  H   LIG d   1      10.122   1.802  -2.910  0.00  0.00     0.066 H 
ATOM     29  C   LIG d   1      10.307   5.175  -3.047  0.00  0.00    -0.020 A 
ATOM     30  C   LIG d   1       9.612   5.383  -4.223  0.00  0.00    -0.058 A 
ATOM     31  H   LIG d   1      10.702   6.016  -2.497  0.00  0.00     0.065 H 
ATOM     32  C   LIG d   1       9.104   4.307  -4.926  0.00  0.00    -0.053 A 
ATOM     33  H   LIG d   1       9.466   6.387  -4.593  0.00  0.00     0.062 H 
ATOM     34  H   LIG d   1       8.561   4.471  -5.846  0.00  0.00     0.062 H 
BRANCH  27  35
ATOM     35  O   LIG d   1      11.178   3.678  -1.417  0.00  0.00    -0.507 OA
ATOM     36  H   LIG d   1      12.132   3.811  -1.494  0.00  0.00     0.292 HD
ENDBRANCH  27  35
ENDBRANCH  11  25
BRANCH  13  37
ATOM     37  C   LIG d   1       8.357  -0.056  -7.191  0.00  0.00     0.090 C 
ATOM     38  O   LIG d   1       8.673   0.783  -8.000  0.00  0.00    -0.544 OA
ATOM     39  OXT LIG d   1       7.187  -0.702  -7.317  0.00  0.00    -0.544 OA
ENDBRANCH  13  37
TORSDOF 3
ENDMDL
MODEL 3
REMARK VINA RESULT:      -7.0      1.988      5.346
REMARK  3 active torsions:
REMARK  status: ('A' for Active; 'I' for Inactive)
REMARK    1  A    between atoms: C_11  and  C_18 
REMARK    2  A    between atoms: CA_13  and  C_16 
REMARK    3  A    between atoms: C_22  and  O_24 
ROOT
ATOM      1  C   LIG d   1       3.456   0.535 -11.054  0.00  0.00    -0.061 A 
ATOM      2  C   LIG d   1       3.913   1.711 -10.476  0.00  0.00    -0.060 A 
ATOM      3  C   LIG d   1       4.386   1.719  -9.182  0.00  0.00    -0.038 A 
ATOM      4  C   LIG d   1       4.408   0.539  -8.446  0.00  0.00     0.047 A 
ATOM      5  C   LIG d   1       3.944  -0.652  -9.037  0.00  0.00     0.004 A 
ATOM      6  C   LIG d   1       3.468  -0.636 -10.350  0.00  0.00    -0.052 A 
ATOM      7  C   LIG d   1       4.100  -1.685  -8.021  0.00  0.00    -0.008 A 
ATOM      8  C   LIG d   1       4.619  -1.098  -6.924  0.00  0.00     0.074 A 
ATOM      9  N   LIG d   1       4.809   0.231  -7.164  0.00  0.00    -0.353 N 
ATOM     10  H   LIG d   1       5.174   0.866  -6.527  0.00  0.00     0.166 HD
ATOM     11  C   LIG d   1       4.923  -1.855  -5.652  0.00  0.00     0.045 C 
ATOM     12  H   LIG d   1       5.995  -2.036  -5.578  0.00  0.00     0.097 H 
ATOM     13  CA  LIG d   1       4.473  -3.865  -6.945  0.00  0.00     0.023 C 
ATOM     14  HA  LIG d   1       4.097  -4.885  -6.862  0.00  0.00     0.092 H 
ATOM     15  C   LIG d   1       3.769  -3.153  -8.109  0.00  0.00     0.023 C 
ATOM     16  H   LIG d   1       3.087   0.545 -12.070  0.00  0.00     0.062 H 
ATOM     17  H   LIG d   1       3.903   2.628 -11.047  0.00  0.00     0.062 H 
ATOM     18  H   LIG d   1       4.740   2.639  -8.741  0.00  0.00     0.064 H 
ATOM     19  H   LIG d   1       3.110  -1.546 -10.808  0.00  0.00     0.062 H 
ATOM     20  H   LIG d   1       2.691  -3.293  -8.028  0.00  0.00     0.037 H 
ATOM     21  H   LIG d   1       4.124  -3.556  -9.057  0.00  0.00     0.037 H 
ATOM     22  N   LIG d   1       4.197  -3.145  -5.684  0.00  0.00     0.243 N 
ATOM     23  H1  LIG d   1       3.189  -2.968  -5.610  0.00  0.00     0.203 HD
ATOM     24  H2  LIG d   1       4.502  -3.723  -4.892  0.00  0.00     0.203 HD
ENDROOT
BRANCH  11  25
ATOM     25  C   LIG d   1       4.460  -1.056  -4.461  0.00  0.00     0.010 A 
ATOM     26  C   LIG d   1       5.302  -0.125  -3.886  0.00  0.00    -0.011 A 
ATOM     27  C   LIG d   1       4.874   0.615  -2.793  0.00  0.00     0.117 A 
ATOM     28  H   LIG d   1       6.293   0.030  -4.288  0.00  0.00     0.066 H 
ATOM     29  C   LIG d   1       3.603   0.411  -2.275  0.00  0.00    -0.020 A 
ATOM     30  C   LIG d   1       2.766  -0.524  -2.853  0.00  0.00    -0.058 A 
ATOM     31  H   LIG d   1       3.269   0.982  -1.422  0.00  0.00     0.065 H 
ATOM     32  C   LIG d   1       3.194  -1.257  -3.943  0.00  0.00    -0.053 A 
ATOM     33  H   LIG d   1       1.777  -0.684  -2.450  0.00  0.00     0.062 H 
ATOM     34  H   LIG d   1       2.538  -1.989  -4.393  0.00  0.00     0.062 H 
BRANCH  27  35
ATOM     35  O   LIG d   1       5.699   1.535  -2.227  0.00  0.00    -0.507 OA
ATOM     36  H   LIG d   1       6.457   1.152  -1.766  0.00  0.00     0.292 HD
ENDBRANCH  27  35
ENDBRANCH  11  25
BRANCH  13  37
ATOM     37  C   LIG d   1       5.958  -3.896  -7.200  0.00  0.00     0.090 C 
ATOM     38  O   LIG d   1       6.723  -4.122  -6.292  0.00  0.00    -0.544 OA
ATOM     39  OXT LIG d   1       6.431  -3.674  -8.436  0.00  0.00    -0.544 OA
ENDBRANCH  13  37
TORSDOF 3
ENDMDL
MODEL 4
REMARK VINA RESULT:      -7.0      1.507      4.810
REMARK  3 active torsions:
REMARK  status: ('A' for Active; 'I' for Inactive)
REMARK    1  A    between atoms: C_11  and  C_18 
REMARK    2  A    between atoms: CA_13  and  C_16 
REMARK    3  A    between atoms: C_22  and  O_24 
ROOT
ATOM      1  C   LIG d   1       3.558   1.413  -2.305  0.00  0.00    -0.061 A 
ATOM      2  C   LIG d   1       4.700   0.833  -1.771  0.00  0.00    -0.060 A 
ATOM      3  C   LIG d   1       5.442  -0.064  -2.510  0.00  0.00    -0.038 A 
ATOM      4  C   LIG d   1       5.045  -0.392  -3.802  0.00  0.00     0.047 A 
ATOM      5  C   LIG d   1       3.886   0.200  -4.340  0.00  0.00     0.004 A 
ATOM      6  C   LIG d   1       3.149   1.105  -3.572  0.00  0.00    -0.052 A 
ATOM      7  C   LIG d   1       3.751  -0.343  -5.684  0.00  0.00    -0.008 A 
ATOM      8  C   LIG d   1       4.778  -1.194  -5.882  0.00  0.00     0.074 A 
ATOM      9  N   LIG d   1       5.561  -1.233  -4.765  0.00  0.00    -0.353 N 
ATOM     10  H   LIG d   1       6.361  -1.771  -4.664  0.00  0.00     0.166 HD
ATOM     11  C   LIG d   1       4.978  -1.958  -7.170  0.00  0.00     0.045 C 
ATOM     12  H   LIG d   1       5.768  -1.492  -7.757  0.00  0.00     0.097 H 
ATOM     13  CA  LIG d   1       3.209  -0.555  -8.074  0.00  0.00     0.023 C 
ATOM     14  HA  LIG d   1       2.395  -0.543  -8.800  0.00  0.00     0.092 H 
ATOM     15  C   LIG d   1       2.693  -0.053  -6.719  0.00  0.00     0.023 C 
ATOM     16  H   LIG d   1       2.987   2.113  -1.713  0.00  0.00     0.062 H 
ATOM     17  H   LIG d   1       5.014   1.089  -0.771  0.00  0.00     0.062 H 
ATOM     18  H   LIG d   1       6.330  -0.510  -2.086  0.00  0.00     0.064 H 
ATOM     19  H   LIG d   1       2.259   1.562  -3.979  0.00  0.00     0.062 H 
ATOM     20  H   LIG d   1       1.772  -0.575  -6.459  0.00  0.00     0.037 H 
ATOM     21  H   LIG d   1       2.508   1.020  -6.767  0.00  0.00     0.037 H 
ATOM     22  N   LIG d   1       3.708  -1.938  -7.933  0.00  0.00     0.243 N 
ATOM     23  H1  LIG d   1       3.008  -2.501  -7.438  0.00  0.00     0.203 HD
ATOM     24  H2  LIG d   1       3.870  -2.336  -8.866  0.00  0.00     0.203 HD
ENDROOT
BRANCH  11  25
ATOM     25  C   LIG d   1       5.348  -3.386  -6.862  0.00  0.00     0.010 A 
ATOM     26  C   LIG d   1       4.518  -4.159  -6.075  0.00  0.00    -0.011 A 
ATOM     27  C   LIG d   1       4.856  -5.475  -5.796  0.00  0.00     0.117 A 
ATOM     28  H   LIG d   1       3.604  -3.741  -5.679  0.00  0.00     0.066 H 
ATOM     29  C   LIG d   1       6.034  -6.009  -6.301  0.00  0.00    -0.020 A 
ATOM     30  C   LIG d   1       6.862  -5.229  -7.085  0.00  0.00    -0.058 A 
ATOM     31  H   LIG d   1       6.301  -7.031  -6.082  0.00  0.00     0.065 H 
ATOM     32  C   LIG d   1       6.521  -3.920  -7.364  0.00  0.00    -0.053 A 
ATOM     33  H   LIG d   1       7.778  -5.644  -7.479  0.00  0.00     0.062 H 
ATOM     34  H   LIG d   1       7.170  -3.311  -7.978  0.00  0.00     0.062 H 
BRANCH  27  35
ATOM     35  O   LIG d   1       4.039  -6.240  -5.024  0.00  0.00    -0.507 OA
ATOM     36  H   LIG d   1       4.503  -6.756  -4.352  0.00  0.00     0.292 HD
ENDBRANCH  27  35
ENDBRANCH  11  25
BRANCH  13  37
ATOM     37  C   LIG d   1       4.321   0.343  -8.552  0.00  0.00     0.090 C 
ATOM     38  O   LIG d   1       4.434   1.458  -8.100  0.00  0.00    -0.544 OA
ATOM     39  OXT LIG d   1       5.187  -0.096  -9.478  0.00  0.00    -0.544 OA
ENDBRANCH  13  37
TORSDOF 3
ENDMDL
MODEL 5
REMARK VINA RESULT:      -6.7      2.495      4.353
REMARK  3 active torsions:
REMARK  status: ('A' for Active; 'I' for Inactive)
REMARK    1  A    between atoms: C_11  and  C_18 
REMARK    2  A    between atoms: CA_13  and  C_16 
REMARK    3  A    between atoms: C_22  and  O_24 
ROOT
ATOM      1  C   LIG d   1       8.105  -3.316  -4.233  0.00  0.00    -0.061 A 
ATOM      2  C   LIG d   1       8.688  -2.804  -5.384  0.00  0.00    -0.060 A 
ATOM      3  C   LIG d   1       8.026  -1.868  -6.149  0.00  0.00    -0.038 A 
ATOM      4  C   LIG d   1       6.762  -1.430  -5.766  0.00  0.00     0.047 A 
ATOM      5  C   LIG d   1       6.175  -1.953  -4.597  0.00  0.00     0.004 A 
ATOM      6  C   LIG d   1       6.865  -2.901  -3.839  0.00  0.00    -0.052 A 
ATOM      7  C   LIG d   1       4.877  -1.300  -4.480  0.00  0.00    -0.008 A 
ATOM      8  C   LIG d   1       4.750  -0.463  -5.529  0.00  0.00     0.074 A 
ATOM      9  N   LIG d   1       5.869  -0.530  -6.306  0.00  0.00    -0.353 N 
ATOM     10  H   LIG d   1       6.015  -0.019  -7.118  0.00  0.00     0.166 HD
ATOM     11  C   LIG d   1       3.526   0.395  -5.753  0.00  0.00     0.045 C 
ATOM     12  H   LIG d   1       3.738   1.423  -5.464  0.00  0.00     0.097 H 
ATOM     13  CA  LIG d   1       2.845  -0.298  -3.522  0.00  0.00     0.023 C 
ATOM     14  HA  LIG d   1       1.969  -0.496  -2.905  0.00  0.00     0.092 H 
ATOM     15  C   LIG d   1       3.826  -1.474  -3.413  0.00  0.00     0.023 C 
ATOM     16  H   LIG d   1       8.637  -4.050  -3.645  0.00  0.00     0.062 H 
ATOM     17  H   LIG d   1       9.671  -3.137  -5.681  0.00  0.00     0.062 H 
ATOM     18  H   LIG d   1       8.488  -1.474  -7.042  0.00  0.00     0.064 H 
ATOM     19  H   LIG d   1       6.419  -3.306  -2.942  0.00  0.00     0.062 H 
ATOM     20  H   LIG d   1       3.295  -2.412  -3.570  0.00  0.00     0.037 H 
ATOM     21  H   LIG d   1       4.294  -1.474  -2.429  0.00  0.00     0.037 H 
ATOM     22  N   LIG d   1       2.417  -0.139  -4.928  0.00  0.00     0.243 N 
ATOM     23  H1  LIG d   1       2.129  -1.051  -5.299  0.00  0.00     0.203 HD
ATOM     24  H2  LIG d   1       1.624   0.512  -4.968  0.00  0.00     0.203 HD
ENDROOT
BRANCH  11  25
ATOM     25  C   LIG d   1       3.129   0.346  -7.206  0.00  0.00     0.010 A 
ATOM     26  C   LIG d   1       2.848  -0.867  -7.803  0.00  0.00    -0.011 A 
ATOM     27  C   LIG d   1       2.478  -0.912  -9.139  0.00  0.00     0.117 A 
ATOM     28  H   LIG d   1       2.913  -1.781  -7.230  0.00  0.00     0.066 H 
ATOM     29  C   LIG d   1       2.401   0.262  -9.876  0.00  0.00    -0.020 A 
ATOM     30  C   LIG d   1       2.687   1.472  -9.273  0.00  0.00    -0.058 A 
ATOM     31  H   LIG d   1       2.118   0.230 -10.917  0.00  0.00     0.065 H 
ATOM     32  C   LIG d   1       3.052   1.514  -7.941  0.00  0.00    -0.053 A 
ATOM     33  H   LIG d   1       2.627   2.387  -9.845  0.00  0.00     0.062 H 
ATOM     34  H   LIG d   1       3.276   2.462  -7.472  0.00  0.00     0.062 H 
BRANCH  27  35
ATOM     35  O   LIG d   1       2.197  -2.103  -9.730  0.00  0.00    -0.507 OA
ATOM     36  H   LIG d   1       2.886  -2.417 -10.330  0.00  0.00     0.292 HD
ENDBRANCH  27  35
ENDBRANCH  11  25
BRANCH  13  37
ATOM     37  C   LIG d   1       3.520   0.964  -3.049  0.00  0.00     0.090 C 
ATOM     38  O   LIG d   1       3.247   2.024  -3.561  0.00  0.00    -0.544 OA
ATOM     39  OXT LIG d   1       4.423   0.911  -2.058  0.00  0.00    -0.544 OA
ENDBRANCH  13  37
TORSDOF 3
ENDMDL
MODEL 6
REMARK VINA RESULT:      -6.5      3.225      5.500
REMARK  3 active torsions:
REMARK  status: ('A' for Active; 'I' for Inactive)
REMARK    1  A    between atoms: C_11  and  C_18 
REMARK    2  A    between atoms: CA_13  and  C_16 
REMARK    3  A    between atoms: C_22  and  O_24 
ROOT
ATOM      1  C   LIG d   1      10.210  -2.471  -7.536  0.00  0.00    -0.061 A 
ATOM      2  C   LIG d   1      10.642  -1.925  -6.335  0.00  0.00    -0.060 A 
ATOM      3  C   LIG d   1       9.778  -1.807  -5.268  0.00  0.00    -0.038 A 
ATOM      4  C   LIG d   1       8.461  -2.238  -5.392  0.00  0.00     0.047 A 
ATOM      5  C   LIG d   1       8.027  -2.791  -6.612  0.00  0.00     0.004 A 
ATOM      6  C   LIG d   1       8.921  -2.900  -7.681  0.00  0.00    -0.052 A 
ATOM      7  C   LIG d   1       6.626  -3.136  -6.415  0.00  0.00    -0.008 A 
ATOM      8  C   LIG d   1       6.298  -2.790  -5.154  0.00  0.00     0.074 A 
ATOM      9  N   LIG d   1       7.385  -2.252  -4.530  0.00  0.00    -0.353 N 
ATOM     10  H   LIG d   1       7.400  -1.929  -3.616  0.00  0.00     0.166 HD
ATOM     11  C   LIG d   1       4.916  -2.994  -4.578  0.00  0.00     0.045 C 
ATOM     12  H   LIG d   1       4.916  -3.861  -3.919  0.00  0.00     0.097 H 
ATOM     13  CA  LIG d   1       4.455  -4.279  -6.591  0.00  0.00     0.023 C 
ATOM     14  HA  LIG d   1       3.657  -4.557  -7.280  0.00  0.00     0.092 H 
ATOM     15  C   LIG d   1       5.663  -3.767  -7.389  0.00  0.00     0.023 C 
ATOM     16  H   LIG d   1      10.899  -2.556  -8.364  0.00  0.00     0.062 H 
ATOM     17  H   LIG d   1      11.664  -1.596  -6.233  0.00  0.00     0.062 H 
ATOM     18  H   LIG d   1      10.123  -1.382  -4.336  0.00  0.00     0.064 H 
ATOM     19  H   LIG d   1       8.594  -3.323  -8.619  0.00  0.00     0.062 H 
ATOM     20  H   LIG d   1       5.336  -3.024  -8.116  0.00  0.00     0.037 H 
ATOM     21  H   LIG d   1       6.147  -4.598  -7.901  0.00  0.00     0.037 H 
ATOM     22  N   LIG d   1       3.966  -3.212  -5.694  0.00  0.00     0.243 N 
ATOM     23  H1  LIG d   1       3.866  -2.341  -6.227  0.00  0.00     0.203 HD
ATOM     24  H2  LIG d   1       3.053  -3.485  -5.310  0.00  0.00     0.203 HD
ENDROOT
BRANCH  11  25
ATOM     25  C   LIG d   1       4.500  -1.768  -3.806  0.00  0.00     0.010 A 
ATOM     26  C   LIG d   1       3.932  -0.697  -4.467  0.00  0.00    -0.011 A 
ATOM     27  C   LIG d   1       3.545   0.429  -3.756  0.00  0.00     0.117 A 
ATOM     28  H   LIG d   1       3.787  -0.737  -5.537  0.00  0.00     0.066 H 
ATOM     29  C   LIG d   1       3.738   0.480  -2.382  0.00  0.00    -0.020 A 
ATOM     30  C   LIG d   1       4.310  -0.593  -1.727  0.00  0.00    -0.058 A 
ATOM     31  H   LIG d   1       3.441   1.357  -1.827  0.00  0.00     0.065 H 
ATOM     32  C   LIG d   1       4.692  -1.715  -2.438  0.00  0.00    -0.053 A 
ATOM     33  H   LIG d   1       4.460  -0.554  -0.658  0.00  0.00     0.062 H 
ATOM     34  H   LIG d   1       5.139  -2.554  -1.923  0.00  0.00     0.062 H 
BRANCH  27  35
ATOM     35  O   LIG d   1       2.982   1.484  -4.402  0.00  0.00    -0.507 OA
ATOM     36  H   LIG d   1       2.441   1.235  -5.164  0.00  0.00     0.292 HD
ENDBRANCH  27  35
ENDBRANCH  11  25
BRANCH  13  37
ATOM     37  C   LIG d   1       4.862  -5.481  -5.780  0.00  0.00     0.090 C 
ATOM     38  O   LIG d   1       4.103  -5.943  -4.960  0.00  0.00    -0.544 OA
ATOM     39  OXT LIG d   1       6.067  -6.041  -5.968  0.00  0.00    -0.544 OA
ENDBRANCH  13  37
TORSDOF 3
ENDMDL
MODEL 7
REMARK VINA RESULT:      -6.5      2.553      5.562
REMARK  3 active torsions:
REMARK  status: ('A' for Active; 'I' for Inactive)
REMARK    1  A    between atoms: C_11  and  C_18 
REMARK    2  A    between atoms: CA_13  and  C_16 
REMARK    3  A    between atoms: C_22  and  O_24 
ROOT
ATOM      1  C   LIG d   1       8.398   2.541  -8.782  0.00  0.00    -0.061 A 
ATOM      2  C   LIG d   1       9.214   2.077  -7.759  0.00  0.00    -0.060 A 
ATOM      3  C   LIG d   1       8.742   1.156  -6.849  0.00  0.00    -0.038 A 
ATOM      4  C   LIG d   1       7.438   0.686  -6.952  0.00  0.00     0.047 A 
ATOM      5  C   LIG d   1       6.613   1.159  -7.992  0.00  0.00     0.004 A 
ATOM      6  C   LIG d   1       7.113   2.094  -8.902  0.00  0.00    -0.052 A 
ATOM      7  C   LIG d   1       5.335   0.482  -7.823  0.00  0.00    -0.008 A 
ATOM      8  C   LIG d   1       5.442  -0.322  -6.746  0.00  0.00     0.074 A 
ATOM      9  N   LIG d   1       6.694  -0.211  -6.216  0.00  0.00    -0.353 N 
ATOM     10  H   LIG d   1       7.014  -0.692  -5.436  0.00  0.00     0.166 HD
ATOM     11  C   LIG d   1       4.309  -1.191  -6.252  0.00  0.00     0.045 C 
ATOM     12  H   LIG d   1       4.482  -2.226  -6.547  0.00  0.00     0.097 H 
ATOM     13  CA  LIG d   1       3.174  -0.585  -8.316  0.00  0.00     0.023 C 
ATOM     14  HA  LIG d   1       2.186  -0.421  -8.747  0.00  0.00     0.092 H 
ATOM     15  C   LIG d   1       4.084   0.603  -8.657  0.00  0.00     0.023 C 
ATOM     16  H   LIG d   1       8.781   3.264  -9.487  0.00  0.00     0.062 H 
ATOM     17  H   LIG d   1      10.229   2.436  -7.679  0.00  0.00     0.062 H 
ATOM     18  H   LIG d   1       9.386   0.800  -6.057  0.00  0.00     0.064 H 
ATOM     19  H   LIG d   1       6.485   2.460  -9.701  0.00  0.00     0.062 H 
ATOM     20  H   LIG d   1       3.575   1.537  -8.423  0.00  0.00     0.037 H 
ATOM     21  H   LIG d   1       4.343   0.578  -9.715  0.00  0.00     0.037 H 
ATOM     22  N   LIG d   1       3.044  -0.704  -6.848  0.00  0.00     0.243 N 
ATOM     23  H1  LIG d   1       2.817   0.216  -6.454  0.00  0.00     0.203 HD
ATOM     24  H2  LIG d   1       2.291  -1.366  -6.628  0.00  0.00     0.203 HD
ENDROOT
BRANCH  11  25
ATOM     25  C   LIG d   1       4.216  -1.101  -4.750  0.00  0.00     0.010 A 
ATOM     26  C   LIG d   1       3.846   0.088  -4.153  0.00  0.00    -0.011 A 
ATOM     27  C   LIG d   1       3.755   0.171  -2.772  0.00  0.00     0.117 A 
ATOM     28  H   LIG d   1       3.626   0.954  -4.762  0.00  0.00     0.066 H 
ATOM     29  C   LIG d   1       4.045  -0.940  -1.992  0.00  0.00    -0.020 A 
ATOM     30  C   LIG d   1       4.417  -2.126  -2.595  0.00  0.00    -0.058 A 
ATOM     31  H   LIG d   1       3.979  -0.878  -0.916  0.00  0.00     0.065 H 
ATOM     32  C   LIG d   1       4.504  -2.206  -3.972  0.00  0.00    -0.053 A 
ATOM     33  H   LIG d   1       4.642  -2.992  -1.989  0.00  0.00     0.062 H 
ATOM     34  H   LIG d   1       4.795  -3.135  -4.442  0.00  0.00     0.062 H 
BRANCH  27  35
ATOM     35  O   LIG d   1       3.388   1.338  -2.180  0.00  0.00    -0.507 OA
ATOM     36  H   LIG d   1       3.989   2.074  -2.357  0.00  0.00     0.292 HD
ENDBRANCH  27  35
ENDBRANCH  11  25
BRANCH  13  37
ATOM     37  C   LIG d   1       3.766  -1.850  -8.880  0.00  0.00     0.090 C 
ATOM     38  O   LIG d   1       4.583  -1.792  -9.768  0.00  0.00    -0.544 OA
ATOM     39  OXT LIG d   1       3.387  -3.043  -8.394  0.00  0.00    -0.544 OA
ENDBRANCH  13  37
TORSDOF 3
ENDMDL
MODEL 8
REMARK VINA RESULT:      -6.5      2.689      5.883
REMARK  3 active torsions:
REMARK  status: ('A' for Active; 'I' for Inactive)
REMARK    1  A    between atoms: C_11  and  C_18 
REMARK    2  A    between atoms: CA_13  and  C_16 
REMARK    3  A    between atoms: C_22  and  O_24 
ROOT
ATOM      1  C   LIG d   1       3.049  -0.873 -10.550  0.00  0.00    -0.061 A 
ATOM      2  C   LIG d   1       2.217  -0.013  -9.846  0.00  0.00    -0.060 A 
ATOM      3  C   LIG d   1       2.544   0.390  -8.570  0.00  0.00    -0.038 A 
ATOM      4  C   LIG d   1       3.717  -0.066  -7.979  0.00  0.00     0.047 A 
ATOM      5  C   LIG d   1       4.559  -0.938  -8.697  0.00  0.00     0.004 A 
ATOM      6  C   LIG d   1       4.206  -1.334  -9.990  0.00  0.00    -0.052 A 
ATOM      7  C   LIG d   1       5.682  -1.222  -7.814  0.00  0.00    -0.008 A 
ATOM      8  C   LIG d   1       5.475  -0.547  -6.666  0.00  0.00     0.074 A 
ATOM      9  N   LIG d   1       4.304   0.149  -6.750  0.00  0.00    -0.353 N 
ATOM     10  H   LIG d   1       3.939   0.712  -6.050  0.00  0.00     0.166 HD
ATOM     11  C   LIG d   1       6.433  -0.594  -5.499  0.00  0.00     0.045 C 
ATOM     12  H   LIG d   1       7.022   0.322  -5.468  0.00  0.00     0.097 H 
ATOM     13  CA  LIG d   1       7.947  -1.749  -7.012  0.00  0.00     0.023 C 
ATOM     14  HA  LIG d   1       8.744  -2.493  -7.042  0.00  0.00     0.092 H 
ATOM     15  C   LIG d   1       6.887  -2.091  -8.069  0.00  0.00     0.023 C 
ATOM     16  H   LIG d   1       2.778  -1.181 -11.550  0.00  0.00     0.062 H 
ATOM     17  H   LIG d   1       1.308   0.347 -10.304  0.00  0.00     0.062 H 
ATOM     18  H   LIG d   1       1.890   1.060  -8.030  0.00  0.00     0.064 H 
ATOM     19  H   LIG d   1       4.847  -2.003 -10.545  0.00  0.00     0.062 H 
ATOM     20  H   LIG d   1       6.607  -3.141  -7.985  0.00  0.00     0.037 H 
ATOM     21  H   LIG d   1       7.282  -1.893  -9.065  0.00  0.00     0.037 H 
ATOM     22  N   LIG d   1       7.329  -1.761  -5.670  0.00  0.00     0.243 N 
ATOM     23  H1  LIG d   1       6.785  -2.624  -5.556  0.00  0.00     0.203 HD
ATOM     24  H2  LIG d   1       8.067  -1.726  -4.957  0.00  0.00     0.203 HD
ENDROOT
BRANCH  11  25
ATOM     25  C   LIG d   1       5.661  -0.746  -4.213  0.00  0.00     0.010 A 
ATOM     26  C   LIG d   1       5.575   0.314  -3.332  0.00  0.00    -0.011 A 
ATOM     27  C   LIG d   1       4.860   0.176  -2.151  0.00  0.00     0.117 A 
ATOM     28  H   LIG d   1       6.060   1.251  -3.564  0.00  0.00     0.066 H 
ATOM     29  C   LIG d   1       4.243  -1.030  -1.853  0.00  0.00    -0.020 A 
ATOM     30  C   LIG d   1       4.336  -2.088  -2.737  0.00  0.00    -0.058 A 
ATOM     31  H   LIG d   1       3.689  -1.141  -0.933  0.00  0.00     0.065 H 
ATOM     32  C   LIG d   1       5.045  -1.947  -3.914  0.00  0.00    -0.053 A 
ATOM     33  H   LIG d   1       3.855  -3.027  -2.506  0.00  0.00     0.062 H 
ATOM     34  H   LIG d   1       5.117  -2.776  -4.604  0.00  0.00     0.062 H 
BRANCH  27  35
ATOM     35  O   LIG d   1       4.769   1.219  -1.284  0.00  0.00    -0.507 OA
ATOM     36  H   LIG d   1       4.301   1.986  -1.638  0.00  0.00     0.292 HD
ENDBRANCH  27  35
ENDBRANCH  11  25
BRANCH  13  37
ATOM     37  C   LIG d   1       8.520  -0.386  -7.298  0.00  0.00     0.090 C 
ATOM     38  O   LIG d   1       8.401   0.102  -8.397  0.00  0.00    -0.544 OA
ATOM     39  OXT LIG d   1       9.162   0.288  -6.331  0.00  0.00    -0.544 OA
ENDBRANCH  13  37
TORSDOF 3
ENDMDL
MODEL 9
REMARK VINA RESULT:      -6.4      3.513      5.956
REMARK  3 active torsions:
REMARK  status: ('A' for Active; 'I' for Inactive)
REMARK    1  A    between atoms: C_11  and  C_18 
REMARK    2  A    between atoms: CA_13  and  C_16 
REMARK    3  A    between atoms: C_22  and  O_24 
ROOT
ATOM      1  C   LIG d   1      11.343  -4.510  -5.154  0.00  0.00    -0.061 A 
ATOM      2  C   LIG d   1      11.468  -4.210  -3.805  0.00  0.00    -0.060 A 
ATOM      3  C   LIG d   1      10.379  -3.780  -3.078  0.00  0.00    -0.038 A 
ATOM      4  C   LIG d   1       9.142  -3.644  -3.700  0.00  0.00     0.047 A 
ATOM      5  C   LIG d   1       9.020  -3.950  -5.069  0.00  0.00     0.004 A 
ATOM      6  C   LIG d   1      10.139  -4.383  -5.786  0.00  0.00    -0.052 A 
ATOM      7  C   LIG d   1       7.623  -3.710  -5.406  0.00  0.00    -0.008 A 
ATOM      8  C   LIG d   1       7.003  -3.290  -4.285  0.00  0.00     0.074 A 
ATOM      9  N   LIG d   1       7.899  -3.246  -3.257  0.00  0.00    -0.353 N 
ATOM     10  H   LIG d   1       7.692  -2.976  -2.348  0.00  0.00     0.166 HD
ATOM     11  C   LIG d   1       5.535  -2.937  -4.240  0.00  0.00     0.045 C 
ATOM     12  H   LIG d   1       4.975  -3.746  -3.772  0.00  0.00     0.097 H 
ATOM     13  CA  LIG d   1       5.416  -3.884  -6.477  0.00  0.00     0.023 C 
ATOM     14  HA  LIG d   1       4.886  -3.804  -7.426  0.00  0.00     0.092 H 
ATOM     15  C   LIG d   1       6.929  -3.881  -6.734  0.00  0.00     0.023 C 
ATOM     16  H   LIG d   1      12.207  -4.844  -5.710  0.00  0.00     0.062 H 
ATOM     17  H   LIG d   1      12.425  -4.319  -3.318  0.00  0.00     0.062 H 
ATOM     18  H   LIG d   1      10.486  -3.549  -2.028  0.00  0.00     0.064 H 
ATOM     19  H   LIG d   1      10.051  -4.619  -6.836  0.00  0.00     0.062 H 
ATOM     20  H   LIG d   1       7.189  -3.053  -7.394  0.00  0.00     0.037 H 
ATOM     21  H   LIG d   1       7.229  -4.824  -7.189  0.00  0.00     0.037 H 
ATOM     22  N   LIG d   1       5.055  -2.731  -5.626  0.00  0.00     0.243 N 
ATOM     23  H1  LIG d   1       5.484  -1.881  -6.009  0.00  0.00     0.203 HD
ATOM     24  H2  LIG d   1       4.034  -2.624  -5.616  0.00  0.00     0.203 HD
ENDROOT
BRANCH  11  25
ATOM     25  C   LIG d   1       5.341  -1.665  -3.455  0.00  0.00     0.010 A 
ATOM     26  C   LIG d   1       6.035  -0.524  -3.809  0.00  0.00    -0.011 A 
ATOM     27  C   LIG d   1       5.853   0.648  -3.090  0.00  0.00     0.117 A 
ATOM     28  H   LIG d   1       6.717  -0.544  -4.647  0.00  0.00     0.066 H 
ATOM     29  C   LIG d   1       4.982   0.669  -2.010  0.00  0.00    -0.020 A 
ATOM     30  C   LIG d   1       4.293  -0.476  -1.659  0.00  0.00    -0.058 A 
ATOM     31  H   LIG d   1       4.841   1.579  -1.446  0.00  0.00     0.065 H 
ATOM     32  C   LIG d   1       4.473  -1.641  -2.379  0.00  0.00    -0.053 A 
ATOM     33  H   LIG d   1       3.614  -0.460  -0.819  0.00  0.00     0.062 H 
ATOM     34  H   LIG d   1       3.934  -2.536  -2.103  0.00  0.00     0.062 H 
BRANCH  27  35
ATOM     35  O   LIG d   1       6.532   1.773  -3.437  0.00  0.00    -0.507 OA
ATOM     36  H   LIG d   1       7.416   1.607  -3.788  0.00  0.00     0.292 HD
ENDBRANCH  27  35
ENDBRANCH  11  25
BRANCH  13  37
ATOM     37  C   LIG d   1       5.026  -5.167  -5.789  0.00  0.00     0.090 C 
ATOM     38  O   LIG d   1       3.918  -5.291  -5.324  0.00  0.00    -0.544 OA
ATOM     39  OXT LIG d   1       5.910  -6.172  -5.694  0.00  0.00    -0.544 OA
ENDBRANCH  13  37
TORSDOF 3
ENDMDL
MODEL 10
REMARK VINA RESULT:      -6.3      2.489      4.731
REMARK  3 active torsions:
REMARK  status: ('A' for Active; 'I' for Inactive)
REMARK    1  A    between atoms: C_11  and  C_18 
REMARK    2  A    between atoms: CA_13  and  C_16 
REMARK    3  A    between atoms: C_22  and  O_24 
ROOT
ATOM      1  C   LIG d   1       3.181   0.285  -3.246  0.00  0.00    -0.061 A 
ATOM      2  C   LIG d   1       3.668  -1.007  -3.100  0.00  0.00    -0.060 A 
ATOM      3  C   LIG d   1       3.967  -1.773  -4.206  0.00  0.00    -0.038 A 
ATOM      4  C   LIG d   1       3.780  -1.249  -5.481  0.00  0.00     0.047 A 
ATOM      5  C   LIG d   1       3.286   0.062  -5.624  0.00  0.00     0.004 A 
ATOM      6  C   LIG d   1       2.989   0.819  -4.489  0.00  0.00    -0.052 A 
ATOM      7  C   LIG d   1       3.210   0.302  -7.059  0.00  0.00    -0.008 A 
ATOM      8  C   LIG d   1       3.635  -0.817  -7.680  0.00  0.00     0.074 A 
ATOM      9  N   LIG d   1       3.980  -1.753  -6.749  0.00  0.00    -0.353 N 
ATOM     10  H   LIG d   1       4.317  -2.640  -6.949  0.00  0.00     0.166 HD
ATOM     11  C   LIG d   1       3.698  -0.950  -9.184  0.00  0.00     0.045 C 
ATOM     12  H   LIG d   1       4.729  -0.847  -9.520  0.00  0.00     0.097 H 
ATOM     13  CA  LIG d   1       3.232   1.436  -9.242  0.00  0.00     0.023 C 
ATOM     14  HA  LIG d   1       2.752   2.212  -9.838  0.00  0.00     0.092 H 
ATOM     15  C   LIG d   1       2.756   1.542  -7.786  0.00  0.00     0.023 C 
ATOM     16  H   LIG d   1       2.949   0.872  -2.369  0.00  0.00     0.062 H 
ATOM     17  H   LIG d   1       3.819  -1.414  -2.112  0.00  0.00     0.062 H 
ATOM     18  H   LIG d   1       4.346  -2.777  -4.082  0.00  0.00     0.064 H 
ATOM     19  H   LIG d   1       2.609   1.825  -4.592  0.00  0.00     0.062 H 
ATOM     20  H   LIG d   1       1.668   1.608  -7.758  0.00  0.00     0.037 H 
ATOM     21  H   LIG d   1       3.191   2.425  -7.318  0.00  0.00     0.037 H 
ATOM     22  N   LIG d   1       2.863   0.113  -9.788  0.00  0.00     0.243 N 
ATOM     23  H1  LIG d   1       1.876  -0.074  -9.582  0.00  0.00     0.203 HD
ATOM     24  H2  LIG d   1       3.006   0.116 -10.805  0.00  0.00     0.203 HD
ENDROOT
BRANCH  11  25
ATOM     25  C   LIG d   1       3.161  -2.297  -9.597  0.00  0.00     0.010 A 
ATOM     26  C   LIG d   1       1.804  -2.469  -9.788  0.00  0.00    -0.011 A 
ATOM     27  C   LIG d   1       1.310  -3.706 -10.174  0.00  0.00     0.117 A 
ATOM     28  H   LIG d   1       1.127  -1.639  -9.639  0.00  0.00     0.066 H 
ATOM     29  C   LIG d   1       2.180  -4.771 -10.358  0.00  0.00    -0.020 A 
ATOM     30  C   LIG d   1       3.537  -4.594 -10.163  0.00  0.00    -0.058 A 
ATOM     31  H   LIG d   1       1.799  -5.736 -10.655  0.00  0.00     0.065 H 
ATOM     32  C   LIG d   1       4.026  -3.359  -9.782  0.00  0.00    -0.053 A 
ATOM     33  H   LIG d   1       4.215  -5.422 -10.308  0.00  0.00     0.062 H 
ATOM     34  H   LIG d   1       5.087  -3.222  -9.630  0.00  0.00     0.062 H 
BRANCH  27  35
ATOM     35  O   LIG d   1      -0.024  -3.878 -10.365  0.00  0.00    -0.507 OA
ATOM     36  H   LIG d   1      -0.376  -3.405 -11.131  0.00  0.00     0.292 HD
ENDBRANCH  27  35
ENDBRANCH  11  25
BRANCH  13  37
ATOM     37  C   LIG d   1       4.727   1.611  -9.295  0.00  0.00     0.090 C 
ATOM     38  O   LIG d   1       5.321   2.038  -8.333  0.00  0.00    -0.544 OA
ATOM     39  OXT LIG d   1       5.400   1.292 -10.412  0.00  0.00    -0.544 OA
ENDBRANCH  13  37
TORSDOF 3
ENDMDL
