MODEL 1
REMARK VINA RESULT:      -8.2      0.000      0.000
REMARK  3 active torsions:
REMARK  status: ('A' for Active; 'I' for Inactive)
REMARK    1  A    between atoms: C_1  and  N_2 
REMARK    2  A    between atoms: N_5  and  C_8 
REMARK    3  A    between atoms: C_8  and  C_9 
REMARK       I    between atoms: C_9  and  N_11 
ROOT
ATOM      1  C   LIG d   1       6.877  -5.281  -5.973  0.00  0.00     0.231 C 
ATOM      2  O   LIG d   1       6.023  -6.134  -6.074  0.00  0.00    -0.274 OA
ATOM      3  N   LIG d   1       6.532  -3.978  -5.956  0.00  0.00    -0.277 N 
ATOM      4  C   LIG d   1       7.555  -2.927  -5.841  0.00  0.00     0.020 C 
ATOM      5  C   LIG d   1       7.330  -2.151  -4.537  0.00  0.00    -0.009 C 
ATOM      6  C   LIG d   1       5.865  -1.830  -4.396  0.00  0.00    -0.015 A 
ATOM      7  C   LIG d   1       5.238  -0.829  -3.558  0.00  0.00     0.003 A 
ATOM      8  C   LIG d   1       5.752   0.112  -2.661  0.00  0.00    -0.052 A 
ATOM      9  C   LIG d   1       4.844   0.923  -2.024  0.00  0.00    -0.061 A 
ATOM     10  C   LIG d   1       3.481   0.822  -2.251  0.00  0.00    -0.060 A 
ATOM     11  C   LIG d   1       2.946  -0.101  -3.133  0.00  0.00    -0.038 A 
ATOM     12  C   LIG d   1       3.843  -0.937  -3.794  0.00  0.00     0.047 A 
ATOM     13  N   LIG d   1       3.661  -1.936  -4.706  0.00  0.00    -0.355 N 
ATOM     14  H   LIG d   1       2.803  -2.228  -5.049  0.00  0.00     0.166 HD
ATOM     15  C   LIG d   1       4.874  -2.463  -5.064  0.00  0.00     0.058 A 
ATOM     16  C   LIG d   1       5.126  -3.573  -6.057  0.00  0.00     0.181 A 
ATOM     17  C   LIG d   1       4.777  -3.155  -7.447  0.00  0.00     0.012 A 
ATOM     18  C   LIG d   1       5.264  -2.147  -8.252  0.00  0.00    -0.054 A 
ATOM     19  C   LIG d   1       4.709  -2.027  -9.521  0.00  0.00    -0.061 A 
ATOM     20  C   LIG d   1       3.715  -2.880  -9.954  0.00  0.00    -0.060 A 
ATOM     21  C   LIG d   1       3.219  -3.896  -9.152  0.00  0.00    -0.040 A 
ATOM     22  C   LIG d   1       3.769  -4.028  -7.876  0.00  0.00     0.040 A 
ATOM     23  N   LIG d   1       3.468  -4.941  -6.880  0.00  0.00    -0.283 N 
ATOM     24  C   LIG d   1       4.219  -4.748  -5.774  0.00  0.00     0.252 A 
ATOM     25  O   LIG d   1       4.174  -5.396  -4.750  0.00  0.00    -0.272 OA
ATOM     26  H   LIG d   1       8.545  -3.381  -5.829  0.00  0.00     0.047 H 
ATOM     27  H   LIG d   1       7.475  -2.245  -6.689  0.00  0.00     0.047 H 
ATOM     28  H   LIG d   1       7.653  -2.759  -3.692  0.00  0.00     0.033 H 
ATOM     29  H   LIG d   1       7.905  -1.225  -4.561  0.00  0.00     0.033 H 
ATOM     30  H   LIG d   1       6.812   0.199  -2.478  0.00  0.00     0.062 H 
ATOM     31  H   LIG d   1       5.204   1.661  -1.324  0.00  0.00     0.062 H 
ATOM     32  H   LIG d   1       2.814   1.485  -1.722  0.00  0.00     0.062 H 
ATOM     33  H   LIG d   1       1.881  -0.169  -3.301  0.00  0.00     0.064 H 
ATOM     34  H   LIG d   1       6.043  -1.479  -7.910  0.00  0.00     0.062 H 
ATOM     35  H   LIG d   1       5.063  -1.249 -10.182  0.00  0.00     0.062 H 
ATOM     36  H   LIG d   1       3.311  -2.752 -10.947  0.00  0.00     0.062 H 
ATOM     37  H   LIG d   1       2.441  -4.559  -9.501  0.00  0.00     0.064 H 
ATOM     38  H   LIG d   1       2.798  -5.637  -6.966  0.00  0.00     0.155 HD
ENDROOT
BRANCH   1  39
ATOM     39  C   LIG d   1       8.329  -5.676  -5.867  0.00  0.00     0.076 C 
ATOM     40  H   LIG d   1       8.956  -4.832  -6.152  0.00  0.00     0.052 H 
ATOM     41  H   LIG d   1       8.525  -6.516  -6.532  0.00  0.00     0.052 H 
BRANCH  39  42
ATOM     42  N   LIG d   1       8.630  -6.066  -4.484  0.00  0.00    -0.284 N 
ATOM     43  C   LIG d   1       9.634  -5.171  -3.891  0.00  0.00     0.040 C 
ATOM     44  C   LIG d   1       9.875  -5.574  -2.434  0.00  0.00    -0.019 C 
ATOM     45  H   LIG d   1       9.273  -4.144  -3.930  0.00  0.00     0.048 H 
ATOM     46  H   LIG d   1      10.567  -5.251  -4.449  0.00  0.00     0.048 H 
ATOM     47  N   LIG d   1      10.342  -6.965  -2.382  0.00  0.00     0.235 N 
ATOM     48  H   LIG d   1       8.946  -5.481  -1.874  0.00  0.00     0.083 H 
ATOM     49  H   LIG d   1      10.630  -4.920  -1.997  0.00  0.00     0.083 H 
ATOM     50  C   LIG d   1       9.319  -7.850  -2.954  0.00  0.00    -0.019 C 
ATOM     51  H   LIG d   1      11.197  -7.053  -2.911  0.00  0.00     0.203 HD
ATOM     52  C   LIG d   1       9.072  -7.466  -4.415  0.00  0.00     0.040 C 
ATOM     53  H   LIG d   1       9.661  -8.883  -2.903  0.00  0.00     0.083 H 
ATOM     54  H   LIG d   1       8.391  -7.745  -2.391  0.00  0.00     0.083 H 
ATOM     55  H   LIG d   1       8.302  -8.112  -4.837  0.00  0.00     0.048 H 
ATOM     56  H   LIG d   1       9.996  -7.583  -4.983  0.00  0.00     0.048 H 
BRANCH  47  57
ATOM     57  C   LIG d   1      10.591  -7.345  -0.984  0.00  0.00    -0.043 C 
ATOM     58  H   LIG d   1      11.007  -8.352  -0.951  0.00  0.00     0.078 H 
ATOM     59  H   LIG d   1      11.297  -6.646  -0.538  0.00  0.00     0.078 H 
ATOM     60  H   LIG d   1       9.653  -7.320  -0.429  0.00  0.00     0.078 H 
ENDBRANCH  47  57
ENDBRANCH  39  42
ENDBRANCH   1  39
TORSDOF 3
ENDMDL
MODEL 2
REMARK VINA RESULT:      -8.1      2.289      4.927
REMARK  3 active torsions:
REMARK  status: ('A' for Active; 'I' for Inactive)
REMARK    1  A    between atoms: C_1  and  N_2 
REMARK    2  A    between atoms: N_5  and  C_8 
REMARK    3  A    between atoms: C_8  and  C_9 
REMARK       I    between atoms: C_9  and  N_11 
ROOT
ATOM      1  C   LIG d   1       8.030  -2.388  -5.597  0.00  0.00     0.231 C 
ATOM      2  O   LIG d   1       8.513  -1.317  -5.300  0.00  0.00    -0.274 OA
ATOM      3  N   LIG d   1       6.697  -2.505  -5.762  0.00  0.00    -0.277 N 
ATOM      4  C   LIG d   1       6.091  -3.798  -6.116  0.00  0.00     0.020 C 
ATOM      5  C   LIG d   1       5.416  -3.675  -7.488  0.00  0.00    -0.009 C 
ATOM      6  C   LIG d   1       4.615  -2.400  -7.534  0.00  0.00    -0.015 A 
ATOM      7  C   LIG d   1       3.543  -2.042  -8.440  0.00  0.00     0.003 A 
ATOM      8  C   LIG d   1       2.935  -2.718  -9.503  0.00  0.00    -0.052 A 
ATOM      9  C   LIG d   1       1.922  -2.060 -10.158  0.00  0.00    -0.061 A 
ATOM     10  C   LIG d   1       1.514  -0.788  -9.793  0.00  0.00    -0.060 A 
ATOM     11  C   LIG d   1       2.098  -0.096  -8.746  0.00  0.00    -0.038 A 
ATOM     12  C   LIG d   1       3.128  -0.739  -8.062  0.00  0.00     0.047 A 
ATOM     13  N   LIG d   1       3.906  -0.355  -7.008  0.00  0.00    -0.355 N 
ATOM     14  H   LIG d   1       3.841   0.497  -6.549  0.00  0.00     0.166 HD
ATOM     15  C   LIG d   1       4.789  -1.353  -6.695  0.00  0.00     0.058 A 
ATOM     16  C   LIG d   1       5.814  -1.347  -5.586  0.00  0.00     0.181 A 
ATOM     17  C   LIG d   1       5.167  -1.353  -4.241  0.00  0.00     0.012 A 
ATOM     18  C   LIG d   1       4.323  -2.257  -3.632  0.00  0.00    -0.054 A 
ATOM     19  C   LIG d   1       3.892  -1.953  -2.346  0.00  0.00    -0.061 A 
ATOM     20  C   LIG d   1       4.293  -0.797  -1.708  0.00  0.00    -0.060 A 
ATOM     21  C   LIG d   1       5.142   0.117  -2.312  0.00  0.00    -0.040 A 
ATOM     22  C   LIG d   1       5.583  -0.176  -3.603  0.00  0.00     0.040 A 
ATOM     23  N   LIG d   1       6.423   0.548  -4.431  0.00  0.00    -0.283 N 
ATOM     24  C   LIG d   1       6.616  -0.066  -5.618  0.00  0.00     0.252 A 
ATOM     25  O   LIG d   1       7.302   0.334  -6.534  0.00  0.00    -0.272 OA
ATOM     26  H   LIG d   1       6.865  -4.564  -6.157  0.00  0.00     0.047 H 
ATOM     27  H   LIG d   1       5.346  -4.070  -5.366  0.00  0.00     0.047 H 
ATOM     28  H   LIG d   1       6.178  -3.655  -8.267  0.00  0.00     0.033 H 
ATOM     29  H   LIG d   1       4.755  -4.527  -7.645  0.00  0.00     0.033 H 
ATOM     30  H   LIG d   1       3.246  -3.709  -9.794  0.00  0.00     0.062 H 
ATOM     31  H   LIG d   1       1.431  -2.550 -10.984  0.00  0.00     0.062 H 
ATOM     32  H   LIG d   1       0.712  -0.319 -10.344  0.00  0.00     0.062 H 
ATOM     33  H   LIG d   1       1.770   0.895  -8.471  0.00  0.00     0.064 H 
ATOM     34  H   LIG d   1       4.010  -3.162  -4.134  0.00  0.00     0.062 H 
ATOM     35  H   LIG d   1       3.229  -2.636  -1.835  0.00  0.00     0.062 H 
ATOM     36  H   LIG d   1       3.935  -0.599  -0.709  0.00  0.00     0.062 H 
ATOM     37  H   LIG d   1       5.451   1.019  -1.804  0.00  0.00     0.064 H 
ATOM     38  H   LIG d   1       6.826   1.396  -4.187  0.00  0.00     0.155 HD
ENDROOT
BRANCH   1  39
ATOM     39  C   LIG d   1       8.920  -3.591  -5.782  0.00  0.00     0.076 C 
ATOM     40  H   LIG d   1       9.926  -3.262  -6.040  0.00  0.00     0.052 H 
ATOM     41  H   LIG d   1       8.525  -4.215  -6.582  0.00  0.00     0.052 H 
BRANCH  39  42
ATOM     42  N   LIG d   1       8.962  -4.364  -4.534  0.00  0.00    -0.284 N 
ATOM     43  C   LIG d   1       9.984  -3.835  -3.620  0.00  0.00     0.040 C 
ATOM     44  C   LIG d   1       9.954  -4.628  -2.312  0.00  0.00    -0.019 C 
ATOM     45  H   LIG d   1       9.779  -2.785  -3.414  0.00  0.00     0.048 H 
ATOM     46  H   LIG d   1      10.967  -3.930  -4.081  0.00  0.00     0.048 H 
ATOM     47  N   LIG d   1      10.211  -6.047  -2.593  0.00  0.00     0.235 N 
ATOM     48  H   LIG d   1       8.976  -4.522  -1.845  0.00  0.00     0.083 H 
ATOM     49  H   LIG d   1      10.722  -4.247  -1.639  0.00  0.00     0.083 H 
ATOM     50  C   LIG d   1       9.168  -6.568  -3.486  0.00  0.00    -0.019 C 
ATOM     51  H   LIG d   1      11.112  -6.144  -3.037  0.00  0.00     0.203 HD
ATOM     52  C   LIG d   1       9.190  -5.790  -4.805  0.00  0.00     0.040 C 
ATOM     53  H   LIG d   1       9.352  -7.623  -3.684  0.00  0.00     0.083 H 
ATOM     54  H   LIG d   1       8.193  -6.451  -3.013  0.00  0.00     0.083 H 
ATOM     55  H   LIG d   1       8.407  -6.166  -5.462  0.00  0.00     0.048 H 
ATOM     56  H   LIG d   1      10.161  -5.918  -5.286  0.00  0.00     0.048 H 
BRANCH  47  57
ATOM     57  C   LIG d   1      10.201  -6.805  -1.335  0.00  0.00    -0.043 C 
ATOM     58  H   LIG d   1      11.012  -7.534  -1.343  0.00  0.00     0.078 H 
ATOM     59  H   LIG d   1      10.336  -6.120  -0.497  0.00  0.00     0.078 H 
ATOM     60  H   LIG d   1       9.248  -7.323  -1.231  0.00  0.00     0.078 H 
ENDBRANCH  47  57
ENDBRANCH  39  42
ENDBRANCH   1  39
TORSDOF 3
ENDMDL
MODEL 3
REMARK VINA RESULT:      -8.1      2.862      7.490
REMARK  3 active torsions:
REMARK  status: ('A' for Active; 'I' for Inactive)
REMARK    1  A    between atoms: C_1  and  N_2 
REMARK    2  A    between atoms: N_5  and  C_8 
REMARK    3  A    between atoms: C_8  and  C_9 
REMARK       I    between atoms: C_9  and  N_11 
ROOT
ATOM      1  C   LIG d   1       5.333  -0.226  -7.361  0.00  0.00     0.231 C 
ATOM      2  O   LIG d   1       4.319  -0.891  -7.363  0.00  0.00    -0.274 OA
ATOM      3  N   LIG d   1       6.188  -0.303  -6.322  0.00  0.00    -0.277 N 
ATOM      4  C   LIG d   1       7.420   0.501  -6.296  0.00  0.00     0.020 C 
ATOM      5  C   LIG d   1       8.631  -0.439  -6.294  0.00  0.00    -0.009 C 
ATOM      6  C   LIG d   1       8.401  -1.543  -5.295  0.00  0.00    -0.015 A 
ATOM      7  C   LIG d   1       9.375  -2.424  -4.685  0.00  0.00     0.003 A 
ATOM      8  C   LIG d   1      10.763  -2.534  -4.811  0.00  0.00    -0.052 A 
ATOM      9  C   LIG d   1      11.380  -3.507  -4.062  0.00  0.00    -0.061 A 
ATOM     10  C   LIG d   1      10.671  -4.345  -3.218  0.00  0.00    -0.060 A 
ATOM     11  C   LIG d   1       9.297  -4.258  -3.074  0.00  0.00    -0.038 A 
ATOM     12  C   LIG d   1       8.644  -3.280  -3.822  0.00  0.00     0.047 A 
ATOM     13  N   LIG d   1       7.329  -2.930  -3.920  0.00  0.00    -0.355 N 
ATOM     14  H   LIG d   1       6.601  -3.354  -3.439  0.00  0.00     0.166 HD
ATOM     15  C   LIG d   1       7.191  -1.889  -4.799  0.00  0.00     0.058 A 
ATOM     16  C   LIG d   1       5.910  -1.186  -5.185  0.00  0.00     0.181 A 
ATOM     17  C   LIG d   1       5.332  -0.431  -4.035  0.00  0.00     0.012 A 
ATOM     18  C   LIG d   1       5.827   0.608  -3.277  0.00  0.00    -0.054 A 
ATOM     19  C   LIG d   1       5.014   1.091  -2.258  0.00  0.00    -0.061 A 
ATOM     20  C   LIG d   1       3.767   0.552  -2.017  0.00  0.00    -0.060 A 
ATOM     21  C   LIG d   1       3.261  -0.493  -2.774  0.00  0.00    -0.040 A 
ATOM     22  C   LIG d   1       4.066  -0.986  -3.801  0.00  0.00     0.040 A 
ATOM     23  N   LIG d   1       3.816  -2.008  -4.699  0.00  0.00    -0.283 N 
ATOM     24  C   LIG d   1       4.847  -2.195  -5.552  0.00  0.00     0.252 A 
ATOM     25  O   LIG d   1       4.907  -3.017  -6.443  0.00  0.00    -0.272 OA
ATOM     26  H   LIG d   1       7.456   1.141  -7.178  0.00  0.00     0.047 H 
ATOM     27  H   LIG d   1       7.435   1.118  -5.396  0.00  0.00     0.047 H 
ATOM     28  H   LIG d   1       8.760  -0.869  -7.288  0.00  0.00     0.033 H 
ATOM     29  H   LIG d   1       9.526   0.120  -6.020  0.00  0.00     0.033 H 
ATOM     30  H   LIG d   1      11.325  -1.885  -5.466  0.00  0.00     0.062 H 
ATOM     31  H   LIG d   1      12.450  -3.622  -4.135  0.00  0.00     0.062 H 
ATOM     32  H   LIG d   1      11.208  -5.092  -2.653  0.00  0.00     0.062 H 
ATOM     33  H   LIG d   1       8.756  -4.918  -2.412  0.00  0.00     0.064 H 
ATOM     34  H   LIG d   1       6.805   1.029  -3.467  0.00  0.00     0.062 H 
ATOM     35  H   LIG d   1       5.367   1.905  -1.640  0.00  0.00     0.062 H 
ATOM     36  H   LIG d   1       3.167   0.957  -1.215  0.00  0.00     0.062 H 
ATOM     37  H   LIG d   1       2.282  -0.907  -2.578  0.00  0.00     0.064 H 
ATOM     38  H   LIG d   1       2.998  -2.529  -4.716  0.00  0.00     0.155 HD
ENDROOT
BRANCH   1  39
ATOM     39  C   LIG d   1       5.637   0.690  -8.520  0.00  0.00     0.076 C 
ATOM     40  H   LIG d   1       6.714   0.842  -8.589  0.00  0.00     0.052 H 
ATOM     41  H   LIG d   1       5.144   1.649  -8.364  0.00  0.00     0.052 H 
BRANCH  39  42
ATOM     42  N   LIG d   1       5.146   0.084  -9.764  0.00  0.00    -0.284 N 
ATOM     43  C   LIG d   1       6.262  -0.311 -10.634  0.00  0.00     0.040 C 
ATOM     44  C   LIG d   1       5.711  -0.992 -11.889  0.00  0.00    -0.019 C 
ATOM     45  H   LIG d   1       6.912  -1.004 -10.100  0.00  0.00     0.048 H 
ATOM     46  H   LIG d   1       6.831   0.574 -10.920  0.00  0.00     0.048 H 
ATOM     47  N   LIG d   1       4.820  -0.064 -12.598  0.00  0.00     0.235 N 
ATOM     48  H   LIG d   1       5.155  -1.884 -11.604  0.00  0.00     0.083 H 
ATOM     49  H   LIG d   1       6.537  -1.272 -12.543  0.00  0.00     0.083 H 
ATOM     50  C   LIG d   1       3.696   0.302 -11.725  0.00  0.00    -0.019 C 
ATOM     51  H   LIG d   1       5.332   0.767 -12.852  0.00  0.00     0.203 HD
ATOM     52  C   LIG d   1       4.230   0.992 -10.468  0.00  0.00     0.040 C 
ATOM     53  H   LIG d   1       3.029   0.980 -12.256  0.00  0.00     0.083 H 
ATOM     54  H   LIG d   1       3.150  -0.598 -11.440  0.00  0.00     0.083 H 
ATOM     55  H   LIG d   1       3.399   1.250  -9.813  0.00  0.00     0.048 H 
ATOM     56  H   LIG d   1       4.765   1.899 -10.751  0.00  0.00     0.048 H 
BRANCH  47  57
ATOM     57  C   LIG d   1       4.305  -0.711 -13.812  0.00  0.00    -0.043 C 
ATOM     58  H   LIG d   1       3.666  -0.013 -14.353  0.00  0.00     0.078 H 
ATOM     59  H   LIG d   1       5.140  -1.006 -14.448  0.00  0.00     0.078 H 
ATOM     60  H   LIG d   1       3.728  -1.594 -13.536  0.00  0.00     0.078 H 
ENDBRANCH  47  57
ENDBRANCH  39  42
ENDBRANCH   1  39
TORSDOF 3
ENDMDL
MODEL 4
REMARK VINA RESULT:      -8.1      3.760      6.929
REMARK  3 active torsions:
REMARK  status: ('A' for Active; 'I' for Inactive)
REMARK    1  A    between atoms: C_1  and  N_2 
REMARK    2  A    between atoms: N_5  and  C_8 
REMARK    3  A    between atoms: C_8  and  C_9 
REMARK       I    between atoms: C_9  and  N_11 
ROOT
ATOM      1  C   LIG d   1       7.364   0.322  -6.190  0.00  0.00     0.231 C 
ATOM      2  O   LIG d   1       6.507   0.900  -6.824  0.00  0.00    -0.274 OA
ATOM      3  N   LIG d   1       7.039  -0.746  -5.435  0.00  0.00    -0.277 N 
ATOM      4  C   LIG d   1       8.063  -1.457  -4.653  0.00  0.00     0.020 C 
ATOM      5  C   LIG d   1       8.177  -2.897  -5.169  0.00  0.00    -0.009 C 
ATOM      6  C   LIG d   1       6.795  -3.470  -5.347  0.00  0.00    -0.015 A 
ATOM      7  C   LIG d   1       6.403  -4.861  -5.449  0.00  0.00     0.003 A 
ATOM      8  C   LIG d   1       7.129  -6.055  -5.416  0.00  0.00    -0.052 A 
ATOM      9  C   LIG d   1       6.414  -7.221  -5.544  0.00  0.00    -0.061 A 
ATOM     10  C   LIG d   1       5.037  -7.226  -5.698  0.00  0.00    -0.060 A 
ATOM     11  C   LIG d   1       4.293  -6.059  -5.734  0.00  0.00    -0.038 A 
ATOM     12  C   LIG d   1       4.993  -4.861  -5.607  0.00  0.00     0.047 A 
ATOM     13  N   LIG d   1       4.584  -3.559  -5.603  0.00  0.00    -0.355 N 
ATOM     14  H   LIG d   1       3.665  -3.262  -5.697  0.00  0.00     0.166 HD
ATOM     15  C   LIG d   1       5.665  -2.734  -5.443  0.00  0.00     0.058 A 
ATOM     16  C   LIG d   1       5.655  -1.225  -5.366  0.00  0.00     0.181 A 
ATOM     17  C   LIG d   1       4.971  -0.743  -4.130  0.00  0.00     0.012 A 
ATOM     18  C   LIG d   1       5.245  -0.940  -2.794  0.00  0.00    -0.054 A 
ATOM     19  C   LIG d   1       4.391  -0.337  -1.878  0.00  0.00    -0.061 A 
ATOM     20  C   LIG d   1       3.315   0.423  -2.290  0.00  0.00    -0.060 A 
ATOM     21  C   LIG d   1       3.032   0.626  -3.631  0.00  0.00    -0.040 A 
ATOM     22  C   LIG d   1       3.883   0.028  -4.562  0.00  0.00     0.040 A 
ATOM     23  N   LIG d   1       3.838   0.063  -5.944  0.00  0.00    -0.283 N 
ATOM     24  C   LIG d   1       4.843  -0.646  -6.502  0.00  0.00     0.252 A 
ATOM     25  O   LIG d   1       5.053  -0.790  -7.688  0.00  0.00    -0.272 OA
ATOM     26  H   LIG d   1       9.023  -0.953  -4.765  0.00  0.00     0.047 H 
ATOM     27  H   LIG d   1       7.777  -1.469  -3.601  0.00  0.00     0.047 H 
ATOM     28  H   LIG d   1       8.698  -2.900  -6.127  0.00  0.00     0.033 H 
ATOM     29  H   LIG d   1       8.731  -3.499  -4.449  0.00  0.00     0.033 H 
ATOM     30  H   LIG d   1       8.202  -6.062  -5.296  0.00  0.00     0.062 H 
ATOM     31  H   LIG d   1       6.941  -8.162  -5.524  0.00  0.00     0.062 H 
ATOM     32  H   LIG d   1       4.527  -8.173  -5.794  0.00  0.00     0.062 H 
ATOM     33  H   LIG d   1       3.220  -6.077  -5.854  0.00  0.00     0.064 H 
ATOM     34  H   LIG d   1       6.088  -1.536  -2.473  0.00  0.00     0.062 H 
ATOM     35  H   LIG d   1       4.571  -0.468  -0.820  0.00  0.00     0.062 H 
ATOM     36  H   LIG d   1       2.676   0.873  -1.545  0.00  0.00     0.062 H 
ATOM     37  H   LIG d   1       2.188   1.224  -3.944  0.00  0.00     0.064 H 
ATOM     38  H   LIG d   1       3.164   0.542  -6.453  0.00  0.00     0.155 HD
ENDROOT
BRANCH   1  39
ATOM     39  C   LIG d   1       8.793   0.798  -6.246  0.00  0.00     0.076 C 
ATOM     40  H   LIG d   1       9.083   0.957  -7.285  0.00  0.00     0.052 H 
ATOM     41  H   LIG d   1       9.444   0.047  -5.799  0.00  0.00     0.052 H 
BRANCH  39  42
ATOM     42  N   LIG d   1       8.918   2.058  -5.504  0.00  0.00    -0.284 N 
ATOM     43  C   LIG d   1       9.638   3.067  -6.295  0.00  0.00     0.040 C 
ATOM     44  C   LIG d   1       9.693   4.381  -5.512  0.00  0.00    -0.019 C 
ATOM     45  H   LIG d   1       9.117   3.227  -7.238  0.00  0.00     0.048 H 
ATOM     46  H   LIG d   1      10.651   2.718  -6.493  0.00  0.00     0.048 H 
ATOM     47  N   LIG d   1      10.377   4.159  -4.231  0.00  0.00     0.235 N 
ATOM     48  H   LIG d   1       8.680   4.736  -5.326  0.00  0.00     0.083 H 
ATOM     49  H   LIG d   1      10.239   5.126  -6.091  0.00  0.00     0.083 H 
ATOM     50  C   LIG d   1       9.634   3.168  -3.441  0.00  0.00    -0.019 C 
ATOM     51  H   LIG d   1      11.311   3.819  -4.403  0.00  0.00     0.203 HD
ATOM     52  C   LIG d   1       9.577   1.844  -4.207  0.00  0.00     0.040 C 
ATOM     53  H   LIG d   1      10.135   3.014  -2.487  0.00  0.00     0.083 H 
ATOM     54  H   LIG d   1       8.620   3.529  -3.266  0.00  0.00     0.083 H 
ATOM     55  H   LIG d   1       9.012   1.113  -3.629  0.00  0.00     0.048 H 
ATOM     56  H   LIG d   1      10.590   1.475  -4.371  0.00  0.00     0.048 H 
BRANCH  47  57
ATOM     57  C   LIG d   1      10.447   5.424  -3.488  0.00  0.00    -0.043 C 
ATOM     58  H   LIG d   1      10.463   6.258  -4.191  0.00  0.00     0.078 H 
ATOM     59  H   LIG d   1       9.575   5.513  -2.840  0.00  0.00     0.078 H 
ATOM     60  H   LIG d   1      11.353   5.441  -2.883  0.00  0.00     0.078 H 
ENDBRANCH  47  57
ENDBRANCH  39  42
ENDBRANCH   1  39
TORSDOF 3
ENDMDL
MODEL 5
REMARK VINA RESULT:      -7.5      2.588      5.546
REMARK  3 active torsions:
REMARK  status: ('A' for Active; 'I' for Inactive)
REMARK    1  A    between atoms: C_1  and  N_2 
REMARK    2  A    between atoms: N_5  and  C_8 
REMARK    3  A    between atoms: C_8  and  C_9 
REMARK       I    between atoms: C_9  and  N_11 
ROOT
ATOM      1  C   LIG d   1       7.389  -2.686  -4.966  0.00  0.00     0.231 C 
ATOM      2  O   LIG d   1       8.200  -1.801  -4.800  0.00  0.00    -0.274 OA
ATOM      3  N   LIG d   1       6.108  -2.383  -5.255  0.00  0.00    -0.277 N 
ATOM      4  C   LIG d   1       5.107  -3.443  -5.453  0.00  0.00     0.020 C 
ATOM      5  C   LIG d   1       4.582  -3.373  -6.892  0.00  0.00    -0.009 C 
ATOM      6  C   LIG d   1       4.277  -1.939  -7.239  0.00  0.00    -0.015 A 
ATOM      7  C   LIG d   1       3.440  -1.429  -8.305  0.00  0.00     0.003 A 
ATOM      8  C   LIG d   1       2.685  -2.057  -9.301  0.00  0.00    -0.052 A 
ATOM      9  C   LIG d   1       1.995  -1.242 -10.165  0.00  0.00    -0.061 A 
ATOM     10  C   LIG d   1       2.038   0.139 -10.065  0.00  0.00    -0.060 A 
ATOM     11  C   LIG d   1       2.777   0.787  -9.090  0.00  0.00    -0.038 A 
ATOM     12  C   LIG d   1       3.487  -0.015  -8.199  0.00  0.00     0.047 A 
ATOM     13  N   LIG d   1       4.300   0.286  -7.145  0.00  0.00    -0.355 N 
ATOM     14  H   LIG d   1       4.514   1.184  -6.844  0.00  0.00     0.166 HD
ATOM     15  C   LIG d   1       4.765  -0.868  -6.574  0.00  0.00     0.058 A 
ATOM     16  C   LIG d   1       5.675  -0.987  -5.374  0.00  0.00     0.181 A 
ATOM     17  C   LIG d   1       5.005  -0.514  -4.127  0.00  0.00     0.012 A 
ATOM     18  C   LIG d   1       3.872  -0.949  -3.473  0.00  0.00    -0.054 A 
ATOM     19  C   LIG d   1       3.515  -0.274  -2.312  0.00  0.00    -0.061 A 
ATOM     20  C   LIG d   1       4.262   0.784  -1.836  0.00  0.00    -0.060 A 
ATOM     21  C   LIG d   1       5.403   1.227  -2.486  0.00  0.00    -0.040 A 
ATOM     22  C   LIG d   1       5.774   0.558  -3.653  0.00  0.00     0.040 A 
ATOM     23  N   LIG d   1       6.851   0.784  -4.492  0.00  0.00    -0.283 N 
ATOM     24  C   LIG d   1       6.873  -0.078  -5.531  0.00  0.00     0.252 A 
ATOM     25  O   LIG d   1       7.697  -0.116  -6.420  0.00  0.00    -0.272 OA
ATOM     26  H   LIG d   1       5.567  -4.416  -5.279  0.00  0.00     0.047 H 
ATOM     27  H   LIG d   1       4.281  -3.300  -4.755  0.00  0.00     0.047 H 
ATOM     28  H   LIG d   1       5.339  -3.760  -7.575  0.00  0.00     0.033 H 
ATOM     29  H   LIG d   1       3.674  -3.970  -6.977  0.00  0.00     0.033 H 
ATOM     30  H   LIG d   1       2.645  -3.133  -9.386  0.00  0.00     0.062 H 
ATOM     31  H   LIG d   1       1.403  -1.691 -10.947  0.00  0.00     0.062 H 
ATOM     32  H   LIG d   1       1.476   0.731 -10.773  0.00  0.00     0.062 H 
ATOM     33  H   LIG d   1       2.801   1.865  -9.023  0.00  0.00     0.064 H 
ATOM     34  H   LIG d   1       3.287  -1.777  -3.848  0.00  0.00     0.062 H 
ATOM     35  H   LIG d   1       2.632  -0.584  -1.770  0.00  0.00     0.062 H 
ATOM     36  H   LIG d   1       3.949   1.280  -0.929  0.00  0.00     0.062 H 
ATOM     37  H   LIG d   1       5.982   2.055  -2.105  0.00  0.00     0.064 H 
ATOM     38  H   LIG d   1       7.511   1.480  -4.350  0.00  0.00     0.155 HD
ENDROOT
BRANCH   1  39
ATOM     39  C   LIG d   1       7.813  -4.128  -4.847  0.00  0.00     0.076 C 
ATOM     40  H   LIG d   1       6.948  -4.742  -4.596  0.00  0.00     0.052 H 
ATOM     41  H   LIG d   1       8.565  -4.223  -4.064  0.00  0.00     0.052 H 
BRANCH  39  42
ATOM     42  N   LIG d   1       8.379  -4.579  -6.125  0.00  0.00    -0.284 N 
ATOM     43  C   LIG d   1       7.761  -5.840  -6.560  0.00  0.00     0.040 C 
ATOM     44  C   LIG d   1       8.333  -6.242  -7.921  0.00  0.00    -0.019 C 
ATOM     45  H   LIG d   1       6.682  -5.706  -6.643  0.00  0.00     0.048 H 
ATOM     46  H   LIG d   1       7.975  -6.620  -5.830  0.00  0.00     0.048 H 
ATOM     47  N   LIG d   1       9.789  -6.402  -7.812  0.00  0.00     0.235 N 
ATOM     48  H   LIG d   1       8.106  -5.468  -8.653  0.00  0.00     0.083 H 
ATOM     49  H   LIG d   1       7.886  -7.184  -8.238  0.00  0.00     0.083 H 
ATOM     50  C   LIG d   1      10.394  -5.129  -7.402  0.00  0.00    -0.019 C 
ATOM     51  H   LIG d   1       9.999  -7.111  -7.125  0.00  0.00     0.203 HD
ATOM     52  C   LIG d   1       9.839  -4.716  -6.037  0.00  0.00     0.040 C 
ATOM     53  H   LIG d   1      11.475  -5.245  -7.334  0.00  0.00     0.083 H 
ATOM     54  H   LIG d   1      10.157  -4.360  -8.137  0.00  0.00     0.083 H 
ATOM     55  H   LIG d   1      10.277  -3.764  -5.738  0.00  0.00     0.048 H 
ATOM     56  H   LIG d   1      10.088  -5.478  -5.297  0.00  0.00     0.048 H 
BRANCH  47  57
ATOM     57  C   LIG d   1      10.335  -6.807  -9.115  0.00  0.00    -0.043 C 
ATOM     58  H   LIG d   1       9.516  -7.046  -9.794  0.00  0.00     0.078 H 
ATOM     59  H   LIG d   1      10.924  -5.990  -9.531  0.00  0.00     0.078 H 
ATOM     60  H   LIG d   1      10.969  -7.684  -8.986  0.00  0.00     0.078 H 
ENDBRANCH  47  57
ENDBRANCH  39  42
ENDBRANCH   1  39
TORSDOF 3
ENDMDL
MODEL 6
REMARK VINA RESULT:      -7.3      3.833      7.218
REMARK  3 active torsions:
REMARK  status: ('A' for Active; 'I' for Inactive)
REMARK    1  A    between atoms: C_1  and  N_2 
REMARK    2  A    between atoms: N_5  and  C_8 
REMARK    3  A    between atoms: C_8  and  C_9 
REMARK       I    between atoms: C_9  and  N_11 
ROOT
ATOM      1  C   LIG d   1       7.114   0.135  -6.346  0.00  0.00     0.231 C 
ATOM      2  O   LIG d   1       6.201   0.611  -6.985  0.00  0.00    -0.274 OA
ATOM      3  N   LIG d   1       6.897  -0.928  -5.546  0.00  0.00    -0.277 N 
ATOM      4  C   LIG d   1       7.991  -1.515  -4.757  0.00  0.00     0.020 C 
ATOM      5  C   LIG d   1       8.224  -2.958  -5.222  0.00  0.00    -0.009 C 
ATOM      6  C   LIG d   1       6.896  -3.657  -5.354  0.00  0.00    -0.015 A 
ATOM      7  C   LIG d   1       6.628  -5.080  -5.398  0.00  0.00     0.003 A 
ATOM      8  C   LIG d   1       7.457  -6.203  -5.335  0.00  0.00    -0.052 A 
ATOM      9  C   LIG d   1       6.846  -7.432  -5.407  0.00  0.00    -0.061 A 
ATOM     10  C   LIG d   1       5.474  -7.564  -5.537  0.00  0.00    -0.060 A 
ATOM     11  C   LIG d   1       4.629  -6.470  -5.603  0.00  0.00    -0.038 A 
ATOM     12  C   LIG d   1       5.221  -5.210  -5.532  0.00  0.00     0.047 A 
ATOM     13  N   LIG d   1       4.698  -3.950  -5.568  0.00  0.00    -0.355 N 
ATOM     14  H   LIG d   1       3.755  -3.739  -5.657  0.00  0.00     0.166 HD
ATOM     15  C   LIG d   1       5.704  -3.027  -5.458  0.00  0.00     0.058 A 
ATOM     16  C   LIG d   1       5.561  -1.523  -5.436  0.00  0.00     0.181 A 
ATOM     17  C   LIG d   1       4.855  -1.057  -4.206  0.00  0.00     0.012 A 
ATOM     18  C   LIG d   1       5.164  -1.178  -2.869  0.00  0.00    -0.054 A 
ATOM     19  C   LIG d   1       4.272  -0.619  -1.961  0.00  0.00    -0.061 A 
ATOM     20  C   LIG d   1       3.128   0.027  -2.382  0.00  0.00    -0.060 A 
ATOM     21  C   LIG d   1       2.809   0.154  -3.724  0.00  0.00    -0.040 A 
ATOM     22  C   LIG d   1       3.696  -0.402  -4.647  0.00  0.00     0.040 A 
ATOM     23  N   LIG d   1       3.629  -0.423  -6.029  0.00  0.00    -0.283 N 
ATOM     24  C   LIG d   1       4.685  -1.061  -6.577  0.00  0.00     0.252 A 
ATOM     25  O   LIG d   1       4.891  -1.232  -7.761  0.00  0.00    -0.272 OA
ATOM     26  H   LIG d   1       8.900  -0.933  -4.904  0.00  0.00     0.047 H 
ATOM     27  H   LIG d   1       7.721  -1.512  -3.700  0.00  0.00     0.047 H 
ATOM     28  H   LIG d   1       8.730  -2.952  -6.187  0.00  0.00     0.033 H 
ATOM     29  H   LIG d   1       8.839  -3.481  -4.490  0.00  0.00     0.033 H 
ATOM     30  H   LIG d   1       8.528  -6.110  -5.233  0.00  0.00     0.062 H 
ATOM     31  H   LIG d   1       7.456  -8.321  -5.362  0.00  0.00     0.062 H 
ATOM     32  H   LIG d   1       5.048  -8.555  -5.589  0.00  0.00     0.062 H 
ATOM     33  H   LIG d   1       3.560  -6.586  -5.703  0.00  0.00     0.064 H 
ATOM     34  H   LIG d   1       6.061  -1.685  -2.541  0.00  0.00     0.062 H 
ATOM     35  H   LIG d   1       4.479  -0.692  -0.902  0.00  0.00     0.062 H 
ATOM     36  H   LIG d   1       2.462   0.448  -1.643  0.00  0.00     0.062 H 
ATOM     37  H   LIG d   1       1.911   0.662  -4.044  0.00  0.00     0.064 H 
ATOM     38  H   LIG d   1       2.909  -0.026  -6.543  0.00  0.00     0.155 HD
ENDROOT
BRANCH   1  39
ATOM     39  C   LIG d   1       8.495   0.733  -6.444  0.00  0.00     0.076 C 
ATOM     40  H   LIG d   1       9.233  -0.066  -6.512  0.00  0.00     0.052 H 
ATOM     41  H   LIG d   1       8.693   1.337  -5.559  0.00  0.00     0.052 H 
BRANCH  39  42
ATOM     42  N   LIG d   1       8.577   1.580  -7.641  0.00  0.00    -0.284 N 
ATOM     43  C   LIG d   1       9.291   0.890  -8.726  0.00  0.00     0.040 C 
ATOM     44  C   LIG d   1       9.302   1.779  -9.971  0.00  0.00    -0.019 C 
ATOM     45  H   LIG d   1       8.786  -0.049  -8.953  0.00  0.00     0.048 H 
ATOM     46  H   LIG d   1      10.315   0.687  -8.415  0.00  0.00     0.048 H 
ATOM     47  N   LIG d   1       9.964   3.052  -9.658  0.00  0.00     0.235 N 
ATOM     48  H   LIG d   1       8.278   1.971 -10.290  0.00  0.00     0.083 H 
ATOM     49  H   LIG d   1       9.843   1.276 -10.772  0.00  0.00     0.083 H 
ATOM     50  C   LIG d   1       9.226   3.741  -8.591  0.00  0.00    -0.019 C 
ATOM     51  H   LIG d   1      10.909   2.874  -9.352  0.00  0.00     0.203 HD
ATOM     52  C   LIG d   1       9.213   2.868  -7.334  0.00  0.00     0.040 C 
ATOM     53  H   LIG d   1       9.711   4.691  -8.369  0.00  0.00     0.083 H 
ATOM     54  H   LIG d   1       8.202   3.923  -8.917  0.00  0.00     0.083 H 
ATOM     55  H   LIG d   1       8.653   3.372  -6.546  0.00  0.00     0.048 H 
ATOM     56  H   LIG d   1      10.237   2.697  -7.000  0.00  0.00     0.048 H 
BRANCH  47  57
ATOM     57  C   LIG d   1       9.991   3.898 -10.859  0.00  0.00    -0.043 C 
ATOM     58  H   LIG d   1       9.745   4.925 -10.586  0.00  0.00     0.078 H 
ATOM     59  H   LIG d   1      10.987   3.869 -11.302  0.00  0.00     0.078 H 
ATOM     60  H   LIG d   1       9.262   3.529 -11.580  0.00  0.00     0.078 H 
ENDBRANCH  47  57
ENDBRANCH  39  42
ENDBRANCH   1  39
TORSDOF 3
ENDMDL
MODEL 7
REMARK VINA RESULT:      -7.3      1.624      2.057
REMARK  3 active torsions:
REMARK  status: ('A' for Active; 'I' for Inactive)
REMARK    1  A    between atoms: C_1  and  N_2 
REMARK    2  A    between atoms: N_5  and  C_8 
REMARK    3  A    between atoms: C_8  and  C_9 
REMARK       I    between atoms: C_9  and  N_11 
ROOT
ATOM      1  C   LIG d   1       6.482  -5.849  -6.132  0.00  0.00     0.231 C 
ATOM      2  O   LIG d   1       5.546  -6.502  -6.540  0.00  0.00    -0.274 OA
ATOM      3  N   LIG d   1       6.367  -4.512  -6.005  0.00  0.00    -0.277 N 
ATOM      4  C   LIG d   1       7.494  -3.700  -5.519  0.00  0.00     0.020 C 
ATOM      5  C   LIG d   1       7.095  -3.030  -4.199  0.00  0.00    -0.009 C 
ATOM      6  C   LIG d   1       5.715  -2.442  -4.338  0.00  0.00    -0.015 A 
ATOM      7  C   LIG d   1       5.082  -1.426  -3.522  0.00  0.00     0.003 A 
ATOM      8  C   LIG d   1       5.515  -0.699  -2.409  0.00  0.00    -0.052 A 
ATOM      9  C   LIG d   1       4.630   0.207  -1.877  0.00  0.00    -0.061 A 
ATOM     10  C   LIG d   1       3.366   0.400  -2.409  0.00  0.00    -0.060 A 
ATOM     11  C   LIG d   1       2.911  -0.306  -3.509  0.00  0.00    -0.038 A 
ATOM     12  C   LIG d   1       3.788  -1.232  -4.071  0.00  0.00     0.047 A 
ATOM     13  N   LIG d   1       3.666  -2.079  -5.134  0.00  0.00    -0.355 N 
ATOM     14  H   LIG d   1       2.880  -2.160  -5.696  0.00  0.00     0.166 HD
ATOM     15  C   LIG d   1       4.823  -2.796  -5.290  0.00  0.00     0.058 A 
ATOM     16  C   LIG d   1       5.117  -3.829  -6.353  0.00  0.00     0.181 A 
ATOM     17  C   LIG d   1       5.191  -3.213  -7.710  0.00  0.00     0.012 A 
ATOM     18  C   LIG d   1       6.020  -2.246  -8.235  0.00  0.00    -0.054 A 
ATOM     19  C   LIG d   1       5.817  -1.892  -9.564  0.00  0.00    -0.061 A 
ATOM     20  C   LIG d   1       4.828  -2.484 -10.323  0.00  0.00    -0.060 A 
ATOM     21  C   LIG d   1       3.989  -3.457  -9.803  0.00  0.00    -0.040 A 
ATOM     22  C   LIG d   1       4.183  -3.823  -8.471  0.00  0.00     0.040 A 
ATOM     23  N   LIG d   1       3.501  -4.753  -7.706  0.00  0.00    -0.283 N 
ATOM     24  C   LIG d   1       3.984  -4.825  -6.447  0.00  0.00     0.252 A 
ATOM     25  O   LIG d   1       3.584  -5.550  -5.561  0.00  0.00    -0.272 OA
ATOM     26  H   LIG d   1       8.361  -4.340  -5.356  0.00  0.00     0.047 H 
ATOM     27  H   LIG d   1       7.738  -2.935  -6.257  0.00  0.00     0.047 H 
ATOM     28  H   LIG d   1       7.097  -3.771  -3.399  0.00  0.00     0.033 H 
ATOM     29  H   LIG d   1       7.806  -2.238  -3.963  0.00  0.00     0.033 H 
ATOM     30  H   LIG d   1       6.499  -0.842  -1.987  0.00  0.00     0.062 H 
ATOM     31  H   LIG d   1       4.929   0.785  -1.016  0.00  0.00     0.062 H 
ATOM     32  H   LIG d   1       2.711   1.126  -1.949  0.00  0.00     0.062 H 
ATOM     33  H   LIG d   1       1.924  -0.145  -3.915  0.00  0.00     0.064 H 
ATOM     34  H   LIG d   1       6.794  -1.783  -7.640  0.00  0.00     0.062 H 
ATOM     35  H   LIG d   1       6.447  -1.137 -10.013  0.00  0.00     0.062 H 
ATOM     36  H   LIG d   1       4.704  -2.180 -11.352  0.00  0.00     0.062 H 
ATOM     37  H   LIG d   1       3.218  -3.915 -10.405  0.00  0.00     0.064 H 
ATOM     38  H   LIG d   1       2.765  -5.291  -8.036  0.00  0.00     0.155 HD
ENDROOT
BRANCH   1  39
ATOM     39  C   LIG d   1       7.777  -6.531  -5.770  0.00  0.00     0.076 C 
ATOM     40  H   LIG d   1       8.262  -5.984  -4.962  0.00  0.00     0.052 H 
ATOM     41  H   LIG d   1       8.433  -6.551  -6.640  0.00  0.00     0.052 H 
BRANCH  39  42
ATOM     42  N   LIG d   1       7.499  -7.906  -5.334  0.00  0.00    -0.284 N 
ATOM     43  C   LIG d   1       7.981  -8.132  -3.964  0.00  0.00     0.040 C 
ATOM     44  C   LIG d   1       7.619  -9.553  -3.527  0.00  0.00    -0.019 C 
ATOM     45  H   LIG d   1       7.511  -7.414  -3.291  0.00  0.00     0.048 H 
ATOM     46  H   LIG d   1       9.063  -8.005  -3.933  0.00  0.00     0.048 H 
ATOM     47  N   LIG d   1       8.236 -10.519  -4.446  0.00  0.00     0.235 N 
ATOM     48  H   LIG d   1       6.537  -9.674  -3.545  0.00  0.00     0.083 H 
ATOM     49  H   LIG d   1       7.988  -9.727  -2.516  0.00  0.00     0.083 H 
ATOM     50  C   LIG d   1       7.727 -10.298  -5.806  0.00  0.00    -0.019 C 
ATOM     51  H   LIG d   1       9.238 -10.398  -4.438  0.00  0.00     0.203 HD
ATOM     52  C   LIG d   1       8.088  -8.882  -6.262  0.00  0.00     0.040 C 
ATOM     53  H   LIG d   1       8.175 -11.023  -6.484  0.00  0.00     0.083 H 
ATOM     54  H   LIG d   1       6.643 -10.415  -5.812  0.00  0.00     0.083 H 
ATOM     55  H   LIG d   1       7.698  -8.712  -7.265  0.00  0.00     0.048 H 
ATOM     56  H   LIG d   1       9.172  -8.768  -6.269  0.00  0.00     0.048 H 
BRANCH  47  57
ATOM     57  C   LIG d   1       7.904 -11.884  -4.015  0.00  0.00    -0.043 C 
ATOM     58  H   LIG d   1       7.604 -12.475  -4.881  0.00  0.00     0.078 H 
ATOM     59  H   LIG d   1       8.778 -12.340  -3.550  0.00  0.00     0.078 H 
ATOM     60  H   LIG d   1       7.085 -11.849  -3.297  0.00  0.00     0.078 H 
ENDBRANCH  47  57
ENDBRANCH  39  42
ENDBRANCH   1  39
TORSDOF 3
ENDMDL
MODEL 8
REMARK VINA RESULT:      -7.2      4.376      7.376
REMARK  3 active torsions:
REMARK  status: ('A' for Active; 'I' for Inactive)
REMARK    1  A    between atoms: C_1  and  N_2 
REMARK    2  A    between atoms: N_5  and  C_8 
REMARK    3  A    between atoms: C_8  and  C_9 
REMARK       I    between atoms: C_9  and  N_11 
ROOT
ATOM      1  C   LIG d   1       4.165  -1.438  -9.773  0.00  0.00     0.231 C 
ATOM      2  O   LIG d   1       3.773  -0.372 -10.197  0.00  0.00    -0.274 OA
ATOM      3  N   LIG d   1       4.839  -1.493  -8.607  0.00  0.00    -0.277 N 
ATOM      4  C   LIG d   1       5.330  -2.776  -8.079  0.00  0.00     0.020 C 
ATOM      5  C   LIG d   1       4.638  -3.063  -6.740  0.00  0.00    -0.009 C 
ATOM      6  C   LIG d   1       4.654  -1.816  -5.896  0.00  0.00    -0.015 A 
ATOM      7  C   LIG d   1       4.466  -1.695  -4.465  0.00  0.00     0.003 A 
ATOM      8  C   LIG d   1       4.224  -2.634  -3.458  0.00  0.00    -0.052 A 
ATOM      9  C   LIG d   1       4.097  -2.152  -2.177  0.00  0.00    -0.061 A 
ATOM     10  C   LIG d   1       4.201  -0.802  -1.885  0.00  0.00    -0.060 A 
ATOM     11  C   LIG d   1       4.439   0.149  -2.862  0.00  0.00    -0.038 A 
ATOM     12  C   LIG d   1       4.573  -0.310  -4.170  0.00  0.00     0.047 A 
ATOM     13  N   LIG d   1       4.804   0.339  -5.349  0.00  0.00    -0.355 N 
ATOM     14  H   LIG d   1       4.917   1.297  -5.445  0.00  0.00     0.166 HD
ATOM     15  C   LIG d   1       4.855  -0.567  -6.375  0.00  0.00     0.058 A 
ATOM     16  C   LIG d   1       5.107  -0.275  -7.835  0.00  0.00     0.181 A 
ATOM     17  C   LIG d   1       6.496   0.222  -8.064  0.00  0.00     0.012 A 
ATOM     18  C   LIG d   1       7.726  -0.355  -7.832  0.00  0.00    -0.054 A 
ATOM     19  C   LIG d   1       8.848   0.395  -8.165  0.00  0.00    -0.061 A 
ATOM     20  C   LIG d   1       8.734   1.661  -8.702  0.00  0.00    -0.060 A 
ATOM     21  C   LIG d   1       7.501   2.248  -8.938  0.00  0.00    -0.040 A 
ATOM     22  C   LIG d   1       6.366   1.506  -8.610  0.00  0.00     0.040 A 
ATOM     23  N   LIG d   1       5.029   1.840  -8.738  0.00  0.00    -0.283 N 
ATOM     24  C   LIG d   1       4.217   0.852  -8.308  0.00  0.00     0.252 A 
ATOM     25  O   LIG d   1       3.004   0.865  -8.301  0.00  0.00    -0.272 OA
ATOM     26  H   LIG d   1       5.101  -3.573  -8.786  0.00  0.00     0.047 H 
ATOM     27  H   LIG d   1       6.408  -2.720  -7.927  0.00  0.00     0.047 H 
ATOM     28  H   LIG d   1       3.606  -3.367  -6.922  0.00  0.00     0.033 H 
ATOM     29  H   LIG d   1       5.168  -3.862  -6.221  0.00  0.00     0.033 H 
ATOM     30  H   LIG d   1       4.142  -3.688  -3.675  0.00  0.00     0.062 H 
ATOM     31  H   LIG d   1       3.909  -2.848  -1.374  0.00  0.00     0.062 H 
ATOM     32  H   LIG d   1       4.092  -0.480  -0.860  0.00  0.00     0.062 H 
ATOM     33  H   LIG d   1       4.519   1.199  -2.621  0.00  0.00     0.064 H 
ATOM     34  H   LIG d   1       7.814  -1.346  -7.411  0.00  0.00     0.062 H 
ATOM     35  H   LIG d   1       9.832  -0.021  -7.998  0.00  0.00     0.062 H 
ATOM     36  H   LIG d   1       9.631   2.210  -8.946  0.00  0.00     0.062 H 
ATOM     37  H   LIG d   1       7.422   3.240  -9.360  0.00  0.00     0.064 H 
ATOM     38  H   LIG d   1       4.714   2.685  -9.095  0.00  0.00     0.155 HD
ENDROOT
BRANCH   1  39
ATOM     39  C   LIG d   1       3.901  -2.702 -10.551  0.00  0.00     0.076 C 
ATOM     40  H   LIG d   1       4.179  -3.565  -9.946  0.00  0.00     0.052 H 
ATOM     41  H   LIG d   1       4.491  -2.695 -11.467  0.00  0.00     0.052 H 
BRANCH  39  42
ATOM     42  N   LIG d   1       2.474  -2.779 -10.889  0.00  0.00    -0.284 N 
ATOM     43  C   LIG d   1       1.865  -3.993 -10.329  0.00  0.00     0.040 C 
ATOM     44  C   LIG d   1       0.369  -4.005 -10.652  0.00  0.00    -0.019 C 
ATOM     45  H   LIG d   1       2.004  -4.004  -9.248  0.00  0.00     0.048 H 
ATOM     46  H   LIG d   1       2.338  -4.872 -10.766  0.00  0.00     0.048 H 
ATOM     47  N   LIG d   1       0.182  -3.969 -12.108  0.00  0.00     0.235 N 
ATOM     48  H   LIG d   1      -0.106  -3.133 -10.203  0.00  0.00     0.083 H 
ATOM     49  H   LIG d   1      -0.082  -4.912 -10.249  0.00  0.00     0.083 H 
ATOM     50  C   LIG d   1       0.773  -2.739 -12.650  0.00  0.00    -0.019 C 
ATOM     51  H   LIG d   1       0.632  -4.771 -12.524  0.00  0.00     0.203 HD
ATOM     52  C   LIG d   1       2.273  -2.716 -12.343  0.00  0.00     0.040 C 
ATOM     53  H   LIG d   1       0.623  -2.708 -13.728  0.00  0.00     0.083 H 
ATOM     54  H   LIG d   1       0.296  -1.873 -12.191  0.00  0.00     0.083 H 
ATOM     55  H   LIG d   1       2.710  -1.796 -12.732  0.00  0.00     0.048 H 
ATOM     56  H   LIG d   1       2.753  -3.574 -12.814  0.00  0.00     0.048 H 
BRANCH  47  57
ATOM     57  C   LIG d   1      -1.254  -3.999 -12.418  0.00  0.00    -0.043 C 
ATOM     58  H   LIG d   1      -1.432  -3.492 -13.366  0.00  0.00     0.078 H 
ATOM     59  H   LIG d   1      -1.588  -5.034 -12.491  0.00  0.00     0.078 H 
ATOM     60  H   LIG d   1      -1.807  -3.494 -11.626  0.00  0.00     0.078 H 
ENDBRANCH  47  57
ENDBRANCH  39  42
ENDBRANCH   1  39
TORSDOF 3
ENDMDL
MODEL 9
REMARK VINA RESULT:      -7.1      3.387      6.017
REMARK  3 active torsions:
REMARK  status: ('A' for Active; 'I' for Inactive)
REMARK    1  A    between atoms: C_1  and  N_2 
REMARK    2  A    between atoms: N_5  and  C_8 
REMARK    3  A    between atoms: C_8  and  C_9 
REMARK       I    between atoms: C_9  and  N_11 
ROOT
ATOM      1  C   LIG d   1       8.340  -1.627  -5.367  0.00  0.00     0.231 C 
ATOM      2  O   LIG d   1       8.702  -0.504  -5.086  0.00  0.00    -0.274 OA
ATOM      3  N   LIG d   1       7.030  -1.890  -5.540  0.00  0.00    -0.277 N 
ATOM      4  C   LIG d   1       6.570  -3.248  -5.874  0.00  0.00     0.020 C 
ATOM      5  C   LIG d   1       5.900  -3.223  -7.253  0.00  0.00    -0.009 C 
ATOM      6  C   LIG d   1       4.966  -2.044  -7.330  0.00  0.00    -0.015 A 
ATOM      7  C   LIG d   1       3.871  -1.821  -8.252  0.00  0.00     0.003 A 
ATOM      8  C   LIG d   1       3.351  -2.577  -9.306  0.00  0.00    -0.052 A 
ATOM      9  C   LIG d   1       2.279  -2.045  -9.982  0.00  0.00    -0.061 A 
ATOM     10  C   LIG d   1       1.732  -0.818  -9.645  0.00  0.00    -0.060 A 
ATOM     11  C   LIG d   1       2.228  -0.048  -8.607  0.00  0.00    -0.038 A 
ATOM     12  C   LIG d   1       3.314  -0.563  -7.903  0.00  0.00     0.047 A 
ATOM     13  N   LIG d   1       4.035  -0.078  -6.850  0.00  0.00    -0.355 N 
ATOM     14  H   LIG d   1       3.875   0.771  -6.408  0.00  0.00     0.166 HD
ATOM     15  C   LIG d   1       5.018  -0.969  -6.511  0.00  0.00     0.058 A 
ATOM     16  C   LIG d   1       6.025  -0.832  -5.394  0.00  0.00     0.181 A 
ATOM     17  C   LIG d   1       5.369  -0.883  -4.054  0.00  0.00     0.012 A 
ATOM     18  C   LIG d   1       4.622  -1.861  -3.435  0.00  0.00    -0.054 A 
ATOM     19  C   LIG d   1       4.148  -1.583  -2.158  0.00  0.00    -0.061 A 
ATOM     20  C   LIG d   1       4.415  -0.379  -1.540  0.00  0.00    -0.060 A 
ATOM     21  C   LIG d   1       5.166   0.611  -2.154  0.00  0.00    -0.040 A 
ATOM     22  C   LIG d   1       5.649   0.343  -3.436  0.00  0.00     0.040 A 
ATOM     23  N   LIG d   1       6.414   1.139  -4.270  0.00  0.00    -0.283 N 
ATOM     24  C   LIG d   1       6.684   0.528  -5.444  0.00  0.00     0.252 A 
ATOM     25  O   LIG d   1       7.333   0.983  -6.362  0.00  0.00    -0.272 OA
ATOM     26  H   LIG d   1       7.423  -3.926  -5.894  0.00  0.00     0.047 H 
ATOM     27  H   LIG d   1       5.852  -3.584  -5.125  0.00  0.00     0.047 H 
ATOM     28  H   LIG d   1       6.663  -3.135  -8.027  0.00  0.00     0.033 H 
ATOM     29  H   LIG d   1       5.336  -4.145  -7.400  0.00  0.00     0.033 H 
ATOM     30  H   LIG d   1       3.770  -3.535  -9.576  0.00  0.00     0.062 H 
ATOM     31  H   LIG d   1       1.852  -2.601 -10.803  0.00  0.00     0.062 H 
ATOM     32  H   LIG d   1       0.890  -0.449 -10.212  0.00  0.00     0.062 H 
ATOM     33  H   LIG d   1       1.792   0.906  -8.353  0.00  0.00     0.064 H 
ATOM     34  H   LIG d   1       4.413  -2.804  -3.922  0.00  0.00     0.062 H 
ATOM     35  H   LIG d   1       3.557  -2.324  -1.639  0.00  0.00     0.062 H 
ATOM     36  H   LIG d   1       4.028  -0.202  -0.547  0.00  0.00     0.062 H 
ATOM     37  H   LIG d   1       5.370   1.550  -1.661  0.00  0.00     0.064 H 
ATOM     38  H   LIG d   1       6.721   2.030  -4.040  0.00  0.00     0.155 HD
ENDROOT
BRANCH   1  39
ATOM     39  C   LIG d   1       9.357  -2.730  -5.521  0.00  0.00     0.076 C 
ATOM     40  H   LIG d   1       8.882  -3.600  -5.973  0.00  0.00     0.052 H 
ATOM     41  H   LIG d   1       9.753  -2.998  -4.542  0.00  0.00     0.052 H 
BRANCH  39  42
ATOM     42  N   LIG d   1      10.453  -2.267  -6.382  0.00  0.00    -0.284 N 
ATOM     43  C   LIG d   1      10.141  -2.491  -7.800  0.00  0.00     0.040 C 
ATOM     44  C   LIG d   1      11.279  -1.942  -8.663  0.00  0.00    -0.019 C 
ATOM     45  H   LIG d   1       9.212  -1.979  -8.053  0.00  0.00     0.048 H 
ATOM     46  H   LIG d   1      10.028  -3.560  -7.983  0.00  0.00     0.048 H 
ATOM     47  N   LIG d   1      12.533  -2.618  -8.308  0.00  0.00     0.235 N 
ATOM     48  H   LIG d   1      11.381  -0.872  -8.491  0.00  0.00     0.083 H 
ATOM     49  H   LIG d   1      11.055  -2.121  -9.715  0.00  0.00     0.083 H 
ATOM     50  C   LIG d   1      12.845  -2.365  -6.895  0.00  0.00    -0.019 C 
ATOM     51  H   LIG d   1      12.434  -3.612  -8.457  0.00  0.00     0.203 HD
ATOM     52  C   LIG d   1      11.720  -2.917  -6.017  0.00  0.00     0.040 C 
ATOM     53  H   LIG d   1      13.783  -2.856  -6.637  0.00  0.00     0.083 H 
ATOM     54  H   LIG d   1      12.940  -1.291  -6.731  0.00  0.00     0.083 H 
ATOM     55  H   LIG d   1      11.944  -2.716  -4.970  0.00  0.00     0.048 H 
ATOM     56  H   LIG d   1      11.634  -3.993  -6.170  0.00  0.00     0.048 H 
BRANCH  47  57
ATOM     57  C   LIG d   1      13.622  -2.104  -9.150  0.00  0.00    -0.043 C 
ATOM     58  H   LIG d   1      14.306  -1.516  -8.539  0.00  0.00     0.078 H 
ATOM     59  H   LIG d   1      14.161  -2.939  -9.597  0.00  0.00     0.078 H 
ATOM     60  H   LIG d   1      13.205  -1.476  -9.938  0.00  0.00     0.078 H 
ENDBRANCH  47  57
ENDBRANCH  39  42
ENDBRANCH   1  39
TORSDOF 3
ENDMDL
