MODEL 1
REMARK VINA RESULT:      -6.9      0.000      0.000
REMARK  3 active torsions:
REMARK  status: ('A' for Active; 'I' for Inactive)
REMARK    1  A    between atoms: C_1  and  N_2 
REMARK    2  A    between atoms: C_4  and  C_13 
REMARK       I    between atoms: C_13  and  N_15 
REMARK    3  A    between atoms: C_18  and  O_26 
ROOT
ATOM      1  C   LIG d   1       4.848  -2.531  -6.797  0.00  0.00     0.249 C 
ATOM      2  O   LIG d   1       4.071  -3.463  -6.724  0.00  0.00    -0.270 OA
ATOM      3  N   LIG d   1       5.455  -2.072  -5.684  0.00  0.00    -0.297 N 
ATOM      4  C   LIG d   1       6.304  -0.873  -5.735  0.00  0.00     0.018 C 
ATOM      5  C   LIG d   1       5.813   0.123  -4.680  0.00  0.00    -0.008 C 
ATOM      6  C   LIG d   1       5.779  -0.563  -3.311  0.00  0.00     0.072 C 
ATOM      7  C   LIG d   1       5.306   0.441  -2.256  0.00  0.00    -0.024 C 
ATOM      8  C   LIG d   1       3.912   0.948  -2.628  0.00  0.00    -0.050 C 
ATOM      9  C   LIG d   1       2.937  -0.229  -2.682  0.00  0.00    -0.053 C 
ATOM     10  C   LIG d   1       3.411  -1.238  -3.730  0.00  0.00    -0.046 C 
ATOM     11  C   LIG d   1       4.806  -1.743  -3.354  0.00  0.00     0.004 C 
ATOM     12  H   LIG d   1       4.768  -2.220  -2.375  0.00  0.00     0.034 H 
ATOM     13  C   LIG d   1       5.277  -2.755  -4.396  0.00  0.00     0.020 C 
ATOM     14  H   LIG d   1       7.337  -1.148  -5.524  0.00  0.00     0.046 H 
ATOM     15  H   LIG d   1       6.237  -0.420  -6.723  0.00  0.00     0.046 H 
ATOM     16  H   LIG d   1       6.489   0.977  -4.642  0.00  0.00     0.031 H 
ATOM     17  H   LIG d   1       4.811   0.464  -4.940  0.00  0.00     0.031 H 
ATOM     18  H   LIG d   1       5.269  -0.046  -1.282  0.00  0.00     0.029 H 
ATOM     19  H   LIG d   1       6.001   1.281  -2.216  0.00  0.00     0.029 H 
ATOM     20  H   LIG d   1       3.575   1.665  -1.879  0.00  0.00     0.027 H 
ATOM     21  H   LIG d   1       3.950   1.433  -3.603  0.00  0.00     0.027 H 
ATOM     22  H   LIG d   1       2.896  -0.712  -1.706  0.00  0.00     0.026 H 
ATOM     23  H   LIG d   1       1.945   0.133  -2.951  0.00  0.00     0.026 H 
ATOM     24  H   LIG d   1       2.718  -2.078  -3.767  0.00  0.00     0.027 H 
ATOM     25  H   LIG d   1       3.451  -0.757  -4.707  0.00  0.00     0.027 H 
ATOM     26  H   LIG d   1       4.532  -3.543  -4.501  0.00  0.00     0.047 H 
ATOM     27  H   LIG d   1       6.226  -3.188  -4.078  0.00  0.00     0.047 H 
ENDROOT
BRANCH   1  28
ATOM     28  C   LIG d   1       5.126  -1.905  -8.098  0.00  0.00     0.061 A 
ATOM     29  C   LIG d   1       6.050  -2.445  -8.941  0.00  0.00     0.020 A 
ATOM     30  N   LIG d   1       6.334  -1.899 -10.148  0.00  0.00    -0.317 N 
ATOM     31  H   LIG d   1       6.574  -3.340  -8.637  0.00  0.00     0.082 H 
ATOM     32  C   LIG d   1       5.729  -0.782 -10.598  0.00  0.00     0.259 A 
ATOM     33  C   LIG d   1       4.712  -0.125  -9.768  0.00  0.00     0.047 A 
ATOM     34  O   LIG d   1       6.021  -0.325 -11.687  0.00  0.00    -0.267 OA
ATOM     35  C   LIG d   1       4.409  -0.685  -8.509  0.00  0.00     0.001 A 
ATOM     36  C   LIG d   1       4.052   1.030 -10.188  0.00  0.00    -0.049 A 
ATOM     37  C   LIG d   1       3.454  -0.083  -7.695  0.00  0.00    -0.053 A 
ATOM     38  C   LIG d   1       2.812   1.058  -8.128  0.00  0.00    -0.061 A 
ATOM     39  H   LIG d   1       3.216  -0.506  -6.730  0.00  0.00     0.062 H 
ATOM     40  C   LIG d   1       3.110   1.610  -9.367  0.00  0.00    -0.061 A 
ATOM     41  H   LIG d   1       2.070   1.526  -7.499  0.00  0.00     0.062 H 
ATOM     42  H   LIG d   1       2.598   2.504  -9.690  0.00  0.00     0.062 H 
ATOM     43  H   LIG d   1       4.277   1.465 -11.150  0.00  0.00     0.062 H 
BRANCH  30  44
ATOM     44  C   LIG d   1       7.342  -2.543 -10.993  0.00  0.00     0.015 C 
ATOM     45  H   LIG d   1       7.758  -1.810 -11.685  0.00  0.00     0.046 H 
ATOM     46  H   LIG d   1       8.138  -2.945 -10.367  0.00  0.00     0.046 H 
ATOM     47  H   LIG d   1       6.879  -3.353 -11.557  0.00  0.00     0.046 H 
ENDBRANCH  30  44
ENDBRANCH   1  28
BRANCH   6  48
ATOM     48  O   LIG d   1       7.087  -1.034  -2.980  0.00  0.00    -0.388 OA
ATOM     49  H   LIG d   1       7.212  -1.982  -3.122  0.00  0.00     0.210 HD
ENDBRANCH   6  48
TORSDOF 3
ENDMDL
MODEL 2
REMARK VINA RESULT:      -6.9      2.275      2.995
REMARK  3 active torsions:
REMARK  status: ('A' for Active; 'I' for Inactive)
REMARK    1  A    between atoms: C_1  and  N_2 
REMARK    2  A    between atoms: C_4  and  C_13 
REMARK       I    between atoms: C_13  and  N_15 
REMARK    3  A    between atoms: C_18  and  O_26 
ROOT
ATOM      1  C   LIG d   1       3.162   0.955  -7.283  0.00  0.00     0.249 C 
ATOM      2  O   LIG d   1       2.558   2.008  -7.209  0.00  0.00    -0.270 OA
ATOM      3  N   LIG d   1       3.140   0.091  -6.248  0.00  0.00    -0.297 N 
ATOM      4  C   LIG d   1       3.960  -1.129  -6.274  0.00  0.00     0.018 C 
ATOM      5  C   LIG d   1       4.816  -1.173  -5.005  0.00  0.00    -0.008 C 
ATOM      6  C   LIG d   1       3.910  -1.054  -3.776  0.00  0.00     0.072 C 
ATOM      7  C   LIG d   1       4.767  -1.119  -2.509  0.00  0.00    -0.024 C 
ATOM      8  C   LIG d   1       5.785   0.023  -2.527  0.00  0.00    -0.050 C 
ATOM      9  C   LIG d   1       5.051   1.363  -2.576  0.00  0.00    -0.053 C 
ATOM     10  C   LIG d   1       4.187   1.427  -3.838  0.00  0.00    -0.046 C 
ATOM     11  C   LIG d   1       3.169   0.285  -3.815  0.00  0.00     0.004 C 
ATOM     12  H   LIG d   1       2.538   0.377  -2.931  0.00  0.00     0.034 H 
ATOM     13  C   LIG d   1       2.303   0.352  -5.070  0.00  0.00     0.020 C 
ATOM     14  H   LIG d   1       3.311  -2.004  -6.307  0.00  0.00     0.046 H 
ATOM     15  H   LIG d   1       4.607  -1.116  -7.150  0.00  0.00     0.046 H 
ATOM     16  H   LIG d   1       5.360  -2.117  -4.965  0.00  0.00     0.031 H 
ATOM     17  H   LIG d   1       5.525  -0.346  -5.015  0.00  0.00     0.031 H 
ATOM     18  H   LIG d   1       4.127  -1.022  -1.632  0.00  0.00     0.029 H 
ATOM     19  H   LIG d   1       5.292  -2.074  -2.473  0.00  0.00     0.029 H 
ATOM     20  H   LIG d   1       6.398  -0.023  -1.627  0.00  0.00     0.027 H 
ATOM     21  H   LIG d   1       6.424  -0.074  -3.406  0.00  0.00     0.027 H 
ATOM     22  H   LIG d   1       4.416   1.462  -1.696  0.00  0.00     0.026 H 
ATOM     23  H   LIG d   1       5.778   2.175  -2.593  0.00  0.00     0.026 H 
ATOM     24  H   LIG d   1       3.662   2.382  -3.871  0.00  0.00     0.027 H 
ATOM     25  H   LIG d   1       4.822   1.331  -4.719  0.00  0.00     0.027 H 
ATOM     26  H   LIG d   1       1.858   1.343  -5.152  0.00  0.00     0.047 H 
ATOM     27  H   LIG d   1       1.516  -0.400  -5.008  0.00  0.00     0.047 H 
ENDROOT
BRANCH   1  28
ATOM     28  C   LIG d   1       3.917   0.625  -8.501  0.00  0.00     0.061 A 
ATOM     29  C   LIG d   1       5.252   0.884  -8.578  0.00  0.00     0.020 A 
ATOM     30  N   LIG d   1       5.982   0.595  -9.683  0.00  0.00    -0.317 N 
ATOM     31  H   LIG d   1       5.746   1.337  -7.730  0.00  0.00     0.082 H 
ATOM     32  C   LIG d   1       5.441   0.036 -10.782  0.00  0.00     0.259 A 
ATOM     33  C   LIG d   1       4.009  -0.290 -10.800  0.00  0.00     0.047 A 
ATOM     34  O   LIG d   1       6.135  -0.202 -11.753  0.00  0.00    -0.267 OA
ATOM     35  C   LIG d   1       3.240   0.007  -9.655  0.00  0.00     0.001 A 
ATOM     36  C   LIG d   1       3.400  -0.875 -11.910  0.00  0.00    -0.049 A 
ATOM     37  C   LIG d   1       1.879  -0.284  -9.641  0.00  0.00    -0.053 A 
ATOM     38  C   LIG d   1       1.295  -0.861 -10.749  0.00  0.00    -0.061 A 
ATOM     39  H   LIG d   1       1.283  -0.059  -8.769  0.00  0.00     0.062 H 
ATOM     40  C   LIG d   1       2.051  -1.154 -11.876  0.00  0.00    -0.061 A 
ATOM     41  H   LIG d   1       0.240  -1.088 -10.740  0.00  0.00     0.062 H 
ATOM     42  H   LIG d   1       1.578  -1.606 -12.734  0.00  0.00     0.062 H 
ATOM     43  H   LIG d   1       3.982  -1.106 -12.790  0.00  0.00     0.062 H 
BRANCH  30  44
ATOM     44  C   LIG d   1       7.413   0.908  -9.683  0.00  0.00     0.015 C 
ATOM     45  H   LIG d   1       7.794   0.867  -8.662  0.00  0.00     0.046 H 
ATOM     46  H   LIG d   1       7.943   0.181 -10.297  0.00  0.00     0.046 H 
ATOM     47  H   LIG d   1       7.566   1.908 -10.088  0.00  0.00     0.046 H 
ENDBRANCH  30  44
ENDBRANCH   1  28
BRANCH   6  48
ATOM     48  O   LIG d   1       2.963  -2.124  -3.775  0.00  0.00    -0.388 OA
ATOM     49  H   LIG d   1       2.103  -1.889  -4.151  0.00  0.00     0.210 HD
ENDBRANCH   6  48
TORSDOF 3
ENDMDL
MODEL 3
REMARK VINA RESULT:      -6.8      3.323      5.952
REMARK  3 active torsions:
REMARK  status: ('A' for Active; 'I' for Inactive)
REMARK    1  A    between atoms: C_1  and  N_2 
REMARK    2  A    between atoms: C_4  and  C_13 
REMARK       I    between atoms: C_13  and  N_15 
REMARK    3  A    between atoms: C_18  and  O_26 
ROOT
ATOM      1  C   LIG d   1       6.486  -2.755  -6.010  0.00  0.00     0.249 C 
ATOM      2  O   LIG d   1       7.100  -2.042  -6.782  0.00  0.00    -0.270 OA
ATOM      3  N   LIG d   1       5.343  -2.314  -5.450  0.00  0.00    -0.297 N 
ATOM      4  C   LIG d   1       4.653  -3.112  -4.427  0.00  0.00     0.018 C 
ATOM      5  C   LIG d   1       4.432  -2.240  -3.188  0.00  0.00    -0.008 C 
ATOM      6  C   LIG d   1       3.688  -0.964  -3.592  0.00  0.00     0.072 C 
ATOM      7  C   LIG d   1       3.451  -0.103  -2.348  0.00  0.00    -0.024 C 
ATOM      8  C   LIG d   1       4.797   0.249  -1.711  0.00  0.00    -0.050 C 
ATOM      9  C   LIG d   1       5.649   1.028  -2.713  0.00  0.00    -0.053 C 
ATOM     10  C   LIG d   1       5.881   0.173  -3.962  0.00  0.00    -0.046 C 
ATOM     11  C   LIG d   1       4.533  -0.176  -4.596  0.00  0.00     0.004 C 
ATOM     12  H   LIG d   1       4.011   0.742  -4.869  0.00  0.00     0.034 H 
ATOM     13  C   LIG d   1       4.763  -1.023  -5.845  0.00  0.00     0.020 C 
ATOM     14  H   LIG d   1       3.691  -3.449  -4.813  0.00  0.00     0.046 H 
ATOM     15  H   LIG d   1       5.266  -3.974  -4.162  0.00  0.00     0.046 H 
ATOM     16  H   LIG d   1       3.839  -2.790  -2.456  0.00  0.00     0.031 H 
ATOM     17  H   LIG d   1       5.395  -1.976  -2.752  0.00  0.00     0.031 H 
ATOM     18  H   LIG d   1       2.932   0.812  -2.633  0.00  0.00     0.029 H 
ATOM     19  H   LIG d   1       2.843  -0.658  -1.632  0.00  0.00     0.029 H 
ATOM     20  H   LIG d   1       4.630   0.859  -0.824  0.00  0.00     0.027 H 
ATOM     21  H   LIG d   1       5.315  -0.668  -1.428  0.00  0.00     0.027 H 
ATOM     22  H   LIG d   1       5.133   1.946  -2.993  0.00  0.00     0.026 H 
ATOM     23  H   LIG d   1       6.609   1.275  -2.260  0.00  0.00     0.026 H 
ATOM     24  H   LIG d   1       6.486   0.730  -4.677  0.00  0.00     0.027 H 
ATOM     25  H   LIG d   1       6.400  -0.744  -3.683  0.00  0.00     0.027 H 
ATOM     26  H   LIG d   1       5.450  -0.504  -6.514  0.00  0.00     0.047 H 
ATOM     27  H   LIG d   1       3.812  -1.189  -6.351  0.00  0.00     0.047 H 
ENDROOT
BRANCH   1  28
ATOM     28  C   LIG d   1       6.993  -4.098  -5.689  0.00  0.00     0.061 A 
ATOM     29  C   LIG d   1       6.592  -5.179  -6.415  0.00  0.00     0.020 A 
ATOM     30  N   LIG d   1       7.035  -6.431  -6.151  0.00  0.00    -0.317 N 
ATOM     31  H   LIG d   1       5.896  -5.033  -7.229  0.00  0.00     0.082 H 
ATOM     32  C   LIG d   1       7.898  -6.699  -5.151  0.00  0.00     0.259 A 
ATOM     33  C   LIG d   1       8.397  -5.602  -4.312  0.00  0.00     0.047 A 
ATOM     34  O   LIG d   1       8.265  -7.841  -4.948  0.00  0.00    -0.267 OA
ATOM     35  C   LIG d   1       7.941  -4.293  -4.579  0.00  0.00     0.001 A 
ATOM     36  C   LIG d   1       9.295  -5.822  -3.268  0.00  0.00    -0.049 A 
ATOM     37  C   LIG d   1       8.390  -3.232  -3.798  0.00  0.00    -0.053 A 
ATOM     38  C   LIG d   1       9.277  -3.470  -2.771  0.00  0.00    -0.061 A 
ATOM     39  H   LIG d   1       8.045  -2.227  -3.996  0.00  0.00     0.062 H 
ATOM     40  C   LIG d   1       9.727  -4.757  -2.508  0.00  0.00    -0.061 A 
ATOM     41  H   LIG d   1       9.628  -2.648  -2.164  0.00  0.00     0.062 H 
ATOM     42  H   LIG d   1      10.422  -4.926  -1.699  0.00  0.00     0.062 H 
ATOM     43  H   LIG d   1       9.650  -6.820  -3.058  0.00  0.00     0.062 H 
BRANCH  30  44
ATOM     44  C   LIG d   1       6.553  -7.539  -6.980  0.00  0.00     0.015 C 
ATOM     45  H   LIG d   1       7.270  -8.360  -6.941  0.00  0.00     0.046 H 
ATOM     46  H   LIG d   1       5.589  -7.880  -6.606  0.00  0.00     0.046 H 
ATOM     47  H   LIG d   1       6.445  -7.200  -8.011  0.00  0.00     0.046 H 
ENDBRANCH  30  44
ENDBRANCH   1  28
BRANCH   6  48
ATOM     48  O   LIG d   1       2.436  -1.309  -4.188  0.00  0.00    -0.388 OA
ATOM     49  H   LIG d   1       2.097  -2.174  -3.920  0.00  0.00     0.210 HD
ENDBRANCH   6  48
TORSDOF 3
ENDMDL
MODEL 4
REMARK VINA RESULT:      -6.7      3.490      5.209
REMARK  3 active torsions:
REMARK  status: ('A' for Active; 'I' for Inactive)
REMARK    1  A    between atoms: C_1  and  N_2 
REMARK    2  A    between atoms: C_4  and  C_13 
REMARK       I    between atoms: C_13  and  N_15 
REMARK    3  A    between atoms: C_18  and  O_26 
ROOT
ATOM      1  C   LIG d   1       7.035   0.066  -6.387  0.00  0.00     0.249 C 
ATOM      2  O   LIG d   1       6.490   0.943  -7.030  0.00  0.00    -0.270 OA
ATOM      3  N   LIG d   1       6.294  -0.877  -5.773  0.00  0.00    -0.297 N 
ATOM      4  C   LIG d   1       6.926  -1.873  -4.896  0.00  0.00     0.018 C 
ATOM      5  C   LIG d   1       6.225  -1.847  -3.535  0.00  0.00    -0.008 C 
ATOM      6  C   LIG d   1       4.721  -2.056  -3.735  0.00  0.00     0.072 C 
ATOM      7  C   LIG d   1       4.025  -2.049  -2.371  0.00  0.00    -0.024 C 
ATOM      8  C   LIG d   1       4.286  -0.711  -1.676  0.00  0.00    -0.050 C 
ATOM      9  C   LIG d   1       3.733   0.428  -2.533  0.00  0.00    -0.053 C 
ATOM     10  C   LIG d   1       4.421   0.419  -3.901  0.00  0.00    -0.046 C 
ATOM     11  C   LIG d   1       4.157  -0.920  -4.593  0.00  0.00     0.004 C 
ATOM     12  H   LIG d   1       3.083  -1.058  -4.720  0.00  0.00     0.034 H 
ATOM     13  C   LIG d   1       4.837  -0.928  -5.960  0.00  0.00     0.020 C 
ATOM     14  H   LIG d   1       6.828  -2.864  -5.339  0.00  0.00     0.046 H 
ATOM     15  H   LIG d   1       7.981  -1.629  -4.768  0.00  0.00     0.046 H 
ATOM     16  H   LIG d   1       6.621  -2.644  -2.906  0.00  0.00     0.031 H 
ATOM     17  H   LIG d   1       6.398  -0.884  -3.055  0.00  0.00     0.031 H 
ATOM     18  H   LIG d   1       2.953  -2.184  -2.509  0.00  0.00     0.029 H 
ATOM     19  H   LIG d   1       4.418  -2.861  -1.758  0.00  0.00     0.029 H 
ATOM     20  H   LIG d   1       3.793  -0.706  -0.703  0.00  0.00     0.027 H 
ATOM     21  H   LIG d   1       5.359  -0.576  -1.539  0.00  0.00     0.027 H 
ATOM     22  H   LIG d   1       2.660   0.295  -2.666  0.00  0.00     0.026 H 
ATOM     23  H   LIG d   1       3.923   1.380  -2.039  0.00  0.00     0.026 H 
ATOM     24  H   LIG d   1       4.025   1.229  -4.513  0.00  0.00     0.027 H 
ATOM     25  H   LIG d   1       5.495   0.554  -3.769  0.00  0.00     0.027 H 
ATOM     26  H   LIG d   1       4.513  -0.059  -6.532  0.00  0.00     0.047 H 
ATOM     27  H   LIG d   1       4.569  -1.839  -6.493  0.00  0.00     0.047 H 
ENDROOT
BRANCH   1  28
ATOM     28  C   LIG d   1       8.501   0.034  -6.282  0.00  0.00     0.061 A 
ATOM     29  C   LIG d   1       9.237  -0.755  -7.113  0.00  0.00     0.020 A 
ATOM     30  N   LIG d   1      10.589  -0.812  -7.048  0.00  0.00    -0.317 N 
ATOM     31  H   LIG d   1       8.724  -1.357  -7.851  0.00  0.00     0.082 H 
ATOM     32  C   LIG d   1      11.301  -0.099  -6.155  0.00  0.00     0.259 A 
ATOM     33  C   LIG d   1      10.604   0.789  -5.216  0.00  0.00     0.047 A 
ATOM     34  O   LIG d   1      12.514  -0.185  -6.130  0.00  0.00    -0.267 OA
ATOM     35  C   LIG d   1       9.196   0.856  -5.275  0.00  0.00     0.001 A 
ATOM     36  C   LIG d   1      11.293   1.555  -4.275  0.00  0.00    -0.049 A 
ATOM     37  C   LIG d   1       8.504   1.683  -4.395  0.00  0.00    -0.053 A 
ATOM     38  C   LIG d   1       9.204   2.431  -3.472  0.00  0.00    -0.061 A 
ATOM     39  H   LIG d   1       7.426   1.739  -4.434  0.00  0.00     0.062 H 
ATOM     40  C   LIG d   1      10.589   2.367  -3.413  0.00  0.00    -0.061 A 
ATOM     41  H   LIG d   1       8.669   3.074  -2.789  0.00  0.00     0.062 H 
ATOM     42  H   LIG d   1      11.121   2.959  -2.683  0.00  0.00     0.062 H 
ATOM     43  H   LIG d   1      12.371   1.510  -4.223  0.00  0.00     0.062 H 
BRANCH  30  44
ATOM     44  C   LIG d   1      11.303  -1.688  -7.980  0.00  0.00     0.015 C 
ATOM     45  H   LIG d   1      10.847  -2.678  -7.969  0.00  0.00     0.046 H 
ATOM     46  H   LIG d   1      11.245  -1.272  -8.985  0.00  0.00     0.046 H 
ATOM     47  H   LIG d   1      12.348  -1.765  -7.678  0.00  0.00     0.046 H 
ENDBRANCH  30  44
ENDBRANCH   1  28
BRANCH   6  48
ATOM     48  O   LIG d   1       4.494  -3.306  -4.388  0.00  0.00    -0.388 OA
ATOM     49  H   LIG d   1       4.578  -3.268  -5.351  0.00  0.00     0.210 HD
ENDBRANCH   6  48
TORSDOF 3
ENDMDL
MODEL 5
REMARK VINA RESULT:      -6.7      3.440      6.116
REMARK  3 active torsions:
REMARK  status: ('A' for Active; 'I' for Inactive)
REMARK    1  A    between atoms: C_1  and  N_2 
REMARK    2  A    between atoms: C_4  and  C_13 
REMARK       I    between atoms: C_13  and  N_15 
REMARK    3  A    between atoms: C_18  and  O_26 
ROOT
ATOM      1  C   LIG d   1       6.993  -2.585  -5.458  0.00  0.00     0.249 C 
ATOM      2  O   LIG d   1       7.579  -1.899  -6.274  0.00  0.00    -0.270 OA
ATOM      3  N   LIG d   1       5.769  -2.222  -5.027  0.00  0.00    -0.297 N 
ATOM      4  C   LIG d   1       5.099  -2.973  -3.956  0.00  0.00     0.018 C 
ATOM      5  C   LIG d   1       4.691  -1.996  -2.850  0.00  0.00    -0.008 C 
ATOM      6  C   LIG d   1       3.841  -0.873  -3.453  0.00  0.00     0.072 C 
ATOM      7  C   LIG d   1       3.418   0.092  -2.342  0.00  0.00    -0.024 C 
ATOM      8  C   LIG d   1       4.665   0.674  -1.674  0.00  0.00    -0.050 C 
ATOM      9  C   LIG d   1       5.498   1.428  -2.712  0.00  0.00    -0.053 C 
ATOM     10  C   LIG d   1       5.915   0.467  -3.828  0.00  0.00    -0.046 C 
ATOM     11  C   LIG d   1       4.665  -0.111  -4.494  0.00  0.00     0.004 C 
ATOM     12  H   LIG d   1       4.066   0.699  -4.910  0.00  0.00     0.034 H 
ATOM     13  C   LIG d   1       5.080  -1.064  -5.612  0.00  0.00     0.020 C 
ATOM     14  H   LIG d   1       4.212  -3.465  -4.354  0.00  0.00     0.046 H 
ATOM     15  H   LIG d   1       5.783  -3.718  -3.550  0.00  0.00     0.046 H 
ATOM     16  H   LIG d   1       4.111  -2.524  -2.093  0.00  0.00     0.031 H 
ATOM     17  H   LIG d   1       5.584  -1.569  -2.393  0.00  0.00     0.031 H 
ATOM     18  H   LIG d   1       2.823   0.899  -2.768  0.00  0.00     0.029 H 
ATOM     19  H   LIG d   1       2.825  -0.445  -1.600  0.00  0.00     0.029 H 
ATOM     20  H   LIG d   1       4.366   1.359  -0.880  0.00  0.00     0.027 H 
ATOM     21  H   LIG d   1       5.260  -0.135  -1.249  0.00  0.00     0.027 H 
ATOM     22  H   LIG d   1       4.904   2.239  -3.133  0.00  0.00     0.026 H 
ATOM     23  H   LIG d   1       6.387   1.838  -2.235  0.00  0.00     0.026 H 
ATOM     24  H   LIG d   1       6.506   1.006  -4.569  0.00  0.00     0.027 H 
ATOM     25  H   LIG d   1       6.511  -0.343  -3.407  0.00  0.00     0.027 H 
ATOM     26  H   LIG d   1       5.752  -0.549  -6.298  0.00  0.00     0.047 H 
ATOM     27  H   LIG d   1       4.194  -1.401  -6.150  0.00  0.00     0.047 H 
ENDROOT
BRANCH   1  28
ATOM     28  C   LIG d   1       7.621  -3.811  -4.943  0.00  0.00     0.061 A 
ATOM     29  C   LIG d   1       8.510  -3.752  -3.913  0.00  0.00     0.020 A 
ATOM     30  N   LIG d   1       9.109  -4.858  -3.410  0.00  0.00    -0.317 N 
ATOM     31  H   LIG d   1       8.746  -2.789  -3.481  0.00  0.00     0.082 H 
ATOM     32  C   LIG d   1       8.874  -6.092  -3.895  0.00  0.00     0.259 A 
ATOM     33  C   LIG d   1       7.927  -6.267  -5.002  0.00  0.00     0.047 A 
ATOM     34  O   LIG d   1       9.440  -7.057  -3.414  0.00  0.00    -0.267 OA
ATOM     35  C   LIG d   1       7.297  -5.122  -5.533  0.00  0.00     0.001 A 
ATOM     36  C   LIG d   1       7.643  -7.524  -5.538  0.00  0.00    -0.049 A 
ATOM     37  C   LIG d   1       6.398  -5.252  -6.588  0.00  0.00    -0.053 A 
ATOM     38  C   LIG d   1       6.131  -6.503  -7.104  0.00  0.00    -0.061 A 
ATOM     39  H   LIG d   1       5.913  -4.380  -7.000  0.00  0.00     0.062 H 
ATOM     40  C   LIG d   1       6.750  -7.631  -6.582  0.00  0.00    -0.061 A 
ATOM     41  H   LIG d   1       5.433  -6.606  -7.921  0.00  0.00     0.062 H 
ATOM     42  H   LIG d   1       6.529  -8.602  -6.998  0.00  0.00     0.062 H 
ATOM     43  H   LIG d   1       8.119  -8.406  -5.137  0.00  0.00     0.062 H 
BRANCH  30  44
ATOM     44  C   LIG d   1      10.054  -4.705  -2.300  0.00  0.00     0.015 C 
ATOM     45  H   LIG d   1       9.920  -5.524  -1.594  0.00  0.00     0.046 H 
ATOM     46  H   LIG d   1      11.073  -4.720  -2.686  0.00  0.00     0.046 H 
ATOM     47  H   LIG d   1       9.870  -3.756  -1.795  0.00  0.00     0.046 H 
ENDBRANCH  30  44
ENDBRANCH   1  28
BRANCH   6  48
ATOM     48  O   LIG d   1       2.683  -1.432  -4.076  0.00  0.00    -0.388 OA
ATOM     49  H   LIG d   1       2.878  -1.990  -4.841  0.00  0.00     0.210 HD
ENDBRANCH   6  48
TORSDOF 3
ENDMDL
MODEL 6
REMARK VINA RESULT:      -6.7      1.994      6.450
REMARK  3 active torsions:
REMARK  status: ('A' for Active; 'I' for Inactive)
REMARK    1  A    between atoms: C_1  and  N_2 
REMARK    2  A    between atoms: C_4  and  C_13 
REMARK       I    between atoms: C_13  and  N_15 
REMARK    3  A    between atoms: C_18  and  O_26 
ROOT
ATOM      1  C   LIG d   1       3.055   0.093  -6.509  0.00  0.00     0.249 C 
ATOM      2  O   LIG d   1       1.875   0.169  -6.226  0.00  0.00    -0.270 OA
ATOM      3  N   LIG d   1       3.507   0.622  -7.663  0.00  0.00    -0.297 N 
ATOM      4  C   LIG d   1       4.904   0.435  -8.077  0.00  0.00     0.018 C 
ATOM      5  C   LIG d   1       4.925  -0.150  -9.492  0.00  0.00    -0.008 C 
ATOM      6  C   LIG d   1       4.111   0.751 -10.426  0.00  0.00     0.072 C 
ATOM      7  C   LIG d   1       4.150   0.173 -11.844  0.00  0.00    -0.024 C 
ATOM      8  C   LIG d   1       3.565  -1.241 -11.831  0.00  0.00    -0.050 C 
ATOM      9  C   LIG d   1       2.117  -1.191 -11.342  0.00  0.00    -0.053 C 
ATOM     10  C   LIG d   1       2.074  -0.607  -9.928  0.00  0.00    -0.046 C 
ATOM     11  C   LIG d   1       2.659   0.807  -9.945  0.00  0.00     0.004 C 
ATOM     12  H   LIG d   1       2.076   1.434 -10.620  0.00  0.00     0.034 H 
ATOM     13  C   LIG d   1       2.611   1.393  -8.536  0.00  0.00     0.020 C 
ATOM     14  H   LIG d   1       5.419   1.395  -8.072  0.00  0.00     0.046 H 
ATOM     15  H   LIG d   1       5.399  -0.252  -7.391  0.00  0.00     0.046 H 
ATOM     16  H   LIG d   1       5.953  -0.208  -9.848  0.00  0.00     0.031 H 
ATOM     17  H   LIG d   1       4.488  -1.149  -9.480  0.00  0.00     0.031 H 
ATOM     18  H   LIG d   1       3.562   0.805 -12.509  0.00  0.00     0.029 H 
ATOM     19  H   LIG d   1       5.182   0.137 -12.194  0.00  0.00     0.029 H 
ATOM     20  H   LIG d   1       3.594  -1.654 -12.840  0.00  0.00     0.027 H 
ATOM     21  H   LIG d   1       4.153  -1.871 -11.164  0.00  0.00     0.027 H 
ATOM     22  H   LIG d   1       1.528  -0.565 -12.012  0.00  0.00     0.026 H 
ATOM     23  H   LIG d   1       1.703  -2.199 -11.330  0.00  0.00     0.026 H 
ATOM     24  H   LIG d   1       1.042  -0.569  -9.581  0.00  0.00     0.027 H 
ATOM     25  H   LIG d   1       2.661  -1.235  -9.257  0.00  0.00     0.027 H 
ATOM     26  H   LIG d   1       1.592   1.337  -8.154  0.00  0.00     0.047 H 
ATOM     27  H   LIG d   1       2.936   2.433  -8.565  0.00  0.00     0.047 H 
ENDROOT
BRANCH   1  28
ATOM     28  C   LIG d   1       3.989  -0.578  -5.593  0.00  0.00     0.061 A 
ATOM     29  C   LIG d   1       4.710  -1.656  -6.009  0.00  0.00     0.020 A 
ATOM     30  N   LIG d   1       5.581  -2.301  -5.195  0.00  0.00    -0.317 N 
ATOM     31  H   LIG d   1       4.584  -2.010  -7.023  0.00  0.00     0.082 H 
ATOM     32  C   LIG d   1       5.791  -1.928  -3.918  0.00  0.00     0.259 A 
ATOM     33  C   LIG d   1       5.068  -0.773  -3.373  0.00  0.00     0.047 A 
ATOM     34  O   LIG d   1       6.580  -2.541  -3.223  0.00  0.00    -0.267 OA
ATOM     35  C   LIG d   1       4.159  -0.094  -4.212  0.00  0.00     0.001 A 
ATOM     36  C   LIG d   1       5.253  -0.340  -2.059  0.00  0.00    -0.049 A 
ATOM     37  C   LIG d   1       3.452   1.002  -3.723  0.00  0.00    -0.053 A 
ATOM     38  C   LIG d   1       3.649   1.413  -2.423  0.00  0.00    -0.061 A 
ATOM     39  H   LIG d   1       2.754   1.526  -4.359  0.00  0.00     0.062 H 
ATOM     40  C   LIG d   1       4.543   0.746  -1.596  0.00  0.00    -0.061 A 
ATOM     41  H   LIG d   1       3.102   2.263  -2.042  0.00  0.00     0.062 H 
ATOM     42  H   LIG d   1       4.684   1.082  -0.580  0.00  0.00     0.062 H 
ATOM     43  H   LIG d   1       5.947  -0.854  -1.411  0.00  0.00     0.062 H 
BRANCH  30  44
ATOM     44  C   LIG d   1       6.317  -3.454  -5.723  0.00  0.00     0.015 C 
ATOM     45  H   LIG d   1       5.834  -3.805  -6.635  0.00  0.00     0.046 H 
ATOM     46  H   LIG d   1       7.342  -3.159  -5.944  0.00  0.00     0.046 H 
ATOM     47  H   LIG d   1       6.319  -4.253  -4.982  0.00  0.00     0.046 H 
ENDBRANCH  30  44
ENDBRANCH   1  28
BRANCH   6  48
ATOM     48  O   LIG d   1       4.667   2.067 -10.424  0.00  0.00    -0.388 OA
ATOM     49  H   LIG d   1       4.007   2.773 -10.460  0.00  0.00     0.210 HD
ENDBRANCH   6  48
TORSDOF 3
ENDMDL
MODEL 7
REMARK VINA RESULT:      -6.3      3.420      5.568
REMARK  3 active torsions:
REMARK  status: ('A' for Active; 'I' for Inactive)
REMARK    1  A    between atoms: C_1  and  N_2 
REMARK    2  A    between atoms: C_4  and  C_13 
REMARK       I    between atoms: C_13  and  N_15 
REMARK    3  A    between atoms: C_18  and  O_26 
ROOT
ATOM      1  C   LIG d   1       6.749  -2.567  -5.139  0.00  0.00     0.249 C 
ATOM      2  O   LIG d   1       6.207  -3.308  -5.937  0.00  0.00    -0.270 OA
ATOM      3  N   LIG d   1       6.070  -2.121  -4.064  0.00  0.00    -0.297 N 
ATOM      4  C   LIG d   1       6.670  -1.132  -3.157  0.00  0.00     0.018 C 
ATOM      5  C   LIG d   1       5.712   0.054  -3.016  0.00  0.00    -0.008 C 
ATOM      6  C   LIG d   1       4.338  -0.454  -2.568  0.00  0.00     0.072 C 
ATOM      7  C   LIG d   1       3.387   0.735  -2.410  0.00  0.00    -0.024 C 
ATOM      8  C   LIG d   1       3.269   1.471  -3.746  0.00  0.00    -0.050 C 
ATOM      9  C   LIG d   1       2.718   0.518  -4.808  0.00  0.00    -0.053 C 
ATOM     10  C   LIG d   1       3.662  -0.677  -4.962  0.00  0.00    -0.046 C 
ATOM     11  C   LIG d   1       3.777  -1.410  -3.624  0.00  0.00     0.004 C 
ATOM     12  H   LIG d   1       2.791  -1.757  -3.314  0.00  0.00     0.034 H 
ATOM     13  C   LIG d   1       4.713  -2.606  -3.779  0.00  0.00     0.020 C 
ATOM     14  H   LIG d   1       6.835  -1.586  -2.180  0.00  0.00     0.046 H 
ATOM     15  H   LIG d   1       7.619  -0.788  -3.568  0.00  0.00     0.046 H 
ATOM     16  H   LIG d   1       6.101   0.751  -2.274  0.00  0.00     0.031 H 
ATOM     17  H   LIG d   1       5.616   0.560  -3.977  0.00  0.00     0.031 H 
ATOM     18  H   LIG d   1       2.405   0.377  -2.103  0.00  0.00     0.029 H 
ATOM     19  H   LIG d   1       3.779   1.416  -1.653  0.00  0.00     0.029 H 
ATOM     20  H   LIG d   1       2.594   2.320  -3.635  0.00  0.00     0.027 H 
ATOM     21  H   LIG d   1       4.252   1.827  -4.053  0.00  0.00     0.027 H 
ATOM     22  H   LIG d   1       1.732   0.165  -4.503  0.00  0.00     0.026 H 
ATOM     23  H   LIG d   1       2.637   1.042  -5.760  0.00  0.00     0.026 H 
ATOM     24  H   LIG d   1       3.267  -1.357  -5.717  0.00  0.00     0.027 H 
ATOM     25  H   LIG d   1       4.647  -0.325  -5.270  0.00  0.00     0.027 H 
ATOM     26  H   LIG d   1       4.370  -3.232  -4.602  0.00  0.00     0.047 H 
ATOM     27  H   LIG d   1       4.719  -3.184  -2.855  0.00  0.00     0.047 H 
ENDROOT
BRANCH   1  28
ATOM     28  C   LIG d   1       8.146  -2.159  -5.348  0.00  0.00     0.061 A 
ATOM     29  C   LIG d   1       8.451  -1.158  -6.221  0.00  0.00     0.020 A 
ATOM     30  N   LIG d   1       9.725  -0.754  -6.441  0.00  0.00    -0.317 N 
ATOM     31  H   LIG d   1       7.649  -0.670  -6.756  0.00  0.00     0.082 H 
ATOM     32  C   LIG d   1      10.780  -1.313  -5.819  0.00  0.00     0.259 A 
ATOM     33  C   LIG d   1      10.561  -2.397  -4.853  0.00  0.00     0.047 A 
ATOM     34  O   LIG d   1      11.908  -0.920  -6.052  0.00  0.00    -0.267 OA
ATOM     35  C   LIG d   1       9.238  -2.827  -4.617  0.00  0.00     0.001 A 
ATOM     36  C   LIG d   1      11.618  -3.008  -4.178  0.00  0.00    -0.049 A 
ATOM     37  C   LIG d   1       8.996  -3.856  -3.712  0.00  0.00    -0.053 A 
ATOM     38  C   LIG d   1      10.053  -4.447  -3.054  0.00  0.00    -0.061 A 
ATOM     39  H   LIG d   1       7.986  -4.191  -3.526  0.00  0.00     0.062 H 
ATOM     40  C   LIG d   1      11.356  -4.026  -3.286  0.00  0.00    -0.061 A 
ATOM     41  H   LIG d   1       9.868  -5.246  -2.351  0.00  0.00     0.062 H 
ATOM     42  H   LIG d   1      12.172  -4.499  -2.763  0.00  0.00     0.062 H 
ATOM     43  H   LIG d   1      12.633  -2.685  -4.352  0.00  0.00     0.062 H 
BRANCH  30  44
ATOM     44  C   LIG d   1       9.964   0.331  -7.397  0.00  0.00     0.015 C 
ATOM     45  H   LIG d   1      10.900   0.148  -7.926  0.00  0.00     0.046 H 
ATOM     46  H   LIG d   1       9.144   0.371  -8.112  0.00  0.00     0.046 H 
ATOM     47  H   LIG d   1      10.028   1.279  -6.862  0.00  0.00     0.046 H 
ENDBRANCH  30  44
ENDBRANCH   1  28
BRANCH   6  48
ATOM     48  O   LIG d   1       4.465  -1.141  -1.322  0.00  0.00    -0.388 OA
ATOM     49  H   LIG d   1       3.643  -1.541  -1.006  0.00  0.00     0.210 HD
ENDBRANCH   6  48
TORSDOF 3
ENDMDL
MODEL 8
REMARK VINA RESULT:      -6.2      2.346      6.208
REMARK  3 active torsions:
REMARK  status: ('A' for Active; 'I' for Inactive)
REMARK    1  A    between atoms: C_1  and  N_2 
REMARK    2  A    between atoms: C_4  and  C_13 
REMARK       I    between atoms: C_13  and  N_15 
REMARK    3  A    between atoms: C_18  and  O_26 
ROOT
ATOM      1  C   LIG d   1       5.953  -2.946  -5.244  0.00  0.00     0.249 C 
ATOM      2  O   LIG d   1       6.389  -3.963  -4.739  0.00  0.00    -0.270 OA
ATOM      3  N   LIG d   1       5.074  -3.024  -6.263  0.00  0.00    -0.297 N 
ATOM      4  C   LIG d   1       4.629  -1.810  -6.962  0.00  0.00     0.018 C 
ATOM      5  C   LIG d   1       4.871  -1.989  -8.463  0.00  0.00    -0.008 C 
ATOM      6  C   LIG d   1       4.184  -3.273  -8.939  0.00  0.00     0.072 C 
ATOM      7  C   LIG d   1       4.411  -3.439 -10.444  0.00  0.00    -0.024 C 
ATOM      8  C   LIG d   1       5.913  -3.509 -10.725  0.00  0.00    -0.050 C 
ATOM      9  C   LIG d   1       6.518  -4.703  -9.985  0.00  0.00    -0.053 C 
ATOM     10  C   LIG d   1       6.284  -4.544  -8.481  0.00  0.00    -0.046 C 
ATOM     11  C   LIG d   1       4.781  -4.475  -8.204  0.00  0.00     0.004 C 
ATOM     12  H   LIG d   1       4.305  -5.390  -8.556  0.00  0.00     0.034 H 
ATOM     13  C   LIG d   1       4.548  -4.323  -6.703  0.00  0.00     0.020 C 
ATOM     14  H   LIG d   1       3.566  -1.653  -6.780  0.00  0.00     0.046 H 
ATOM     15  H   LIG d   1       5.196  -0.952  -6.601  0.00  0.00     0.046 H 
ATOM     16  H   LIG d   1       4.460  -1.136  -9.003  0.00  0.00     0.031 H 
ATOM     17  H   LIG d   1       5.942  -2.059  -8.654  0.00  0.00     0.031 H 
ATOM     18  H   LIG d   1       3.934  -4.357 -10.784  0.00  0.00     0.029 H 
ATOM     19  H   LIG d   1       3.981  -2.588 -10.973  0.00  0.00     0.029 H 
ATOM     20  H   LIG d   1       6.077  -3.624 -11.796  0.00  0.00     0.027 H 
ATOM     21  H   LIG d   1       6.389  -2.590 -10.383  0.00  0.00     0.027 H 
ATOM     22  H   LIG d   1       6.044  -5.622 -10.330  0.00  0.00     0.026 H 
ATOM     23  H   LIG d   1       7.588  -4.749 -10.183  0.00  0.00     0.026 H 
ATOM     24  H   LIG d   1       6.713  -5.396  -7.954  0.00  0.00     0.027 H 
ATOM     25  H   LIG d   1       6.760  -3.626  -8.134  0.00  0.00     0.027 H 
ATOM     26  H   LIG d   1       5.063  -5.123  -6.172  0.00  0.00     0.047 H 
ATOM     27  H   LIG d   1       3.479  -4.373  -6.495  0.00  0.00     0.047 H 
ENDROOT
BRANCH   1  28
ATOM     28  C   LIG d   1       6.383  -1.633  -4.742  0.00  0.00     0.061 A 
ATOM     29  C   LIG d   1       7.545  -1.073  -5.179  0.00  0.00     0.020 A 
ATOM     30  N   LIG d   1       7.976   0.134  -4.741  0.00  0.00    -0.317 N 
ATOM     31  H   LIG d   1       8.145  -1.610  -5.900  0.00  0.00     0.082 H 
ATOM     32  C   LIG d   1       7.291   0.864  -3.840  0.00  0.00     0.259 A 
ATOM     33  C   LIG d   1       6.020   0.354  -3.309  0.00  0.00     0.047 A 
ATOM     34  O   LIG d   1       7.719   1.942  -3.472  0.00  0.00    -0.267 OA
ATOM     35  C   LIG d   1       5.563  -0.903  -3.759  0.00  0.00     0.001 A 
ATOM     36  C   LIG d   1       5.269   1.072  -2.379  0.00  0.00    -0.049 A 
ATOM     37  C   LIG d   1       4.366  -1.418  -3.271  0.00  0.00    -0.053 A 
ATOM     38  C   LIG d   1       3.637  -0.694  -2.352  0.00  0.00    -0.061 A 
ATOM     39  H   LIG d   1       4.009  -2.380  -3.610  0.00  0.00     0.062 H 
ATOM     40  C   LIG d   1       4.086   0.543  -1.909  0.00  0.00    -0.061 A 
ATOM     41  H   LIG d   1       2.708  -1.092  -1.972  0.00  0.00     0.062 H 
ATOM     42  H   LIG d   1       3.503   1.097  -1.188  0.00  0.00     0.062 H 
ATOM     43  H   LIG d   1       5.611   2.035  -2.030  0.00  0.00     0.062 H 
BRANCH  30  44
ATOM     44  C   LIG d   1       9.239   0.664  -5.263  0.00  0.00     0.015 C 
ATOM     45  H   LIG d   1      10.066   0.057  -4.895  0.00  0.00     0.046 H 
ATOM     46  H   LIG d   1       9.222   0.635  -6.352  0.00  0.00     0.046 H 
ATOM     47  H   LIG d   1       9.367   1.694  -4.928  0.00  0.00     0.046 H 
ENDBRANCH  30  44
ENDBRANCH   1  28
BRANCH   6  48
ATOM     48  O   LIG d   1       2.783  -3.194  -8.666  0.00  0.00    -0.388 OA
ATOM     49  H   LIG d   1       2.559  -3.277  -7.729  0.00  0.00     0.210 HD
ENDBRANCH   6  48
TORSDOF 3
ENDMDL
MODEL 9
REMARK VINA RESULT:      -6.0      3.085      4.855
REMARK  3 active torsions:
REMARK  status: ('A' for Active; 'I' for Inactive)
REMARK    1  A    between atoms: C_1  and  N_2 
REMARK    2  A    between atoms: C_4  and  C_13 
REMARK       I    between atoms: C_13  and  N_15 
REMARK    3  A    between atoms: C_18  and  O_26 
ROOT
ATOM      1  C   LIG d   1       6.737   0.008  -6.577  0.00  0.00     0.249 C 
ATOM      2  O   LIG d   1       6.262   1.021  -7.055  0.00  0.00    -0.270 OA
ATOM      3  N   LIG d   1       5.936  -0.892  -5.975  0.00  0.00    -0.297 N 
ATOM      4  C   LIG d   1       6.506  -2.061  -5.288  0.00  0.00     0.018 C 
ATOM      5  C   LIG d   1       5.966  -2.102  -3.856  0.00  0.00    -0.008 C 
ATOM      6  C   LIG d   1       4.435  -2.081  -3.889  0.00  0.00     0.072 C 
ATOM      7  C   LIG d   1       3.899  -2.142  -2.457  0.00  0.00    -0.024 C 
ATOM      8  C   LIG d   1       4.427  -0.943  -1.666  0.00  0.00    -0.050 C 
ATOM      9  C   LIG d   1       3.959   0.353  -2.329  0.00  0.00    -0.053 C 
ATOM     10  C   LIG d   1       4.487   0.413  -3.764  0.00  0.00    -0.046 C 
ATOM     11  C   LIG d   1       3.956  -0.787  -4.551  0.00  0.00     0.004 C 
ATOM     12  H   LIG d   1       2.866  -0.764  -4.558  0.00  0.00     0.034 H 
ATOM     13  C   LIG d   1       4.477  -0.724  -5.985  0.00  0.00     0.020 C 
ATOM     14  H   LIG d   1       6.216  -2.970  -5.814  0.00  0.00     0.046 H 
ATOM     15  H   LIG d   1       7.592  -1.978  -5.267  0.00  0.00     0.046 H 
ATOM     16  H   LIG d   1       6.306  -3.014  -3.365  0.00  0.00     0.031 H 
ATOM     17  H   LIG d   1       6.329  -1.235  -3.305  0.00  0.00     0.031 H 
ATOM     18  H   LIG d   1       2.809  -2.115  -2.475  0.00  0.00     0.029 H 
ATOM     19  H   LIG d   1       4.232  -3.066  -1.982  0.00  0.00     0.029 H 
ATOM     20  H   LIG d   1       4.048  -0.987  -0.645  0.00  0.00     0.027 H 
ATOM     21  H   LIG d   1       5.516  -0.971  -1.650  0.00  0.00     0.027 H 
ATOM     22  H   LIG d   1       2.870   0.382  -2.341  0.00  0.00     0.026 H 
ATOM     23  H   LIG d   1       4.339   1.206  -1.767  0.00  0.00     0.026 H 
ATOM     24  H   LIG d   1       4.151   1.336  -4.237  0.00  0.00     0.027 H 
ATOM     25  H   LIG d   1       5.577   0.386  -3.752  0.00  0.00     0.027 H 
ATOM     26  H   LIG d   1       4.225   0.242  -6.421  0.00  0.00     0.047 H 
ATOM     27  H   LIG d   1       4.021  -1.522  -6.572  0.00  0.00     0.047 H 
ENDROOT
BRANCH   1  28
ATOM     28  C   LIG d   1       8.186  -0.232  -6.656  0.00  0.00     0.061 A 
ATOM     29  C   LIG d   1       9.025   0.288  -5.717  0.00  0.00     0.020 A 
ATOM     30  N   LIG d   1      10.364   0.088  -5.755  0.00  0.00    -0.317 N 
ATOM     31  H   LIG d   1       8.608   0.879  -4.914  0.00  0.00     0.082 H 
ATOM     32  C   LIG d   1      10.963  -0.631  -6.724  0.00  0.00     0.259 A 
ATOM     33  C   LIG d   1      10.147  -1.241  -7.782  0.00  0.00     0.047 A 
ATOM     34  O   LIG d   1      12.170  -0.779  -6.719  0.00  0.00    -0.267 OA
ATOM     35  C   LIG d   1       8.751  -1.040  -7.751  0.00  0.00     0.001 A 
ATOM     36  C   LIG d   1      10.715  -2.001  -8.805  0.00  0.00    -0.049 A 
ATOM     37  C   LIG d   1       7.950  -1.599  -8.743  0.00  0.00    -0.053 A 
ATOM     38  C   LIG d   1       8.530  -2.346  -9.746  0.00  0.00    -0.061 A 
ATOM     39  H   LIG d   1       6.880  -1.449  -8.727  0.00  0.00     0.062 H 
ATOM     40  C   LIG d   1       9.903  -2.545  -9.776  0.00  0.00    -0.061 A 
ATOM     41  H   LIG d   1       7.910  -2.781 -10.515  0.00  0.00     0.062 H 
ATOM     42  H   LIG d   1      10.341  -3.132 -10.569  0.00  0.00     0.062 H 
ATOM     43  H   LIG d   1      11.782  -2.160  -8.835  0.00  0.00     0.062 H 
BRANCH  30  44
ATOM     44  C   LIG d   1      11.195   0.684  -4.705  0.00  0.00     0.015 C 
ATOM     45  H   LIG d   1      10.669   1.530  -4.262  0.00  0.00     0.046 H 
ATOM     46  H   LIG d   1      11.398  -0.061  -3.937  0.00  0.00     0.046 H 
ATOM     47  H   LIG d   1      12.136   1.027  -5.137  0.00  0.00     0.046 H 
ENDBRANCH  30  44
ENDBRANCH   1  28
BRANCH   6  48
ATOM     48  O   LIG d   1       3.957  -3.204  -4.633  0.00  0.00    -0.388 OA
ATOM     49  H   LIG d   1       3.085  -3.071  -5.030  0.00  0.00     0.210 HD
ENDBRANCH   6  48
TORSDOF 3
ENDMDL
MODEL 10
REMARK VINA RESULT:      -6.0      2.297      2.924
REMARK  3 active torsions:
REMARK  status: ('A' for Active; 'I' for Inactive)
REMARK    1  A    between atoms: C_1  and  N_2 
REMARK    2  A    between atoms: C_4  and  C_13 
REMARK       I    between atoms: C_13  and  N_15 
REMARK    3  A    between atoms: C_18  and  O_26 
ROOT
ATOM      1  C   LIG d   1       7.166  -2.239  -6.053  0.00  0.00     0.249 C 
ATOM      2  O   LIG d   1       7.876  -3.059  -5.502  0.00  0.00    -0.270 OA
ATOM      3  N   LIG d   1       6.650  -1.214  -5.348  0.00  0.00    -0.297 N 
ATOM      4  C   LIG d   1       5.696  -0.283  -5.968  0.00  0.00     0.018 C 
ATOM      5  C   LIG d   1       4.437  -0.216  -5.100  0.00  0.00    -0.008 C 
ATOM      6  C   LIG d   1       4.828   0.153  -3.666  0.00  0.00     0.072 C 
ATOM      7  C   LIG d   1       3.565   0.238  -2.804  0.00  0.00    -0.024 C 
ATOM      8  C   LIG d   1       2.846  -1.112  -2.825  0.00  0.00    -0.050 C 
ATOM      9  C   LIG d   1       3.770  -2.194  -2.265  0.00  0.00    -0.053 C 
ATOM     10  C   LIG d   1       5.038  -2.275  -3.119  0.00  0.00    -0.046 C 
ATOM     11  C   LIG d   1       5.754  -0.924  -3.095  0.00  0.00     0.004 C 
ATOM     12  H   LIG d   1       6.018  -0.670  -2.068  0.00  0.00     0.034 H 
ATOM     13  C   LIG d   1       7.022  -1.006  -3.942  0.00  0.00     0.020 C 
ATOM     14  H   LIG d   1       6.144   0.708  -6.038  0.00  0.00     0.046 H 
ATOM     15  H   LIG d   1       5.433  -0.639  -6.964  0.00  0.00     0.046 H 
ATOM     16  H   LIG d   1       3.759   0.539  -5.497  0.00  0.00     0.031 H 
ATOM     17  H   LIG d   1       3.941  -1.187  -5.102  0.00  0.00     0.031 H 
ATOM     18  H   LIG d   1       3.840   0.489  -1.780  0.00  0.00     0.029 H 
ATOM     19  H   LIG d   1       2.904   1.009  -3.203  0.00  0.00     0.029 H 
ATOM     20  H   LIG d   1       1.945  -1.052  -2.214  0.00  0.00     0.027 H 
ATOM     21  H   LIG d   1       2.573  -1.362  -3.850  0.00  0.00     0.027 H 
ATOM     22  H   LIG d   1       4.040  -1.945  -1.238  0.00  0.00     0.026 H 
ATOM     23  H   LIG d   1       3.258  -3.155  -2.284  0.00  0.00     0.026 H 
ATOM     24  H   LIG d   1       5.698  -3.044  -2.718  0.00  0.00     0.027 H 
ATOM     25  H   LIG d   1       4.769  -2.526  -4.146  0.00  0.00     0.027 H 
ATOM     26  H   LIG d   1       7.634  -1.841  -3.600  0.00  0.00     0.047 H 
ATOM     27  H   LIG d   1       7.583  -0.077  -3.847  0.00  0.00     0.047 H 
ENDROOT
BRANCH   1  28
ATOM     28  C   LIG d   1       6.872  -2.367  -7.488  0.00  0.00     0.061 A 
ATOM     29  C   LIG d   1       7.677  -1.774  -8.414  0.00  0.00     0.020 A 
ATOM     30  N   LIG d   1       7.440  -1.869  -9.744  0.00  0.00    -0.317 N 
ATOM     31  H   LIG d   1       8.534  -1.208  -8.075  0.00  0.00     0.082 H 
ATOM     32  C   LIG d   1       6.392  -2.549 -10.247  0.00  0.00     0.259 A 
ATOM     33  C   LIG d   1       5.467  -3.232  -9.334  0.00  0.00     0.047 A 
ATOM     34  O   LIG d   1       6.217  -2.603 -11.450  0.00  0.00    -0.267 OA
ATOM     35  C   LIG d   1       5.704  -3.139  -7.946  0.00  0.00     0.001 A 
ATOM     36  C   LIG d   1       4.370  -3.955  -9.802  0.00  0.00    -0.049 A 
ATOM     37  C   LIG d   1       4.842  -3.770  -7.053  0.00  0.00    -0.053 A 
ATOM     38  C   LIG d   1       3.763  -4.479  -7.535  0.00  0.00    -0.061 A 
ATOM     39  H   LIG d   1       5.017  -3.703  -5.989  0.00  0.00     0.062 H 
ATOM     40  C   LIG d   1       3.529  -4.571  -8.900  0.00  0.00    -0.061 A 
ATOM     41  H   LIG d   1       3.093  -4.970  -6.844  0.00  0.00     0.062 H 
ATOM     42  H   LIG d   1       2.679  -5.131  -9.261  0.00  0.00     0.062 H 
ATOM     43  H   LIG d   1       4.181  -4.031 -10.862  0.00  0.00     0.062 H 
BRANCH  30  44
ATOM     44  C   LIG d   1       8.356  -1.199 -10.672  0.00  0.00     0.015 C 
ATOM     45  H   LIG d   1       9.365  -1.212 -10.259  0.00  0.00     0.046 H 
ATOM     46  H   LIG d   1       8.348  -1.720 -11.629  0.00  0.00     0.046 H 
ATOM     47  H   LIG d   1       8.036  -0.167 -10.816  0.00  0.00     0.046 H 
ENDBRANCH  30  44
ENDBRANCH   1  28
BRANCH   6  48
ATOM     48  O   LIG d   1       5.501   1.413  -3.663  0.00  0.00    -0.388 OA
ATOM     49  H   LIG d   1       6.363   1.400  -4.102  0.00  0.00     0.210 HD
ENDBRANCH   6  48
TORSDOF 3
ENDMDL
