MODEL 1
REMARK VINA RESULT:      -5.7      0.000      0.000
REMARK  6 active torsions:
REMARK  status: ('A' for Active; 'I' for Inactive)
REMARK    1  A    between atoms: C_1  and  C_2 
REMARK    2  A    between atoms: C_2  and  O_3 
REMARK    3  A    between atoms: O_3  and  C_4 
REMARK    4  A    between atoms: C_4  and  C_6 
REMARK    5  A    between atoms: C_8  and  O_16 
REMARK    6  A    between atoms: O_16  and  C_17 
ROOT
ATOM      1  C   LIG d   1       3.443  -0.029  -6.687  0.00  0.00     0.152 A 
ATOM      2  C   LIG d   1       4.082  -1.264  -6.846  0.00  0.00     0.013 A 
ATOM      3  C   LIG d   1       4.535  -1.947  -5.732  0.00  0.00     0.132 A 
ATOM      4  C   LIG d   1       4.329  -1.360  -4.463  0.00  0.00     0.042 A 
ATOM      5  C   LIG d   1       4.761  -1.992  -3.289  0.00  0.00    -0.049 A 
ATOM      6  C   LIG d   1       4.545  -1.397  -2.083  0.00  0.00    -0.061 A 
ATOM      7  C   LIG d   1       3.900  -0.164  -2.000  0.00  0.00    -0.060 A 
ATOM      8  C   LIG d   1       3.468   0.479  -3.118  0.00  0.00    -0.036 A 
ATOM      9  C   LIG d   1       3.672  -0.105  -4.383  0.00  0.00     0.075 A 
ATOM     10  N   LIG d   1       3.258   0.505  -5.494  0.00  0.00    -0.240 NA
ATOM     11  H   LIG d   1       4.222  -1.681  -7.832  0.00  0.00     0.068 H 
ATOM     12  H   LIG d   1       5.261  -2.948  -3.340  0.00  0.00     0.062 H 
ATOM     13  H   LIG d   1       4.879  -1.886  -1.180  0.00  0.00     0.062 H 
ATOM     14  H   LIG d   1       3.742   0.288  -1.033  0.00  0.00     0.062 H 
ATOM     15  H   LIG d   1       2.970   1.434  -3.036  0.00  0.00     0.064 H 
ENDROOT
BRANCH   1  16
ATOM     16  C   LIG d   1       2.961   0.696  -7.887  0.00  0.00     0.358 C 
ATOM     17  O   LIG d   1       2.379   0.094  -8.766  0.00  0.00    -0.243 OA
BRANCH  16  18
ATOM     18  O   LIG d   1       3.170   2.021  -8.002  0.00  0.00    -0.460 OA
BRANCH  18  19
ATOM     19  C   LIG d   1       3.845   2.480  -9.203  0.00  0.00     0.090 C 
ATOM     20  H   LIG d   1       3.392   2.010 -10.076  0.00  0.00     0.070 H 
ATOM     21  H   LIG d   1       3.749   3.563  -9.281  0.00  0.00     0.070 H 
BRANCH  19  22
ATOM     22  C   LIG d   1       5.325   2.102  -9.132  0.00  0.00    -0.031 C 
ATOM     23  H   LIG d   1       5.503   1.495  -8.244  0.00  0.00     0.026 H 
ATOM     24  H   LIG d   1       5.599   1.534 -10.022  0.00  0.00     0.026 H 
ATOM     25  H   LIG d   1       5.930   3.008  -9.080  0.00  0.00     0.026 H 
ENDBRANCH  19  22
ENDBRANCH  18  19
ENDBRANCH  16  18
ENDBRANCH   1  16
BRANCH   3  26
ATOM     26  O   LIG d   1       5.158  -3.146  -5.853  0.00  0.00    -0.494 OA
BRANCH  26  27
ATOM     27  C   LIG d   1       4.419  -4.201  -6.470  0.00  0.00     0.079 C 
ATOM     28  H   LIG d   1       4.611  -5.135  -5.943  0.00  0.00     0.066 H 
ATOM     29  H   LIG d   1       3.354  -3.971  -6.428  0.00  0.00     0.066 H 
ATOM     30  H   LIG d   1       4.727  -4.300  -7.511  0.00  0.00     0.066 H 
ENDBRANCH  26  27
ENDBRANCH   3  26
TORSDOF 6
ENDMDL
MODEL 2
REMARK VINA RESULT:      -5.7      1.349      1.509
REMARK  6 active torsions:
REMARK  status: ('A' for Active; 'I' for Inactive)
REMARK    1  A    between atoms: C_1  and  C_2 
REMARK    2  A    between atoms: C_2  and  O_3 
REMARK    3  A    between atoms: O_3  and  C_4 
REMARK    4  A    between atoms: C_4  and  C_6 
REMARK    5  A    between atoms: C_8  and  O_16 
REMARK    6  A    between atoms: O_16  and  C_17 
ROOT
ATOM      1  C   LIG d   1       4.936  -0.587  -6.582  0.00  0.00     0.152 A 
ATOM      2  C   LIG d   1       4.755  -1.970  -6.470  0.00  0.00     0.013 A 
ATOM      3  C   LIG d   1       4.548  -2.533  -5.224  0.00  0.00     0.132 A 
ATOM      4  C   LIG d   1       4.529  -1.675  -4.102  0.00  0.00     0.042 A 
ATOM      5  C   LIG d   1       4.326  -2.173  -2.807  0.00  0.00    -0.049 A 
ATOM      6  C   LIG d   1       4.314  -1.316  -1.749  0.00  0.00    -0.061 A 
ATOM      7  C   LIG d   1       4.502   0.053  -1.935  0.00  0.00    -0.060 A 
ATOM      8  C   LIG d   1       4.702   0.571  -3.176  0.00  0.00    -0.036 A 
ATOM      9  C   LIG d   1       4.721  -0.283  -4.296  0.00  0.00     0.075 A 
ATOM     10  N   LIG d   1       4.916   0.201  -5.523  0.00  0.00    -0.240 NA
ATOM     11  H   LIG d   1       4.776  -2.594  -7.351  0.00  0.00     0.068 H 
ATOM     12  H   LIG d   1       4.179  -3.231  -2.650  0.00  0.00     0.062 H 
ATOM     13  H   LIG d   1       4.157  -1.702  -0.752  0.00  0.00     0.062 H 
ATOM     14  H   LIG d   1       4.489   0.711  -1.079  0.00  0.00     0.062 H 
ATOM     15  H   LIG d   1       4.847   1.634  -3.303  0.00  0.00     0.064 H 
ENDROOT
BRANCH   1  16
ATOM     16  C   LIG d   1       5.157   0.008  -7.922  0.00  0.00     0.358 C 
ATOM     17  O   LIG d   1       5.291  -0.712  -8.890  0.00  0.00    -0.243 OA
BRANCH  16  18
ATOM     18  O   LIG d   1       5.210   1.346  -8.064  0.00  0.00    -0.460 OA
BRANCH  18  19
ATOM     19  C   LIG d   1       4.375   1.932  -9.097  0.00  0.00     0.090 C 
ATOM     20  H   LIG d   1       4.761   2.916  -9.362  0.00  0.00     0.070 H 
ATOM     21  H   LIG d   1       4.383   1.289  -9.978  0.00  0.00     0.070 H 
BRANCH  19  22
ATOM     22  C   LIG d   1       2.942   2.069  -8.579  0.00  0.00    -0.031 C 
ATOM     23  H   LIG d   1       2.514   1.079  -8.429  0.00  0.00     0.026 H 
ATOM     24  H   LIG d   1       2.949   2.610  -7.632  0.00  0.00     0.026 H 
ATOM     25  H   LIG d   1       2.344   2.619  -9.306  0.00  0.00     0.026 H 
ENDBRANCH  19  22
ENDBRANCH  18  19
ENDBRANCH  16  18
ENDBRANCH   1  16
BRANCH   3  26
ATOM     26  O   LIG d   1       4.369  -3.870  -5.083  0.00  0.00    -0.494 OA
BRANCH  26  27
ATOM     27  C   LIG d   1       4.273  -4.641  -6.282  0.00  0.00     0.079 C 
ATOM     28  H   LIG d   1       4.016  -5.670  -6.033  0.00  0.00     0.066 H 
ATOM     29  H   LIG d   1       3.501  -4.219  -6.925  0.00  0.00     0.066 H 
ATOM     30  H   LIG d   1       5.230  -4.621  -6.804  0.00  0.00     0.066 H 
ENDBRANCH  26  27
ENDBRANCH   3  26
TORSDOF 6
ENDMDL
MODEL 3
REMARK VINA RESULT:      -5.4      4.079      5.597
REMARK  6 active torsions:
REMARK  status: ('A' for Active; 'I' for Inactive)
REMARK    1  A    between atoms: C_1  and  C_2 
REMARK    2  A    between atoms: C_2  and  O_3 
REMARK    3  A    between atoms: O_3  and  C_4 
REMARK    4  A    between atoms: C_4  and  C_6 
REMARK    5  A    between atoms: C_8  and  O_16 
REMARK    6  A    between atoms: O_16  and  C_17 
ROOT
ATOM      1  C   LIG d   1       5.072  -4.061  -4.914  0.00  0.00     0.152 A 
ATOM      2  C   LIG d   1       6.329  -3.533  -5.231  0.00  0.00     0.013 A 
ATOM      3  C   LIG d   1       6.729  -2.337  -4.666  0.00  0.00     0.132 A 
ATOM      4  C   LIG d   1       5.838  -1.689  -3.780  0.00  0.00     0.042 A 
ATOM      5  C   LIG d   1       6.175  -0.472  -3.170  0.00  0.00    -0.049 A 
ATOM      6  C   LIG d   1       5.291   0.123  -2.321  0.00  0.00    -0.061 A 
ATOM      7  C   LIG d   1       4.054  -0.460  -2.052  0.00  0.00    -0.060 A 
ATOM      8  C   LIG d   1       3.694  -1.640  -2.626  0.00  0.00    -0.036 A 
ATOM      9  C   LIG d   1       4.581  -2.286  -3.509  0.00  0.00     0.075 A 
ATOM     10  N   LIG d   1       4.251  -3.443  -4.085  0.00  0.00    -0.240 NA
ATOM     11  H   LIG d   1       6.983  -4.057  -5.913  0.00  0.00     0.068 H 
ATOM     12  H   LIG d   1       7.130  -0.011  -3.370  0.00  0.00     0.062 H 
ATOM     13  H   LIG d   1       5.552   1.061  -1.852  0.00  0.00     0.062 H 
ATOM     14  H   LIG d   1       3.371   0.032  -1.376  0.00  0.00     0.062 H 
ATOM     15  H   LIG d   1       2.732  -2.078  -2.407  0.00  0.00     0.064 H 
ENDROOT
BRANCH   1  16
ATOM     16  C   LIG d   1       4.651  -5.344  -5.525  0.00  0.00     0.358 C 
ATOM     17  O   LIG d   1       3.545  -5.450  -6.013  0.00  0.00    -0.243 OA
BRANCH  16  18
ATOM     18  O   LIG d   1       5.497  -6.392  -5.538  0.00  0.00    -0.460 OA
BRANCH  18  19
ATOM     19  C   LIG d   1       4.989  -7.642  -6.077  0.00  0.00     0.090 C 
ATOM     20  H   LIG d   1       4.008  -7.474  -6.521  0.00  0.00     0.070 H 
ATOM     21  H   LIG d   1       5.674  -8.013  -6.839  0.00  0.00     0.070 H 
BRANCH  19  22
ATOM     22  C   LIG d   1       4.870  -8.671  -4.952  0.00  0.00    -0.031 C 
ATOM     23  H   LIG d   1       5.547  -9.503  -5.147  0.00  0.00     0.026 H 
ATOM     24  H   LIG d   1       5.132  -8.203  -4.002  0.00  0.00     0.026 H 
ATOM     25  H   LIG d   1       3.846  -9.041  -4.904  0.00  0.00     0.026 H 
ENDBRANCH  19  22
ENDBRANCH  18  19
ENDBRANCH  16  18
ENDBRANCH   1  16
BRANCH   3  26
ATOM     26  O   LIG d   1       7.942  -1.800  -4.952  0.00  0.00    -0.494 OA
BRANCH  26  27
ATOM     27  C   LIG d   1       9.084  -2.633  -4.747  0.00  0.00     0.079 C 
ATOM     28  H   LIG d   1       9.930  -2.020  -4.436  0.00  0.00     0.066 H 
ATOM     29  H   LIG d   1       8.863  -3.368  -3.973  0.00  0.00     0.066 H 
ATOM     30  H   LIG d   1       9.330  -3.148  -5.677  0.00  0.00     0.066 H 
ENDBRANCH  26  27
ENDBRANCH   3  26
TORSDOF 6
ENDMDL
MODEL 4
REMARK VINA RESULT:      -5.4      1.667      1.993
REMARK  6 active torsions:
REMARK  status: ('A' for Active; 'I' for Inactive)
REMARK    1  A    between atoms: C_1  and  C_2 
REMARK    2  A    between atoms: C_2  and  O_3 
REMARK    3  A    between atoms: O_3  and  C_4 
REMARK    4  A    between atoms: C_4  and  C_6 
REMARK    5  A    between atoms: C_8  and  O_16 
REMARK    6  A    between atoms: O_16  and  C_17 
ROOT
ATOM      1  C   LIG d   1       4.197  -0.656  -6.451  0.00  0.00     0.152 A 
ATOM      2  C   LIG d   1       5.396  -1.277  -6.083  0.00  0.00     0.013 A 
ATOM      3  C   LIG d   1       5.881  -1.118  -4.798  0.00  0.00     0.132 A 
ATOM      4  C   LIG d   1       5.133  -0.323  -3.899  0.00  0.00     0.042 A 
ATOM      5  C   LIG d   1       5.563  -0.115  -2.581  0.00  0.00    -0.049 A 
ATOM      6  C   LIG d   1       4.817   0.657  -1.743  0.00  0.00    -0.061 A 
ATOM      7  C   LIG d   1       3.631   1.246  -2.178  0.00  0.00    -0.060 A 
ATOM      8  C   LIG d   1       3.184   1.067  -3.450  0.00  0.00    -0.036 A 
ATOM      9  C   LIG d   1       3.928   0.275  -4.347  0.00  0.00     0.075 A 
ATOM     10  N   LIG d   1       3.512   0.084  -5.599  0.00  0.00    -0.240 NA
ATOM     11  H   LIG d   1       5.940  -1.877  -6.797  0.00  0.00     0.068 H 
ATOM     12  H   LIG d   1       6.479  -0.566  -2.231  0.00  0.00     0.062 H 
ATOM     13  H   LIG d   1       5.149   0.816  -0.727  0.00  0.00     0.062 H 
ATOM     14  H   LIG d   1       3.058   1.855  -1.495  0.00  0.00     0.062 H 
ATOM     15  H   LIG d   1       2.264   1.530  -3.773  0.00  0.00     0.064 H 
ENDROOT
BRANCH   1  16
ATOM     16  C   LIG d   1       3.686  -0.832  -7.831  0.00  0.00     0.358 C 
ATOM     17  O   LIG d   1       4.345  -1.440  -8.650  0.00  0.00    -0.243 OA
BRANCH  16  18
ATOM     18  O   LIG d   1       2.490  -0.318  -8.177  0.00  0.00    -0.460 OA
BRANCH  18  19
ATOM     19  C   LIG d   1       2.480   0.669  -9.242  0.00  0.00     0.090 C 
ATOM     20  H   LIG d   1       3.192   0.377 -10.014  0.00  0.00     0.070 H 
ATOM     21  H   LIG d   1       1.481   0.728  -9.672  0.00  0.00     0.070 H 
BRANCH  19  22
ATOM     22  C   LIG d   1       2.873   2.034  -8.676  0.00  0.00    -0.031 C 
ATOM     23  H   LIG d   1       3.910   2.005  -8.342  0.00  0.00     0.026 H 
ATOM     24  H   LIG d   1       2.761   2.794  -9.450  0.00  0.00     0.026 H 
ATOM     25  H   LIG d   1       2.226   2.278  -7.832  0.00  0.00     0.026 H 
ENDBRANCH  19  22
ENDBRANCH  18  19
ENDBRANCH  16  18
ENDBRANCH   1  16
BRANCH   3  26
ATOM     26  O   LIG d   1       7.039  -1.708  -4.410  0.00  0.00    -0.494 OA
BRANCH  26  27
ATOM     27  C   LIG d   1       7.060  -3.135  -4.376  0.00  0.00     0.079 C 
ATOM     28  H   LIG d   1       8.004  -3.476  -3.952  0.00  0.00     0.066 H 
ATOM     29  H   LIG d   1       6.234  -3.497  -3.764  0.00  0.00     0.066 H 
ATOM     30  H   LIG d   1       6.955  -3.524  -5.390  0.00  0.00     0.066 H 
ENDBRANCH  26  27
ENDBRANCH   3  26
TORSDOF 6
ENDMDL
MODEL 5
REMARK VINA RESULT:      -5.1      2.059      5.273
REMARK  6 active torsions:
REMARK  status: ('A' for Active; 'I' for Inactive)
REMARK    1  A    between atoms: C_1  and  C_2 
REMARK    2  A    between atoms: C_2  and  O_3 
REMARK    3  A    between atoms: O_3  and  C_4 
REMARK    4  A    between atoms: C_4  and  C_6 
REMARK    5  A    between atoms: C_8  and  O_16 
REMARK    6  A    between atoms: O_16  and  C_17 
ROOT
ATOM      1  C   LIG d   1       4.139  -0.499  -6.322  0.00  0.00     0.152 A 
ATOM      2  C   LIG d   1       4.340  -1.674  -7.055  0.00  0.00     0.013 A 
ATOM      3  C   LIG d   1       4.315  -1.630  -8.437  0.00  0.00     0.132 A 
ATOM      4  C   LIG d   1       4.086  -0.381  -9.058  0.00  0.00     0.042 A 
ATOM      5  C   LIG d   1       4.047  -0.258 -10.454  0.00  0.00    -0.049 A 
ATOM      6  C   LIG d   1       3.823   0.962 -11.017  0.00  0.00    -0.061 A 
ATOM      7  C   LIG d   1       3.631   2.092 -10.224  0.00  0.00    -0.060 A 
ATOM      8  C   LIG d   1       3.663   2.010  -8.867  0.00  0.00    -0.036 A 
ATOM      9  C   LIG d   1       3.891   0.766  -8.246  0.00  0.00     0.075 A 
ATOM     10  N   LIG d   1       3.926   0.660  -6.918  0.00  0.00    -0.240 NA
ATOM     11  H   LIG d   1       4.512  -2.611  -6.545  0.00  0.00     0.068 H 
ATOM     12  H   LIG d   1       4.194  -1.125 -11.079  0.00  0.00     0.062 H 
ATOM     13  H   LIG d   1       3.793   1.054 -12.093  0.00  0.00     0.062 H 
ATOM     14  H   LIG d   1       3.455   3.047 -10.694  0.00  0.00     0.062 H 
ATOM     15  H   LIG d   1       3.512   2.895  -8.266  0.00  0.00     0.064 H 
ENDROOT
BRANCH   1  16
ATOM     16  C   LIG d   1       4.167  -0.557  -4.841  0.00  0.00     0.358 C 
ATOM     17  O   LIG d   1       3.953  -1.607  -4.271  0.00  0.00    -0.243 OA
BRANCH  16  18
ATOM     18  O   LIG d   1       4.429   0.556  -4.129  0.00  0.00    -0.460 OA
BRANCH  18  19
ATOM     19  C   LIG d   1       3.613   0.791  -2.951  0.00  0.00     0.090 C 
ATOM     20  H   LIG d   1       3.058   1.721  -3.073  0.00  0.00     0.070 H 
ATOM     21  H   LIG d   1       2.914  -0.035  -2.823  0.00  0.00     0.070 H 
BRANCH  19  22
ATOM     22  C   LIG d   1       4.514   0.892  -1.719  0.00  0.00    -0.031 C 
ATOM     23  H   LIG d   1       4.378   0.009  -1.096  0.00  0.00     0.026 H 
ATOM     24  H   LIG d   1       5.555   0.960  -2.035  0.00  0.00     0.026 H 
ATOM     25  H   LIG d   1       4.250   1.783  -1.148  0.00  0.00     0.026 H 
ENDBRANCH  19  22
ENDBRANCH  18  19
ENDBRANCH  16  18
ENDBRANCH   1  16
BRANCH   3  26
ATOM     26  O   LIG d   1       4.507  -2.751  -9.176  0.00  0.00    -0.494 OA
BRANCH  26  27
ATOM     27  C   LIG d   1       3.541  -3.793  -9.033  0.00  0.00     0.079 C 
ATOM     28  H   LIG d   1       3.549  -4.421  -9.924  0.00  0.00     0.066 H 
ATOM     29  H   LIG d   1       3.784  -4.398  -8.159  0.00  0.00     0.066 H 
ATOM     30  H   LIG d   1       2.550  -3.355  -8.906  0.00  0.00     0.066 H 
ENDBRANCH  26  27
ENDBRANCH   3  26
TORSDOF 6
ENDMDL
MODEL 6
REMARK VINA RESULT:      -5.0      1.680      4.761
REMARK  6 active torsions:
REMARK  status: ('A' for Active; 'I' for Inactive)
REMARK    1  A    between atoms: C_1  and  C_2 
REMARK    2  A    between atoms: C_2  and  O_3 
REMARK    3  A    between atoms: O_3  and  C_4 
REMARK    4  A    between atoms: C_4  and  C_6 
REMARK    5  A    between atoms: C_8  and  O_16 
REMARK    6  A    between atoms: O_16  and  C_17 
ROOT
ATOM      1  C   LIG d   1       4.905  -2.373  -5.608  0.00  0.00     0.152 A 
ATOM      2  C   LIG d   1       4.234  -1.406  -6.365  0.00  0.00     0.013 A 
ATOM      3  C   LIG d   1       3.744  -0.272  -5.745  0.00  0.00     0.132 A 
ATOM      4  C   LIG d   1       3.945  -0.136  -4.352  0.00  0.00     0.042 A 
ATOM      5  C   LIG d   1       3.476   0.985  -3.654  0.00  0.00    -0.049 A 
ATOM      6  C   LIG d   1       3.687   1.082  -2.312  0.00  0.00    -0.061 A 
ATOM      7  C   LIG d   1       4.364   0.078  -1.621  0.00  0.00    -0.060 A 
ATOM      8  C   LIG d   1       4.833  -1.024  -2.265  0.00  0.00    -0.036 A 
ATOM      9  C   LIG d   1       4.634  -1.160  -3.653  0.00  0.00     0.075 A 
ATOM     10  N   LIG d   1       5.083  -2.232  -4.307  0.00  0.00    -0.240 NA
ATOM     11  H   LIG d   1       4.100  -1.544  -7.428  0.00  0.00     0.068 H 
ATOM     12  H   LIG d   1       2.951   1.770  -4.178  0.00  0.00     0.062 H 
ATOM     13  H   LIG d   1       3.325   1.947  -1.776  0.00  0.00     0.062 H 
ATOM     14  H   LIG d   1       4.518   0.177  -0.557  0.00  0.00     0.062 H 
ATOM     15  H   LIG d   1       5.355  -1.793  -1.715  0.00  0.00     0.064 H 
ENDROOT
BRANCH   1  16
ATOM     16  C   LIG d   1       5.426  -3.586  -6.282  0.00  0.00     0.358 C 
ATOM     17  O   LIG d   1       5.705  -3.551  -7.463  0.00  0.00    -0.243 OA
BRANCH  16  18
ATOM     18  O   LIG d   1       5.589  -4.726  -5.584  0.00  0.00    -0.460 OA
BRANCH  18  19
ATOM     19  C   LIG d   1       4.523  -5.709  -5.670  0.00  0.00     0.090 C 
ATOM     20  H   LIG d   1       3.794  -5.524  -4.881  0.00  0.00     0.070 H 
ATOM     21  H   LIG d   1       4.035  -5.631  -6.641  0.00  0.00     0.070 H 
BRANCH  19  22
ATOM     22  C   LIG d   1       5.109  -7.113  -5.504  0.00  0.00    -0.031 C 
ATOM     23  H   LIG d   1       5.264  -7.560  -6.486  0.00  0.00     0.026 H 
ATOM     24  H   LIG d   1       6.062  -7.049  -4.978  0.00  0.00     0.026 H 
ATOM     25  H   LIG d   1       4.418  -7.729  -4.929  0.00  0.00     0.026 H 
ENDBRANCH  19  22
ENDBRANCH  18  19
ENDBRANCH  16  18
ENDBRANCH   1  16
BRANCH   3  26
ATOM     26  O   LIG d   1       3.091   0.685  -6.451  0.00  0.00    -0.494 OA
BRANCH  26  27
ATOM     27  C   LIG d   1       2.956   0.472  -7.857  0.00  0.00     0.079 C 
ATOM     28  H   LIG d   1       1.908   0.565  -8.140  0.00  0.00     0.066 H 
ATOM     29  H   LIG d   1       3.546   1.213  -8.396  0.00  0.00     0.066 H 
ATOM     30  H   LIG d   1       3.313  -0.528  -8.110  0.00  0.00     0.066 H 
ENDBRANCH  26  27
ENDBRANCH   3  26
TORSDOF 6
ENDMDL
MODEL 7
REMARK VINA RESULT:      -4.9      4.097      6.052
REMARK  6 active torsions:
REMARK  status: ('A' for Active; 'I' for Inactive)
REMARK    1  A    between atoms: C_1  and  C_2 
REMARK    2  A    between atoms: C_2  and  O_3 
REMARK    3  A    between atoms: O_3  and  C_4 
REMARK    4  A    between atoms: C_4  and  C_6 
REMARK    5  A    between atoms: C_8  and  O_16 
REMARK    6  A    between atoms: O_16  and  C_17 
ROOT
ATOM      1  C   LIG d   1       7.405  -1.807  -4.087  0.00  0.00     0.152 A 
ATOM      2  C   LIG d   1       7.718  -0.444  -4.024  0.00  0.00     0.013 A 
ATOM      3  C   LIG d   1       6.756   0.460  -3.614  0.00  0.00     0.132 A 
ATOM      4  C   LIG d   1       5.478  -0.039  -3.271  0.00  0.00     0.042 A 
ATOM      5  C   LIG d   1       4.452   0.816  -2.848  0.00  0.00    -0.049 A 
ATOM      6  C   LIG d   1       3.234   0.300  -2.525  0.00  0.00    -0.061 A 
ATOM      7  C   LIG d   1       2.992  -1.070  -2.611  0.00  0.00    -0.060 A 
ATOM      8  C   LIG d   1       3.964  -1.930  -3.018  0.00  0.00    -0.036 A 
ATOM      9  C   LIG d   1       5.237  -1.434  -3.361  0.00  0.00     0.075 A 
ATOM     10  N   LIG d   1       6.207  -2.257  -3.763  0.00  0.00    -0.240 NA
ATOM     11  H   LIG d   1       8.706  -0.100  -4.294  0.00  0.00     0.068 H 
ATOM     12  H   LIG d   1       4.627   1.879  -2.776  0.00  0.00     0.062 H 
ATOM     13  H   LIG d   1       2.444   0.961  -2.199  0.00  0.00     0.062 H 
ATOM     14  H   LIG d   1       2.018  -1.455  -2.351  0.00  0.00     0.062 H 
ATOM     15  H   LIG d   1       3.761  -2.989  -3.080  0.00  0.00     0.064 H 
ENDROOT
BRANCH   1  16
ATOM     16  C   LIG d   1       8.444  -2.768  -4.528  0.00  0.00     0.358 C 
ATOM     17  O   LIG d   1       9.584  -2.391  -4.703  0.00  0.00    -0.243 OA
BRANCH  16  18
ATOM     18  O   LIG d   1       8.121  -4.060  -4.734  0.00  0.00    -0.460 OA
BRANCH  18  19
ATOM     19  C   LIG d   1       8.939  -5.058  -4.067  0.00  0.00     0.090 C 
ATOM     20  H   LIG d   1       9.990  -4.871  -4.286  0.00  0.00     0.070 H 
ATOM     21  H   LIG d   1       8.775  -5.000  -2.991  0.00  0.00     0.070 H 
BRANCH  19  22
ATOM     22  C   LIG d   1       8.553  -6.450  -4.568  0.00  0.00    -0.031 C 
ATOM     23  H   LIG d   1       7.552  -6.418  -4.998  0.00  0.00     0.026 H 
ATOM     24  H   LIG d   1       9.266  -6.774  -5.328  0.00  0.00     0.026 H 
ATOM     25  H   LIG d   1       8.567  -7.153  -3.735  0.00  0.00     0.026 H 
ENDBRANCH  19  22
ENDBRANCH  18  19
ENDBRANCH  16  18
ENDBRANCH   1  16
BRANCH   3  26
ATOM     26  O   LIG d   1       7.029   1.787  -3.542  0.00  0.00    -0.494 OA
BRANCH  26  27
ATOM     27  C   LIG d   1       8.358   2.193  -3.869  0.00  0.00     0.079 C 
ATOM     28  H   LIG d   1       8.707   1.632  -4.735  0.00  0.00     0.066 H 
ATOM     29  H   LIG d   1       8.368   3.258  -4.097  0.00  0.00     0.066 H 
ATOM     30  H   LIG d   1       9.016   1.999  -3.021  0.00  0.00     0.066 H 
ENDBRANCH  26  27
ENDBRANCH   3  26
TORSDOF 6
ENDMDL
MODEL 8
REMARK VINA RESULT:      -4.7      3.714      3.916
REMARK  6 active torsions:
REMARK  status: ('A' for Active; 'I' for Inactive)
REMARK    1  A    between atoms: C_1  and  C_2 
REMARK    2  A    between atoms: C_2  and  O_3 
REMARK    3  A    between atoms: O_3  and  C_4 
REMARK    4  A    between atoms: C_4  and  C_6 
REMARK    5  A    between atoms: C_8  and  O_16 
REMARK    6  A    between atoms: O_16  and  C_17 
ROOT
ATOM      1  C   LIG d   1       7.501   0.221  -5.356  0.00  0.00     0.152 A 
ATOM      2  C   LIG d   1       7.424  -1.177  -5.329  0.00  0.00     0.013 A 
ATOM      3  C   LIG d   1       6.607  -1.797  -4.402  0.00  0.00     0.132 A 
ATOM      4  C   LIG d   1       5.875  -0.981  -3.509  0.00  0.00     0.042 A 
ATOM      5  C   LIG d   1       5.028  -1.539  -2.541  0.00  0.00    -0.049 A 
ATOM      6  C   LIG d   1       4.338  -0.722  -1.698  0.00  0.00    -0.061 A 
ATOM      7  C   LIG d   1       4.464   0.664  -1.782  0.00  0.00    -0.060 A 
ATOM      8  C   LIG d   1       5.277   1.240  -2.708  0.00  0.00    -0.036 A 
ATOM      9  C   LIG d   1       6.007   0.428  -3.598  0.00  0.00     0.075 A 
ATOM     10  N   LIG d   1       6.811   0.968  -4.515  0.00  0.00    -0.240 NA
ATOM     11  H   LIG d   1       7.999  -1.767  -6.027  0.00  0.00     0.068 H 
ATOM     12  H   LIG d   1       4.921  -2.611  -2.466  0.00  0.00     0.062 H 
ATOM     13  H   LIG d   1       3.685  -1.153  -0.953  0.00  0.00     0.062 H 
ATOM     14  H   LIG d   1       3.908   1.290  -1.101  0.00  0.00     0.062 H 
ATOM     15  H   LIG d   1       5.364   2.315  -2.760  0.00  0.00     0.064 H 
ENDROOT
BRANCH   1  16
ATOM     16  C   LIG d   1       8.380   0.877  -6.354  0.00  0.00     0.358 C 
ATOM     17  O   LIG d   1       9.050   0.203  -7.109  0.00  0.00    -0.243 OA
BRANCH  16  18
ATOM     18  O   LIG d   1       8.435   2.221  -6.421  0.00  0.00    -0.460 OA
BRANCH  18  19
ATOM     19  C   LIG d   1       9.478   2.796  -7.252  0.00  0.00     0.090 C 
ATOM     20  H   LIG d   1      10.358   2.153  -7.228  0.00  0.00     0.070 H 
ATOM     21  H   LIG d   1       9.119   2.883  -8.277  0.00  0.00     0.070 H 
BRANCH  19  22
ATOM     22  C   LIG d   1       9.846   4.183  -6.720  0.00  0.00    -0.031 C 
ATOM     23  H   LIG d   1       8.962   4.654  -6.290  0.00  0.00     0.026 H 
ATOM     24  H   LIG d   1      10.616   4.086  -5.954  0.00  0.00     0.026 H 
ATOM     25  H   LIG d   1      10.223   4.798  -7.538  0.00  0.00     0.026 H 
ENDBRANCH  19  22
ENDBRANCH  18  19
ENDBRANCH  16  18
ENDBRANCH   1  16
BRANCH   3  26
ATOM     26  O   LIG d   1       6.510  -3.149  -4.350  0.00  0.00    -0.494 OA
BRANCH  26  27
ATOM     27  C   LIG d   1       7.630  -3.898  -4.824  0.00  0.00     0.079 C 
ATOM     28  H   LIG d   1       7.331  -4.492  -5.687  0.00  0.00     0.066 H 
ATOM     29  H   LIG d   1       8.429  -3.214  -5.112  0.00  0.00     0.066 H 
ATOM     30  H   LIG d   1       7.987  -4.558  -4.033  0.00  0.00     0.066 H 
ENDBRANCH  26  27
ENDBRANCH   3  26
TORSDOF 6
ENDMDL
MODEL 9
REMARK VINA RESULT:      -4.6      2.056      3.469
REMARK  6 active torsions:
REMARK  status: ('A' for Active; 'I' for Inactive)
REMARK    1  A    between atoms: C_1  and  C_2 
REMARK    2  A    between atoms: C_2  and  O_3 
REMARK    3  A    between atoms: O_3  and  C_4 
REMARK    4  A    between atoms: C_4  and  C_6 
REMARK    5  A    between atoms: C_8  and  O_16 
REMARK    6  A    between atoms: O_16  and  C_17 
ROOT
ATOM      1  C   LIG d   1       3.737  -0.127  -6.327  0.00  0.00     0.152 A 
ATOM      2  C   LIG d   1       3.276   0.109  -5.027  0.00  0.00     0.013 A 
ATOM      3  C   LIG d   1       3.997  -0.372  -3.950  0.00  0.00     0.132 A 
ATOM      4  C   LIG d   1       5.186  -1.089  -4.212  0.00  0.00     0.042 A 
ATOM      5  C   LIG d   1       5.969  -1.607  -3.171  0.00  0.00    -0.049 A 
ATOM      6  C   LIG d   1       7.109  -2.294  -3.462  0.00  0.00    -0.061 A 
ATOM      7  C   LIG d   1       7.508  -2.490  -4.783  0.00  0.00    -0.060 A 
ATOM      8  C   LIG d   1       6.773  -2.003  -5.818  0.00  0.00    -0.036 A 
ATOM      9  C   LIG d   1       5.588  -1.287  -5.558  0.00  0.00     0.075 A 
ATOM     10  N   LIG d   1       4.850  -0.800  -6.556  0.00  0.00    -0.240 NA
ATOM     11  H   LIG d   1       2.362   0.661  -4.866  0.00  0.00     0.068 H 
ATOM     12  H   LIG d   1       5.671  -1.461  -2.144  0.00  0.00     0.062 H 
ATOM     13  H   LIG d   1       7.711  -2.691  -2.658  0.00  0.00     0.062 H 
ATOM     14  H   LIG d   1       8.415  -3.039  -4.987  0.00  0.00     0.062 H 
ATOM     15  H   LIG d   1       7.095  -2.164  -6.836  0.00  0.00     0.064 H 
ENDROOT
BRANCH   1  16
ATOM     16  C   LIG d   1       2.956   0.391  -7.476  0.00  0.00     0.358 C 
ATOM     17  O   LIG d   1       3.047   1.560  -7.793  0.00  0.00    -0.243 OA
BRANCH  16  18
ATOM     18  O   LIG d   1       2.147  -0.434  -8.167  0.00  0.00    -0.460 OA
BRANCH  18  19
ATOM     19  C   LIG d   1       2.590  -0.836  -9.490  0.00  0.00     0.090 C 
ATOM     20  H   LIG d   1       3.359  -0.148  -9.841  0.00  0.00     0.070 H 
ATOM     21  H   LIG d   1       3.000  -1.845  -9.444  0.00  0.00     0.070 H 
BRANCH  19  22
ATOM     22  C   LIG d   1       1.404  -0.810 -10.456  0.00  0.00    -0.031 C 
ATOM     23  H   LIG d   1       0.828   0.101 -10.299  0.00  0.00     0.026 H 
ATOM     24  H   LIG d   1       1.770  -0.838 -11.482  0.00  0.00     0.026 H 
ATOM     25  H   LIG d   1       0.768  -1.678 -10.274  0.00  0.00     0.026 H 
ENDBRANCH  19  22
ENDBRANCH  18  19
ENDBRANCH  16  18
ENDBRANCH   1  16
BRANCH   3  26
ATOM     26  O   LIG d   1       3.577  -0.159  -2.677  0.00  0.00    -0.494 OA
BRANCH  26  27
ATOM     27  C   LIG d   1       3.775   1.149  -2.140  0.00  0.00     0.079 C 
ATOM     28  H   LIG d   1       2.809   1.624  -1.974  0.00  0.00     0.066 H 
ATOM     29  H   LIG d   1       4.313   1.077  -1.194  0.00  0.00     0.066 H 
ATOM     30  H   LIG d   1       4.358   1.746  -2.842  0.00  0.00     0.066 H 
ENDBRANCH  26  27
ENDBRANCH   3  26
TORSDOF 6
ENDMDL
MODEL 10
REMARK VINA RESULT:      -4.6      4.226      5.811
REMARK  6 active torsions:
REMARK  status: ('A' for Active; 'I' for Inactive)
REMARK    1  A    between atoms: C_1  and  C_2 
REMARK    2  A    between atoms: C_2  and  O_3 
REMARK    3  A    between atoms: O_3  and  C_4 
REMARK    4  A    between atoms: C_4  and  C_6 
REMARK    5  A    between atoms: C_8  and  O_16 
REMARK    6  A    between atoms: O_16  and  C_17 
ROOT
ATOM      1  C   LIG d   1       7.897  -1.443  -4.553  0.00  0.00     0.152 A 
ATOM      2  C   LIG d   1       8.131  -0.075  -4.736  0.00  0.00     0.013 A 
ATOM      3  C   LIG d   1       7.296   0.847  -4.133  0.00  0.00     0.132 A 
ATOM      4  C   LIG d   1       6.228   0.361  -3.345  0.00  0.00     0.042 A 
ATOM      5  C   LIG d   1       5.340   1.236  -2.703  0.00  0.00    -0.049 A 
ATOM      6  C   LIG d   1       4.322   0.732  -1.951  0.00  0.00    -0.061 A 
ATOM      7  C   LIG d   1       4.149  -0.644  -1.812  0.00  0.00    -0.060 A 
ATOM      8  C   LIG d   1       4.991  -1.522  -2.421  0.00  0.00    -0.036 A 
ATOM      9  C   LIG d   1       6.056  -1.040  -3.206  0.00  0.00     0.075 A 
ATOM     10  N   LIG d   1       6.894  -1.880  -3.814  0.00  0.00    -0.240 NA
ATOM     11  H   LIG d   1       8.957   0.258  -5.346  0.00  0.00     0.068 H 
ATOM     12  H   LIG d   1       5.464   2.304  -2.802  0.00  0.00     0.062 H 
ATOM     13  H   LIG d   1       3.639   1.408  -1.457  0.00  0.00     0.062 H 
ATOM     14  H   LIG d   1       3.334  -1.019  -1.212  0.00  0.00     0.062 H 
ATOM     15  H   LIG d   1       4.843  -2.586  -2.304  0.00  0.00     0.064 H 
ENDROOT
BRANCH   1  16
ATOM     16  C   LIG d   1       8.797  -2.424  -5.204  0.00  0.00     0.358 C 
ATOM     17  O   LIG d   1       8.330  -3.342  -5.847  0.00  0.00    -0.243 OA
BRANCH  16  18
ATOM     18  O   LIG d   1      10.132  -2.298  -5.082  0.00  0.00    -0.460 OA
BRANCH  18  19
ATOM     19  C   LIG d   1      10.895  -2.148  -6.309  0.00  0.00     0.090 C 
ATOM     20  H   LIG d   1      10.694  -2.994  -6.966  0.00  0.00     0.070 H 
ATOM     21  H   LIG d   1      10.603  -1.224  -6.806  0.00  0.00     0.070 H 
BRANCH  19  22
ATOM     22  C   LIG d   1      12.388  -2.102  -5.979  0.00  0.00    -0.031 C 
ATOM     23  H   LIG d   1      12.712  -1.064  -5.907  0.00  0.00     0.026 H 
ATOM     24  H   LIG d   1      12.565  -2.606  -5.028  0.00  0.00     0.026 H 
ATOM     25  H   LIG d   1      12.950  -2.605  -6.766  0.00  0.00     0.026 H 
ENDBRANCH  19  22
ENDBRANCH  18  19
ENDBRANCH  16  18
ENDBRANCH   1  16
BRANCH   3  26
ATOM     26  O   LIG d   1       7.496   2.179  -4.291  0.00  0.00    -0.494 OA
BRANCH  26  27
ATOM     27  C   LIG d   1       8.846   2.643  -4.226  0.00  0.00     0.079 C 
ATOM     28  H   LIG d   1       9.417   2.007  -3.550  0.00  0.00     0.066 H 
ATOM     29  H   LIG d   1       9.290   2.610  -5.220  0.00  0.00     0.066 H 
ATOM     30  H   LIG d   1       8.860   3.670  -3.858  0.00  0.00     0.066 H 
ENDBRANCH  26  27
ENDBRANCH   3  26
TORSDOF 6
ENDMDL
