MODEL 1
REMARK VINA RESULT:      -6.2      0.000      0.000
REMARK  2 active torsions:
REMARK  status: ('A' for Active; 'I' for Inactive)
REMARK    1  A    between atoms: C_1  and  C_2 
REMARK    2  A    between atoms: C_11  and  C_13 
ROOT
ATOM      1  C   LIG d   1       4.508   0.033  -2.408  0.00  0.00    -0.050 A 
ATOM      2  C   LIG d   1       4.211  -1.195  -1.833  0.00  0.00    -0.055 A 
ATOM      3  C   LIG d   1       4.123  -2.332  -2.606  0.00  0.00    -0.018 A 
ATOM      4  C   LIG d   1       4.330  -2.254  -3.979  0.00  0.00     0.139 A 
ATOM      5  C   LIG d   1       4.630  -1.006  -4.554  0.00  0.00     0.064 A 
ATOM      6  C   LIG d   1       4.716   0.134  -3.755  0.00  0.00    -0.044 A 
ATOM      7  C   LIG d   1       4.848  -0.940  -6.011  0.00  0.00     0.193 A 
ATOM      8  O   LIG d   1       5.110   0.109  -6.570  0.00  0.00    -0.287 OA
ATOM      9  C   LIG d   1       4.733  -2.203  -6.757  0.00  0.00     0.030 A 
ATOM     10  C   LIG d   1       4.439  -3.338  -6.077  0.00  0.00     0.154 A 
ATOM     11  O   LIG d   1       4.248  -3.355  -4.751  0.00  0.00    -0.453 OA
ATOM     12  H   LIG d   1       4.049  -1.260  -0.767  0.00  0.00     0.062 H 
ATOM     13  H   LIG d   1       3.887  -3.282  -2.147  0.00  0.00     0.065 H 
ATOM     14  H   LIG d   1       4.945   1.091  -4.199  0.00  0.00     0.063 H 
ATOM     15  H   LIG d   1       4.881  -2.226  -7.827  0.00  0.00     0.069 H 
ENDROOT
BRANCH   1  16
ATOM     16  C   LIG d   1       4.600   1.263  -1.542  0.00  0.00    -0.040 C 
ATOM     17  H   LIG d   1       5.601   1.688  -1.620  0.00  0.00     0.028 H 
ATOM     18  H   LIG d   1       3.867   1.997  -1.875  0.00  0.00     0.028 H 
ATOM     19  H   LIG d   1       4.400   0.994  -0.505  0.00  0.00     0.028 H 
ENDBRANCH   1  16
BRANCH  10  20
ATOM     20  C   LIG d   1       4.324  -4.608  -6.830  0.00  0.00     0.107 C 
ATOM     21  O   LIG d   1       4.994  -4.788  -7.826  0.00  0.00    -0.542 OA
ATOM     22  O   LIG d   1       3.476  -5.566  -6.408  0.00  0.00    -0.542 OA
ENDBRANCH  10  20
TORSDOF 2
ENDMDL
MODEL 2
REMARK VINA RESULT:      -5.9      1.769      2.008
REMARK  2 active torsions:
REMARK  status: ('A' for Active; 'I' for Inactive)
REMARK    1  A    between atoms: C_1  and  C_2 
REMARK    2  A    between atoms: C_11  and  C_13 
ROOT
ATOM      1  C   LIG d   1       4.587   0.074  -2.297  0.00  0.00    -0.050 A 
ATOM      2  C   LIG d   1       3.313  -0.426  -2.529  0.00  0.00    -0.055 A 
ATOM      3  C   LIG d   1       3.132  -1.575  -3.268  0.00  0.00    -0.018 A 
ATOM      4  C   LIG d   1       4.234  -2.243  -3.792  0.00  0.00     0.139 A 
ATOM      5  C   LIG d   1       5.521  -1.728  -3.553  0.00  0.00     0.064 A 
ATOM      6  C   LIG d   1       5.685  -0.565  -2.802  0.00  0.00    -0.044 A 
ATOM      7  C   LIG d   1       6.679  -2.448  -4.115  0.00  0.00     0.193 A 
ATOM      8  O   LIG d   1       7.819  -2.055  -3.945  0.00  0.00    -0.287 OA
ATOM      9  C   LIG d   1       6.391  -3.664  -4.891  0.00  0.00     0.030 A 
ATOM     10  C   LIG d   1       5.102  -4.050  -5.045  0.00  0.00     0.154 A 
ATOM     11  O   LIG d   1       4.076  -3.367  -4.517  0.00  0.00    -0.453 OA
ATOM     12  H   LIG d   1       2.455   0.089  -2.124  0.00  0.00     0.062 H 
ATOM     13  H   LIG d   1       2.135  -1.953  -3.445  0.00  0.00     0.065 H 
ATOM     14  H   LIG d   1       6.674  -0.171  -2.621  0.00  0.00     0.063 H 
ATOM     15  H   LIG d   1       7.194  -4.240  -5.331  0.00  0.00     0.069 H 
ENDROOT
BRANCH   1  16
ATOM     16  C   LIG d   1       4.761   1.332  -1.485  0.00  0.00    -0.040 C 
ATOM     17  H   LIG d   1       4.607   1.107  -0.429  0.00  0.00     0.028 H 
ATOM     18  H   LIG d   1       5.769   1.722  -1.629  0.00  0.00     0.028 H 
ATOM     19  H   LIG d   1       4.034   2.077  -1.807  0.00  0.00     0.028 H 
ENDBRANCH   1  16
BRANCH  10  20
ATOM     20  C   LIG d   1       4.814  -5.275  -5.827  0.00  0.00     0.107 C 
ATOM     21  O   LIG d   1       3.667  -5.643  -5.980  0.00  0.00    -0.542 OA
ATOM     22  O   LIG d   1       5.824  -5.981  -6.369  0.00  0.00    -0.542 OA
ENDBRANCH  10  20
TORSDOF 2
ENDMDL
MODEL 3
REMARK VINA RESULT:      -5.9      3.466      5.745
REMARK  2 active torsions:
REMARK  status: ('A' for Active; 'I' for Inactive)
REMARK    1  A    between atoms: C_1  and  C_2 
REMARK    2  A    between atoms: C_11  and  C_13 
ROOT
ATOM      1  C   LIG d   1       4.526  -1.217  -2.561  0.00  0.00    -0.050 A 
ATOM      2  C   LIG d   1       4.211   0.055  -2.104  0.00  0.00    -0.055 A 
ATOM      3  C   LIG d   1       5.026   1.128  -2.390  0.00  0.00    -0.018 A 
ATOM      4  C   LIG d   1       6.180   0.939  -3.144  0.00  0.00     0.139 A 
ATOM      5  C   LIG d   1       6.492  -0.353  -3.603  0.00  0.00     0.064 A 
ATOM      6  C   LIG d   1       5.654  -1.427  -3.303  0.00  0.00    -0.044 A 
ATOM      7  C   LIG d   1       7.719  -0.537  -4.401  0.00  0.00     0.193 A 
ATOM      8  O   LIG d   1       8.045  -1.630  -4.827  0.00  0.00    -0.287 OA
ATOM      9  C   LIG d   1       8.529   0.664  -4.658  0.00  0.00     0.030 A 
ATOM     10  C   LIG d   1       8.112   1.852  -4.156  0.00  0.00     0.154 A 
ATOM     11  O   LIG d   1       6.989   1.976  -3.435  0.00  0.00    -0.453 OA
ATOM     12  H   LIG d   1       3.316   0.206  -1.518  0.00  0.00     0.062 H 
ATOM     13  H   LIG d   1       4.773   2.113  -2.026  0.00  0.00     0.065 H 
ATOM     14  H   LIG d   1       5.896  -2.419  -3.655  0.00  0.00     0.063 H 
ATOM     15  H   LIG d   1       9.440   0.600  -5.236  0.00  0.00     0.069 H 
ENDROOT
BRANCH   1  16
ATOM     16  C   LIG d   1       3.618  -2.376  -2.235  0.00  0.00    -0.040 C 
ATOM     17  H   LIG d   1       2.823  -2.435  -2.979  0.00  0.00     0.028 H 
ATOM     18  H   LIG d   1       4.193  -3.302  -2.244  0.00  0.00     0.028 H 
ATOM     19  H   LIG d   1       3.181  -2.230  -1.247  0.00  0.00     0.028 H 
ENDBRANCH   1  16
BRANCH  10  20
ATOM     20  C   LIG d   1       8.929   3.060  -4.416  0.00  0.00     0.107 C 
ATOM     21  O   LIG d   1       9.133   3.422  -5.556  0.00  0.00    -0.542 OA
ATOM     22  O   LIG d   1       9.445   3.757  -3.386  0.00  0.00    -0.542 OA
ENDBRANCH  10  20
TORSDOF 2
ENDMDL
MODEL 4
REMARK VINA RESULT:      -5.7      2.455      4.311
REMARK  2 active torsions:
REMARK  status: ('A' for Active; 'I' for Inactive)
REMARK    1  A    between atoms: C_1  and  C_2 
REMARK    2  A    between atoms: C_11  and  C_13 
ROOT
ATOM      1  C   LIG d   1       3.613  -1.408  -3.513  0.00  0.00    -0.050 A 
ATOM      2  C   LIG d   1       2.628  -0.432  -3.579  0.00  0.00    -0.055 A 
ATOM      3  C   LIG d   1       2.472   0.336  -4.713  0.00  0.00    -0.018 A 
ATOM      4  C   LIG d   1       3.311   0.137  -5.804  0.00  0.00     0.139 A 
ATOM      5  C   LIG d   1       4.307  -0.853  -5.729  0.00  0.00     0.064 A 
ATOM      6  C   LIG d   1       4.448  -1.621  -4.573  0.00  0.00    -0.044 A 
ATOM      7  C   LIG d   1       5.188  -1.052  -6.895  0.00  0.00     0.193 A 
ATOM      8  O   LIG d   1       6.069  -1.892  -6.893  0.00  0.00    -0.287 OA
ATOM      9  C   LIG d   1       4.950  -0.187  -8.061  0.00  0.00     0.030 A 
ATOM     10  C   LIG d   1       3.953   0.728  -8.002  0.00  0.00     0.154 A 
ATOM     11  O   LIG d   1       3.174   0.878  -6.921  0.00  0.00    -0.453 OA
ATOM     12  H   LIG d   1       1.975  -0.274  -2.733  0.00  0.00     0.062 H 
ATOM     13  H   LIG d   1       1.704   1.095  -4.751  0.00  0.00     0.065 H 
ATOM     14  H   LIG d   1       5.215  -2.380  -4.517  0.00  0.00     0.063 H 
ATOM     15  H   LIG d   1       5.559  -0.281  -8.949  0.00  0.00     0.069 H 
ENDROOT
BRANCH   1  16
ATOM     16  C   LIG d   1       3.763  -2.236  -2.263  0.00  0.00    -0.040 C 
ATOM     17  H   LIG d   1       2.855  -2.817  -2.100  0.00  0.00     0.028 H 
ATOM     18  H   LIG d   1       4.611  -2.912  -2.374  0.00  0.00     0.028 H 
ATOM     19  H   LIG d   1       3.933  -1.580  -1.409  0.00  0.00     0.028 H 
ENDBRANCH   1  16
BRANCH  10  20
ATOM     20  C   LIG d   1       3.715   1.598  -9.177  0.00  0.00     0.107 C 
ATOM     21  O   LIG d   1       2.620   2.090  -9.357  0.00  0.00    -0.542 OA
ATOM     22  O   LIG d   1       4.715   1.846 -10.044  0.00  0.00    -0.542 OA
ENDBRANCH  10  20
TORSDOF 2
ENDMDL
MODEL 5
REMARK VINA RESULT:      -5.1      2.495      5.616
REMARK  2 active torsions:
REMARK  status: ('A' for Active; 'I' for Inactive)
REMARK    1  A    between atoms: C_1  and  C_2 
REMARK    2  A    between atoms: C_11  and  C_13 
ROOT
ATOM      1  C   LIG d   1       3.501  -1.581  -8.447  0.00  0.00    -0.050 A 
ATOM      2  C   LIG d   1       2.722  -0.444  -8.282  0.00  0.00    -0.055 A 
ATOM      3  C   LIG d   1       2.752   0.265  -7.101  0.00  0.00    -0.018 A 
ATOM      4  C   LIG d   1       3.571  -0.159  -6.059  0.00  0.00     0.139 A 
ATOM      5  C   LIG d   1       4.357  -1.311  -6.234  0.00  0.00     0.064 A 
ATOM      6  C   LIG d   1       4.313  -2.016  -7.437  0.00  0.00    -0.044 A 
ATOM      7  C   LIG d   1       5.219  -1.748  -5.120  0.00  0.00     0.193 A 
ATOM      8  O   LIG d   1       5.924  -2.737  -5.208  0.00  0.00    -0.287 OA
ATOM      9  C   LIG d   1       5.188  -0.931  -3.897  0.00  0.00     0.030 A 
ATOM     10  C   LIG d   1       4.383   0.159  -3.862  0.00  0.00     0.154 A 
ATOM     11  O   LIG d   1       3.614   0.522  -4.898  0.00  0.00    -0.453 OA
ATOM     12  H   LIG d   1       2.085  -0.112  -9.088  0.00  0.00     0.062 H 
ATOM     13  H   LIG d   1       2.138   1.146  -6.983  0.00  0.00     0.065 H 
ATOM     14  H   LIG d   1       4.917  -2.902  -7.569  0.00  0.00     0.063 H 
ATOM     15  H   LIG d   1       5.795  -1.194  -3.043  0.00  0.00     0.069 H 
ENDROOT
BRANCH   1  16
ATOM     16  C   LIG d   1       3.452  -2.340  -9.748  0.00  0.00    -0.040 C 
ATOM     17  H   LIG d   1       2.685  -1.909 -10.392  0.00  0.00     0.028 H 
ATOM     18  H   LIG d   1       4.420  -2.276 -10.244  0.00  0.00     0.028 H 
ATOM     19  H   LIG d   1       3.214  -3.385  -9.550  0.00  0.00     0.028 H 
ENDBRANCH   1  16
BRANCH  10  20
ATOM     20  C   LIG d   1       4.353   0.981  -2.630  0.00  0.00     0.107 C 
ATOM     21  O   LIG d   1       3.294   1.230  -2.091  0.00  0.00    -0.542 OA
ATOM     22  O   LIG d   1       5.501   1.451  -2.105  0.00  0.00    -0.542 OA
ENDBRANCH  10  20
TORSDOF 2
ENDMDL
MODEL 6
REMARK VINA RESULT:      -5.1      3.293      5.990
REMARK  2 active torsions:
REMARK  status: ('A' for Active; 'I' for Inactive)
REMARK    1  A    between atoms: C_1  and  C_2 
REMARK    2  A    between atoms: C_11  and  C_13 
ROOT
ATOM      1  C   LIG d   1       3.734   0.466 -10.258  0.00  0.00    -0.050 A 
ATOM      2  C   LIG d   1       3.063   1.588  -9.793  0.00  0.00    -0.055 A 
ATOM      3  C   LIG d   1       2.826   1.759  -8.446  0.00  0.00    -0.018 A 
ATOM      4  C   LIG d   1       3.260   0.798  -7.539  0.00  0.00     0.139 A 
ATOM      5  C   LIG d   1       3.938  -0.336  -8.019  0.00  0.00     0.064 A 
ATOM      6  C   LIG d   1       4.170  -0.492  -9.386  0.00  0.00    -0.044 A 
ATOM      7  C   LIG d   1       4.392  -1.346  -7.044  0.00  0.00     0.193 A 
ATOM      8  O   LIG d   1       4.984  -2.350  -7.395  0.00  0.00    -0.287 OA
ATOM      9  C   LIG d   1       4.095  -1.082  -5.628  0.00  0.00     0.030 A 
ATOM     10  C   LIG d   1       3.433   0.055  -5.302  0.00  0.00     0.154 A 
ATOM     11  O   LIG d   1       3.038   0.948  -6.219  0.00  0.00    -0.453 OA
ATOM     12  H   LIG d   1       2.724   2.337 -10.494  0.00  0.00     0.062 H 
ATOM     13  H   LIG d   1       2.299   2.636  -8.097  0.00  0.00     0.065 H 
ATOM     14  H   LIG d   1       4.689  -1.365  -9.752  0.00  0.00     0.063 H 
ATOM     15  H   LIG d   1       4.400  -1.780  -4.862  0.00  0.00     0.069 H 
ENDROOT
BRANCH   1  16
ATOM     16  C   LIG d   1       3.982   0.300 -11.735  0.00  0.00    -0.040 C 
ATOM     17  H   LIG d   1       5.034   0.492 -11.951  0.00  0.00     0.028 H 
ATOM     18  H   LIG d   1       3.730  -0.717 -12.035  0.00  0.00     0.028 H 
ATOM     19  H   LIG d   1       3.364   1.006 -12.290  0.00  0.00     0.028 H 
ENDBRANCH   1  16
BRANCH  10  20
ATOM     20  C   LIG d   1       3.135   0.320  -3.875  0.00  0.00     0.107 C 
ATOM     21  O   LIG d   1       3.442   1.384  -3.377  0.00  0.00    -0.542 OA
ATOM     22  O   LIG d   1       2.522  -0.619  -3.129  0.00  0.00    -0.542 OA
ENDBRANCH  10  20
TORSDOF 2
ENDMDL
MODEL 7
REMARK VINA RESULT:      -4.7      3.188      4.363
REMARK  2 active torsions:
REMARK  status: ('A' for Active; 'I' for Inactive)
REMARK    1  A    between atoms: C_1  and  C_2 
REMARK    2  A    between atoms: C_11  and  C_13 
ROOT
ATOM      1  C   LIG d   1       8.830   1.890  -4.569  0.00  0.00    -0.050 A 
ATOM      2  C   LIG d   1       9.134   0.809  -5.385  0.00  0.00    -0.055 A 
ATOM      3  C   LIG d   1       8.335  -0.314  -5.393  0.00  0.00    -0.018 A 
ATOM      4  C   LIG d   1       7.212  -0.370  -4.575  0.00  0.00     0.139 A 
ATOM      5  C   LIG d   1       6.911   0.728  -3.751  0.00  0.00     0.064 A 
ATOM      6  C   LIG d   1       7.731   1.857  -3.757  0.00  0.00    -0.044 A 
ATOM      7  C   LIG d   1       5.716   0.653  -2.889  0.00  0.00     0.193 A 
ATOM      8  O   LIG d   1       5.401   1.570  -2.153  0.00  0.00    -0.287 OA
ATOM      9  C   LIG d   1       4.923  -0.584  -2.962  0.00  0.00     0.030 A 
ATOM     10  C   LIG d   1       5.325  -1.568  -3.802  0.00  0.00     0.154 A 
ATOM     11  O   LIG d   1       6.419  -1.460  -4.569  0.00  0.00    -0.453 OA
ATOM     12  H   LIG d   1      10.005   0.849  -6.021  0.00  0.00     0.062 H 
ATOM     13  H   LIG d   1       8.584  -1.151  -6.030  0.00  0.00     0.065 H 
ATOM     14  H   LIG d   1       7.499   2.699  -3.122  0.00  0.00     0.063 H 
ATOM     15  H   LIG d   1       4.035  -0.705  -2.358  0.00  0.00     0.069 H 
ENDROOT
BRANCH   1  16
ATOM     16  C   LIG d   1       9.717   3.108  -4.577  0.00  0.00    -0.040 C 
ATOM     17  H   LIG d   1       9.202   3.937  -4.092  0.00  0.00     0.028 H 
ATOM     18  H   LIG d   1      10.640   2.889  -4.039  0.00  0.00     0.028 H 
ATOM     19  H   LIG d   1       9.953   3.380  -5.606  0.00  0.00     0.028 H 
ENDBRANCH   1  16
BRANCH  10  20
ATOM     20  C   LIG d   1       4.525  -2.813  -3.875  0.00  0.00     0.107 C 
ATOM     21  O   LIG d   1       3.854  -3.161  -2.925  0.00  0.00    -0.542 OA
ATOM     22  O   LIG d   1       4.541  -3.559  -4.996  0.00  0.00    -0.542 OA
ENDBRANCH  10  20
TORSDOF 2
ENDMDL
MODEL 8
REMARK VINA RESULT:      -4.7      9.768     11.822
REMARK  2 active torsions:
REMARK  status: ('A' for Active; 'I' for Inactive)
REMARK    1  A    between atoms: C_1  and  C_2 
REMARK    2  A    between atoms: C_11  and  C_13 
ROOT
ATOM      1  C   LIG d   1       9.871   5.446  -4.623  0.00  0.00    -0.050 A 
ATOM      2  C   LIG d   1      10.157   4.284  -3.920  0.00  0.00    -0.055 A 
ATOM      3  C   LIG d   1      10.453   4.330  -2.575  0.00  0.00    -0.018 A 
ATOM      4  C   LIG d   1      10.470   5.552  -1.911  0.00  0.00     0.139 A 
ATOM      5  C   LIG d   1      10.180   6.724  -2.630  0.00  0.00     0.064 A 
ATOM      6  C   LIG d   1       9.882   6.658  -3.991  0.00  0.00    -0.044 A 
ATOM      7  C   LIG d   1      10.202   8.012  -1.912  0.00  0.00     0.193 A 
ATOM      8  O   LIG d   1       9.961   9.063  -2.477  0.00  0.00    -0.287 OA
ATOM      9  C   LIG d   1      10.529   7.966  -0.478  0.00  0.00     0.030 A 
ATOM     10  C   LIG d   1      10.787   6.765   0.094  0.00  0.00     0.154 A 
ATOM     11  O   LIG d   1      10.757   5.616  -0.596  0.00  0.00    -0.453 OA
ATOM     12  H   LIG d   1      10.145   3.334  -4.432  0.00  0.00     0.062 H 
ATOM     13  H   LIG d   1      10.677   3.419  -2.039  0.00  0.00     0.065 H 
ATOM     14  H   LIG d   1       9.661   7.561  -4.543  0.00  0.00     0.063 H 
ATOM     15  H   LIG d   1      10.562   8.873   0.109  0.00  0.00     0.069 H 
ENDROOT
BRANCH   1  16
ATOM     16  C   LIG d   1       9.549   5.372  -6.094  0.00  0.00    -0.040 C 
ATOM     17  H   LIG d   1       9.033   6.283  -6.399  0.00  0.00     0.028 H 
ATOM     18  H   LIG d   1      10.473   5.270  -6.664  0.00  0.00     0.028 H 
ATOM     19  H   LIG d   1       8.909   4.511  -6.283  0.00  0.00     0.028 H 
ENDBRANCH   1  16
BRANCH  10  20
ATOM     20  C   LIG d   1      11.116   6.720   1.537  0.00  0.00     0.107 C 
ATOM     21  O   LIG d   1      11.035   5.674   2.147  0.00  0.00    -0.542 OA
ATOM     22  O   LIG d   1      11.506   7.841   2.174  0.00  0.00    -0.542 OA
ENDBRANCH  10  20
TORSDOF 2
ENDMDL
MODEL 9
REMARK VINA RESULT:      -4.7     10.796     13.927
REMARK  2 active torsions:
REMARK  status: ('A' for Active; 'I' for Inactive)
REMARK    1  A    between atoms: C_1  and  C_2 
REMARK    2  A    between atoms: C_11  and  C_13 
ROOT
ATOM      1  C   LIG d   1      10.434   5.575  -1.727  0.00  0.00    -0.050 A 
ATOM      2  C   LIG d   1      11.408   5.082  -0.870  0.00  0.00    -0.055 A 
ATOM      3  C   LIG d   1      11.941   5.877   0.123  0.00  0.00    -0.018 A 
ATOM      4  C   LIG d   1      11.501   7.189   0.270  0.00  0.00     0.139 A 
ATOM      5  C   LIG d   1      10.514   7.680  -0.603  0.00  0.00     0.064 A 
ATOM      6  C   LIG d   1       9.986   6.860  -1.601  0.00  0.00    -0.044 A 
ATOM      7  C   LIG d   1      10.057   9.072  -0.433  0.00  0.00     0.193 A 
ATOM      8  O   LIG d   1       9.206   9.557  -1.156  0.00  0.00    -0.287 OA
ATOM      9  C   LIG d   1      10.681   9.847   0.651  0.00  0.00     0.030 A 
ATOM     10  C   LIG d   1      11.622   9.250   1.421  0.00  0.00     0.154 A 
ATOM     11  O   LIG d   1      12.009   7.980   1.234  0.00  0.00    -0.453 OA
ATOM     12  H   LIG d   1      11.753   4.065  -0.981  0.00  0.00     0.062 H 
ATOM     13  H   LIG d   1      12.702   5.484   0.781  0.00  0.00     0.065 H 
ATOM     14  H   LIG d   1       9.229   7.240  -2.271  0.00  0.00     0.063 H 
ATOM     15  H   LIG d   1      10.393  10.872   0.831  0.00  0.00     0.069 H 
ENDROOT
BRANCH   1  16
ATOM     16  C   LIG d   1       9.866   4.687  -2.804  0.00  0.00    -0.040 C 
ATOM     17  H   LIG d   1       9.022   5.187  -3.280  0.00  0.00     0.028 H 
ATOM     18  H   LIG d   1      10.635   4.483  -3.549  0.00  0.00     0.028 H 
ATOM     19  H   LIG d   1       9.530   3.749  -2.363  0.00  0.00     0.028 H 
ENDBRANCH   1  16
BRANCH  10  20
ATOM     20  C   LIG d   1      12.249  10.031   2.513  0.00  0.00     0.107 C 
ATOM     21  O   LIG d   1      12.015  11.217   2.623  0.00  0.00    -0.542 OA
ATOM     22  O   LIG d   1      13.077   9.425   3.385  0.00  0.00    -0.542 OA
ENDBRANCH  10  20
TORSDOF 2
ENDMDL
MODEL 10
REMARK VINA RESULT:      -4.7     10.586     13.882
REMARK  2 active torsions:
REMARK  status: ('A' for Active; 'I' for Inactive)
REMARK    1  A    between atoms: C_1  and  C_2 
REMARK    2  A    between atoms: C_11  and  C_13 
ROOT
ATOM      1  C   LIG d   1      10.127   5.708  -2.176  0.00  0.00    -0.050 A 
ATOM      2  C   LIG d   1       9.840   6.832  -2.938  0.00  0.00    -0.055 A 
ATOM      3  C   LIG d   1      10.005   8.098  -2.417  0.00  0.00    -0.018 A 
ATOM      4  C   LIG d   1      10.464   8.255  -1.114  0.00  0.00     0.139 A 
ATOM      5  C   LIG d   1      10.753   7.112  -0.348  0.00  0.00     0.064 A 
ATOM      6  C   LIG d   1      10.580   5.839  -0.893  0.00  0.00    -0.044 A 
ATOM      7  C   LIG d   1      11.239   7.296   1.032  0.00  0.00     0.193 A 
ATOM      8  O   LIG d   1      11.506   6.347   1.746  0.00  0.00    -0.287 OA
ATOM      9  C   LIG d   1      11.385   8.682   1.504  0.00  0.00     0.030 A 
ATOM     10  C   LIG d   1      11.072   9.695   0.661  0.00  0.00     0.154 A 
ATOM     11  O   LIG d   1      10.633   9.484  -0.588  0.00  0.00    -0.453 OA
ATOM     12  H   LIG d   1       9.483   6.714  -3.951  0.00  0.00     0.062 H 
ATOM     13  H   LIG d   1       9.774   8.965  -3.019  0.00  0.00     0.065 H 
ATOM     14  H   LIG d   1      10.801   4.962  -0.302  0.00  0.00     0.063 H 
ATOM     15  H   LIG d   1      11.737   8.888   2.505  0.00  0.00     0.069 H 
ENDROOT
BRANCH   1  16
ATOM     16  C   LIG d   1       9.939   4.335  -2.767  0.00  0.00    -0.040 C 
ATOM     17  H   LIG d   1      10.357   4.312  -3.774  0.00  0.00     0.028 H 
ATOM     18  H   LIG d   1      10.449   3.599  -2.146  0.00  0.00     0.028 H 
ATOM     19  H   LIG d   1       8.876   4.100  -2.810  0.00  0.00     0.028 H 
ENDBRANCH   1  16
BRANCH  10  20
ATOM     20  C   LIG d   1      11.220  11.089   1.138  0.00  0.00     0.107 C 
ATOM     21  O   LIG d   1      10.792  12.008   0.471  0.00  0.00    -0.542 OA
ATOM     22  O   LIG d   1      11.828  11.337   2.313  0.00  0.00    -0.542 OA
ENDBRANCH  10  20
TORSDOF 2
ENDMDL
