MODEL 1
REMARK VINA RESULT:      -4.2      0.000      0.000
REMARK  4 active torsions:
REMARK  status: ('A' for Active; 'I' for Inactive)
REMARK    1  A    between atoms: C_1  and  O_2 
REMARK    2  A    between atoms: O_2  and  C_3 
REMARK    3  A    between atoms: C_6  and  O_13 
REMARK    4  A    between atoms: C_8  and  O_12 
ROOT
ATOM      1  C   LIG d   1       4.230  -2.158  -3.740  0.00  0.00     0.161 C 
ATOM      2  H   LIG d   1       3.365  -1.701  -4.220  0.00  0.00     0.091 H 
ATOM      3  C   LIG d   1       4.179  -1.886  -2.234  0.00  0.00     0.027 C 
ATOM      4  C   LIG d   1       4.258  -0.376  -1.992  0.00  0.00     0.088 C 
ATOM      5  H   LIG d   1       4.278  -0.177  -0.921  0.00  0.00     0.062 H 
ATOM      6  C   LIG d   1       5.536   0.168  -2.639  0.00  0.00     0.104 C 
ATOM      7  H   LIG d   1       6.406  -0.281  -2.160  0.00  0.00     0.064 H 
ATOM      8  C   LIG d   1       5.533  -0.183  -4.129  0.00  0.00     0.079 C 
ATOM      9  O   LIG d   1       5.427  -1.600  -4.284  0.00  0.00    -0.349 OA
ATOM     10  H   LIG d   1       5.022  -2.378  -1.746  0.00  0.00     0.034 H 
ATOM     11  H   LIG d   1       3.245  -2.273  -1.825  0.00  0.00     0.034 H 
ATOM     12  H   LIG d   1       4.685   0.299  -4.615  0.00  0.00     0.059 H 
ATOM     13  H   LIG d   1       6.460   0.164  -4.586  0.00  0.00     0.059 H 
ENDROOT
BRANCH   1  14
ATOM     14  O   LIG d   1       4.214  -3.568  -3.970  0.00  0.00    -0.354 OA
BRANCH  14  15
ATOM     15  C   LIG d   1       5.001  -3.983  -5.089  0.00  0.00     0.039 C 
ATOM     16  H   LIG d   1       5.989  -3.528  -5.027  0.00  0.00     0.052 H 
ATOM     17  H   LIG d   1       5.098  -5.069  -5.083  0.00  0.00     0.052 H 
ATOM     18  H   LIG d   1       4.513  -3.667  -6.013  0.00  0.00     0.052 H 
ENDBRANCH  14  15
ENDBRANCH   1  14
BRANCH   4  19
ATOM     19  O   LIG d   1       3.119   0.261  -2.575  0.00  0.00    -0.389 OA
ATOM     20  H   LIG d   1       2.295   0.114  -2.091  0.00  0.00     0.210 HD
ENDBRANCH   4  19
BRANCH   6  21
ATOM     21  O   LIG d   1       5.584   1.587  -2.481  0.00  0.00    -0.387 OA
ATOM     22  H   LIG d   1       5.260   1.899  -1.624  0.00  0.00     0.210 HD
ENDBRANCH   6  21
TORSDOF 4
ENDMDL
MODEL 2
REMARK VINA RESULT:      -4.2      2.170      3.643
REMARK  4 active torsions:
REMARK  status: ('A' for Active; 'I' for Inactive)
REMARK    1  A    between atoms: C_1  and  O_2 
REMARK    2  A    between atoms: O_2  and  C_3 
REMARK    3  A    between atoms: C_6  and  O_13 
REMARK    4  A    between atoms: C_8  and  O_12 
ROOT
ATOM      1  C   LIG d   1       5.967   0.682  -3.232  0.00  0.00     0.161 C 
ATOM      2  H   LIG d   1       6.318  -0.292  -2.896  0.00  0.00     0.091 H 
ATOM      3  C   LIG d   1       4.861   1.178  -2.297  0.00  0.00     0.027 C 
ATOM      4  C   LIG d   1       3.676   0.210  -2.362  0.00  0.00     0.088 C 
ATOM      5  H   LIG d   1       2.862   0.585  -1.741  0.00  0.00     0.062 H 
ATOM      6  C   LIG d   1       3.202   0.097  -3.815  0.00  0.00     0.104 C 
ATOM      7  H   LIG d   1       2.845   1.069  -4.157  0.00  0.00     0.064 H 
ATOM      8  C   LIG d   1       4.372  -0.356  -4.691  0.00  0.00     0.079 C 
ATOM      9  O   LIG d   1       5.451   0.571  -4.560  0.00  0.00    -0.349 OA
ATOM     10  H   LIG d   1       4.537   2.172  -2.609  0.00  0.00     0.034 H 
ATOM     11  H   LIG d   1       5.240   1.222  -1.276  0.00  0.00     0.034 H 
ATOM     12  H   LIG d   1       4.702  -1.345  -4.373  0.00  0.00     0.059 H 
ATOM     13  H   LIG d   1       4.052  -0.396  -5.732  0.00  0.00     0.059 H 
ENDROOT
BRANCH   1  14
ATOM     14  O   LIG d   1       7.053   1.611  -3.220  0.00  0.00    -0.354 OA
BRANCH  14  15
ATOM     15  C   LIG d   1       7.975   1.442  -4.298  0.00  0.00     0.039 C 
ATOM     16  H   LIG d   1       8.975   1.723  -3.969  0.00  0.00     0.052 H 
ATOM     17  H   LIG d   1       7.977   0.398  -4.615  0.00  0.00     0.052 H 
ATOM     18  H   LIG d   1       7.677   2.075  -5.135  0.00  0.00     0.052 H 
ENDBRANCH  14  15
ENDBRANCH   1  14
BRANCH   4  19
ATOM     19  O   LIG d   1       4.083  -1.076  -1.891  0.00  0.00    -0.389 OA
ATOM     20  H   LIG d   1       4.914  -1.390  -2.272  0.00  0.00     0.210 HD
ENDBRANCH   4  19
BRANCH   6  21
ATOM     21  O   LIG d   1       2.142  -0.857  -3.898  0.00  0.00    -0.387 OA
ATOM     22  H   LIG d   1       2.193  -1.560  -3.236  0.00  0.00     0.210 HD
ENDBRANCH   6  21
TORSDOF 4
ENDMDL
MODEL 3
REMARK VINA RESULT:      -3.7      1.365      1.994
REMARK  4 active torsions:
REMARK  status: ('A' for Active; 'I' for Inactive)
REMARK    1  A    between atoms: C_1  and  O_2 
REMARK    2  A    between atoms: O_2  and  C_3 
REMARK    3  A    between atoms: C_6  and  O_13 
REMARK    4  A    between atoms: C_8  and  O_12 
ROOT
ATOM      1  C   LIG d   1       4.590  -2.224  -3.920  0.00  0.00     0.161 C 
ATOM      2  H   LIG d   1       5.647  -1.963  -3.942  0.00  0.00     0.091 H 
ATOM      3  C   LIG d   1       3.788  -1.172  -4.691  0.00  0.00     0.027 C 
ATOM      4  C   LIG d   1       3.945   0.186  -4.001  0.00  0.00     0.088 C 
ATOM      5  H   LIG d   1       3.333   0.929  -4.512  0.00  0.00     0.062 H 
ATOM      6  C   LIG d   1       3.491   0.061  -2.543  0.00  0.00     0.104 C 
ATOM      7  H   LIG d   1       2.432  -0.196  -2.513  0.00  0.00     0.064 H 
ATOM      8  C   LIG d   1       4.304  -1.038  -1.856  0.00  0.00     0.079 C 
ATOM      9  O   LIG d   1       4.138  -2.267  -2.565  0.00  0.00    -0.349 OA
ATOM     10  H   LIG d   1       2.735  -1.455  -4.705  0.00  0.00     0.034 H 
ATOM     11  H   LIG d   1       4.162  -1.107  -5.713  0.00  0.00     0.034 H 
ATOM     12  H   LIG d   1       5.359  -0.761  -1.851  0.00  0.00     0.059 H 
ATOM     13  H   LIG d   1       3.955  -1.161  -0.830  0.00  0.00     0.059 H 
ENDROOT
BRANCH   1  14
ATOM     14  O   LIG d   1       4.402  -3.505  -4.525  0.00  0.00    -0.354 OA
BRANCH  14  15
ATOM     15  C   LIG d   1       5.580  -4.041  -5.131  0.00  0.00     0.039 C 
ATOM     16  H   LIG d   1       5.783  -5.029  -4.718  0.00  0.00     0.052 H 
ATOM     17  H   LIG d   1       5.432  -4.119  -6.208  0.00  0.00     0.052 H 
ATOM     18  H   LIG d   1       6.425  -3.382  -4.927  0.00  0.00     0.052 H 
ENDBRANCH  14  15
ENDBRANCH   1  14
BRANCH   4  19
ATOM     19  O   LIG d   1       5.317   0.586  -4.041  0.00  0.00    -0.389 OA
ATOM     20  H   LIG d   1       5.455   1.531  -3.891  0.00  0.00     0.210 HD
ENDBRANCH   4  19
BRANCH   6  21
ATOM     21  O   LIG d   1       3.700   1.304  -1.871  0.00  0.00    -0.387 OA
ATOM     22  H   LIG d   1       2.892   1.697  -1.510  0.00  0.00     0.210 HD
ENDBRANCH   6  21
TORSDOF 4
ENDMDL
MODEL 4
REMARK VINA RESULT:      -3.6      9.393     10.450
REMARK  4 active torsions:
REMARK  status: ('A' for Active; 'I' for Inactive)
REMARK    1  A    between atoms: C_1  and  O_2 
REMARK    2  A    between atoms: O_2  and  C_3 
REMARK    3  A    between atoms: C_6  and  O_13 
REMARK    4  A    between atoms: C_8  and  O_12 
ROOT
ATOM      1  C   LIG d   1      10.566   6.475   0.124  0.00  0.00     0.161 C 
ATOM      2  H   LIG d   1       9.566   6.162   0.424  0.00  0.00     0.091 H 
ATOM      3  C   LIG d   1      10.544   7.957  -0.259  0.00  0.00     0.027 C 
ATOM      4  C   LIG d   1       9.617   8.153  -1.461  0.00  0.00     0.088 C 
ATOM      5  H   LIG d   1       9.639   9.197  -1.774  0.00  0.00     0.062 H 
ATOM      6  C   LIG d   1      10.096   7.262  -2.612  0.00  0.00     0.104 C 
ATOM      7  H   LIG d   1      11.095   7.572  -2.920  0.00  0.00     0.064 H 
ATOM      8  C   LIG d   1      10.135   5.807  -2.139  0.00  0.00     0.079 C 
ATOM      9  O   LIG d   1      10.991   5.700  -0.999  0.00  0.00    -0.349 OA
ATOM     10  H   LIG d   1      11.553   8.281  -0.519  0.00  0.00     0.034 H 
ATOM     11  H   LIG d   1      10.178   8.545   0.584  0.00  0.00     0.034 H 
ATOM     12  H   LIG d   1       9.129   5.485  -1.868  0.00  0.00     0.059 H 
ATOM     13  H   LIG d   1      10.516   5.174  -2.940  0.00  0.00     0.059 H 
ENDROOT
BRANCH   1  14
ATOM     14  O   LIG d   1      11.473   6.275   1.210  0.00  0.00    -0.354 OA
BRANCH  14  15
ATOM     15  C   LIG d   1      10.895   5.615   2.338  0.00  0.00     0.039 C 
ATOM     16  H   LIG d   1      11.339   4.626   2.446  0.00  0.00     0.052 H 
ATOM     17  H   LIG d   1      11.084   6.200   3.238  0.00  0.00     0.052 H 
ATOM     18  H   LIG d   1       9.819   5.516   2.188  0.00  0.00     0.052 H 
ENDBRANCH  14  15
ENDBRANCH   1  14
BRANCH   4  19
ATOM     19  O   LIG d   1       8.283   7.790  -1.100  0.00  0.00    -0.389 OA
ATOM     20  H   LIG d   1       7.700   7.634  -1.855  0.00  0.00     0.210 HD
ENDBRANCH   4  19
BRANCH   6  21
ATOM     21  O   LIG d   1       9.197   7.383  -3.716  0.00  0.00    -0.387 OA
ATOM     22  H   LIG d   1       9.625   7.312  -4.581  0.00  0.00     0.210 HD
ENDBRANCH   6  21
TORSDOF 4
ENDMDL
MODEL 5
REMARK VINA RESULT:      -3.5     10.692     11.597
REMARK  4 active torsions:
REMARK  status: ('A' for Active; 'I' for Inactive)
REMARK    1  A    between atoms: C_1  and  O_2 
REMARK    2  A    between atoms: O_2  and  C_3 
REMARK    3  A    between atoms: C_6  and  O_13 
REMARK    4  A    between atoms: C_8  and  O_12 
ROOT
ATOM      1  C   LIG d   1      11.174   7.881  -0.131  0.00  0.00     0.161 C 
ATOM      2  H   LIG d   1      11.781   8.176  -0.986  0.00  0.00     0.091 H 
ATOM      3  C   LIG d   1       9.921   7.150  -0.622  0.00  0.00     0.027 C 
ATOM      4  C   LIG d   1       9.085   8.105  -1.478  0.00  0.00     0.088 C 
ATOM      5  H   LIG d   1       8.164   7.609  -1.787  0.00  0.00     0.062 H 
ATOM      6  C   LIG d   1       8.745   9.350  -0.652  0.00  0.00     0.104 C 
ATOM      7  H   LIG d   1       8.134   9.063   0.203  0.00  0.00     0.064 H 
ATOM      8  C   LIG d   1      10.043   9.996  -0.160  0.00  0.00     0.079 C 
ATOM      9  O   LIG d   1      10.788   9.044   0.604  0.00  0.00    -0.349 OA
ATOM     10  H   LIG d   1       9.333   6.818   0.234  0.00  0.00     0.034 H 
ATOM     11  H   LIG d   1      10.214   6.287  -1.220  0.00  0.00     0.034 H 
ATOM     12  H   LIG d   1      10.636  10.318  -1.016  0.00  0.00     0.059 H 
ATOM     13  H   LIG d   1       9.807  10.857   0.464  0.00  0.00     0.059 H 
ENDROOT
BRANCH   1  14
ATOM     14  O   LIG d   1      11.931   7.013   0.716  0.00  0.00    -0.354 OA
BRANCH  14  15
ATOM     15  C   LIG d   1      11.169   5.948   1.286  0.00  0.00     0.039 C 
ATOM     16  H   LIG d   1      11.677   5.001   1.105  0.00  0.00     0.052 H 
ATOM     17  H   LIG d   1      11.068   6.107   2.360  0.00  0.00     0.052 H 
ATOM     18  H   LIG d   1      10.180   5.922   0.828  0.00  0.00     0.052 H 
ENDBRANCH  14  15
ENDBRANCH   1  14
BRANCH   4  19
ATOM     19  O   LIG d   1       9.831   8.489  -2.635  0.00  0.00    -0.389 OA
ATOM     20  H   LIG d   1       9.294   8.874  -3.340  0.00  0.00     0.210 HD
ENDBRANCH   4  19
BRANCH   6  21
ATOM     21  O   LIG d   1       8.025  10.280  -1.463  0.00  0.00    -0.387 OA
ATOM     22  H   LIG d   1       7.170   9.950  -1.775  0.00  0.00     0.210 HD
ENDBRANCH   6  21
TORSDOF 4
ENDMDL
MODEL 6
REMARK VINA RESULT:      -3.5      2.085      4.046
REMARK  4 active torsions:
REMARK  status: ('A' for Active; 'I' for Inactive)
REMARK    1  A    between atoms: C_1  and  O_2 
REMARK    2  A    between atoms: O_2  and  C_3 
REMARK    3  A    between atoms: C_6  and  O_13 
REMARK    4  A    between atoms: C_8  and  O_12 
ROOT
ATOM      1  C   LIG d   1       6.160   0.439  -3.101  0.00  0.00     0.161 C 
ATOM      2  H   LIG d   1       7.195   0.439  -2.763  0.00  0.00     0.091 H 
ATOM      3  C   LIG d   1       5.529  -0.926  -2.812  0.00  0.00     0.027 C 
ATOM      4  C   LIG d   1       6.276  -2.003  -3.604  0.00  0.00     0.088 C 
ATOM      5  H   LIG d   1       5.798  -2.970  -3.447  0.00  0.00     0.062 H 
ATOM      6  C   LIG d   1       6.234  -1.647  -5.094  0.00  0.00     0.104 C 
ATOM      7  H   LIG d   1       5.201  -1.649  -5.440  0.00  0.00     0.064 H 
ATOM      8  C   LIG d   1       6.837  -0.254  -5.294  0.00  0.00     0.079 C 
ATOM      9  O   LIG d   1       6.116   0.695  -4.506  0.00  0.00    -0.349 OA
ATOM     10  H   LIG d   1       4.480  -0.914  -3.112  0.00  0.00     0.034 H 
ATOM     11  H   LIG d   1       5.601  -1.142  -1.746  0.00  0.00     0.034 H 
ATOM     12  H   LIG d   1       7.883  -0.263  -4.985  0.00  0.00     0.059 H 
ATOM     13  H   LIG d   1       6.771   0.023  -6.346  0.00  0.00     0.059 H 
ENDROOT
BRANCH   1  14
ATOM     14  O   LIG d   1       5.432   1.456  -2.409  0.00  0.00    -0.354 OA
BRANCH  14  15
ATOM     15  C   LIG d   1       4.108   1.071  -2.033  0.00  0.00     0.039 C 
ATOM     16  H   LIG d   1       3.488   1.960  -1.925  0.00  0.00     0.052 H 
ATOM     17  H   LIG d   1       3.686   0.424  -2.802  0.00  0.00     0.052 H 
ATOM     18  H   LIG d   1       4.142   0.534  -1.084  0.00  0.00     0.052 H 
ENDBRANCH  14  15
ENDBRANCH   1  14
BRANCH   4  19
ATOM     19  O   LIG d   1       7.634  -2.064  -3.165  0.00  0.00    -0.389 OA
ATOM     20  H   LIG d   1       8.164  -2.735  -3.616  0.00  0.00     0.210 HD
ENDBRANCH   4  19
BRANCH   6  21
ATOM     21  O   LIG d   1       6.988  -2.607  -5.835  0.00  0.00    -0.387 OA
ATOM     22  H   LIG d   1       7.860  -2.798  -5.461  0.00  0.00     0.210 HD
ENDBRANCH   6  21
TORSDOF 4
ENDMDL
MODEL 7
REMARK VINA RESULT:      -3.5     12.272     13.141
REMARK  4 active torsions:
REMARK  status: ('A' for Active; 'I' for Inactive)
REMARK    1  A    between atoms: C_1  and  O_2 
REMARK    2  A    between atoms: O_2  and  C_3 
REMARK    3  A    between atoms: C_6  and  O_13 
REMARK    4  A    between atoms: C_8  and  O_12 
ROOT
ATOM      1  C   LIG d   1      12.339 -10.436   3.993  0.00  0.00     0.161 C 
ATOM      2  H   LIG d   1      13.224 -10.623   3.388  0.00  0.00     0.091 H 
ATOM      3  C   LIG d   1      11.086 -10.792   3.189  0.00  0.00     0.027 C 
ATOM      4  C   LIG d   1      11.004  -9.886   1.958  0.00  0.00     0.088 C 
ATOM      5  H   LIG d   1      10.086 -10.096   1.409  0.00  0.00     0.062 H 
ATOM      6  C   LIG d   1      11.007  -8.423   2.412  0.00  0.00     0.104 C 
ATOM      7  H   LIG d   1      10.121  -8.228   3.016  0.00  0.00     0.064 H 
ATOM      8  C   LIG d   1      12.263  -8.159   3.246  0.00  0.00     0.079 C 
ATOM      9  O   LIG d   1      12.293  -9.056   4.359  0.00  0.00    -0.349 OA
ATOM     10  H   LIG d   1      10.200 -10.645   3.810  0.00  0.00     0.034 H 
ATOM     11  H   LIG d   1      11.140 -11.834   2.873  0.00  0.00     0.034 H 
ATOM     12  H   LIG d   1      13.149  -8.316   2.630  0.00  0.00     0.059 H 
ATOM     13  H   LIG d   1      12.249  -7.131   3.608  0.00  0.00     0.059 H 
ENDROOT
BRANCH   1  14
ATOM     14  O   LIG d   1      12.391 -11.239   5.175  0.00  0.00    -0.354 OA
BRANCH  14  15
ATOM     15  C   LIG d   1      11.373 -12.239   5.244  0.00  0.00     0.039 C 
ATOM     16  H   LIG d   1      10.645 -11.963   6.007  0.00  0.00     0.052 H 
ATOM     17  H   LIG d   1      10.875 -12.319   4.278  0.00  0.00     0.052 H 
ATOM     18  H   LIG d   1      11.822 -13.198   5.502  0.00  0.00     0.052 H 
ENDBRANCH  14  15
ENDBRANCH   1  14
BRANCH   4  19
ATOM     19  O   LIG d   1      12.131 -10.126   1.112  0.00  0.00    -0.389 OA
ATOM     20  H   LIG d   1      12.800 -10.704   1.503  0.00  0.00     0.210 HD
ENDBRANCH   4  19
BRANCH   6  21
ATOM     21  O   LIG d   1      11.003  -7.568   1.267  0.00  0.00    -0.387 OA
ATOM     22  H   LIG d   1      10.227  -6.992   1.210  0.00  0.00     0.210 HD
ENDBRANCH   6  21
TORSDOF 4
ENDMDL
MODEL 8
REMARK VINA RESULT:      -3.4     10.697     11.478
REMARK  4 active torsions:
REMARK  status: ('A' for Active; 'I' for Inactive)
REMARK    1  A    between atoms: C_1  and  O_2 
REMARK    2  A    between atoms: O_2  and  C_3 
REMARK    3  A    between atoms: C_6  and  O_13 
REMARK    4  A    between atoms: C_8  and  O_12 
ROOT
ATOM      1  C   LIG d   1      10.897   7.755  -1.380  0.00  0.00     0.161 C 
ATOM      2  H   LIG d   1      10.232   6.993  -1.784  0.00  0.00     0.091 H 
ATOM      3  C   LIG d   1      10.272   8.364  -0.122  0.00  0.00     0.027 C 
ATOM      4  C   LIG d   1       8.955   9.049  -0.496  0.00  0.00     0.088 C 
ATOM      5  H   LIG d   1       8.531   9.533   0.384  0.00  0.00     0.062 H 
ATOM      6  C   LIG d   1       9.228  10.100  -1.577  0.00  0.00     0.104 C 
ATOM      7  H   LIG d   1       9.890  10.869  -1.178  0.00  0.00     0.064 H 
ATOM      8  C   LIG d   1       9.893   9.424  -2.779  0.00  0.00     0.079 C 
ATOM      9  O   LIG d   1      11.097   8.780  -2.356  0.00  0.00    -0.349 OA
ATOM     10  H   LIG d   1      10.956   9.097   0.306  0.00  0.00     0.034 H 
ATOM     11  H   LIG d   1      10.079   7.576   0.606  0.00  0.00     0.034 H 
ATOM     12  H   LIG d   1       9.214   8.684  -3.201  0.00  0.00     0.059 H 
ATOM     13  H   LIG d   1      10.129  10.174  -3.533  0.00  0.00     0.059 H 
ENDROOT
BRANCH   1  14
ATOM     14  O   LIG d   1      12.155   7.163  -1.049  0.00  0.00    -0.354 OA
BRANCH  14  15
ATOM     15  C   LIG d   1      12.061   6.079  -0.123  0.00  0.00     0.039 C 
ATOM     16  H   LIG d   1      11.396   6.356   0.694  0.00  0.00     0.052 H 
ATOM     17  H   LIG d   1      11.667   5.199  -0.631  0.00  0.00     0.052 H 
ATOM     18  H   LIG d   1      13.051   5.855   0.276  0.00  0.00     0.052 H 
ENDBRANCH  14  15
ENDBRANCH   1  14
BRANCH   4  19
ATOM     19  O   LIG d   1       8.035   8.077  -0.997  0.00  0.00    -0.389 OA
ATOM     20  H   LIG d   1       8.427   7.447  -1.617  0.00  0.00     0.210 HD
ENDBRANCH   4  19
BRANCH   6  21
ATOM     21  O   LIG d   1       7.995  10.697  -1.984  0.00  0.00    -0.387 OA
ATOM     22  H   LIG d   1       7.975  11.660  -1.891  0.00  0.00     0.210 HD
ENDBRANCH   6  21
TORSDOF 4
ENDMDL
MODEL 9
REMARK VINA RESULT:      -3.4     10.018     11.674
REMARK  4 active torsions:
REMARK  status: ('A' for Active; 'I' for Inactive)
REMARK    1  A    between atoms: C_1  and  O_2 
REMARK    2  A    between atoms: O_2  and  C_3 
REMARK    3  A    between atoms: C_6  and  O_13 
REMARK    4  A    between atoms: C_8  and  O_12 
ROOT
ATOM      1  C   LIG d   1      -3.327  -4.933 -11.596  0.00  0.00     0.161 C 
ATOM      2  H   LIG d   1      -3.743  -4.094 -11.039  0.00  0.00     0.091 H 
ATOM      3  C   LIG d   1      -3.878  -6.244 -11.030  0.00  0.00     0.027 C 
ATOM      4  C   LIG d   1      -3.434  -6.390  -9.572  0.00  0.00     0.088 C 
ATOM      5  H   LIG d   1      -3.776  -7.348  -9.179  0.00  0.00     0.062 H 
ATOM      6  C   LIG d   1      -1.904  -6.326  -9.508  0.00  0.00     0.104 C 
ATOM      7  H   LIG d   1      -1.481  -7.165 -10.060  0.00  0.00     0.064 H 
ATOM      8  C   LIG d   1      -1.430  -5.011 -10.132  0.00  0.00     0.079 C 
ATOM      9  O   LIG d   1      -1.904  -4.925 -11.478  0.00  0.00    -0.349 OA
ATOM     10  H   LIG d   1      -3.496  -7.083 -11.614  0.00  0.00     0.034 H 
ATOM     11  H   LIG d   1      -4.968  -6.233 -11.080  0.00  0.00     0.034 H 
ATOM     12  H   LIG d   1      -1.821  -4.173  -9.555  0.00  0.00     0.059 H 
ATOM     13  H   LIG d   1      -0.341  -4.979 -10.128  0.00  0.00     0.059 H 
ENDROOT
BRANCH   1  14
ATOM     14  O   LIG d   1      -3.691  -4.818 -12.973  0.00  0.00    -0.354 OA
BRANCH  14  15
ATOM     15  C   LIG d   1      -2.907  -5.628 -13.851  0.00  0.00     0.039 C 
ATOM     16  H   LIG d   1      -3.134  -5.368 -14.885  0.00  0.00     0.052 H 
ATOM     17  H   LIG d   1      -1.848  -5.458 -13.656  0.00  0.00     0.052 H 
ATOM     18  H   LIG d   1      -3.143  -6.680 -13.682  0.00  0.00     0.052 H 
ENDBRANCH  14  15
ENDBRANCH   1  14
BRANCH   4  19
ATOM     19  O   LIG d   1      -3.990  -5.328  -8.795  0.00  0.00    -0.389 OA
ATOM     20  H   LIG d   1      -3.382  -4.591  -8.644  0.00  0.00     0.210 HD
ENDBRANCH   4  19
BRANCH   6  21
ATOM     21  O   LIG d   1      -1.481  -6.390  -8.144  0.00  0.00    -0.387 OA
ATOM     22  H   LIG d   1      -0.894  -5.668  -7.881  0.00  0.00     0.210 HD
ENDBRANCH   6  21
TORSDOF 4
ENDMDL
MODEL 10
REMARK VINA RESULT:      -3.4      9.740     11.732
REMARK  4 active torsions:
REMARK  status: ('A' for Active; 'I' for Inactive)
REMARK    1  A    between atoms: C_1  and  O_2 
REMARK    2  A    between atoms: O_2  and  C_3 
REMARK    3  A    between atoms: C_6  and  O_13 
REMARK    4  A    between atoms: C_8  and  O_12 
ROOT
ATOM      1  C   LIG d   1      10.165   8.474  -2.267  0.00  0.00     0.161 C 
ATOM      2  H   LIG d   1       9.694   9.060  -3.055  0.00  0.00     0.091 H 
ATOM      3  C   LIG d   1       9.147   8.196  -1.158  0.00  0.00     0.027 C 
ATOM      4  C   LIG d   1       8.698   9.524  -0.542  0.00  0.00     0.088 C 
ATOM      5  H   LIG d   1       8.015   9.332   0.285  0.00  0.00     0.062 H 
ATOM      6  C   LIG d   1       9.929  10.277  -0.027  0.00  0.00     0.104 C 
ATOM      7  H   LIG d   1      10.404   9.698   0.766  0.00  0.00     0.064 H 
ATOM      8  C   LIG d   1      10.917  10.475  -1.179  0.00  0.00     0.079 C 
ATOM      9  O   LIG d   1      11.270   9.203  -1.726  0.00  0.00    -0.349 OA
ATOM     10  H   LIG d   1       9.606   7.574  -0.389  0.00  0.00     0.034 H 
ATOM     11  H   LIG d   1       8.284   7.679  -1.578  0.00  0.00     0.034 H 
ATOM     12  H   LIG d   1      10.455  11.087  -1.953  0.00  0.00     0.059 H 
ATOM     13  H   LIG d   1      11.813  10.972  -0.808  0.00  0.00     0.059 H 
ENDROOT
BRANCH   1  14
ATOM     14  O   LIG d   1      10.632   7.236  -2.807  0.00  0.00    -0.354 OA
BRANCH  14  15
ATOM     15  C   LIG d   1       9.871   6.098  -2.396  0.00  0.00     0.039 C 
ATOM     16  H   LIG d   1       9.846   6.053  -1.308  0.00  0.00     0.052 H 
ATOM     17  H   LIG d   1       8.854   6.183  -2.780  0.00  0.00     0.052 H 
ATOM     18  H   LIG d   1      10.333   5.191  -2.786  0.00  0.00     0.052 H 
ENDBRANCH  14  15
ENDBRANCH   1  14
BRANCH   4  19
ATOM     19  O   LIG d   1       8.038  10.312  -1.535  0.00  0.00    -0.389 OA
ATOM     20  H   LIG d   1       8.172  11.264  -1.435  0.00  0.00     0.210 HD
ENDBRANCH   4  19
BRANCH   6  21
ATOM     21  O   LIG d   1       9.530  11.550   0.486  0.00  0.00    -0.387 OA
ATOM     22  H   LIG d   1       9.925  12.302   0.023  0.00  0.00     0.210 HD
ENDBRANCH   6  21
TORSDOF 4
ENDMDL
