MODEL 1
REMARK VINA RESULT:      -5.9      0.000      0.000
REMARK  3 active torsions:
REMARK  status: ('A' for Active; 'I' for Inactive)
REMARK    1  A    between atoms: C_1  and  C_2 
REMARK    2  A    between atoms: N_9  and  N_10 
REMARK       I    between atoms: N_10  and  C_11 
REMARK       I    between atoms: C_11  and  N_13 
REMARK    3  A    between atoms: C_15  and  C_17 
ROOT
ATOM      1  C   LIG d   1       4.824   0.075  -2.904  0.00  0.00    -0.050 A 
ATOM      2  C   LIG d   1       6.138   0.511  -2.919  0.00  0.00    -0.059 A 
ATOM      3  C   LIG d   1       7.130  -0.289  -3.455  0.00  0.00    -0.057 A 
ATOM      4  C   LIG d   1       6.818  -1.530  -3.979  0.00  0.00    -0.035 A 
ATOM      5  C   LIG d   1       5.500  -1.978  -3.967  0.00  0.00     0.001 A 
ATOM      6  C   LIG d   1       4.500  -1.160  -3.421  0.00  0.00    -0.050 A 
ATOM      7  C   LIG d   1       5.401  -3.320  -4.572  0.00  0.00     0.067 A 
ATOM      8  N   LIG d   1       4.315  -4.015  -4.714  0.00  0.00    -0.183 NA
ATOM      9  C   LIG d   1       6.787  -3.743  -4.999  0.00  0.00    -0.002 A 
ATOM     10  C   LIG d   1       7.704  -2.576  -4.611  0.00  0.00    -0.013 A 
ATOM     11  H   LIG d   1       8.188  -2.169  -5.500  0.00  0.00     0.035 H 
ATOM     12  H   LIG d   1       6.388   1.480  -2.512  0.00  0.00     0.062 H 
ATOM     13  H   LIG d   1       8.152   0.059  -3.465  0.00  0.00     0.062 H 
ATOM     14  H   LIG d   1       3.474  -1.498  -3.408  0.00  0.00     0.063 H 
ATOM     15  H   LIG d   1       6.817  -3.905  -6.077  0.00  0.00     0.034 H 
ATOM     16  H   LIG d   1       7.085  -4.650  -4.473  0.00  0.00     0.034 H 
ENDROOT
BRANCH   8  17
ATOM     17  N   LIG d   1       4.366  -5.282  -5.311  0.00  0.00    -0.191 N 
ATOM     18  C   LIG d   1       3.946  -5.446  -6.581  0.00  0.00     0.317 C 
ATOM     19  O   LIG d   1       3.990  -6.545  -7.099  0.00  0.00    -0.251 OA
ATOM     20  N   LIG d   1       3.478  -4.392  -7.277  0.00  0.00    -0.312 N 
ATOM     21  H   LIG d   1       3.443  -3.515  -6.864  0.00  0.00     0.146 HD
ATOM     22  H   LIG d   1       3.176  -4.510  -8.192  0.00  0.00     0.146 HD
ATOM     23  H   LIG d   1       4.702  -6.040  -4.809  0.00  0.00     0.179 HD
ENDBRANCH   8  17
BRANCH  10  24
ATOM     24  C   LIG d   1       8.759  -3.048  -3.609  0.00  0.00    -0.058 C 
ATOM     25  H   LIG d   1       8.932  -4.117  -3.740  0.00  0.00     0.024 H 
ATOM     26  H   LIG d   1       9.690  -2.506  -3.778  0.00  0.00     0.024 H 
ATOM     27  H   LIG d   1       8.408  -2.858  -2.595  0.00  0.00     0.024 H 
ENDBRANCH  10  24
BRANCH   1  28
ATOM     28  C   LIG d   1       3.747   0.951  -2.319  0.00  0.00    -0.040 C 
ATOM     29  H   LIG d   1       3.948   1.116  -1.260  0.00  0.00     0.028 H 
ATOM     30  H   LIG d   1       3.734   1.908  -2.841  0.00  0.00     0.028 H 
ATOM     31  H   LIG d   1       2.780   0.462  -2.432  0.00  0.00     0.028 H 
ENDBRANCH   1  28
TORSDOF 3
ENDMDL
MODEL 2
REMARK VINA RESULT:      -5.9      1.458      2.991
REMARK  3 active torsions:
REMARK  status: ('A' for Active; 'I' for Inactive)
REMARK    1  A    between atoms: C_1  and  C_2 
REMARK    2  A    between atoms: N_9  and  N_10 
REMARK       I    between atoms: N_10  and  C_11 
REMARK       I    between atoms: C_11  and  N_13 
REMARK    3  A    between atoms: C_15  and  C_17 
ROOT
ATOM      1  C   LIG d   1       7.417   0.773  -4.400  0.00  0.00    -0.050 A 
ATOM      2  C   LIG d   1       6.782   1.495  -3.404  0.00  0.00    -0.059 A 
ATOM      3  C   LIG d   1       5.703   0.952  -2.732  0.00  0.00    -0.057 A 
ATOM      4  C   LIG d   1       5.249  -0.315  -3.049  0.00  0.00    -0.035 A 
ATOM      5  C   LIG d   1       5.881  -1.048  -4.050  0.00  0.00     0.001 A 
ATOM      6  C   LIG d   1       6.974  -0.489  -4.727  0.00  0.00    -0.050 A 
ATOM      7  C   LIG d   1       5.233  -2.363  -4.218  0.00  0.00     0.067 A 
ATOM      8  N   LIG d   1       5.581  -3.282  -5.066  0.00  0.00    -0.183 NA
ATOM      9  C   LIG d   1       4.095  -2.453  -3.230  0.00  0.00    -0.002 A 
ATOM     10  C   LIG d   1       4.109  -1.119  -2.472  0.00  0.00    -0.013 A 
ATOM     11  H   LIG d   1       4.275  -1.295  -1.409  0.00  0.00     0.035 H 
ATOM     12  H   LIG d   1       7.131   2.485  -3.151  0.00  0.00     0.062 H 
ATOM     13  H   LIG d   1       5.213   1.521  -1.955  0.00  0.00     0.062 H 
ATOM     14  H   LIG d   1       7.472  -1.050  -5.504  0.00  0.00     0.063 H 
ATOM     15  H   LIG d   1       4.258  -3.281  -2.540  0.00  0.00     0.034 H 
ATOM     16  H   LIG d   1       3.147  -2.580  -3.754  0.00  0.00     0.034 H 
ENDROOT
BRANCH   8  17
ATOM     17  N   LIG d   1       4.874  -4.491  -5.118  0.00  0.00    -0.191 N 
ATOM     18  C   LIG d   1       4.081  -4.763  -6.173  0.00  0.00     0.317 C 
ATOM     19  O   LIG d   1       3.468  -5.812  -6.218  0.00  0.00    -0.251 OA
ATOM     20  N   LIG d   1       3.968  -3.872  -7.178  0.00  0.00    -0.312 N 
ATOM     21  H   LIG d   1       4.457  -3.035  -7.142  0.00  0.00     0.146 HD
ATOM     22  H   LIG d   1       3.396  -4.068  -7.938  0.00  0.00     0.146 HD
ATOM     23  H   LIG d   1       4.956  -5.132  -4.395  0.00  0.00     0.179 HD
ENDBRANCH   8  17
BRANCH  10  24
ATOM     24  C   LIG d   1       2.786  -0.382  -2.682  0.00  0.00    -0.058 C 
ATOM     25  H   LIG d   1       1.956  -1.051  -2.453  0.00  0.00     0.024 H 
ATOM     26  H   LIG d   1       2.745   0.486  -2.023  0.00  0.00     0.024 H 
ATOM     27  H   LIG d   1       2.713  -0.054  -3.719  0.00  0.00     0.024 H 
ENDBRANCH  10  24
BRANCH   1  28
ATOM     28  C   LIG d   1       8.593   1.370  -5.128  0.00  0.00    -0.040 C 
ATOM     29  H   LIG d   1       9.019   2.177  -4.531  0.00  0.00     0.028 H 
ATOM     30  H   LIG d   1       9.347   0.601  -5.292  0.00  0.00     0.028 H 
ATOM     31  H   LIG d   1       8.263   1.765  -6.089  0.00  0.00     0.028 H 
ENDBRANCH   1  28
TORSDOF 3
ENDMDL
MODEL 3
REMARK VINA RESULT:      -5.7      3.764      5.243
REMARK  3 active torsions:
REMARK  status: ('A' for Active; 'I' for Inactive)
REMARK    1  A    between atoms: C_1  and  C_2 
REMARK    2  A    between atoms: N_9  and  N_10 
REMARK       I    between atoms: N_10  and  C_11 
REMARK       I    between atoms: C_11  and  N_13 
REMARK    3  A    between atoms: C_15  and  C_17 
ROOT
ATOM      1  C   LIG d   1       6.591  -2.396  -4.300  0.00  0.00    -0.050 A 
ATOM      2  C   LIG d   1       6.253  -2.232  -2.968  0.00  0.00    -0.059 A 
ATOM      3  C   LIG d   1       5.146  -1.480  -2.620  0.00  0.00    -0.057 A 
ATOM      4  C   LIG d   1       4.370  -0.887  -3.598  0.00  0.00    -0.035 A 
ATOM      5  C   LIG d   1       4.702  -1.046  -4.940  0.00  0.00     0.001 A 
ATOM      6  C   LIG d   1       5.827  -1.810  -5.284  0.00  0.00    -0.050 A 
ATOM      7  C   LIG d   1       3.742  -0.331  -5.802  0.00  0.00     0.067 A 
ATOM      8  N   LIG d   1       3.770  -0.282  -7.098  0.00  0.00    -0.183 NA
ATOM      9  C   LIG d   1       2.719   0.333  -4.912  0.00  0.00    -0.002 A 
ATOM     10  C   LIG d   1       3.131  -0.031  -3.479  0.00  0.00    -0.013 A 
ATOM     11  H   LIG d   1       2.334  -0.592  -2.992  0.00  0.00     0.035 H 
ATOM     12  H   LIG d   1       6.855  -2.692  -2.199  0.00  0.00     0.062 H 
ATOM     13  H   LIG d   1       4.888  -1.356  -1.578  0.00  0.00     0.062 H 
ATOM     14  H   LIG d   1       6.093  -1.940  -6.323  0.00  0.00     0.063 H 
ATOM     15  H   LIG d   1       1.723  -0.053  -5.128  0.00  0.00     0.034 H 
ATOM     16  H   LIG d   1       2.742   1.415  -5.049  0.00  0.00     0.034 H 
ENDROOT
BRANCH   8  17
ATOM     17  N   LIG d   1       2.789   0.438  -7.794  0.00  0.00    -0.191 N 
ATOM     18  C   LIG d   1       3.137   1.510  -8.534  0.00  0.00     0.317 C 
ATOM     19  O   LIG d   1       2.286   2.134  -9.137  0.00  0.00    -0.251 OA
ATOM     20  N   LIG d   1       4.428   1.888  -8.605  0.00  0.00    -0.312 N 
ATOM     21  H   LIG d   1       5.107   1.390  -8.123  0.00  0.00     0.146 HD
ATOM     22  H   LIG d   1       4.679   2.660  -9.138  0.00  0.00     0.146 HD
ATOM     23  H   LIG d   1       1.860   0.165  -7.743  0.00  0.00     0.179 HD
ENDBRANCH   8  17
BRANCH  10  24
ATOM     24  C   LIG d   1       3.442   1.238  -2.684  0.00  0.00    -0.058 C 
ATOM     25  H   LIG d   1       4.030   0.980  -1.803  0.00  0.00     0.024 H 
ATOM     26  H   LIG d   1       4.009   1.929  -3.309  0.00  0.00     0.024 H 
ATOM     27  H   LIG d   1       2.510   1.711  -2.375  0.00  0.00     0.024 H 
ENDBRANCH  10  24
BRANCH   1  28
ATOM     28  C   LIG d   1       7.797  -3.217  -4.674  0.00  0.00    -0.040 C 
ATOM     29  H   LIG d   1       7.971  -3.140  -5.748  0.00  0.00     0.028 H 
ATOM     30  H   LIG d   1       8.670  -2.847  -4.137  0.00  0.00     0.028 H 
ATOM     31  H   LIG d   1       7.624  -4.260  -4.410  0.00  0.00     0.028 H 
ENDBRANCH   1  28
TORSDOF 3
ENDMDL
MODEL 4
REMARK VINA RESULT:      -5.7      3.696      4.707
REMARK  3 active torsions:
REMARK  status: ('A' for Active; 'I' for Inactive)
REMARK    1  A    between atoms: C_1  and  C_2 
REMARK    2  A    between atoms: N_9  and  N_10 
REMARK       I    between atoms: N_10  and  C_11 
REMARK       I    between atoms: C_11  and  N_13 
REMARK    3  A    between atoms: C_15  and  C_17 
ROOT
ATOM      1  C   LIG d   1       4.800  -0.236  -2.351  0.00  0.00    -0.050 A 
ATOM      2  C   LIG d   1       3.864  -1.256  -2.345  0.00  0.00    -0.059 A 
ATOM      3  C   LIG d   1       4.088  -2.409  -3.074  0.00  0.00    -0.057 A 
ATOM      4  C   LIG d   1       5.247  -2.552  -3.815  0.00  0.00    -0.035 A 
ATOM      5  C   LIG d   1       6.194  -1.531  -3.827  0.00  0.00     0.001 A 
ATOM      6  C   LIG d   1       5.958  -0.365  -3.085  0.00  0.00    -0.050 A 
ATOM      7  C   LIG d   1       7.342  -1.897  -4.678  0.00  0.00     0.067 A 
ATOM      8  N   LIG d   1       8.391  -1.166  -4.899  0.00  0.00    -0.183 NA
ATOM      9  C   LIG d   1       7.084  -3.272  -5.246  0.00  0.00    -0.002 A 
ATOM     10  C   LIG d   1       5.720  -3.694  -4.682  0.00  0.00    -0.013 A 
ATOM     11  H   LIG d   1       5.827  -4.599  -4.084  0.00  0.00     0.035 H 
ATOM     12  H   LIG d   1       2.957  -1.151  -1.769  0.00  0.00     0.062 H 
ATOM     13  H   LIG d   1       3.354  -3.201  -3.065  0.00  0.00     0.062 H 
ATOM     14  H   LIG d   1       6.686   0.433  -3.087  0.00  0.00     0.063 H 
ATOM     15  H   LIG d   1       7.858  -3.967  -4.920  0.00  0.00     0.034 H 
ATOM     16  H   LIG d   1       7.046  -3.232  -6.335  0.00  0.00     0.034 H 
ENDROOT
BRANCH   8  17
ATOM     17  N   LIG d   1       9.413  -1.640  -5.733  0.00  0.00    -0.191 N 
ATOM     18  C   LIG d   1      10.680  -1.215  -5.555  0.00  0.00     0.317 C 
ATOM     19  O   LIG d   1      11.566  -1.627  -6.278  0.00  0.00    -0.251 OA
ATOM     20  N   LIG d   1      10.963  -0.335  -4.575  0.00  0.00    -0.312 N 
ATOM     21  H   LIG d   1      10.256  -0.007  -3.998  0.00  0.00     0.146 HD
ATOM     22  H   LIG d   1      11.875  -0.029  -4.447  0.00  0.00     0.146 HD
ATOM     23  H   LIG d   1       9.208  -2.274  -6.438  0.00  0.00     0.179 HD
ENDBRANCH   8  17
BRANCH  10  24
ATOM     24  C   LIG d   1       4.731  -3.933  -5.824  0.00  0.00    -0.058 C 
ATOM     25  H   LIG d   1       4.041  -3.091  -5.889  0.00  0.00     0.024 H 
ATOM     26  H   LIG d   1       5.277  -4.028  -6.763  0.00  0.00     0.024 H 
ATOM     27  H   LIG d   1       4.172  -4.849  -5.634  0.00  0.00     0.024 H 
ENDBRANCH  10  24
BRANCH   1  28
ATOM     28  C   LIG d   1       4.551   1.017  -1.553  0.00  0.00    -0.040 C 
ATOM     29  H   LIG d   1       4.882   0.867  -0.526  0.00  0.00     0.028 H 
ATOM     30  H   LIG d   1       5.103   1.846  -1.996  0.00  0.00     0.028 H 
ATOM     31  H   LIG d   1       3.485   1.247  -1.560  0.00  0.00     0.028 H 
ENDBRANCH   1  28
TORSDOF 3
ENDMDL
MODEL 5
REMARK VINA RESULT:      -5.5      3.996      4.636
REMARK  3 active torsions:
REMARK  status: ('A' for Active; 'I' for Inactive)
REMARK    1  A    between atoms: C_1  and  C_2 
REMARK    2  A    between atoms: N_9  and  N_10 
REMARK       I    between atoms: N_10  and  C_11 
REMARK       I    between atoms: C_11  and  N_13 
REMARK    3  A    between atoms: C_15  and  C_17 
ROOT
ATOM      1  C   LIG d   1       4.476  -0.171  -2.925  0.00  0.00    -0.050 A 
ATOM      2  C   LIG d   1       5.013  -1.418  -2.653  0.00  0.00    -0.059 A 
ATOM      3  C   LIG d   1       5.261  -2.307  -3.682  0.00  0.00    -0.057 A 
ATOM      4  C   LIG d   1       4.973  -1.959  -4.989  0.00  0.00    -0.035 A 
ATOM      5  C   LIG d   1       4.432  -0.708  -5.272  0.00  0.00     0.001 A 
ATOM      6  C   LIG d   1       4.184   0.187  -4.222  0.00  0.00    -0.050 A 
ATOM      7  C   LIG d   1       4.207  -0.554  -6.722  0.00  0.00     0.067 A 
ATOM      8  N   LIG d   1       3.716   0.492  -7.311  0.00  0.00    -0.183 NA
ATOM      9  C   LIG d   1       4.651  -1.828  -7.401  0.00  0.00    -0.002 A 
ATOM     10  C   LIG d   1       5.148  -2.739  -6.270  0.00  0.00    -0.013 A 
ATOM     11  H   LIG d   1       6.200  -2.981  -6.420  0.00  0.00     0.035 H 
ATOM     12  H   LIG d   1       5.240  -1.696  -1.634  0.00  0.00     0.062 H 
ATOM     13  H   LIG d   1       5.681  -3.278  -3.463  0.00  0.00     0.062 H 
ATOM     14  H   LIG d   1       3.765   1.161  -4.430  0.00  0.00     0.063 H 
ATOM     15  H   LIG d   1       5.459  -1.621  -8.102  0.00  0.00     0.034 H 
ATOM     16  H   LIG d   1       3.811  -2.293  -7.920  0.00  0.00     0.034 H 
ENDROOT
BRANCH   8  17
ATOM     17  N   LIG d   1       3.557   0.503  -8.703  0.00  0.00    -0.191 N 
ATOM     18  C   LIG d   1       4.214   1.413  -9.450  0.00  0.00     0.317 C 
ATOM     19  O   LIG d   1       4.076   1.422 -10.657  0.00  0.00    -0.251 OA
ATOM     20  N   LIG d   1       5.024   2.311  -8.857  0.00  0.00    -0.312 N 
ATOM     21  H   LIG d   1       5.134   2.304  -7.893  0.00  0.00     0.146 HD
ATOM     22  H   LIG d   1       5.497   2.967  -9.394  0.00  0.00     0.146 HD
ATOM     23  H   LIG d   1       2.973  -0.144  -9.129  0.00  0.00     0.179 HD
ENDBRANCH   8  17
BRANCH  10  24
ATOM     24  C   LIG d   1       4.315  -4.021  -6.224  0.00  0.00    -0.058 C 
ATOM     25  H   LIG d   1       4.286  -4.399  -5.202  0.00  0.00     0.024 H 
ATOM     26  H   LIG d   1       3.300  -3.807  -6.561  0.00  0.00     0.024 H 
ATOM     27  H   LIG d   1       4.763  -4.769  -6.877  0.00  0.00     0.024 H 
ENDBRANCH  10  24
BRANCH   1  28
ATOM     28  C   LIG d   1       4.209   0.794  -1.799  0.00  0.00    -0.040 C 
ATOM     29  H   LIG d   1       3.135   0.857  -1.621  0.00  0.00     0.028 H 
ATOM     30  H   LIG d   1       4.708   0.446  -0.895  0.00  0.00     0.028 H 
ATOM     31  H   LIG d   1       4.590   1.780  -2.068  0.00  0.00     0.028 H 
ENDBRANCH   1  28
TORSDOF 3
ENDMDL
MODEL 6
REMARK VINA RESULT:      -5.4      4.722      6.620
REMARK  3 active torsions:
REMARK  status: ('A' for Active; 'I' for Inactive)
REMARK    1  A    between atoms: C_1  and  C_2 
REMARK    2  A    between atoms: N_9  and  N_10 
REMARK       I    between atoms: N_10  and  C_11 
REMARK       I    between atoms: C_11  and  N_13 
REMARK    3  A    between atoms: C_15  and  C_17 
ROOT
ATOM      1  C   LIG d   1       6.628  -3.182  -4.835  0.00  0.00    -0.050 A 
ATOM      2  C   LIG d   1       5.309  -3.341  -4.444  0.00  0.00    -0.059 A 
ATOM      3  C   LIG d   1       4.626  -2.290  -3.861  0.00  0.00    -0.057 A 
ATOM      4  C   LIG d   1       5.253  -1.074  -3.663  0.00  0.00    -0.035 A 
ATOM      5  C   LIG d   1       6.579  -0.905  -4.053  0.00  0.00     0.001 A 
ATOM      6  C   LIG d   1       7.265  -1.976  -4.643  0.00  0.00    -0.050 A 
ATOM      7  C   LIG d   1       7.040   0.463  -3.748  0.00  0.00     0.067 A 
ATOM      8  N   LIG d   1       8.223   0.940  -3.986  0.00  0.00    -0.183 NA
ATOM      9  C   LIG d   1       5.894   1.211  -3.111  0.00  0.00    -0.002 A 
ATOM     10  C   LIG d   1       4.734   0.208  -3.058  0.00  0.00    -0.013 A 
ATOM     11  H   LIG d   1       3.890   0.581  -3.638  0.00  0.00     0.035 H 
ATOM     12  H   LIG d   1       4.814  -4.288  -4.596  0.00  0.00     0.062 H 
ATOM     13  H   LIG d   1       3.597  -2.421  -3.559  0.00  0.00     0.062 H 
ATOM     14  H   LIG d   1       8.294  -1.855  -4.950  0.00  0.00     0.063 H 
ATOM     15  H   LIG d   1       5.621   2.073  -3.720  0.00  0.00     0.034 H 
ATOM     16  H   LIG d   1       6.164   1.532  -2.104  0.00  0.00     0.034 H 
ENDROOT
BRANCH   8  17
ATOM     17  N   LIG d   1       8.527   2.265  -3.644  0.00  0.00    -0.191 N 
ATOM     18  C   LIG d   1       9.806   2.628  -3.426  0.00  0.00     0.317 C 
ATOM     19  O   LIG d   1      10.069   3.777  -3.130  0.00  0.00    -0.251 OA
ATOM     20  N   LIG d   1      10.793   1.718  -3.539  0.00  0.00    -0.312 N 
ATOM     21  H   LIG d   1      10.583   0.801  -3.776  0.00  0.00     0.146 HD
ATOM     22  H   LIG d   1      11.715   1.980  -3.382  0.00  0.00     0.146 HD
ATOM     23  H   LIG d   1       7.816   2.920  -3.563  0.00  0.00     0.179 HD
ENDBRANCH   8  17
BRANCH  10  24
ATOM     24  C   LIG d   1       4.311  -0.029  -1.607  0.00  0.00    -0.058 C 
ATOM     25  H   LIG d   1       3.568   0.715  -1.319  0.00  0.00     0.024 H 
ATOM     26  H   LIG d   1       3.882  -1.027  -1.512  0.00  0.00     0.024 H 
ATOM     27  H   LIG d   1       5.181   0.055  -0.956  0.00  0.00     0.024 H 
ENDBRANCH  10  24
BRANCH   1  28
ATOM     28  C   LIG d   1       7.367  -4.330  -5.471  0.00  0.00    -0.040 C 
ATOM     29  H   LIG d   1       7.648  -4.062  -6.490  0.00  0.00     0.028 H 
ATOM     30  H   LIG d   1       8.265  -4.549  -4.893  0.00  0.00     0.028 H 
ATOM     31  H   LIG d   1       6.724  -5.210  -5.492  0.00  0.00     0.028 H 
ENDBRANCH   1  28
TORSDOF 3
ENDMDL
MODEL 7
REMARK VINA RESULT:      -5.3      3.486      4.652
REMARK  3 active torsions:
REMARK  status: ('A' for Active; 'I' for Inactive)
REMARK    1  A    between atoms: C_1  and  C_2 
REMARK    2  A    between atoms: N_9  and  N_10 
REMARK       I    between atoms: N_10  and  C_11 
REMARK       I    between atoms: C_11  and  N_13 
REMARK    3  A    between atoms: C_15  and  C_17 
ROOT
ATOM      1  C   LIG d   1       3.281   0.058  -6.647  0.00  0.00    -0.050 A 
ATOM      2  C   LIG d   1       2.419   0.290  -5.589  0.00  0.00    -0.059 A 
ATOM      3  C   LIG d   1       2.861   0.142  -4.288  0.00  0.00    -0.057 A 
ATOM      4  C   LIG d   1       4.165  -0.239  -4.033  0.00  0.00    -0.035 A 
ATOM      5  C   LIG d   1       5.039  -0.475  -5.091  0.00  0.00     0.001 A 
ATOM      6  C   LIG d   1       4.582  -0.323  -6.408  0.00  0.00    -0.050 A 
ATOM      7  C   LIG d   1       6.370  -0.868  -4.588  0.00  0.00     0.067 A 
ATOM      8  N   LIG d   1       7.405  -1.155  -5.315  0.00  0.00    -0.183 NA
ATOM      9  C   LIG d   1       6.316  -0.876  -3.079  0.00  0.00    -0.002 A 
ATOM     10  C   LIG d   1       4.880  -0.466  -2.723  0.00  0.00    -0.013 A 
ATOM     11  H   LIG d   1       4.888   0.452  -2.136  0.00  0.00     0.035 H 
ATOM     12  H   LIG d   1       1.399   0.588  -5.781  0.00  0.00     0.062 H 
ATOM     13  H   LIG d   1       2.183   0.325  -3.467  0.00  0.00     0.062 H 
ATOM     14  H   LIG d   1       5.252  -0.503  -7.235  0.00  0.00     0.063 H 
ATOM     15  H   LIG d   1       7.026  -0.156  -2.672  0.00  0.00     0.034 H 
ATOM     16  H   LIG d   1       6.530  -1.874  -2.698  0.00  0.00     0.034 H 
ENDROOT
BRANCH   8  17
ATOM     17  N   LIG d   1       8.614  -1.513  -4.703  0.00  0.00    -0.191 N 
ATOM     18  C   LIG d   1       9.071  -2.777  -4.802  0.00  0.00     0.317 C 
ATOM     19  O   LIG d   1      10.119  -3.087  -4.271  0.00  0.00    -0.251 OA
ATOM     20  N   LIG d   1       8.366  -3.696  -5.491  0.00  0.00    -0.312 N 
ATOM     21  H   LIG d   1       7.530  -3.448  -5.914  0.00  0.00     0.146 HD
ATOM     22  H   LIG d   1       8.696  -4.606  -5.562  0.00  0.00     0.146 HD
ATOM     23  H   LIG d   1       9.121  -0.851  -4.207  0.00  0.00     0.179 HD
ENDBRANCH   8  17
BRANCH  10  24
ATOM     24  C   LIG d   1       4.196  -1.585  -1.936  0.00  0.00    -0.058 C 
ATOM     25  H   LIG d   1       4.665  -2.539  -2.177  0.00  0.00     0.024 H 
ATOM     26  H   LIG d   1       4.295  -1.391  -0.868  0.00  0.00     0.024 H 
ATOM     27  H   LIG d   1       3.139  -1.622  -2.202  0.00  0.00     0.024 H 
ENDBRANCH  10  24
BRANCH   1  28
ATOM     28  C   LIG d   1       2.794   0.222  -8.064  0.00  0.00    -0.040 C 
ATOM     29  H   LIG d   1       2.527  -0.754  -8.471  0.00  0.00     0.028 H 
ATOM     30  H   LIG d   1       1.919   0.872  -8.075  0.00  0.00     0.028 H 
ATOM     31  H   LIG d   1       3.584   0.664  -8.671  0.00  0.00     0.028 H 
ENDBRANCH   1  28
TORSDOF 3
ENDMDL
MODEL 8
REMARK VINA RESULT:      -5.0     12.086     14.015
REMARK  3 active torsions:
REMARK  status: ('A' for Active; 'I' for Inactive)
REMARK    1  A    between atoms: C_1  and  C_2 
REMARK    2  A    between atoms: N_9  and  N_10 
REMARK       I    between atoms: N_10  and  C_11 
REMARK       I    between atoms: C_11  and  N_13 
REMARK    3  A    between atoms: C_15  and  C_17 
ROOT
ATOM      1  C   LIG d   1      10.471   5.979  -1.403  0.00  0.00    -0.050 A 
ATOM      2  C   LIG d   1      10.839   5.807  -0.080  0.00  0.00    -0.059 A 
ATOM      3  C   LIG d   1      11.055   6.906   0.730  0.00  0.00    -0.057 A 
ATOM      4  C   LIG d   1      10.905   8.185   0.225  0.00  0.00    -0.035 A 
ATOM      5  C   LIG d   1      10.535   8.368  -1.104  0.00  0.00     0.001 A 
ATOM      6  C   LIG d   1      10.319   7.247  -1.919  0.00  0.00    -0.050 A 
ATOM      7  C   LIG d   1      10.436   9.805  -1.424  0.00  0.00     0.067 A 
ATOM      8  N   LIG d   1      10.112  10.310  -2.574  0.00  0.00    -0.183 NA
ATOM      9  C   LIG d   1      10.775  10.585  -0.176  0.00  0.00    -0.002 A 
ATOM     10  C   LIG d   1      11.080   9.528   0.893  0.00  0.00    -0.013 A 
ATOM     11  H   LIG d   1      10.382   9.625   1.725  0.00  0.00     0.035 H 
ATOM     12  H   LIG d   1      10.958   4.811   0.321  0.00  0.00     0.062 H 
ATOM     13  H   LIG d   1      11.342   6.765   1.762  0.00  0.00     0.062 H 
ATOM     14  H   LIG d   1      10.031   7.377  -2.952  0.00  0.00     0.063 H 
ATOM     15  H   LIG d   1       9.926  11.197   0.128  0.00  0.00     0.034 H 
ATOM     16  H   LIG d   1      11.650  11.213  -0.348  0.00  0.00     0.034 H 
ENDROOT
BRANCH   8  17
ATOM     17  N   LIG d   1      10.055  11.700  -2.738  0.00  0.00    -0.191 N 
ATOM     18  C   LIG d   1       8.868  12.307  -2.940  0.00  0.00     0.317 C 
ATOM     19  O   LIG d   1       8.819  13.513  -3.083  0.00  0.00    -0.251 OA
ATOM     20  N   LIG d   1       7.737  11.576  -2.983  0.00  0.00    -0.312 N 
ATOM     21  H   LIG d   1       7.777  10.614  -2.870  0.00  0.00     0.146 HD
ATOM     22  H   LIG d   1       6.883  12.013  -3.128  0.00  0.00     0.146 HD
ATOM     23  H   LIG d   1      10.870  12.226  -2.707  0.00  0.00     0.179 HD
ENDBRANCH   8  17
BRANCH  10  24
ATOM     24  C   LIG d   1      12.517   9.685   1.392  0.00  0.00    -0.058 C 
ATOM     25  H   LIG d   1      12.523   9.708   2.482  0.00  0.00     0.024 H 
ATOM     26  H   LIG d   1      13.116   8.843   1.043  0.00  0.00     0.024 H 
ATOM     27  H   LIG d   1      12.936  10.614   1.005  0.00  0.00     0.024 H 
ENDBRANCH  10  24
BRANCH   1  28
ATOM     28  C   LIG d   1      10.236   4.777  -2.280  0.00  0.00    -0.040 C 
ATOM     29  H   LIG d   1      10.674   4.954  -3.263  0.00  0.00     0.028 H 
ATOM     30  H   LIG d   1      10.700   3.900  -1.828  0.00  0.00     0.028 H 
ATOM     31  H   LIG d   1       9.165   4.608  -2.386  0.00  0.00     0.028 H 
ENDBRANCH   1  28
TORSDOF 3
ENDMDL
MODEL 9
REMARK VINA RESULT:      -5.0      7.897      9.561
REMARK  3 active torsions:
REMARK  status: ('A' for Active; 'I' for Inactive)
REMARK    1  A    between atoms: C_1  and  C_2 
REMARK    2  A    between atoms: N_9  and  N_10 
REMARK       I    between atoms: N_10  and  C_11 
REMARK       I    between atoms: C_11  and  N_13 
REMARK    3  A    between atoms: C_15  and  C_17 
ROOT
ATOM      1  C   LIG d   1      10.643   6.680  -0.132  0.00  0.00    -0.050 A 
ATOM      2  C   LIG d   1      10.040   7.742  -0.783  0.00  0.00    -0.059 A 
ATOM      3  C   LIG d   1       9.552   7.583  -2.067  0.00  0.00    -0.057 A 
ATOM      4  C   LIG d   1       9.663   6.364  -2.710  0.00  0.00    -0.035 A 
ATOM      5  C   LIG d   1      10.269   5.291  -2.063  0.00  0.00     0.001 A 
ATOM      6  C   LIG d   1      10.762   5.461  -0.761  0.00  0.00    -0.050 A 
ATOM      7  C   LIG d   1      10.278   4.098  -2.932  0.00  0.00     0.067 A 
ATOM      8  N   LIG d   1      10.768   2.936  -2.627  0.00  0.00    -0.183 NA
ATOM      9  C   LIG d   1       9.616   4.466  -4.238  0.00  0.00    -0.002 A 
ATOM     10  C   LIG d   1       9.218   5.941  -4.089  0.00  0.00    -0.013 A 
ATOM     11  H   LIG d   1       8.137   6.047  -4.183  0.00  0.00     0.035 H 
ATOM     12  H   LIG d   1       9.950   8.697  -0.287  0.00  0.00     0.062 H 
ATOM     13  H   LIG d   1       9.081   8.416  -2.569  0.00  0.00     0.062 H 
ATOM     14  H   LIG d   1      11.233   4.634  -0.251  0.00  0.00     0.063 H 
ATOM     15  H   LIG d   1       8.731   3.850  -4.399  0.00  0.00     0.034 H 
ATOM     16  H   LIG d   1      10.316   4.345  -5.065  0.00  0.00     0.034 H 
ENDROOT
BRANCH   8  17
ATOM     17  N   LIG d   1      10.708   1.885  -3.552  0.00  0.00    -0.191 N 
ATOM     18  C   LIG d   1      11.833   1.230  -3.903  0.00  0.00     0.317 C 
ATOM     19  O   LIG d   1      11.781   0.319  -4.705  0.00  0.00    -0.251 OA
ATOM     20  N   LIG d   1      13.015   1.586  -3.363  0.00  0.00    -0.312 N 
ATOM     21  H   LIG d   1      13.057   2.313  -2.722  0.00  0.00     0.146 HD
ATOM     22  H   LIG d   1      13.825   1.114  -3.615  0.00  0.00     0.146 HD
ATOM     23  H   LIG d   1       9.857   1.630  -3.941  0.00  0.00     0.179 HD
ENDBRANCH   8  17
BRANCH  10  24
ATOM     24  C   LIG d   1       9.923   6.785  -5.152  0.00  0.00    -0.058 C 
ATOM     25  H   LIG d   1      10.279   7.712  -4.703  0.00  0.00     0.024 H 
ATOM     26  H   LIG d   1      10.769   6.228  -5.556  0.00  0.00     0.024 H 
ATOM     27  H   LIG d   1       9.224   7.015  -5.956  0.00  0.00     0.024 H 
ENDBRANCH  10  24
BRANCH   1  28
ATOM     28  C   LIG d   1      11.173   6.858   1.267  0.00  0.00    -0.040 C 
ATOM     29  H   LIG d   1      10.859   6.016   1.884  0.00  0.00     0.028 H 
ATOM     30  H   LIG d   1      12.261   6.904   1.241  0.00  0.00     0.028 H 
ATOM     31  H   LIG d   1      10.780   7.783   1.689  0.00  0.00     0.028 H 
ENDBRANCH   1  28
TORSDOF 3
ENDMDL
