MODEL 1
REMARK VINA RESULT:      -4.7      0.000      0.000
REMARK  6 active torsions:
REMARK  status: ('A' for Active; 'I' for Inactive)
REMARK    1  A    between atoms: C_1  and  O_2 
REMARK    2  A    between atoms: O_2  and  C_3 
REMARK    3  A    between atoms: C_5  and  C_10 
REMARK    4  A    between atoms: C_8  and  O_9 
REMARK    5  A    between atoms: C_10  and  O_12 
REMARK    6  A    between atoms: O_12  and  C_13 
ROOT
ATOM      1  C   LIG d   1       5.700   0.228  -3.324  0.00  0.00     0.162 A 
ATOM      2  C   LIG d   1       5.852  -0.899  -4.108  0.00  0.00    -0.002 A 
ATOM      3  C   LIG d   1       5.190  -2.081  -3.762  0.00  0.00     0.063 A 
ATOM      4  C   LIG d   1       4.382  -2.118  -2.623  0.00  0.00    -0.044 A 
ATOM      5  C   LIG d   1       4.230  -0.989  -1.849  0.00  0.00    -0.016 A 
ATOM      6  C   LIG d   1       4.888   0.185  -2.192  0.00  0.00     0.159 A 
ATOM      7  H   LIG d   1       6.482  -0.867  -4.985  0.00  0.00     0.066 H 
ATOM      8  H   LIG d   1       3.873  -3.031  -2.352  0.00  0.00     0.063 H 
ATOM      9  H   LIG d   1       3.602  -1.017  -0.971  0.00  0.00     0.066 H 
ENDROOT
BRANCH   3  10
ATOM     10  C   LIG d   1       5.350  -3.287  -4.595  0.00  0.00     0.339 C 
ATOM     11  O   LIG d   1       6.460  -3.665  -4.911  0.00  0.00    -0.245 OA
BRANCH  10  12
ATOM     12  O   LIG d   1       4.264  -3.969  -5.008  0.00  0.00    -0.464 OA
BRANCH  12  13
ATOM     13  C   LIG d   1       4.310  -4.539  -6.343  0.00  0.00     0.082 C 
ATOM     14  H   LIG d   1       4.012  -5.586  -6.302  0.00  0.00     0.066 H 
ATOM     15  H   LIG d   1       3.627  -3.992  -6.995  0.00  0.00     0.066 H 
ATOM     16  H   LIG d   1       5.324  -4.463  -6.735  0.00  0.00     0.066 H 
ENDBRANCH  12  13
ENDBRANCH  10  12
ENDBRANCH   3  10
BRANCH   1  17
ATOM     17  O   LIG d   1       6.341   1.380  -3.658  0.00  0.00    -0.491 OA
BRANCH  17  18
ATOM     18  C   LIG d   1       7.752   1.299  -3.871  0.00  0.00     0.079 C 
ATOM     19  H   LIG d   1       7.948   1.035  -4.911  0.00  0.00     0.066 H 
ATOM     20  H   LIG d   1       8.209   2.264  -3.650  0.00  0.00     0.066 H 
ATOM     21  H   LIG d   1       8.176   0.538  -3.217  0.00  0.00     0.066 H 
ENDBRANCH  17  18
ENDBRANCH   1  17
BRANCH   6  22
ATOM     22  O   LIG d   1       4.740   1.295  -1.422  0.00  0.00    -0.503 OA
ATOM     23  H   LIG d   1       5.306   2.034  -1.684  0.00  0.00     0.292 HD
ENDBRANCH   6  22
TORSDOF 6
ENDMDL
MODEL 2
REMARK VINA RESULT:      -4.6      1.821      2.123
REMARK  6 active torsions:
REMARK  status: ('A' for Active; 'I' for Inactive)
REMARK    1  A    between atoms: C_1  and  O_2 
REMARK    2  A    between atoms: O_2  and  C_3 
REMARK    3  A    between atoms: C_5  and  C_10 
REMARK    4  A    between atoms: C_8  and  O_9 
REMARK    5  A    between atoms: C_10  and  O_12 
REMARK    6  A    between atoms: O_12  and  C_13 
ROOT
ATOM      1  C   LIG d   1       3.572   0.057  -4.047  0.00  0.00     0.162 A 
ATOM      2  C   LIG d   1       4.038  -1.112  -4.617  0.00  0.00    -0.002 A 
ATOM      3  C   LIG d   1       4.652  -2.080  -3.817  0.00  0.00     0.063 A 
ATOM      4  C   LIG d   1       4.797  -1.859  -2.445  0.00  0.00    -0.044 A 
ATOM      5  C   LIG d   1       4.324  -0.694  -1.882  0.00  0.00    -0.016 A 
ATOM      6  C   LIG d   1       3.715   0.268  -2.676  0.00  0.00     0.159 A 
ATOM      7  H   LIG d   1       3.928  -1.276  -5.679  0.00  0.00     0.066 H 
ATOM      8  H   LIG d   1       5.274  -2.603  -1.826  0.00  0.00     0.063 H 
ATOM      9  H   LIG d   1       4.433  -0.526  -0.820  0.00  0.00     0.066 H 
ENDROOT
BRANCH   3  10
ATOM     10  C   LIG d   1       5.152  -3.328  -4.421  0.00  0.00     0.339 C 
ATOM     11  O   LIG d   1       6.347  -3.507  -4.549  0.00  0.00    -0.245 OA
BRANCH  10  12
ATOM     12  O   LIG d   1       4.283  -4.272  -4.835  0.00  0.00    -0.464 OA
BRANCH  12  13
ATOM     13  C   LIG d   1       4.303  -4.615  -6.246  0.00  0.00     0.082 C 
ATOM     14  H   LIG d   1       4.585  -3.738  -6.829  0.00  0.00     0.066 H 
ATOM     15  H   LIG d   1       5.027  -5.412  -6.416  0.00  0.00     0.066 H 
ATOM     16  H   LIG d   1       3.313  -4.952  -6.551  0.00  0.00     0.066 H 
ENDBRANCH  12  13
ENDBRANCH  10  12
ENDBRANCH   3  10
BRANCH   1  17
ATOM     17  O   LIG d   1       2.973   1.000  -4.821  0.00  0.00    -0.491 OA
BRANCH  17  18
ATOM     18  C   LIG d   1       2.650   0.629  -6.163  0.00  0.00     0.079 C 
ATOM     19  H   LIG d   1       1.575   0.471  -6.249  0.00  0.00     0.066 H 
ATOM     20  H   LIG d   1       2.956   1.424  -6.844  0.00  0.00     0.066 H 
ATOM     21  H   LIG d   1       3.174  -0.292  -6.421  0.00  0.00     0.066 H 
ENDBRANCH  17  18
ENDBRANCH   1  17
BRANCH   6  22
ATOM     22  O   LIG d   1       3.256   1.418  -2.117  0.00  0.00    -0.503 OA
ATOM     23  H   LIG d   1       3.488   2.215  -2.611  0.00  0.00     0.292 HD
ENDBRANCH   6  22
TORSDOF 6
ENDMDL
MODEL 3
REMARK VINA RESULT:      -4.3      1.739      4.676
REMARK  6 active torsions:
REMARK  status: ('A' for Active; 'I' for Inactive)
REMARK    1  A    between atoms: C_1  and  O_2 
REMARK    2  A    between atoms: O_2  and  C_3 
REMARK    3  A    between atoms: C_5  and  C_10 
REMARK    4  A    between atoms: C_8  and  O_9 
REMARK    5  A    between atoms: C_10  and  O_12 
REMARK    6  A    between atoms: O_12  and  C_13 
ROOT
ATOM      1  C   LIG d   1       4.412  -1.334  -5.475  0.00  0.00     0.162 A 
ATOM      2  C   LIG d   1       4.752  -0.190  -4.779  0.00  0.00    -0.002 A 
ATOM      3  C   LIG d   1       5.068  -0.271  -3.419  0.00  0.00     0.063 A 
ATOM      4  C   LIG d   1       5.032  -1.507  -2.769  0.00  0.00    -0.044 A 
ATOM      5  C   LIG d   1       4.697  -2.645  -3.470  0.00  0.00    -0.016 A 
ATOM      6  C   LIG d   1       4.383  -2.565  -4.821  0.00  0.00     0.159 A 
ATOM      7  H   LIG d   1       4.774   0.764  -5.285  0.00  0.00     0.066 H 
ATOM      8  H   LIG d   1       5.271  -1.571  -1.718  0.00  0.00     0.063 H 
ATOM      9  H   LIG d   1       4.673  -3.600  -2.967  0.00  0.00     0.066 H 
ENDROOT
BRANCH   3  10
ATOM     10  C   LIG d   1       5.431   0.947  -2.673  0.00  0.00     0.339 C 
ATOM     11  O   LIG d   1       4.951   1.154  -1.576  0.00  0.00    -0.245 OA
BRANCH  10  12
ATOM     12  O   LIG d   1       6.294   1.833  -3.207  0.00  0.00    -0.464 OA
BRANCH  12  13
ATOM     13  C   LIG d   1       7.566   1.314  -3.679  0.00  0.00     0.082 C 
ATOM     14  H   LIG d   1       8.266   2.138  -3.817  0.00  0.00     0.066 H 
ATOM     15  H   LIG d   1       7.968   0.615  -2.944  0.00  0.00     0.066 H 
ATOM     16  H   LIG d   1       7.419   0.798  -4.627  0.00  0.00     0.066 H 
ENDBRANCH  12  13
ENDBRANCH  10  12
ENDBRANCH   3  10
BRANCH   1  17
ATOM     17  O   LIG d   1       4.106  -1.260  -6.797  0.00  0.00    -0.491 OA
BRANCH  17  18
ATOM     18  C   LIG d   1       3.236  -0.202  -7.204  0.00  0.00     0.079 C 
ATOM     19  H   LIG d   1       2.425  -0.099  -6.482  0.00  0.00     0.066 H 
ATOM     20  H   LIG d   1       3.797   0.732  -7.254  0.00  0.00     0.066 H 
ATOM     21  H   LIG d   1       2.821  -0.429  -8.185  0.00  0.00     0.066 H 
ENDBRANCH  17  18
ENDBRANCH   1  17
BRANCH   6  22
ATOM     22  O   LIG d   1       4.048  -3.688  -5.506  0.00  0.00    -0.503 OA
ATOM     23  H   LIG d   1       3.289  -3.579  -6.094  0.00  0.00     0.292 HD
ENDBRANCH   6  22
TORSDOF 6
ENDMDL
MODEL 4
REMARK VINA RESULT:      -4.2      3.395      4.304
REMARK  6 active torsions:
REMARK  status: ('A' for Active; 'I' for Inactive)
REMARK    1  A    between atoms: C_1  and  O_2 
REMARK    2  A    between atoms: O_2  and  C_3 
REMARK    3  A    between atoms: C_5  and  C_10 
REMARK    4  A    between atoms: C_8  and  O_9 
REMARK    5  A    between atoms: C_10  and  O_12 
REMARK    6  A    between atoms: O_12  and  C_13 
ROOT
ATOM      1  C   LIG d   1       4.651  -1.439  -4.214  0.00  0.00     0.162 A 
ATOM      2  C   LIG d   1       4.397  -1.028  -5.508  0.00  0.00    -0.002 A 
ATOM      3  C   LIG d   1       3.338  -0.152  -5.765  0.00  0.00     0.063 A 
ATOM      4  C   LIG d   1       2.538   0.299  -4.712  0.00  0.00    -0.044 A 
ATOM      5  C   LIG d   1       2.801  -0.109  -3.423  0.00  0.00    -0.016 A 
ATOM      6  C   LIG d   1       3.852  -0.980  -3.168  0.00  0.00     0.159 A 
ATOM      7  H   LIG d   1       5.015  -1.384  -6.320  0.00  0.00     0.066 H 
ATOM      8  H   LIG d   1       1.717   0.973  -4.908  0.00  0.00     0.063 H 
ATOM      9  H   LIG d   1       2.185   0.244  -2.609  0.00  0.00     0.066 H 
ENDROOT
BRANCH   3  10
ATOM     10  C   LIG d   1       3.062   0.288  -7.144  0.00  0.00     0.339 C 
ATOM     11  O   LIG d   1       2.287  -0.338  -7.839  0.00  0.00    -0.245 OA
BRANCH  10  12
ATOM     12  O   LIG d   1       3.672   1.385  -7.636  0.00  0.00    -0.464 OA
BRANCH  12  13
ATOM     13  C   LIG d   1       2.931   2.173  -8.606  0.00  0.00     0.082 C 
ATOM     14  H   LIG d   1       2.350   2.935  -8.087  0.00  0.00     0.066 H 
ATOM     15  H   LIG d   1       3.629   2.654  -9.292  0.00  0.00     0.066 H 
ATOM     16  H   LIG d   1       2.261   1.522  -9.167  0.00  0.00     0.066 H 
ENDBRANCH  12  13
ENDBRANCH  10  12
ENDBRANCH   3  10
BRANCH   1  17
ATOM     17  O   LIG d   1       5.681  -2.290  -3.961  0.00  0.00    -0.491 OA
BRANCH  17  18
ATOM     18  C   LIG d   1       5.789  -3.445  -4.795  0.00  0.00     0.079 C 
ATOM     19  H   LIG d   1       4.966  -3.456  -5.510  0.00  0.00     0.066 H 
ATOM     20  H   LIG d   1       6.737  -3.416  -5.334  0.00  0.00     0.066 H 
ATOM     21  H   LIG d   1       5.748  -4.343  -4.180  0.00  0.00     0.066 H 
ENDBRANCH  17  18
ENDBRANCH   1  17
BRANCH   6  22
ATOM     22  O   LIG d   1       4.104  -1.385  -1.896  0.00  0.00    -0.503 OA
ATOM     23  H   LIG d   1       3.315  -1.455  -1.342  0.00  0.00     0.292 HD
ENDBRANCH   6  22
TORSDOF 6
ENDMDL
MODEL 5
REMARK VINA RESULT:      -4.2      1.602      4.449
REMARK  6 active torsions:
REMARK  status: ('A' for Active; 'I' for Inactive)
REMARK    1  A    between atoms: C_1  and  O_2 
REMARK    2  A    between atoms: O_2  and  C_3 
REMARK    3  A    between atoms: C_5  and  C_10 
REMARK    4  A    between atoms: C_8  and  O_9 
REMARK    5  A    between atoms: C_10  and  O_12 
REMARK    6  A    between atoms: O_12  and  C_13 
ROOT
ATOM      1  C   LIG d   1       5.518  -1.652  -3.508  0.00  0.00     0.162 A 
ATOM      2  C   LIG d   1       6.436  -0.747  -4.006  0.00  0.00    -0.002 A 
ATOM      3  C   LIG d   1       6.450   0.566  -3.527  0.00  0.00     0.063 A 
ATOM      4  C   LIG d   1       5.532   0.959  -2.549  0.00  0.00    -0.044 A 
ATOM      5  C   LIG d   1       4.623   0.050  -2.052  0.00  0.00    -0.016 A 
ATOM      6  C   LIG d   1       4.609  -1.254  -2.528  0.00  0.00     0.159 A 
ATOM      7  H   LIG d   1       7.140  -1.055  -4.765  0.00  0.00     0.066 H 
ATOM      8  H   LIG d   1       5.538   1.973  -2.180  0.00  0.00     0.063 H 
ATOM      9  H   LIG d   1       3.917   0.354  -1.293  0.00  0.00     0.066 H 
ENDROOT
BRANCH   3  10
ATOM     10  C   LIG d   1       7.426   1.534  -4.056  0.00  0.00     0.339 C 
ATOM     11  O   LIG d   1       8.220   2.069  -3.308  0.00  0.00    -0.245 OA
BRANCH  10  12
ATOM     12  O   LIG d   1       7.437   1.830  -5.371  0.00  0.00    -0.464 OA
BRANCH  12  13
ATOM     13  C   LIG d   1       8.704   1.691  -6.068  0.00  0.00     0.082 C 
ATOM     14  H   LIG d   1       9.524   1.844  -5.366  0.00  0.00     0.066 H 
ATOM     15  H   LIG d   1       8.775   0.691  -6.497  0.00  0.00     0.066 H 
ATOM     16  H   LIG d   1       8.763   2.433  -6.864  0.00  0.00     0.066 H 
ENDBRANCH  12  13
ENDBRANCH  10  12
ENDBRANCH   3  10
BRANCH   1  17
ATOM     17  O   LIG d   1       5.502  -2.930  -3.971  0.00  0.00    -0.491 OA
BRANCH  17  18
ATOM     18  C   LIG d   1       4.997  -3.136  -5.291  0.00  0.00     0.079 C 
ATOM     19  H   LIG d   1       5.281  -4.129  -5.639  0.00  0.00     0.066 H 
ATOM     20  H   LIG d   1       3.910  -3.053  -5.281  0.00  0.00     0.066 H 
ATOM     21  H   LIG d   1       5.413  -2.384  -5.961  0.00  0.00     0.066 H 
ENDBRANCH  17  18
ENDBRANCH   1  17
BRANCH   6  22
ATOM     22  O   LIG d   1       3.707  -2.145  -2.039  0.00  0.00    -0.503 OA
ATOM     23  H   LIG d   1       3.247  -1.842  -1.245  0.00  0.00     0.292 HD
ENDBRANCH   6  22
TORSDOF 6
ENDMDL
MODEL 6
REMARK VINA RESULT:      -4.1      2.586      3.242
REMARK  6 active torsions:
REMARK  status: ('A' for Active; 'I' for Inactive)
REMARK    1  A    between atoms: C_1  and  O_2 
REMARK    2  A    between atoms: O_2  and  C_3 
REMARK    3  A    between atoms: C_5  and  C_10 
REMARK    4  A    between atoms: C_8  and  O_9 
REMARK    5  A    between atoms: C_10  and  O_12 
REMARK    6  A    between atoms: O_12  and  C_13 
ROOT
ATOM      1  C   LIG d   1       3.805  -0.248  -4.818  0.00  0.00     0.162 A 
ATOM      2  C   LIG d   1       5.170  -0.461  -4.846  0.00  0.00    -0.002 A 
ATOM      3  C   LIG d   1       5.769  -1.266  -3.872  0.00  0.00     0.063 A 
ATOM      4  C   LIG d   1       4.985  -1.847  -2.872  0.00  0.00    -0.044 A 
ATOM      5  C   LIG d   1       3.624  -1.636  -2.853  0.00  0.00    -0.016 A 
ATOM      6  C   LIG d   1       3.029  -0.836  -3.820  0.00  0.00     0.159 A 
ATOM      7  H   LIG d   1       5.772  -0.005  -5.618  0.00  0.00     0.066 H 
ATOM      8  H   LIG d   1       5.446  -2.466  -2.117  0.00  0.00     0.063 H 
ATOM      9  H   LIG d   1       3.019  -2.089  -2.082  0.00  0.00     0.066 H 
ENDROOT
BRANCH   3  10
ATOM     10  C   LIG d   1       7.225  -1.495  -3.897  0.00  0.00     0.339 C 
ATOM     11  O   LIG d   1       7.969  -0.634  -4.323  0.00  0.00    -0.245 OA
BRANCH  10  12
ATOM     12  O   LIG d   1       7.731  -2.661  -3.450  0.00  0.00    -0.464 OA
BRANCH  12  13
ATOM     13  C   LIG d   1       7.837  -3.746  -4.409  0.00  0.00     0.082 C 
ATOM     14  H   LIG d   1       8.820  -3.721  -4.879  0.00  0.00     0.066 H 
ATOM     15  H   LIG d   1       7.705  -4.699  -3.895  0.00  0.00     0.066 H 
ATOM     16  H   LIG d   1       7.066  -3.634  -5.171  0.00  0.00     0.066 H 
ENDBRANCH  12  13
ENDBRANCH  10  12
ENDBRANCH   3  10
BRANCH   1  17
ATOM     17  O   LIG d   1       3.219   0.533  -5.764  0.00  0.00    -0.491 OA
BRANCH  17  18
ATOM     18  C   LIG d   1       3.129  -0.005  -7.084  0.00  0.00     0.079 C 
ATOM     19  H   LIG d   1       4.033   0.241  -7.641  0.00  0.00     0.066 H 
ATOM     20  H   LIG d   1       3.021  -1.089  -7.029  0.00  0.00     0.066 H 
ATOM     21  H   LIG d   1       2.263   0.421  -7.592  0.00  0.00     0.066 H 
ENDBRANCH  17  18
ENDBRANCH   1  17
BRANCH   6  22
ATOM     22  O   LIG d   1       1.687  -0.626  -3.794  0.00  0.00    -0.503 OA
ATOM     23  H   LIG d   1       1.433   0.259  -3.499  0.00  0.00     0.292 HD
ENDBRANCH   6  22
TORSDOF 6
ENDMDL
MODEL 7
REMARK VINA RESULT:      -4.0      9.028     11.356
REMARK  6 active torsions:
REMARK  status: ('A' for Active; 'I' for Inactive)
REMARK    1  A    between atoms: C_1  and  O_2 
REMARK    2  A    between atoms: O_2  and  C_3 
REMARK    3  A    between atoms: C_5  and  C_10 
REMARK    4  A    between atoms: C_8  and  O_9 
REMARK    5  A    between atoms: C_10  and  O_12 
REMARK    6  A    between atoms: O_12  and  C_13 
ROOT
ATOM      1  C   LIG d   1      10.991   6.256  -0.055  0.00  0.00     0.162 A 
ATOM      2  C   LIG d   1      10.523   7.555  -0.097  0.00  0.00    -0.002 A 
ATOM      3  C   LIG d   1       9.833   8.009  -1.224  0.00  0.00     0.063 A 
ATOM      4  C   LIG d   1       9.625   7.150  -2.306  0.00  0.00    -0.044 A 
ATOM      5  C   LIG d   1      10.089   5.854  -2.255  0.00  0.00    -0.016 A 
ATOM      6  C   LIG d   1      10.775   5.402  -1.135  0.00  0.00     0.159 A 
ATOM      7  H   LIG d   1      10.690   8.217   0.740  0.00  0.00     0.066 H 
ATOM      8  H   LIG d   1       9.095   7.500  -3.180  0.00  0.00     0.063 H 
ATOM      9  H   LIG d   1       9.925   5.189  -3.090  0.00  0.00     0.066 H 
ENDROOT
BRANCH   3  10
ATOM     10  C   LIG d   1       9.332   9.395  -1.274  0.00  0.00     0.339 C 
ATOM     11  O   LIG d   1       8.362   9.715  -0.615  0.00  0.00    -0.245 OA
BRANCH  10  12
ATOM     12  O   LIG d   1       9.948  10.307  -2.051  0.00  0.00    -0.464 OA
BRANCH  12  13
ATOM     13  C   LIG d   1       9.100  11.231  -2.784  0.00  0.00     0.082 C 
ATOM     14  H   LIG d   1       8.642  10.713  -3.627  0.00  0.00     0.066 H 
ATOM     15  H   LIG d   1       8.320  11.610  -2.123  0.00  0.00     0.066 H 
ATOM     16  H   LIG d   1       9.702  12.062  -3.151  0.00  0.00     0.066 H 
ENDBRANCH  12  13
ENDBRANCH  10  12
ENDBRANCH   3  10
BRANCH   1  17
ATOM     17  O   LIG d   1      11.662   5.809   1.041  0.00  0.00    -0.491 OA
BRANCH  17  18
ATOM     18  C   LIG d   1      10.906   5.648   2.243  0.00  0.00     0.079 C 
ATOM     19  H   LIG d   1      11.527   5.905   3.101  0.00  0.00     0.066 H 
ATOM     20  H   LIG d   1      10.035   6.303   2.216  0.00  0.00     0.066 H 
ATOM     21  H   LIG d   1      10.578   4.612   2.330  0.00  0.00     0.066 H 
ENDBRANCH  17  18
ENDBRANCH   1  17
BRANCH   6  22
ATOM     22  O   LIG d   1      11.237   4.125  -1.093  0.00  0.00    -0.503 OA
ATOM     23  H   LIG d   1      12.201   4.055  -1.087  0.00  0.00     0.292 HD
ENDBRANCH   6  22
TORSDOF 6
ENDMDL
MODEL 8
REMARK VINA RESULT:      -4.0      3.588      4.491
REMARK  6 active torsions:
REMARK  status: ('A' for Active; 'I' for Inactive)
REMARK    1  A    between atoms: C_1  and  O_2 
REMARK    2  A    between atoms: O_2  and  C_3 
REMARK    3  A    between atoms: C_5  and  C_10 
REMARK    4  A    between atoms: C_8  and  O_9 
REMARK    5  A    between atoms: C_10  and  O_12 
REMARK    6  A    between atoms: O_12  and  C_13 
ROOT
ATOM      1  C   LIG d   1       3.455  -0.409  -3.872  0.00  0.00     0.162 A 
ATOM      2  C   LIG d   1       3.086   0.171  -5.071  0.00  0.00    -0.002 A 
ATOM      3  C   LIG d   1       3.532  -0.379  -6.276  0.00  0.00     0.063 A 
ATOM      4  C   LIG d   1       4.352  -1.510  -6.263  0.00  0.00    -0.044 A 
ATOM      5  C   LIG d   1       4.711  -2.087  -5.064  0.00  0.00    -0.016 A 
ATOM      6  C   LIG d   1       4.269  -1.540  -3.867  0.00  0.00     0.159 A 
ATOM      7  H   LIG d   1       2.456   1.048  -5.075  0.00  0.00     0.066 H 
ATOM      8  H   LIG d   1       4.701  -1.935  -7.192  0.00  0.00     0.063 H 
ATOM      9  H   LIG d   1       5.342  -2.964  -5.055  0.00  0.00     0.066 H 
ENDROOT
BRANCH   3  10
ATOM     10  C   LIG d   1       3.142   0.236  -7.557  0.00  0.00     0.339 C 
ATOM     11  O   LIG d   1       2.274  -0.273  -8.238  0.00  0.00    -0.245 OA
BRANCH  10  12
ATOM     12  O   LIG d   1       3.750   1.364  -7.976  0.00  0.00    -0.464 OA
BRANCH  12  13
ATOM     13  C   LIG d   1       3.021   2.198  -8.914  0.00  0.00     0.082 C 
ATOM     14  H   LIG d   1       1.992   1.845  -8.991  0.00  0.00     0.066 H 
ATOM     15  H   LIG d   1       3.025   3.230  -8.562  0.00  0.00     0.066 H 
ATOM     16  H   LIG d   1       3.498   2.146  -9.893  0.00  0.00     0.066 H 
ENDBRANCH  12  13
ENDBRANCH  10  12
ENDBRANCH   3  10
BRANCH   1  17
ATOM     17  O   LIG d   1       3.022   0.123  -2.698  0.00  0.00    -0.491 OA
BRANCH  17  18
ATOM     18  C   LIG d   1       3.705   1.283  -2.220  0.00  0.00     0.079 C 
ATOM     19  H   LIG d   1       3.659   1.311  -1.131  0.00  0.00     0.066 H 
ATOM     20  H   LIG d   1       4.748   1.248  -2.537  0.00  0.00     0.066 H 
ATOM     21  H   LIG d   1       3.233   2.177  -2.626  0.00  0.00     0.066 H 
ENDBRANCH  17  18
ENDBRANCH   1  17
BRANCH   6  22
ATOM     22  O   LIG d   1       4.630  -2.109  -2.687  0.00  0.00    -0.503 OA
ATOM     23  H   LIG d   1       3.890  -2.464  -2.178  0.00  0.00     0.292 HD
ENDBRANCH   6  22
TORSDOF 6
ENDMDL
MODEL 9
REMARK VINA RESULT:      -3.9     10.479     11.902
REMARK  6 active torsions:
REMARK  status: ('A' for Active; 'I' for Inactive)
REMARK    1  A    between atoms: C_1  and  O_2 
REMARK    2  A    between atoms: O_2  and  C_3 
REMARK    3  A    between atoms: C_5  and  C_10 
REMARK    4  A    between atoms: C_8  and  O_9 
REMARK    5  A    between atoms: C_10  and  O_12 
REMARK    6  A    between atoms: O_12  and  C_13 
ROOT
ATOM      1  C   LIG d   1       9.940   9.839  -0.022  0.00  0.00     0.162 A 
ATOM      2  C   LIG d   1      10.876   8.936   0.444  0.00  0.00    -0.002 A 
ATOM      3  C   LIG d   1      10.832   7.606   0.016  0.00  0.00     0.063 A 
ATOM      4  C   LIG d   1       9.838   7.195  -0.876  0.00  0.00    -0.044 A 
ATOM      5  C   LIG d   1       8.912   8.102  -1.341  0.00  0.00    -0.016 A 
ATOM      6  C   LIG d   1       8.955   9.423  -0.916  0.00  0.00     0.159 A 
ATOM      7  H   LIG d   1      11.639   9.258   1.137  0.00  0.00     0.066 H 
ATOM      8  H   LIG d   1       9.800   6.167  -1.205  0.00  0.00     0.063 H 
ATOM      9  H   LIG d   1       8.147   7.784  -2.034  0.00  0.00     0.066 H 
ENDROOT
BRANCH   3  10
ATOM     10  C   LIG d   1      11.828   6.638   0.511  0.00  0.00     0.339 C 
ATOM     11  O   LIG d   1      13.011   6.822   0.301  0.00  0.00    -0.245 OA
BRANCH  10  12
ATOM     12  O   LIG d   1      11.427   5.548   1.194  0.00  0.00    -0.464 OA
BRANCH  12  13
ATOM     13  C   LIG d   1      10.893   5.764   2.527  0.00  0.00     0.082 C 
ATOM     14  H   LIG d   1      11.362   5.070   3.224  0.00  0.00     0.066 H 
ATOM     15  H   LIG d   1      11.100   6.788   2.840  0.00  0.00     0.066 H 
ATOM     16  H   LIG d   1       9.816   5.599   2.518  0.00  0.00     0.066 H 
ENDBRANCH  12  13
ENDBRANCH  10  12
ENDBRANCH   3  10
BRANCH   1  17
ATOM     17  O   LIG d   1       9.980  11.134   0.391  0.00  0.00    -0.491 OA
BRANCH  17  18
ATOM     18  C   LIG d   1      10.966  11.976  -0.210  0.00  0.00     0.079 C 
ATOM     19  H   LIG d   1      11.873  11.400  -0.395  0.00  0.00     0.066 H 
ATOM     20  H   LIG d   1      10.585  12.366  -1.154  0.00  0.00     0.066 H 
ATOM     21  H   LIG d   1      11.194  12.805   0.460  0.00  0.00     0.066 H 
ENDBRANCH  17  18
ENDBRANCH   1  17
BRANCH   6  22
ATOM     22  O   LIG d   1       8.035  10.313  -1.373  0.00  0.00    -0.503 OA
ATOM     23  H   LIG d   1       7.688  10.904  -0.692  0.00  0.00     0.292 HD
ENDBRANCH   6  22
TORSDOF 6
ENDMDL
MODEL 10
REMARK VINA RESULT:      -3.8      8.260      9.488
REMARK  6 active torsions:
REMARK  status: ('A' for Active; 'I' for Inactive)
REMARK    1  A    between atoms: C_1  and  O_2 
REMARK    2  A    between atoms: O_2  and  C_3 
REMARK    3  A    between atoms: C_5  and  C_10 
REMARK    4  A    between atoms: C_8  and  O_9 
REMARK    5  A    between atoms: C_10  and  O_12 
REMARK    6  A    between atoms: O_12  and  C_13 
ROOT
ATOM      1  C   LIG d   1       6.306 -10.308  -1.694  0.00  0.00     0.162 A 
ATOM      2  C   LIG d   1       5.314 -10.383  -2.653  0.00  0.00    -0.002 A 
ATOM      3  C   LIG d   1       5.477  -9.726  -3.876  0.00  0.00     0.063 A 
ATOM      4  C   LIG d   1       6.640  -8.991  -4.120  0.00  0.00    -0.044 A 
ATOM      5  C   LIG d   1       7.628  -8.925  -3.163  0.00  0.00    -0.016 A 
ATOM      6  C   LIG d   1       7.466  -9.578  -1.948  0.00  0.00     0.159 A 
ATOM      7  H   LIG d   1       4.415 -10.949  -2.457  0.00  0.00     0.066 H 
ATOM      8  H   LIG d   1       6.767  -8.479  -5.063  0.00  0.00     0.063 H 
ATOM      9  H   LIG d   1       8.528  -8.360  -3.355  0.00  0.00     0.066 H 
ENDROOT
BRANCH   3  10
ATOM     10  C   LIG d   1       4.421  -9.802  -4.901  0.00  0.00     0.339 C 
ATOM     11  O   LIG d   1       4.292  -8.904  -5.709  0.00  0.00    -0.245 OA
BRANCH  10  12
ATOM     12  O   LIG d   1       3.598 -10.868  -4.942  0.00  0.00    -0.464 OA
BRANCH  12  13
ATOM     13  C   LIG d   1       3.976 -11.962  -5.820  0.00  0.00     0.082 C 
ATOM     14  H   LIG d   1       3.092 -12.547  -6.073  0.00  0.00     0.066 H 
ATOM     15  H   LIG d   1       4.419 -11.559  -6.731  0.00  0.00     0.066 H 
ATOM     16  H   LIG d   1       4.702 -12.598  -5.314  0.00  0.00     0.066 H 
ENDBRANCH  12  13
ENDBRANCH  10  12
ENDBRANCH   3  10
BRANCH   1  17
ATOM     17  O   LIG d   1       6.152 -10.948  -0.504  0.00  0.00    -0.491 OA
BRANCH  17  18
ATOM     18  C   LIG d   1       6.316 -12.367  -0.504  0.00  0.00     0.079 C 
ATOM     19  H   LIG d   1       5.440 -12.835  -0.954  0.00  0.00     0.066 H 
ATOM     20  H   LIG d   1       7.204 -12.631  -1.080  0.00  0.00     0.066 H 
ATOM     21  H   LIG d   1       6.429 -12.721   0.520  0.00  0.00     0.066 H 
ENDBRANCH  17  18
ENDBRANCH   1  17
BRANCH   6  22
ATOM     22  O   LIG d   1       8.440  -9.505  -1.004  0.00  0.00    -0.503 OA
ATOM     23  H   LIG d   1       8.431 -10.236  -0.371  0.00  0.00     0.292 HD
ENDBRANCH   6  22
TORSDOF 6
ENDMDL
