MODEL 1
REMARK VINA RESULT:      -6.0      0.000      0.000
REMARK  7 active torsions:
REMARK  status: ('A' for Active; 'I' for Inactive)
REMARK    1  A    between atoms: C_1  and  C_2 
REMARK    2  A    between atoms: C_2  and  C_3 
REMARK       I    between atoms: C_3  and  N_5 
REMARK       I    between atoms: N_5  and  C_6 
REMARK       I    between atoms: C_6  and  N_7 
REMARK       I    between atoms: C_6  and  N_8 
REMARK    3  A    between atoms: N_8  and  C_9 
REMARK    4  A    between atoms: C_11  and  C_22 
REMARK    5  A    between atoms: C_15  and  O_19 
REMARK    6  A    between atoms: O_19  and  C_20 
REMARK    7  A    between atoms: C_20  and  C_21 
ROOT
ATOM      1  C   LIG d   1       5.193  -0.291  -7.340  0.00  0.00     0.293 A 
ATOM      2  N   LIG d   1       4.578   0.853  -7.629  0.00  0.00    -0.203 NA
ATOM      3  C   LIG d   1       3.499   0.885  -8.383  0.00  0.00     0.052 A 
ATOM      4  C   LIG d   1       2.997  -0.328  -8.888  0.00  0.00     0.022 A 
ATOM      5  C   LIG d   1       1.853  -0.377  -9.699  0.00  0.00    -0.047 A 
ATOM      6  C   LIG d   1       1.407  -1.575 -10.164  0.00  0.00    -0.019 A 
ATOM      7  C   LIG d   1       2.073  -2.763  -9.844  0.00  0.00     0.122 A 
ATOM      8  C   LIG d   1       3.199  -2.748  -9.050  0.00  0.00     0.006 A 
ATOM      9  C   LIG d   1       3.680  -1.528  -8.558  0.00  0.00     0.081 A 
ATOM     10  N   LIG d   1       4.773  -1.457  -7.788  0.00  0.00    -0.198 NA
ATOM     11  H   LIG d   1       1.328   0.532  -9.953  0.00  0.00     0.063 H 
ATOM     12  H   LIG d   1       0.526  -1.610 -10.788  0.00  0.00     0.065 H 
ATOM     13  H   LIG d   1       3.706  -3.671  -8.808  0.00  0.00     0.068 H 
ENDROOT
BRANCH   1  14
ATOM     14  N   LIG d   1       6.326  -0.254  -6.538  0.00  0.00    -0.213 N 
ATOM     15  C   LIG d   1       6.198  -0.171  -5.180  0.00  0.00     0.384 C 
ATOM     16  N   LIG d   1       4.998  -0.021  -4.635  0.00  0.00    -0.004 NA
ATOM     17  N   LIG d   1       7.303  -0.240  -4.386  0.00  0.00    -0.290 N 
ATOM     18  C   LIG d   1       4.885   0.209  -3.328  0.00  0.00     0.309 C 
ATOM     19  O   LIG d   1       5.874   0.199  -2.621  0.00  0.00    -0.254 OA
ATOM     20  H   LIG d   1       7.254  -0.681  -3.524  0.00  0.00     0.255 HD
ATOM     21  H   LIG d   1       8.140   0.150  -4.684  0.00  0.00     0.255 HD
ATOM     22  H   LIG d   1       7.207  -0.289  -6.941  0.00  0.00     0.268 HD
BRANCH  18  23
ATOM     23  C   LIG d   1       3.531   0.482  -2.725  0.00  0.00     0.040 C 
ATOM     24  H   LIG d   1       3.124   1.402  -3.147  0.00  0.00     0.037 H 
ATOM     25  H   LIG d   1       3.629   0.589  -1.645  0.00  0.00     0.037 H 
BRANCH  23  26
ATOM     26  C   LIG d   1       2.589  -0.683  -3.039  0.00  0.00    -0.056 C 
ATOM     27  H   LIG d   1       1.886  -0.382  -3.816  0.00  0.00     0.024 H 
ATOM     28  H   LIG d   1       3.171  -1.537  -3.385  0.00  0.00     0.024 H 
ATOM     29  H   LIG d   1       2.040  -0.959  -2.138  0.00  0.00     0.024 H 
ENDBRANCH  23  26
ENDBRANCH  18  23
ENDBRANCH   1  14
BRANCH   3  30
ATOM     30  C   LIG d   1       2.816   2.191  -8.697  0.00  0.00    -0.021 C 
ATOM     31  H   LIG d   1       3.480   2.811  -9.301  0.00  0.00     0.029 H 
ATOM     32  H   LIG d   1       1.897   1.998  -9.250  0.00  0.00     0.029 H 
ATOM     33  H   LIG d   1       2.580   2.710  -7.769  0.00  0.00     0.029 H 
ENDBRANCH   3  30
BRANCH   7  34
ATOM     34  O   LIG d   1       1.604  -3.944 -10.323  0.00  0.00    -0.492 OA
BRANCH  34  35
ATOM     35  C   LIG d   1       0.434  -3.896 -11.139  0.00  0.00     0.087 C 
ATOM     36  H   LIG d   1       0.090  -2.864 -11.222  0.00  0.00     0.069 H 
ATOM     37  H   LIG d   1       0.667  -4.280 -12.133  0.00  0.00     0.069 H 
BRANCH  35  38
ATOM     38  C   LIG d   1      -0.666  -4.750 -10.507  0.00  0.00    -0.031 C 
ATOM     39  H   LIG d   1      -0.421  -4.943  -9.463  0.00  0.00     0.026 H 
ATOM     40  H   LIG d   1      -1.617  -4.220 -10.565  0.00  0.00     0.026 H 
ATOM     41  H   LIG d   1      -0.744  -5.696 -11.043  0.00  0.00     0.026 H 
ENDBRANCH  35  38
ENDBRANCH  34  35
ENDBRANCH   7  34
TORSDOF 7
ENDMDL
MODEL 2
REMARK VINA RESULT:      -5.8      3.658      5.754
REMARK  7 active torsions:
REMARK  status: ('A' for Active; 'I' for Inactive)
REMARK    1  A    between atoms: C_1  and  C_2 
REMARK    2  A    between atoms: C_2  and  C_3 
REMARK       I    between atoms: C_3  and  N_5 
REMARK       I    between atoms: N_5  and  C_6 
REMARK       I    between atoms: C_6  and  N_7 
REMARK       I    between atoms: C_6  and  N_8 
REMARK    3  A    between atoms: N_8  and  C_9 
REMARK    4  A    between atoms: C_11  and  C_22 
REMARK    5  A    between atoms: C_15  and  O_19 
REMARK    6  A    between atoms: O_19  and  C_20 
REMARK    7  A    between atoms: C_20  and  C_21 
ROOT
ATOM      1  C   LIG d   1       7.288   0.670  -4.817  0.00  0.00     0.293 A 
ATOM      2  N   LIG d   1       6.655   1.275  -3.816  0.00  0.00    -0.203 NA
ATOM      3  C   LIG d   1       5.705   0.669  -3.134  0.00  0.00     0.052 A 
ATOM      4  C   LIG d   1       5.364  -0.650  -3.484  0.00  0.00     0.022 A 
ATOM      5  C   LIG d   1       4.363  -1.361  -2.807  0.00  0.00    -0.047 A 
ATOM      6  C   LIG d   1       4.068  -2.635  -3.184  0.00  0.00    -0.019 A 
ATOM      7  C   LIG d   1       4.752  -3.248  -4.240  0.00  0.00     0.122 A 
ATOM      8  C   LIG d   1       5.740  -2.575  -4.925  0.00  0.00     0.006 A 
ATOM      9  C   LIG d   1       6.062  -1.262  -4.558  0.00  0.00     0.081 A 
ATOM     10  N   LIG d   1       7.009  -0.561  -5.194  0.00  0.00    -0.198 NA
ATOM     11  H   LIG d   1       3.829  -0.902  -1.989  0.00  0.00     0.063 H 
ATOM     12  H   LIG d   1       3.298  -3.181  -2.661  0.00  0.00     0.065 H 
ATOM     13  H   LIG d   1       6.262  -3.056  -5.739  0.00  0.00     0.068 H 
ENDROOT
BRANCH   1  14
ATOM     14  N   LIG d   1       8.281   1.366  -5.494  0.00  0.00    -0.213 N 
ATOM     15  C   LIG d   1       8.050   1.823  -6.762  0.00  0.00     0.384 C 
ATOM     16  N   LIG d   1       6.920   1.514  -7.383  0.00  0.00    -0.004 NA
ATOM     17  N   LIG d   1       8.982   2.595  -7.387  0.00  0.00    -0.290 N 
ATOM     18  C   LIG d   1       6.758   1.831  -8.665  0.00  0.00     0.309 C 
ATOM     19  O   LIG d   1       7.609   2.477  -9.245  0.00  0.00    -0.254 OA
ATOM     20  H   LIG d   1       8.701   3.312  -7.978  0.00  0.00     0.255 HD
ATOM     21  H   LIG d   1       9.927   2.430  -7.240  0.00  0.00     0.255 HD
ATOM     22  H   LIG d   1       9.136   1.529  -5.068  0.00  0.00     0.268 HD
BRANCH  18  23
ATOM     23  C   LIG d   1       5.517   1.390  -9.400  0.00  0.00     0.040 C 
ATOM     24  H   LIG d   1       5.154   0.456  -8.970  0.00  0.00     0.037 H 
ATOM     25  H   LIG d   1       5.754   1.238 -10.453  0.00  0.00     0.037 H 
BRANCH  23  26
ATOM     26  C   LIG d   1       4.437   2.466  -9.269  0.00  0.00    -0.056 C 
ATOM     27  H   LIG d   1       4.890   3.396  -8.927  0.00  0.00     0.024 H 
ATOM     28  H   LIG d   1       3.965   2.626 -10.239  0.00  0.00     0.024 H 
ATOM     29  H   LIG d   1       3.685   2.140  -8.550  0.00  0.00     0.024 H 
ENDBRANCH  23  26
ENDBRANCH  18  23
ENDBRANCH   1  14
BRANCH   3  30
ATOM     30  C   LIG d   1       5.000   1.372  -2.002  0.00  0.00    -0.021 C 
ATOM     31  H   LIG d   1       3.977   1.001  -1.925  0.00  0.00     0.029 H 
ATOM     32  H   LIG d   1       5.527   1.179  -1.069  0.00  0.00     0.029 H 
ATOM     33  H   LIG d   1       4.983   2.445  -2.195  0.00  0.00     0.029 H 
ENDBRANCH   3  30
BRANCH   7  34
ATOM     34  O   LIG d   1       4.437  -4.520  -4.594  0.00  0.00    -0.492 OA
BRANCH  34  35
ATOM     35  C   LIG d   1       5.147  -5.082  -5.698  0.00  0.00     0.087 C 
ATOM     36  H   LIG d   1       5.769  -4.313  -6.160  0.00  0.00     0.069 H 
ATOM     37  H   LIG d   1       5.780  -5.897  -5.347  0.00  0.00     0.069 H 
BRANCH  35  38
ATOM     38  C   LIG d   1       4.151  -5.617  -6.728  0.00  0.00    -0.031 C 
ATOM     39  H   LIG d   1       4.666  -5.800  -7.671  0.00  0.00     0.026 H 
ATOM     40  H   LIG d   1       3.717  -6.549  -6.364  0.00  0.00     0.026 H 
ATOM     41  H   LIG d   1       3.359  -4.884  -6.883  0.00  0.00     0.026 H 
ENDBRANCH  35  38
ENDBRANCH  34  35
ENDBRANCH   7  34
TORSDOF 7
ENDMDL
MODEL 3
REMARK VINA RESULT:      -5.7      6.199     10.288
REMARK  7 active torsions:
REMARK  status: ('A' for Active; 'I' for Inactive)
REMARK    1  A    between atoms: C_1  and  C_2 
REMARK    2  A    between atoms: C_2  and  C_3 
REMARK       I    between atoms: C_3  and  N_5 
REMARK       I    between atoms: N_5  and  C_6 
REMARK       I    between atoms: C_6  and  N_7 
REMARK       I    between atoms: C_6  and  N_8 
REMARK    3  A    between atoms: N_8  and  C_9 
REMARK    4  A    between atoms: C_11  and  C_22 
REMARK    5  A    between atoms: C_15  and  O_19 
REMARK    6  A    between atoms: O_19  and  C_20 
REMARK    7  A    between atoms: C_20  and  C_21 
ROOT
ATOM      1  C   LIG d   1       9.738   2.708  -4.283  0.00  0.00     0.293 A 
ATOM      2  N   LIG d   1       9.722   3.412  -5.412  0.00  0.00    -0.203 NA
ATOM      3  C   LIG d   1       9.772   4.728  -5.406  0.00  0.00     0.052 A 
ATOM      4  C   LIG d   1       9.844   5.391  -4.167  0.00  0.00     0.022 A 
ATOM      5  C   LIG d   1       9.900   6.790  -4.078  0.00  0.00    -0.047 A 
ATOM      6  C   LIG d   1       9.968   7.385  -2.856  0.00  0.00    -0.019 A 
ATOM      7  C   LIG d   1       9.985   6.620  -1.685  0.00  0.00     0.122 A 
ATOM      8  C   LIG d   1       9.932   5.244  -1.739  0.00  0.00     0.006 A 
ATOM      9  C   LIG d   1       9.860   4.606  -2.984  0.00  0.00     0.081 A 
ATOM     10  N   LIG d   1       9.799   3.273  -3.094  0.00  0.00    -0.198 NA
ATOM     11  H   LIG d   1       9.889   7.392  -4.974  0.00  0.00     0.063 H 
ATOM     12  H   LIG d   1      10.011   8.461  -2.789  0.00  0.00     0.065 H 
ATOM     13  H   LIG d   1       9.945   4.662  -0.830  0.00  0.00     0.068 H 
ENDROOT
BRANCH   1  14
ATOM     14  N   LIG d   1       9.683   1.323  -4.361  0.00  0.00    -0.213 N 
ATOM     15  C   LIG d   1       8.502   0.673  -4.139  0.00  0.00     0.384 C 
ATOM     16  N   LIG d   1       7.433   1.355  -3.750  0.00  0.00    -0.004 NA
ATOM     17  N   LIG d   1       8.422  -0.675  -4.318  0.00  0.00    -0.290 N 
ATOM     18  C   LIG d   1       6.326   0.708  -3.391  0.00  0.00     0.309 C 
ATOM     19  O   LIG d   1       6.265  -0.502  -3.500  0.00  0.00    -0.254 OA
ATOM     20  H   LIG d   1       7.609  -1.071  -4.669  0.00  0.00     0.255 HD
ATOM     21  H   LIG d   1       9.180  -1.240  -4.096  0.00  0.00     0.255 HD
ATOM     22  H   LIG d   1      10.483   0.817  -4.573  0.00  0.00     0.268 HD
BRANCH  18  23
ATOM     23  C   LIG d   1       5.146   1.475  -2.850  0.00  0.00     0.040 C 
ATOM     24  H   LIG d   1       4.390   1.576  -3.629  0.00  0.00     0.037 H 
ATOM     25  H   LIG d   1       5.473   2.464  -2.530  0.00  0.00     0.037 H 
BRANCH  23  26
ATOM     26  C   LIG d   1       4.552   0.723  -1.657  0.00  0.00    -0.056 C 
ATOM     27  H   LIG d   1       3.516   0.463  -1.872  0.00  0.00     0.024 H 
ATOM     28  H   LIG d   1       5.126  -0.186  -1.478  0.00  0.00     0.024 H 
ATOM     29  H   LIG d   1       4.592   1.357  -0.771  0.00  0.00     0.024 H 
ENDBRANCH  23  26
ENDBRANCH  18  23
ENDBRANCH   1  14
BRANCH   3  30
ATOM     30  C   LIG d   1       9.754   5.506  -6.696  0.00  0.00    -0.021 C 
ATOM     31  H   LIG d   1       9.852   6.571  -6.479  0.00  0.00     0.029 H 
ATOM     32  H   LIG d   1      10.583   5.186  -7.326  0.00  0.00     0.029 H 
ATOM     33  H   LIG d   1       8.812   5.327  -7.216  0.00  0.00     0.029 H 
ENDBRANCH   3  30
BRANCH   7  34
ATOM     34  O   LIG d   1      10.053   7.241  -0.479  0.00  0.00    -0.492 OA
BRANCH  34  35
ATOM     35  C   LIG d   1      11.274   7.110   0.251  0.00  0.00     0.087 C 
ATOM     36  H   LIG d   1      12.041   6.683  -0.397  0.00  0.00     0.069 H 
ATOM     37  H   LIG d   1      11.598   8.092   0.597  0.00  0.00     0.069 H 
BRANCH  35  38
ATOM     38  C   LIG d   1      11.054   6.193   1.454  0.00  0.00    -0.031 C 
ATOM     39  H   LIG d   1      10.114   6.452   1.942  0.00  0.00     0.026 H 
ATOM     40  H   LIG d   1      11.015   5.156   1.118  0.00  0.00     0.026 H 
ATOM     41  H   LIG d   1      11.876   6.315   2.160  0.00  0.00     0.026 H 
ENDBRANCH  35  38
ENDBRANCH  34  35
ENDBRANCH   7  34
TORSDOF 7
ENDMDL
MODEL 4
REMARK VINA RESULT:      -5.7      2.730      7.376
REMARK  7 active torsions:
REMARK  status: ('A' for Active; 'I' for Inactive)
REMARK    1  A    between atoms: C_1  and  C_2 
REMARK    2  A    between atoms: C_2  and  C_3 
REMARK       I    between atoms: C_3  and  N_5 
REMARK       I    between atoms: N_5  and  C_6 
REMARK       I    between atoms: C_6  and  N_7 
REMARK       I    between atoms: C_6  and  N_8 
REMARK    3  A    between atoms: N_8  and  C_9 
REMARK    4  A    between atoms: C_11  and  C_22 
REMARK    5  A    between atoms: C_15  and  O_19 
REMARK    6  A    between atoms: O_19  and  C_20 
REMARK    7  A    between atoms: C_20  and  C_21 
ROOT
ATOM      1  C   LIG d   1       4.729  -4.434  -6.237  0.00  0.00     0.293 A 
ATOM      2  N   LIG d   1       6.048  -4.422  -6.409  0.00  0.00    -0.203 NA
ATOM      3  C   LIG d   1       6.838  -3.706  -5.637  0.00  0.00     0.052 A 
ATOM      4  C   LIG d   1       6.259  -2.940  -4.610  0.00  0.00     0.022 A 
ATOM      5  C   LIG d   1       7.033  -2.151  -3.746  0.00  0.00    -0.047 A 
ATOM      6  C   LIG d   1       6.425  -1.427  -2.767  0.00  0.00    -0.019 A 
ATOM      7  C   LIG d   1       5.035  -1.459  -2.609  0.00  0.00     0.122 A 
ATOM      8  C   LIG d   1       4.247  -2.224  -3.440  0.00  0.00     0.006 A 
ATOM      9  C   LIG d   1       4.848  -2.978  -4.457  0.00  0.00     0.081 A 
ATOM     10  N   LIG d   1       4.129  -3.734  -5.297  0.00  0.00    -0.198 NA
ATOM     11  H   LIG d   1       8.106  -2.118  -3.856  0.00  0.00     0.063 H 
ATOM     12  H   LIG d   1       7.023  -0.821  -2.104  0.00  0.00     0.065 H 
ATOM     13  H   LIG d   1       3.176  -2.243  -3.310  0.00  0.00     0.068 H 
ENDROOT
BRANCH   1  14
ATOM     14  N   LIG d   1       3.953  -5.212  -7.087  0.00  0.00    -0.213 N 
ATOM     15  C   LIG d   1       3.420  -4.663  -8.219  0.00  0.00     0.384 C 
ATOM     16  N   LIG d   1       3.556  -3.364  -8.454  0.00  0.00    -0.004 NA
ATOM     17  N   LIG d   1       2.748  -5.448  -9.106  0.00  0.00    -0.290 N 
ATOM     18  C   LIG d   1       2.913  -2.802  -9.475  0.00  0.00     0.309 C 
ATOM     19  O   LIG d   1       2.269  -3.491 -10.242  0.00  0.00    -0.254 OA
ATOM     20  H   LIG d   1       2.812  -5.271 -10.057  0.00  0.00     0.255 HD
ATOM     21  H   LIG d   1       2.207  -6.188  -8.786  0.00  0.00     0.255 HD
ATOM     22  H   LIG d   1       3.792  -6.145  -6.878  0.00  0.00     0.268 HD
BRANCH  18  23
ATOM     23  C   LIG d   1       2.984  -1.311  -9.681  0.00  0.00     0.040 C 
ATOM     24  H   LIG d   1       2.353  -1.030 -10.524  0.00  0.00     0.037 H 
ATOM     25  H   LIG d   1       4.015  -1.021  -9.885  0.00  0.00     0.037 H 
BRANCH  23  26
ATOM     26  C   LIG d   1       2.495  -0.597  -8.418  0.00  0.00    -0.056 C 
ATOM     27  H   LIG d   1       2.263  -1.336  -7.651  0.00  0.00     0.024 H 
ATOM     28  H   LIG d   1       3.274   0.073  -8.055  0.00  0.00     0.024 H 
ATOM     29  H   LIG d   1       1.600  -0.020  -8.651  0.00  0.00     0.024 H 
ENDBRANCH  23  26
ENDBRANCH  18  23
ENDBRANCH   1  14
BRANCH   3  30
ATOM     30  C   LIG d   1       8.331  -3.707  -5.848  0.00  0.00    -0.021 C 
ATOM     31  H   LIG d   1       8.680  -2.682  -5.977  0.00  0.00     0.029 H 
ATOM     32  H   LIG d   1       8.820  -4.151  -4.982  0.00  0.00     0.029 H 
ATOM     33  H   LIG d   1       8.572  -4.287  -6.739  0.00  0.00     0.029 H 
ENDBRANCH   3  30
BRANCH   7  34
ATOM     34  O   LIG d   1       4.456  -0.726  -1.623  0.00  0.00    -0.492 OA
BRANCH  34  35
ATOM     35  C   LIG d   1       4.677   0.685  -1.647  0.00  0.00     0.087 C 
ATOM     36  H   LIG d   1       4.634   1.077  -0.630  0.00  0.00     0.069 H 
ATOM     37  H   LIG d   1       5.659   0.892  -2.075  0.00  0.00     0.069 H 
BRANCH  35  38
ATOM     38  C   LIG d   1       3.598   1.356  -2.498  0.00  0.00    -0.031 C 
ATOM     39  H   LIG d   1       3.474   2.391  -2.179  0.00  0.00     0.026 H 
ATOM     40  H   LIG d   1       3.895   1.333  -3.547  0.00  0.00     0.026 H 
ATOM     41  H   LIG d   1       2.655   0.823  -2.376  0.00  0.00     0.026 H 
ENDBRANCH  35  38
ENDBRANCH  34  35
ENDBRANCH   7  34
TORSDOF 7
ENDMDL
MODEL 5
REMARK VINA RESULT:      -5.7      5.079      8.105
REMARK  7 active torsions:
REMARK  status: ('A' for Active; 'I' for Inactive)
REMARK    1  A    between atoms: C_1  and  C_2 
REMARK    2  A    between atoms: C_2  and  C_3 
REMARK       I    between atoms: C_3  and  N_5 
REMARK       I    between atoms: N_5  and  C_6 
REMARK       I    between atoms: C_6  and  N_7 
REMARK       I    between atoms: C_6  and  N_8 
REMARK    3  A    between atoms: N_8  and  C_9 
REMARK    4  A    between atoms: C_11  and  C_22 
REMARK    5  A    between atoms: C_15  and  O_19 
REMARK    6  A    between atoms: O_19  and  C_20 
REMARK    7  A    between atoms: C_20  and  C_21 
ROOT
ATOM      1  C   LIG d   1       5.455  -5.052  -6.284  0.00  0.00     0.293 A 
ATOM      2  N   LIG d   1       6.776  -4.923  -6.192  0.00  0.00    -0.203 NA
ATOM      3  C   LIG d   1       7.330  -4.075  -5.351  0.00  0.00     0.052 A 
ATOM      4  C   LIG d   1       6.492  -3.293  -4.536  0.00  0.00     0.022 A 
ATOM      5  C   LIG d   1       7.006  -2.368  -3.616  0.00  0.00    -0.047 A 
ATOM      6  C   LIG d   1       6.153  -1.634  -2.850  0.00  0.00    -0.019 A 
ATOM      7  C   LIG d   1       4.767  -1.791  -2.966  0.00  0.00     0.122 A 
ATOM      8  C   LIG d   1       4.232  -2.692  -3.861  0.00  0.00     0.006 A 
ATOM      9  C   LIG d   1       5.087  -3.459  -4.662  0.00  0.00     0.081 A 
ATOM     10  N   LIG d   1       4.620  -4.344  -5.551  0.00  0.00    -0.198 NA
ATOM     11  H   LIG d   1       8.073  -2.238  -3.515  0.00  0.00     0.063 H 
ATOM     12  H   LIG d   1       6.551  -0.923  -2.142  0.00  0.00     0.065 H 
ATOM     13  H   LIG d   1       3.161  -2.806  -3.943  0.00  0.00     0.068 H 
ENDROOT
BRANCH   1  14
ATOM     14  N   LIG d   1       4.936  -5.966  -7.192  0.00  0.00    -0.213 N 
ATOM     15  C   LIG d   1       4.618  -7.230  -6.781  0.00  0.00     0.384 C 
ATOM     16  N   LIG d   1       4.900  -7.616  -5.544  0.00  0.00    -0.004 NA
ATOM     17  N   LIG d   1       4.013  -8.093  -7.643  0.00  0.00    -0.290 N 
ATOM     18  C   LIG d   1       4.728  -8.887  -5.189  0.00  0.00     0.309 C 
ATOM     19  O   LIG d   1       4.234  -9.676  -5.971  0.00  0.00    -0.254 OA
ATOM     20  H   LIG d   1       3.351  -8.723  -7.315  0.00  0.00     0.255 HD
ATOM     21  H   LIG d   1       4.241  -8.078  -8.586  0.00  0.00     0.255 HD
ATOM     22  H   LIG d   1       4.798  -5.707  -8.116  0.00  0.00     0.268 HD
BRANCH  18  23
ATOM     23  C   LIG d   1       5.144  -9.349  -3.815  0.00  0.00     0.040 C 
ATOM     24  H   LIG d   1       5.318  -8.482  -3.178  0.00  0.00     0.037 H 
ATOM     25  H   LIG d   1       6.061  -9.934  -3.892  0.00  0.00     0.037 H 
BRANCH  23  26
ATOM     26  C   LIG d   1       4.036 -10.213  -3.209  0.00  0.00    -0.056 C 
ATOM     27  H   LIG d   1       4.390 -10.658  -2.280  0.00  0.00     0.024 H 
ATOM     28  H   LIG d   1       3.162  -9.593  -3.006  0.00  0.00     0.024 H 
ATOM     29  H   LIG d   1       3.765 -11.001  -3.911  0.00  0.00     0.024 H 
ENDBRANCH  23  26
ENDBRANCH  18  23
ENDBRANCH   1  14
BRANCH   3  30
ATOM     30  C   LIG d   1       8.829  -3.945  -5.262  0.00  0.00    -0.021 C 
ATOM     31  H   LIG d   1       9.120  -3.809  -4.220  0.00  0.00     0.029 H 
ATOM     32  H   LIG d   1       9.297  -4.848  -5.654  0.00  0.00     0.029 H 
ATOM     33  H   LIG d   1       9.155  -3.084  -5.845  0.00  0.00     0.029 H 
ENDBRANCH   3  30
BRANCH   7  34
ATOM     34  O   LIG d   1       3.941  -1.045  -2.189  0.00  0.00    -0.492 OA
BRANCH  34  35
ATOM     35  C   LIG d   1       4.445   0.206  -1.718  0.00  0.00     0.087 C 
ATOM     36  H   LIG d   1       4.251   0.296  -0.648  0.00  0.00     0.069 H 
ATOM     37  H   LIG d   1       5.520   0.255  -1.897  0.00  0.00     0.069 H 
BRANCH  35  38
ATOM     38  C   LIG d   1       3.751   1.348  -2.461  0.00  0.00    -0.031 C 
ATOM     39  H   LIG d   1       3.431   2.105  -1.746  0.00  0.00     0.026 H 
ATOM     40  H   LIG d   1       4.446   1.793  -3.174  0.00  0.00     0.026 H 
ATOM     41  H   LIG d   1       2.882   0.961  -2.994  0.00  0.00     0.026 H 
ENDBRANCH  35  38
ENDBRANCH  34  35
ENDBRANCH   7  34
TORSDOF 7
ENDMDL
MODEL 6
REMARK VINA RESULT:      -5.6      3.117      5.221
REMARK  7 active torsions:
REMARK  status: ('A' for Active; 'I' for Inactive)
REMARK    1  A    between atoms: C_1  and  C_2 
REMARK    2  A    between atoms: C_2  and  C_3 
REMARK       I    between atoms: C_3  and  N_5 
REMARK       I    between atoms: N_5  and  C_6 
REMARK       I    between atoms: C_6  and  N_7 
REMARK       I    between atoms: C_6  and  N_8 
REMARK    3  A    between atoms: N_8  and  C_9 
REMARK    4  A    between atoms: C_11  and  C_22 
REMARK    5  A    between atoms: C_15  and  O_19 
REMARK    6  A    between atoms: O_19  and  C_20 
REMARK    7  A    between atoms: C_20  and  C_21 
ROOT
ATOM      1  C   LIG d   1       6.979  -0.715  -4.106  0.00  0.00     0.293 A 
ATOM      2  N   LIG d   1       6.397  -0.288  -2.987  0.00  0.00    -0.203 NA
ATOM      3  C   LIG d   1       5.142   0.108  -2.971  0.00  0.00     0.052 A 
ATOM      4  C   LIG d   1       4.410   0.073  -4.172  0.00  0.00     0.022 A 
ATOM      5  C   LIG d   1       3.069   0.480  -4.235  0.00  0.00    -0.047 A 
ATOM      6  C   LIG d   1       2.405   0.428  -5.421  0.00  0.00    -0.019 A 
ATOM      7  C   LIG d   1       3.041  -0.027  -6.582  0.00  0.00     0.122 A 
ATOM      8  C   LIG d   1       4.357  -0.433  -6.552  0.00  0.00     0.006 A 
ATOM      9  C   LIG d   1       5.065  -0.389  -5.344  0.00  0.00     0.081 A 
ATOM     10  N   LIG d   1       6.347  -0.765  -5.260  0.00  0.00    -0.198 NA
ATOM     11  H   LIG d   1       2.566   0.831  -3.347  0.00  0.00     0.063 H 
ATOM     12  H   LIG d   1       1.373   0.740  -5.468  0.00  0.00     0.065 H 
ATOM     13  H   LIG d   1       4.839  -0.782  -7.453  0.00  0.00     0.068 H 
ENDROOT
BRANCH   1  14
ATOM     14  N   LIG d   1       8.306  -1.120  -4.053  0.00  0.00    -0.213 N 
ATOM     15  C   LIG d   1       8.653  -2.375  -4.466  0.00  0.00     0.384 C 
ATOM     16  N   LIG d   1       7.713  -3.242  -4.819  0.00  0.00    -0.004 NA
ATOM     17  N   LIG d   1       9.966  -2.737  -4.515  0.00  0.00    -0.290 N 
ATOM     18  C   LIG d   1       8.037  -4.507  -5.077  0.00  0.00     0.309 C 
ATOM     19  O   LIG d   1       9.204  -4.849  -5.072  0.00  0.00    -0.254 OA
ATOM     20  H   LIG d   1      10.281  -3.328  -5.217  0.00  0.00     0.255 HD
ATOM     21  H   LIG d   1      10.587  -2.403  -3.848  0.00  0.00     0.255 HD
ATOM     22  H   LIG d   1       8.986  -0.511  -3.726  0.00  0.00     0.268 HD
BRANCH  18  23
ATOM     23  C   LIG d   1       6.958  -5.515  -5.377  0.00  0.00     0.040 C 
ATOM     24  H   LIG d   1       6.887  -6.226  -4.553  0.00  0.00     0.037 H 
ATOM     25  H   LIG d   1       7.202  -6.046  -6.297  0.00  0.00     0.037 H 
BRANCH  23  26
ATOM     26  C   LIG d   1       5.618  -4.794  -5.544  0.00  0.00    -0.056 C 
ATOM     27  H   LIG d   1       4.909  -5.457  -6.040  0.00  0.00     0.024 H 
ATOM     28  H   LIG d   1       5.231  -4.514  -4.564  0.00  0.00     0.024 H 
ATOM     29  H   LIG d   1       5.761  -3.897  -6.147  0.00  0.00     0.024 H 
ENDBRANCH  23  26
ENDBRANCH  18  23
ENDBRANCH   1  14
BRANCH   3  30
ATOM     30  C   LIG d   1       4.501   0.587  -1.693  0.00  0.00    -0.021 C 
ATOM     31  H   LIG d   1       3.553   1.075  -1.923  0.00  0.00     0.029 H 
ATOM     32  H   LIG d   1       4.322  -0.262  -1.035  0.00  0.00     0.029 H 
ATOM     33  H   LIG d   1       5.163   1.297  -1.198  0.00  0.00     0.029 H 
ENDBRANCH   3  30
BRANCH   7  34
ATOM     34  O   LIG d   1       2.352  -0.067  -7.751  0.00  0.00    -0.492 OA
BRANCH  34  35
ATOM     35  C   LIG d   1       2.947   0.579  -8.878  0.00  0.00     0.087 C 
ATOM     36  H   LIG d   1       4.006   0.322  -8.927  0.00  0.00     0.069 H 
ATOM     37  H   LIG d   1       2.451   0.247  -9.791  0.00  0.00     0.069 H 
BRANCH  35  38
ATOM     38  C   LIG d   1       2.795   2.094  -8.736  0.00  0.00    -0.031 C 
ATOM     39  H   LIG d   1       3.657   2.589  -9.184  0.00  0.00     0.026 H 
ATOM     40  H   LIG d   1       1.886   2.418  -9.244  0.00  0.00     0.026 H 
ATOM     41  H   LIG d   1       2.734   2.356  -7.680  0.00  0.00     0.026 H 
ENDBRANCH  35  38
ENDBRANCH  34  35
ENDBRANCH   7  34
TORSDOF 7
ENDMDL
MODEL 7
REMARK VINA RESULT:      -5.6      2.175      2.923
REMARK  7 active torsions:
REMARK  status: ('A' for Active; 'I' for Inactive)
REMARK    1  A    between atoms: C_1  and  C_2 
REMARK    2  A    between atoms: C_2  and  C_3 
REMARK       I    between atoms: C_3  and  N_5 
REMARK       I    between atoms: N_5  and  C_6 
REMARK       I    between atoms: C_6  and  N_7 
REMARK       I    between atoms: C_6  and  N_8 
REMARK    3  A    between atoms: N_8  and  C_9 
REMARK    4  A    between atoms: C_11  and  C_22 
REMARK    5  A    between atoms: C_15  and  O_19 
REMARK    6  A    between atoms: O_19  and  C_20 
REMARK    7  A    between atoms: C_20  and  C_21 
ROOT
ATOM      1  C   LIG d   1       2.839   0.164  -7.252  0.00  0.00     0.293 A 
ATOM      2  N   LIG d   1       3.217   1.393  -7.595  0.00  0.00    -0.203 NA
ATOM      3  C   LIG d   1       3.601   1.679  -8.822  0.00  0.00     0.052 A 
ATOM      4  C   LIG d   1       3.605   0.651  -9.782  0.00  0.00     0.022 A 
ATOM      5  C   LIG d   1       4.000   0.877 -11.108  0.00  0.00    -0.047 A 
ATOM      6  C   LIG d   1       3.987  -0.151 -12.000  0.00  0.00    -0.019 A 
ATOM      7  C   LIG d   1       3.583  -1.433 -11.612  0.00  0.00     0.122 A 
ATOM      8  C   LIG d   1       3.189  -1.687 -10.316  0.00  0.00     0.006 A 
ATOM      9  C   LIG d   1       3.194  -0.647  -9.378  0.00  0.00     0.081 A 
ATOM     10  N   LIG d   1       2.827  -0.840  -8.105  0.00  0.00    -0.198 NA
ATOM     11  H   LIG d   1       4.313   1.862 -11.422  0.00  0.00     0.063 H 
ATOM     12  H   LIG d   1       4.292   0.025 -13.020  0.00  0.00     0.065 H 
ATOM     13  H   LIG d   1       2.879  -2.680 -10.026  0.00  0.00     0.068 H 
ENDROOT
BRANCH   1  14
ATOM     14  N   LIG d   1       2.445  -0.070  -5.941  0.00  0.00    -0.213 N 
ATOM     15  C   LIG d   1       3.376  -0.075  -4.940  0.00  0.00     0.384 C 
ATOM     16  N   LIG d   1       4.665   0.039  -5.232  0.00  0.00    -0.004 NA
ATOM     17  N   LIG d   1       2.980  -0.200  -3.643  0.00  0.00    -0.290 N 
ATOM     18  C   LIG d   1       5.579  -0.116  -4.277  0.00  0.00     0.309 C 
ATOM     19  O   LIG d   1       5.232  -0.278  -3.123  0.00  0.00    -0.254 OA
ATOM     20  H   LIG d   1       3.455   0.274  -2.943  0.00  0.00     0.255 HD
ATOM     21  H   LIG d   1       2.220  -0.761  -3.419  0.00  0.00     0.255 HD
ATOM     22  H   LIG d   1       1.511  -0.227  -5.736  0.00  0.00     0.268 HD
BRANCH  18  23
ATOM     23  C   LIG d   1       7.045  -0.088  -4.626  0.00  0.00     0.040 C 
ATOM     24  H   LIG d   1       7.160   0.018  -5.705  0.00  0.00     0.037 H 
ATOM     25  H   LIG d   1       7.513  -1.017  -4.299  0.00  0.00     0.037 H 
BRANCH  23  26
ATOM     26  C   LIG d   1       7.715   1.094  -3.923  0.00  0.00    -0.056 C 
ATOM     27  H   LIG d   1       8.253   1.695  -4.656  0.00  0.00     0.024 H 
ATOM     28  H   LIG d   1       6.955   1.707  -3.438  0.00  0.00     0.024 H 
ATOM     29  H   LIG d   1       8.414   0.723  -3.173  0.00  0.00     0.024 H 
ENDBRANCH  23  26
ENDBRANCH  18  23
ENDBRANCH   1  14
BRANCH   3  30
ATOM     30  C   LIG d   1       4.025   3.078  -9.190  0.00  0.00    -0.021 C 
ATOM     31  H   LIG d   1       3.284   3.518  -9.859  0.00  0.00     0.029 H 
ATOM     32  H   LIG d   1       4.105   3.684  -8.289  0.00  0.00     0.029 H 
ATOM     33  H   LIG d   1       4.992   3.045  -9.693  0.00  0.00     0.029 H 
ENDBRANCH   3  30
BRANCH   7  34
ATOM     34  O   LIG d   1       3.581  -2.440 -12.523  0.00  0.00    -0.492 OA
BRANCH  34  35
ATOM     35  C   LIG d   1       2.920  -2.190 -13.765  0.00  0.00     0.087 C 
ATOM     36  H   LIG d   1       3.137  -1.173 -14.094  0.00  0.00     0.069 H 
ATOM     37  H   LIG d   1       3.276  -2.897 -14.515  0.00  0.00     0.069 H 
BRANCH  35  38
ATOM     38  C   LIG d   1       1.411  -2.356 -13.583  0.00  0.00    -0.031 C 
ATOM     39  H   LIG d   1       0.894  -1.514 -14.043  0.00  0.00     0.026 H 
ATOM     40  H   LIG d   1       1.087  -3.284 -14.056  0.00  0.00     0.026 H 
ATOM     41  H   LIG d   1       1.174  -2.390 -12.519  0.00  0.00     0.026 H 
ENDBRANCH  35  38
ENDBRANCH  34  35
ENDBRANCH   7  34
TORSDOF 7
ENDMDL
MODEL 8
REMARK VINA RESULT:      -5.4     10.319     13.629
REMARK  7 active torsions:
REMARK  status: ('A' for Active; 'I' for Inactive)
REMARK    1  A    between atoms: C_1  and  C_2 
REMARK    2  A    between atoms: C_2  and  C_3 
REMARK       I    between atoms: C_3  and  N_5 
REMARK       I    between atoms: N_5  and  C_6 
REMARK       I    between atoms: C_6  and  N_7 
REMARK       I    between atoms: C_6  and  N_8 
REMARK    3  A    between atoms: N_8  and  C_9 
REMARK    4  A    between atoms: C_11  and  C_22 
REMARK    5  A    between atoms: C_15  and  O_19 
REMARK    6  A    between atoms: O_19  and  C_20 
REMARK    7  A    between atoms: C_20  and  C_21 
ROOT
ATOM      1  C   LIG d   1       9.281   9.393  -1.020  0.00  0.00     0.293 A 
ATOM      2  N   LIG d   1      10.059   9.606   0.039  0.00  0.00    -0.203 NA
ATOM      3  C   LIG d   1      10.871   8.676   0.496  0.00  0.00     0.052 A 
ATOM      4  C   LIG d   1      10.906   7.433  -0.162  0.00  0.00     0.022 A 
ATOM      5  C   LIG d   1      11.744   6.392   0.265  0.00  0.00    -0.047 A 
ATOM      6  C   LIG d   1      11.742   5.207  -0.404  0.00  0.00    -0.019 A 
ATOM      7  C   LIG d   1      10.914   5.011  -1.515  0.00  0.00     0.122 A 
ATOM      8  C   LIG d   1      10.080   6.014  -1.959  0.00  0.00     0.006 A 
ATOM      9  C   LIG d   1      10.062   7.243  -1.287  0.00  0.00     0.081 A 
ATOM     10  N   LIG d   1       9.266   8.249  -1.672  0.00  0.00    -0.198 NA
ATOM     11  H   LIG d   1      12.389   6.530   1.120  0.00  0.00     0.063 H 
ATOM     12  H   LIG d   1      12.388   4.408  -0.074  0.00  0.00     0.065 H 
ATOM     13  H   LIG d   1       9.445   5.854  -2.817  0.00  0.00     0.068 H 
ENDROOT
BRANCH   1  14
ATOM     14  N   LIG d   1       8.448  10.417  -1.450  0.00  0.00    -0.213 N 
ATOM     15  C   LIG d   1       8.764  11.127  -2.574  0.00  0.00     0.384 C 
ATOM     16  N   LIG d   1       9.916  10.909  -3.195  0.00  0.00    -0.004 NA
ATOM     17  N   LIG d   1       7.897  12.060  -3.057  0.00  0.00    -0.290 N 
ATOM     18  C   LIG d   1      10.291  11.699  -4.198  0.00  0.00     0.309 C 
ATOM     19  O   LIG d   1       9.542  12.568  -4.601  0.00  0.00    -0.254 OA
ATOM     20  H   LIG d   1       7.808  12.191  -4.014  0.00  0.00     0.255 HD
ATOM     21  H   LIG d   1       7.366  12.593  -2.443  0.00  0.00     0.255 HD
ATOM     22  H   LIG d   1       7.641  10.628  -0.955  0.00  0.00     0.268 HD
BRANCH  18  23
ATOM     23  C   LIG d   1      11.645  11.516  -4.835  0.00  0.00     0.040 C 
ATOM     24  H   LIG d   1      12.374  12.147  -4.326  0.00  0.00     0.037 H 
ATOM     25  H   LIG d   1      11.592  11.797  -5.887  0.00  0.00     0.037 H 
BRANCH  23  26
ATOM     26  C   LIG d   1      12.070  10.051  -4.720  0.00  0.00    -0.056 C 
ATOM     27  H   LIG d   1      11.272   9.478  -4.248  0.00  0.00     0.024 H 
ATOM     28  H   LIG d   1      12.267   9.650  -5.714  0.00  0.00     0.024 H 
ATOM     29  H   LIG d   1      12.974   9.981  -4.116  0.00  0.00     0.024 H 
ENDBRANCH  23  26
ENDBRANCH  18  23
ENDBRANCH   1  14
BRANCH   3  30
ATOM     30  C   LIG d   1      11.745   8.937   1.696  0.00  0.00    -0.021 C 
ATOM     31  H   LIG d   1      12.049   7.987   2.137  0.00  0.00     0.029 H 
ATOM     32  H   LIG d   1      12.630   9.493   1.388  0.00  0.00     0.029 H 
ATOM     33  H   LIG d   1      11.189   9.517   2.432  0.00  0.00     0.029 H 
ENDBRANCH   3  30
BRANCH   7  34
ATOM     34  O   LIG d   1      10.933   3.818  -2.163  0.00  0.00    -0.492 OA
BRANCH  34  35
ATOM     35  C   LIG d   1      10.277   3.757  -3.430  0.00  0.00     0.087 C 
ATOM     36  H   LIG d   1       9.697   4.668  -3.584  0.00  0.00     0.069 H 
ATOM     37  H   LIG d   1      11.021   3.663  -4.221  0.00  0.00     0.069 H 
BRANCH  35  38
ATOM     38  C   LIG d   1       9.342   2.547  -3.463  0.00  0.00    -0.031 C 
ATOM     39  H   LIG d   1       9.894   1.670  -3.801  0.00  0.00     0.026 H 
ATOM     40  H   LIG d   1       8.949   2.363  -2.463  0.00  0.00     0.026 H 
ATOM     41  H   LIG d   1       8.517   2.743  -4.148  0.00  0.00     0.026 H 
ENDBRANCH  35  38
ENDBRANCH  34  35
ENDBRANCH   7  34
TORSDOF 7
ENDMDL
MODEL 9
REMARK VINA RESULT:      -5.3      4.059      8.153
REMARK  7 active torsions:
REMARK  status: ('A' for Active; 'I' for Inactive)
REMARK    1  A    between atoms: C_1  and  C_2 
REMARK    2  A    between atoms: C_2  and  C_3 
REMARK       I    between atoms: C_3  and  N_5 
REMARK       I    between atoms: N_5  and  C_6 
REMARK       I    between atoms: C_6  and  N_7 
REMARK       I    between atoms: C_6  and  N_8 
REMARK    3  A    between atoms: N_8  and  C_9 
REMARK    4  A    between atoms: C_11  and  C_22 
REMARK    5  A    between atoms: C_15  and  O_19 
REMARK    6  A    between atoms: O_19  and  C_20 
REMARK    7  A    between atoms: C_20  and  C_21 
ROOT
ATOM      1  C   LIG d   1       6.790   0.151  -6.178  0.00  0.00     0.293 A 
ATOM      2  N   LIG d   1       7.800  -0.590  -6.627  0.00  0.00    -0.203 NA
ATOM      3  C   LIG d   1       9.037  -0.387  -6.226  0.00  0.00     0.052 A 
ATOM      4  C   LIG d   1       9.282   0.642  -5.298  0.00  0.00     0.022 A 
ATOM      5  C   LIG d   1      10.572   0.921  -4.824  0.00  0.00    -0.047 A 
ATOM      6  C   LIG d   1      10.758   1.928  -3.927  0.00  0.00    -0.019 A 
ATOM      7  C   LIG d   1       9.677   2.690  -3.470  0.00  0.00     0.122 A 
ATOM      8  C   LIG d   1       8.398   2.441  -3.918  0.00  0.00     0.006 A 
ATOM      9  C   LIG d   1       8.179   1.411  -4.841  0.00  0.00     0.081 A 
ATOM     10  N   LIG d   1       6.958   1.131  -5.314  0.00  0.00    -0.198 NA
ATOM     11  H   LIG d   1      11.414   0.339  -5.166  0.00  0.00     0.063 H 
ATOM     12  H   LIG d   1      11.751   2.140  -3.563  0.00  0.00     0.065 H 
ATOM     13  H   LIG d   1       7.571   3.035  -3.559  0.00  0.00     0.068 H 
ENDROOT
BRANCH   1  14
ATOM     14  N   LIG d   1       5.509  -0.117  -6.642  0.00  0.00    -0.213 N 
ATOM     15  C   LIG d   1       4.470  -0.212  -5.759  0.00  0.00     0.384 C 
ATOM     16  N   LIG d   1       4.700  -0.153  -4.454  0.00  0.00    -0.004 NA
ATOM     17  N   LIG d   1       3.198  -0.371  -6.220  0.00  0.00    -0.290 N 
ATOM     18  C   LIG d   1       3.714  -0.394  -3.593  0.00  0.00     0.309 C 
ATOM     19  O   LIG d   1       2.584  -0.586  -4.000  0.00  0.00    -0.254 OA
ATOM     20  H   LIG d   1       2.457   0.048  -5.754  0.00  0.00     0.255 HD
ATOM     21  H   LIG d   1       3.032  -0.901  -7.016  0.00  0.00     0.255 HD
ATOM     22  H   LIG d   1       5.352  -0.235  -7.591  0.00  0.00     0.268 HD
BRANCH  18  23
ATOM     23  C   LIG d   1       3.997  -0.428  -2.113  0.00  0.00     0.040 C 
ATOM     24  H   LIG d   1       4.708  -1.226  -1.898  0.00  0.00     0.037 H 
ATOM     25  H   LIG d   1       3.070  -0.609  -1.570  0.00  0.00     0.037 H 
BRANCH  23  26
ATOM     26  C   LIG d   1       4.591   0.914  -1.676  0.00  0.00    -0.056 C 
ATOM     27  H   LIG d   1       4.593   0.972  -0.588  0.00  0.00     0.024 H 
ATOM     28  H   LIG d   1       5.612   0.997  -2.048  0.00  0.00     0.024 H 
ATOM     29  H   LIG d   1       3.989   1.727  -2.084  0.00  0.00     0.024 H 
ENDBRANCH  23  26
ENDBRANCH  18  23
ENDBRANCH   1  14
BRANCH   3  30
ATOM     30  C   LIG d   1      10.167  -1.239  -6.747  0.00  0.00    -0.021 C 
ATOM     31  H   LIG d   1      10.459  -0.888  -7.737  0.00  0.00     0.029 H 
ATOM     32  H   LIG d   1      11.018  -1.167  -6.071  0.00  0.00     0.029 H 
ATOM     33  H   LIG d   1       9.840  -2.276  -6.812  0.00  0.00     0.029 H 
ENDBRANCH   3  30
BRANCH   7  34
ATOM     34  O   LIG d   1       9.893   3.689  -2.575  0.00  0.00    -0.492 OA
BRANCH  34  35
ATOM     35  C   LIG d   1      10.140   4.992  -3.104  0.00  0.00     0.087 C 
ATOM     36  H   LIG d   1      11.157   5.038  -3.497  0.00  0.00     0.069 H 
ATOM     37  H   LIG d   1       9.431   5.200  -3.906  0.00  0.00     0.069 H 
BRANCH  35  38
ATOM     38  C   LIG d   1       9.975   6.032  -1.995  0.00  0.00    -0.031 C 
ATOM     39  H   LIG d   1       9.784   5.528  -1.048  0.00  0.00     0.026 H 
ATOM     40  H   LIG d   1      10.887   6.624  -1.913  0.00  0.00     0.026 H 
ATOM     41  H   LIG d   1       9.137   6.688  -2.233  0.00  0.00     0.026 H 
ENDBRANCH  35  38
ENDBRANCH  34  35
ENDBRANCH   7  34
TORSDOF 7
ENDMDL
MODEL 10
REMARK VINA RESULT:      -5.2      1.649      2.751
REMARK  7 active torsions:
REMARK  status: ('A' for Active; 'I' for Inactive)
REMARK    1  A    between atoms: C_1  and  C_2 
REMARK    2  A    between atoms: C_2  and  C_3 
REMARK       I    between atoms: C_3  and  N_5 
REMARK       I    between atoms: N_5  and  C_6 
REMARK       I    between atoms: C_6  and  N_7 
REMARK       I    between atoms: C_6  and  N_8 
REMARK    3  A    between atoms: N_8  and  C_9 
REMARK    4  A    between atoms: C_11  and  C_22 
REMARK    5  A    between atoms: C_15  and  O_19 
REMARK    6  A    between atoms: O_19  and  C_20 
REMARK    7  A    between atoms: C_20  and  C_21 
ROOT
ATOM      1  C   LIG d   1       6.023  -0.519  -6.677  0.00  0.00     0.293 A 
ATOM      2  N   LIG d   1       6.484  -1.767  -6.632  0.00  0.00    -0.203 NA
ATOM      3  C   LIG d   1       5.870  -2.751  -7.256  0.00  0.00     0.052 A 
ATOM      4  C   LIG d   1       4.702  -2.460  -7.983  0.00  0.00     0.022 A 
ATOM      5  C   LIG d   1       3.992  -3.454  -8.674  0.00  0.00    -0.047 A 
ATOM      6  C   LIG d   1       2.866  -3.122  -9.363  0.00  0.00    -0.019 A 
ATOM      7  C   LIG d   1       2.406  -1.802  -9.393  0.00  0.00     0.122 A 
ATOM      8  C   LIG d   1       3.081  -0.803  -8.725  0.00  0.00     0.006 A 
ATOM      9  C   LIG d   1       4.242  -1.117  -8.008  0.00  0.00     0.081 A 
ATOM     10  N   LIG d   1       4.932  -0.187  -7.336  0.00  0.00    -0.198 NA
ATOM     11  H   LIG d   1       4.337  -4.477  -8.660  0.00  0.00     0.063 H 
ATOM     12  H   LIG d   1       2.322  -3.889  -9.894  0.00  0.00     0.065 H 
ATOM     13  H   LIG d   1       2.717   0.213  -8.755  0.00  0.00     0.068 H 
ENDROOT
BRANCH   1  14
ATOM     14  N   LIG d   1       6.719   0.472  -5.997  0.00  0.00    -0.213 N 
ATOM     15  C   LIG d   1       6.412   0.749  -4.694  0.00  0.00     0.384 C 
ATOM     16  N   LIG d   1       5.384   0.146  -4.111  0.00  0.00    -0.004 NA
ATOM     17  N   LIG d   1       7.161   1.646  -3.994  0.00  0.00    -0.290 N 
ATOM     18  C   LIG d   1       4.994   0.523  -2.896  0.00  0.00     0.309 C 
ATOM     19  O   LIG d   1       5.629   1.361  -2.285  0.00  0.00    -0.254 OA
ATOM     20  H   LIG d   1       7.329   1.506  -3.049  0.00  0.00     0.255 HD
ATOM     21  H   LIG d   1       7.529   2.425  -4.441  0.00  0.00     0.255 HD
ATOM     22  H   LIG d   1       7.422   0.966  -6.445  0.00  0.00     0.268 HD
BRANCH  18  23
ATOM     23  C   LIG d   1       3.764  -0.090  -2.276  0.00  0.00     0.040 C 
ATOM     24  H   LIG d   1       2.883   0.215  -2.841  0.00  0.00     0.037 H 
ATOM     25  H   LIG d   1       3.670   0.250  -1.244  0.00  0.00     0.037 H 
BRANCH  23  26
ATOM     26  C   LIG d   1       3.885  -1.615  -2.302  0.00  0.00    -0.056 C 
ATOM     27  H   LIG d   1       4.525  -1.914  -3.132  0.00  0.00     0.024 H 
ATOM     28  H   LIG d   1       4.318  -1.961  -1.364  0.00  0.00     0.024 H 
ATOM     29  H   LIG d   1       2.896  -2.056  -2.428  0.00  0.00     0.024 H 
ENDBRANCH  23  26
ENDBRANCH  18  23
ENDBRANCH   1  14
BRANCH   3  30
ATOM     30  C   LIG d   1       6.409  -4.157  -7.194  0.00  0.00    -0.021 C 
ATOM     31  H   LIG d   1       6.850  -4.419  -8.157  0.00  0.00     0.029 H 
ATOM     32  H   LIG d   1       7.169  -4.222  -6.417  0.00  0.00     0.029 H 
ATOM     33  H   LIG d   1       5.597  -4.848  -6.968  0.00  0.00     0.029 H 
ENDBRANCH   3  30
BRANCH   7  34
ATOM     34  O   LIG d   1       1.279  -1.501 -10.089  0.00  0.00    -0.492 OA
BRANCH  34  35
ATOM     35  C   LIG d   1       1.450  -0.946 -11.394  0.00  0.00     0.087 C 
ATOM     36  H   LIG d   1       0.852  -0.039 -11.484  0.00  0.00     0.069 H 
ATOM     37  H   LIG d   1       2.501  -0.704 -11.552  0.00  0.00     0.069 H 
BRANCH  35  38
ATOM     38  C   LIG d   1       0.997  -1.962 -12.444  0.00  0.00    -0.031 C 
ATOM     39  H   LIG d   1       0.977  -2.958 -12.002  0.00  0.00     0.026 H 
ATOM     40  H   LIG d   1      -0.002  -1.701 -12.795  0.00  0.00     0.026 H 
ATOM     41  H   LIG d   1       1.692  -1.951 -13.284  0.00  0.00     0.026 H 
ENDBRANCH  35  38
ENDBRANCH  34  35
ENDBRANCH   7  34
TORSDOF 7
ENDMDL
