MODEL 1
REMARK VINA RESULT:      -6.8      0.000      0.000
REMARK  7 active torsions:
REMARK  status: ('A' for Active; 'I' for Inactive)
REMARK    1  A    between atoms: C_1  and  C_2 
REMARK    2  A    between atoms: C_5  and  N_21 
REMARK    3  A    between atoms: C_10  and  C_11 
REMARK    4  A    between atoms: C_11  and  C_13 
REMARK    5  A    between atoms: C_17  and  O_19 
REMARK    6  A    between atoms: O_19  and  C_20 
REMARK       I    between atoms: N_21  and  C_22 
REMARK    7  A    between atoms: C_22  and  C_24 
ROOT
ATOM      1  C   LIG d   1       4.956  -8.791  -6.025  0.00  0.00     0.006 A 
ATOM      2  C   LIG d   1       4.690  -7.367  -6.215  0.00  0.00     0.025 A 
ATOM      3  C   LIG d   1       4.586  -6.273  -5.352  0.00  0.00    -0.029 A 
ATOM      4  C   LIG d   1       4.313  -5.020  -5.868  0.00  0.00     0.035 A 
ATOM      5  C   LIG d   1       4.155  -4.849  -7.243  0.00  0.00    -0.037 A 
ATOM      6  C   LIG d   1       4.262  -5.920  -8.102  0.00  0.00    -0.017 A 
ATOM      7  C   LIG d   1       4.529  -7.190  -7.603  0.00  0.00     0.136 A 
ATOM      8  O   LIG d   1       4.685  -8.395  -8.187  0.00  0.00    -0.451 OA
ATOM      9  C   LIG d   1       4.937  -9.347  -7.267  0.00  0.00     0.179 A 
ATOM     10  H   LIG d   1       4.712  -6.407  -4.287  0.00  0.00     0.064 H 
ATOM     11  H   LIG d   1       3.948  -3.865  -7.639  0.00  0.00     0.064 H 
ATOM     12  H   LIG d   1       4.137  -5.774  -9.165  0.00  0.00     0.066 H 
ENDROOT
BRANCH   9  13
ATOM     13  C   LIG d   1       5.157 -10.768  -7.559  0.00  0.00     0.228 C 
ATOM     14  O   LIG d   1       6.283 -11.180  -7.765  0.00  0.00    -0.283 OA
BRANCH  13  15
ATOM     15  C   LIG d   1       4.009 -11.700  -7.602  0.00  0.00     0.029 A 
ATOM     16  C   LIG d   1       3.349 -11.941  -8.807  0.00  0.00    -0.009 A 
ATOM     17  C   LIG d   1       2.279 -12.819  -8.841  0.00  0.00     0.121 A 
ATOM     18  H   LIG d   1       3.673 -11.447  -9.711  0.00  0.00     0.066 H 
ATOM     19  C   LIG d   1       1.859 -13.449  -7.677  0.00  0.00    -0.020 A 
ATOM     20  C   LIG d   1       2.510 -13.207  -6.481  0.00  0.00    -0.058 A 
ATOM     21  H   LIG d   1       1.021 -14.130  -7.707  0.00  0.00     0.065 H 
ATOM     22  C   LIG d   1       3.580 -12.338  -6.437  0.00  0.00    -0.051 A 
ATOM     23  H   LIG d   1       2.178 -13.700  -5.579  0.00  0.00     0.062 H 
ATOM     24  H   LIG d   1       4.086 -12.152  -5.500  0.00  0.00     0.062 H 
BRANCH  17  25
ATOM     25  O   LIG d   1       1.636 -13.061 -10.014  0.00  0.00    -0.495 OA
BRANCH  25  26
ATOM     26  C   LIG d   1       0.209 -12.986 -10.000  0.00  0.00     0.079 C 
ATOM     27  H   LIG d   1      -0.144 -12.620 -10.964  0.00  0.00     0.066 H 
ATOM     28  H   LIG d   1      -0.206 -13.977  -9.814  0.00  0.00     0.066 H 
ATOM     29  H   LIG d   1      -0.112 -12.305  -9.213  0.00  0.00     0.066 H 
ENDBRANCH  25  26
ENDBRANCH  17  25
ENDBRANCH  13  15
ENDBRANCH   9  13
BRANCH   1  30
ATOM     30  C   LIG d   1       5.202  -9.500  -4.718  0.00  0.00    -0.035 C 
ATOM     31  H   LIG d   1       6.275  -9.576  -4.541  0.00  0.00     0.028 H 
ATOM     32  H   LIG d   1       4.739  -8.937  -3.906  0.00  0.00     0.028 H 
ATOM     33  H   LIG d   1       4.769 -10.500  -4.760  0.00  0.00     0.028 H 
ENDBRANCH   1  30
BRANCH   4  34
ATOM     34  N   LIG d   1       4.203  -3.920  -5.009  0.00  0.00    -0.281 N 
ATOM     35  C   LIG d   1       5.314  -3.316  -4.541  0.00  0.00     0.248 C 
ATOM     36  O   LIG d   1       6.409  -3.784  -4.786  0.00  0.00    -0.270 OA
ATOM     37  H   LIG d   1       3.327  -3.593  -4.750  0.00  0.00     0.155 HD
BRANCH  35  38
ATOM     38  C   LIG d   1       5.199  -2.089  -3.726  0.00  0.00     0.037 A 
ATOM     39  C   LIG d   1       6.032  -0.998  -3.983  0.00  0.00    -0.047 A 
ATOM     40  C   LIG d   1       5.920   0.145  -3.221  0.00  0.00    -0.026 A 
ATOM     41  H   LIG d   1       6.762  -1.050  -4.778  0.00  0.00     0.063 H 
ATOM     42  C   LIG d   1       4.984   0.211  -2.200  0.00  0.00     0.123 A 
ATOM     43  H   LIG d   1       6.564   0.989  -3.418  0.00  0.00     0.065 H 
ATOM     44  C   LIG d   1       4.154  -0.869  -1.941  0.00  0.00    -0.026 A 
ATOM     45  F   LIG d   1       4.880   1.334  -1.455  0.00  0.00    -0.205 F 
ATOM     46  C   LIG d   1       4.253  -2.014  -2.701  0.00  0.00    -0.047 A 
ATOM     47  H   LIG d   1       3.427  -0.811  -1.145  0.00  0.00     0.065 H 
ATOM     48  H   LIG d   1       3.604  -2.854  -2.502  0.00  0.00     0.063 H 
ENDBRANCH  35  38
ENDBRANCH   4  34
TORSDOF 7
ENDMDL
MODEL 2
REMARK VINA RESULT:      -6.8      7.511     13.456
REMARK  7 active torsions:
REMARK  status: ('A' for Active; 'I' for Inactive)
REMARK    1  A    between atoms: C_1  and  C_2 
REMARK    2  A    between atoms: C_5  and  N_21 
REMARK    3  A    between atoms: C_10  and  C_11 
REMARK    4  A    between atoms: C_11  and  C_13 
REMARK    5  A    between atoms: C_17  and  O_19 
REMARK    6  A    between atoms: O_19  and  C_20 
REMARK       I    between atoms: N_21  and  C_22 
REMARK    7  A    between atoms: C_22  and  C_24 
ROOT
ATOM      1  C   LIG d   1       8.636   1.581  -5.207  0.00  0.00     0.006 A 
ATOM      2  C   LIG d   1       7.384   0.827  -5.163  0.00  0.00     0.025 A 
ATOM      3  C   LIG d   1       6.616   0.160  -6.121  0.00  0.00    -0.029 A 
ATOM      4  C   LIG d   1       5.447  -0.469  -5.740  0.00  0.00     0.035 A 
ATOM      5  C   LIG d   1       5.043  -0.447  -4.405  0.00  0.00    -0.037 A 
ATOM      6  C   LIG d   1       5.796   0.204  -3.453  0.00  0.00    -0.017 A 
ATOM      7  C   LIG d   1       6.972   0.848  -3.817  0.00  0.00     0.136 A 
ATOM      8  O   LIG d   1       7.891   1.548  -3.121  0.00  0.00    -0.451 OA
ATOM      9  C   LIG d   1       8.877   1.986  -3.930  0.00  0.00     0.179 A 
ATOM     10  H   LIG d   1       6.933   0.140  -7.153  0.00  0.00     0.064 H 
ATOM     11  H   LIG d   1       4.129  -0.946  -4.114  0.00  0.00     0.064 H 
ATOM     12  H   LIG d   1       5.471   0.214  -2.423  0.00  0.00     0.066 H 
ENDROOT
BRANCH   9  13
ATOM     13  C   LIG d   1      10.035   2.778  -3.500  0.00  0.00     0.228 C 
ATOM     14  O   LIG d   1      11.095   2.229  -3.266  0.00  0.00    -0.283 OA
BRANCH  13  15
ATOM     15  C   LIG d   1       9.913   4.244  -3.351  0.00  0.00     0.029 A 
ATOM     16  C   LIG d   1      10.178   4.847  -2.121  0.00  0.00    -0.009 A 
ATOM     17  C   LIG d   1      10.066   6.221  -1.991  0.00  0.00     0.121 A 
ATOM     18  H   LIG d   1      10.471   4.245  -1.275  0.00  0.00     0.066 H 
ATOM     19  C   LIG d   1       9.682   6.994  -3.078  0.00  0.00    -0.020 A 
ATOM     20  C   LIG d   1       9.415   6.397  -4.297  0.00  0.00    -0.058 A 
ATOM     21  H   LIG d   1       9.592   8.065  -2.972  0.00  0.00     0.065 H 
ATOM     22  C   LIG d   1       9.527   5.030  -4.440  0.00  0.00    -0.051 A 
ATOM     23  H   LIG d   1       9.116   7.004  -5.139  0.00  0.00     0.062 H 
ATOM     24  H   LIG d   1       9.317   4.567  -5.393  0.00  0.00     0.062 H 
BRANCH  17  25
ATOM     25  O   LIG d   1      10.329   6.814  -0.796  0.00  0.00    -0.495 OA
BRANCH  25  26
ATOM     26  C   LIG d   1      10.996   6.021   0.189  0.00  0.00     0.079 C 
ATOM     27  H   LIG d   1      10.261   5.442   0.747  0.00  0.00     0.066 H 
ATOM     28  H   LIG d   1      11.696   5.344  -0.302  0.00  0.00     0.066 H 
ATOM     29  H   LIG d   1      11.539   6.672   0.873  0.00  0.00     0.066 H 
ENDBRANCH  25  26
ENDBRANCH  17  25
ENDBRANCH  13  15
ENDBRANCH   9  13
BRANCH   1  30
ATOM     30  C   LIG d   1       9.487   1.855  -6.420  0.00  0.00    -0.035 C 
ATOM     31  H   LIG d   1       8.858   1.858  -7.311  0.00  0.00     0.028 H 
ATOM     32  H   LIG d   1       9.970   2.826  -6.314  0.00  0.00     0.028 H 
ATOM     33  H   LIG d   1      10.246   1.078  -6.514  0.00  0.00     0.028 H 
ENDBRANCH   1  30
BRANCH   4  34
ATOM     34  N   LIG d   1       4.669  -1.137  -6.694  0.00  0.00    -0.281 N 
ATOM     35  C   LIG d   1       3.744  -0.459  -7.403  0.00  0.00     0.248 C 
ATOM     36  O   LIG d   1       3.518   0.708  -7.148  0.00  0.00    -0.270 OA
ATOM     37  H   LIG d   1       4.795  -2.087  -6.844  0.00  0.00     0.155 HD
BRANCH  35  38
ATOM     38  C   LIG d   1       3.003  -1.136  -8.486  0.00  0.00     0.037 A 
ATOM     39  C   LIG d   1       3.282  -2.468  -8.799  0.00  0.00    -0.047 A 
ATOM     40  C   LIG d   1       2.587  -3.096  -9.809  0.00  0.00    -0.026 A 
ATOM     41  H   LIG d   1       4.042  -3.005  -8.250  0.00  0.00     0.063 H 
ATOM     42  C   LIG d   1       1.612  -2.408 -10.515  0.00  0.00     0.123 A 
ATOM     43  H   LIG d   1       2.802  -4.126 -10.053  0.00  0.00     0.065 H 
ATOM     44  C   LIG d   1       1.330  -1.085 -10.209  0.00  0.00    -0.026 A 
ATOM     45  F   LIG d   1       0.934  -3.028 -11.506  0.00  0.00    -0.205 F 
ATOM     46  C   LIG d   1       2.014  -0.449  -9.195  0.00  0.00    -0.047 A 
ATOM     47  H   LIG d   1       0.569  -0.554 -10.762  0.00  0.00     0.065 H 
ATOM     48  H   LIG d   1       1.792   0.579  -8.954  0.00  0.00     0.063 H 
ENDBRANCH  35  38
ENDBRANCH   4  34
TORSDOF 7
ENDMDL
MODEL 3
REMARK VINA RESULT:      -6.8      7.031      8.979
REMARK  7 active torsions:
REMARK  status: ('A' for Active; 'I' for Inactive)
REMARK    1  A    between atoms: C_1  and  C_2 
REMARK    2  A    between atoms: C_5  and  N_21 
REMARK    3  A    between atoms: C_10  and  C_11 
REMARK    4  A    between atoms: C_11  and  C_13 
REMARK    5  A    between atoms: C_17  and  O_19 
REMARK    6  A    between atoms: O_19  and  C_20 
REMARK       I    between atoms: N_21  and  C_22 
REMARK    7  A    between atoms: C_22  and  C_24 
ROOT
ATOM      1  C   LIG d   1       1.685  -2.221 -10.930  0.00  0.00     0.006 A 
ATOM      2  C   LIG d   1       2.312  -1.171 -10.130  0.00  0.00     0.025 A 
ATOM      3  C   LIG d   1       2.414  -0.923  -8.758  0.00  0.00    -0.029 A 
ATOM      4  C   LIG d   1       3.093   0.196  -8.316  0.00  0.00     0.035 A 
ATOM      5  C   LIG d   1       3.682   1.066  -9.235  0.00  0.00    -0.037 A 
ATOM      6  C   LIG d   1       3.591   0.827 -10.587  0.00  0.00    -0.017 A 
ATOM      7  C   LIG d   1       2.907  -0.290 -11.053  0.00  0.00     0.136 A 
ATOM      8  O   LIG d   1       2.660  -0.769 -12.289  0.00  0.00    -0.451 OA
ATOM      9  C   LIG d   1       1.940  -1.908 -12.229  0.00  0.00     0.179 A 
ATOM     10  H   LIG d   1       1.961  -1.600  -8.049  0.00  0.00     0.064 H 
ATOM     11  H   LIG d   1       4.216   1.936  -8.881  0.00  0.00     0.064 H 
ATOM     12  H   LIG d   1       4.051   1.508 -11.288  0.00  0.00     0.066 H 
ENDROOT
BRANCH   9  13
ATOM     13  C   LIG d   1       1.497  -2.691 -13.389  0.00  0.00     0.228 C 
ATOM     14  O   LIG d   1       2.129  -3.670 -13.739  0.00  0.00    -0.283 OA
BRANCH  13  15
ATOM     15  C   LIG d   1       0.283  -2.289 -14.132  0.00  0.00     0.029 A 
ATOM     16  C   LIG d   1      -0.856  -1.877 -13.441  0.00  0.00    -0.009 A 
ATOM     17  C   LIG d   1      -1.987  -1.498 -14.144  0.00  0.00     0.121 A 
ATOM     18  H   LIG d   1      -0.855  -1.850 -12.361  0.00  0.00     0.066 H 
ATOM     19  C   LIG d   1      -1.989  -1.538 -15.531  0.00  0.00    -0.020 A 
ATOM     20  C   LIG d   1      -0.862  -1.952 -16.218  0.00  0.00    -0.058 A 
ATOM     21  H   LIG d   1      -2.875  -1.246 -16.076  0.00  0.00     0.065 H 
ATOM     22  C   LIG d   1       0.272  -2.327 -15.528  0.00  0.00    -0.051 A 
ATOM     23  H   LIG d   1      -0.870  -1.982 -17.298  0.00  0.00     0.062 H 
ATOM     24  H   LIG d   1       1.150  -2.650 -16.068  0.00  0.00     0.062 H 
BRANCH  17  25
ATOM     25  O   LIG d   1      -3.098  -1.089 -13.475  0.00  0.00    -0.495 OA
BRANCH  25  26
ATOM     26  C   LIG d   1      -3.230   0.313 -13.231  0.00  0.00     0.079 C 
ATOM     27  H   LIG d   1      -4.103   0.692 -13.762  0.00  0.00     0.066 H 
ATOM     28  H   LIG d   1      -3.353   0.486 -12.161  0.00  0.00     0.066 H 
ATOM     29  H   LIG d   1      -2.338   0.829 -13.583  0.00  0.00     0.066 H 
ENDBRANCH  25  26
ENDBRANCH  17  25
ENDBRANCH  13  15
ENDBRANCH   9  13
BRANCH   1  30
ATOM     30  C   LIG d   1       0.913  -3.411 -10.419  0.00  0.00    -0.035 C 
ATOM     31  H   LIG d   1       1.464  -4.325 -10.642  0.00  0.00     0.028 H 
ATOM     32  H   LIG d   1       0.781  -3.322  -9.340  0.00  0.00     0.028 H 
ATOM     33  H   LIG d   1      -0.063  -3.446 -10.903  0.00  0.00     0.028 H 
ENDBRANCH   1  30
BRANCH   4  34
ATOM     34  N   LIG d   1       3.196   0.455  -6.944  0.00  0.00    -0.281 N 
ATOM     35  C   LIG d   1       4.028  -0.282  -6.180  0.00  0.00     0.248 C 
ATOM     36  O   LIG d   1       4.616  -1.230  -6.663  0.00  0.00    -0.270 OA
ATOM     37  H   LIG d   1       2.668   1.162  -6.542  0.00  0.00     0.155 HD
BRANCH  35  38
ATOM     38  C   LIG d   1       4.221   0.061  -4.757  0.00  0.00     0.037 A 
ATOM     39  C   LIG d   1       3.132   0.463  -3.980  0.00  0.00    -0.047 A 
ATOM     40  C   LIG d   1       3.317   0.781  -2.652  0.00  0.00    -0.026 A 
ATOM     41  H   LIG d   1       2.147   0.525  -4.420  0.00  0.00     0.063 H 
ATOM     42  C   LIG d   1       4.581   0.703  -2.087  0.00  0.00     0.123 A 
ATOM     43  H   LIG d   1       2.476   1.093  -2.051  0.00  0.00     0.065 H 
ATOM     44  C   LIG d   1       5.666   0.304  -2.854  0.00  0.00    -0.026 A 
ATOM     45  F   LIG d   1       4.756   1.017  -0.785  0.00  0.00    -0.205 F 
ATOM     46  C   LIG d   1       5.491  -0.023  -4.181  0.00  0.00    -0.047 A 
ATOM     47  H   LIG d   1       6.647   0.246  -2.408  0.00  0.00     0.065 H 
ATOM     48  H   LIG d   1       6.335  -0.337  -4.777  0.00  0.00     0.063 H 
ENDBRANCH  35  38
ENDBRANCH   4  34
TORSDOF 7
ENDMDL
MODEL 4
REMARK VINA RESULT:      -6.7      8.572     15.201
REMARK  7 active torsions:
REMARK  status: ('A' for Active; 'I' for Inactive)
REMARK    1  A    between atoms: C_1  and  C_2 
REMARK    2  A    between atoms: C_5  and  N_21 
REMARK    3  A    between atoms: C_10  and  C_11 
REMARK    4  A    between atoms: C_11  and  C_13 
REMARK    5  A    between atoms: C_17  and  O_19 
REMARK    6  A    between atoms: O_19  and  C_20 
REMARK       I    between atoms: N_21  and  C_22 
REMARK    7  A    between atoms: C_22  and  C_24 
ROOT
ATOM      1  C   LIG d   1      10.006   4.331  -7.104  0.00  0.00     0.006 A 
ATOM      2  C   LIG d   1       9.867   3.565  -5.867  0.00  0.00     0.025 A 
ATOM      3  C   LIG d   1       9.022   2.531  -5.454  0.00  0.00    -0.029 A 
ATOM      4  C   LIG d   1       9.151   2.014  -4.179  0.00  0.00     0.035 A 
ATOM      5  C   LIG d   1      10.127   2.514  -3.316  0.00  0.00    -0.037 A 
ATOM      6  C   LIG d   1      10.966   3.529  -3.717  0.00  0.00    -0.017 A 
ATOM      7  C   LIG d   1      10.849   4.068  -4.993  0.00  0.00     0.136 A 
ATOM      8  O   LIG d   1      11.514   5.042  -5.645  0.00  0.00    -0.451 OA
ATOM      9  C   LIG d   1      11.026   5.207  -6.892  0.00  0.00     0.179 A 
ATOM     10  H   LIG d   1       8.270   2.142  -6.125  0.00  0.00     0.064 H 
ATOM     11  H   LIG d   1      10.224   2.100  -2.323  0.00  0.00     0.064 H 
ATOM     12  H   LIG d   1      11.717   3.907  -3.038  0.00  0.00     0.066 H 
ENDROOT
BRANCH   9  13
ATOM     13  C   LIG d   1      11.519   6.182  -7.870  0.00  0.00     0.228 C 
ATOM     14  O   LIG d   1      12.236   5.819  -8.784  0.00  0.00    -0.283 OA
BRANCH  13  15
ATOM     15  C   LIG d   1      11.144   7.607  -7.747  0.00  0.00     0.029 A 
ATOM     16  C   LIG d   1      10.349   8.033  -6.682  0.00  0.00    -0.009 A 
ATOM     17  C   LIG d   1      10.007   9.369  -6.571  0.00  0.00     0.121 A 
ATOM     18  H   LIG d   1      10.005   7.322  -5.946  0.00  0.00     0.066 H 
ATOM     19  C   LIG d   1      10.445  10.281  -7.521  0.00  0.00    -0.020 A 
ATOM     20  C   LIG d   1      11.230   9.860  -8.580  0.00  0.00    -0.058 A 
ATOM     21  H   LIG d   1      10.173  11.322  -7.433  0.00  0.00     0.065 H 
ATOM     22  C   LIG d   1      11.581   8.532  -8.699  0.00  0.00    -0.051 A 
ATOM     23  H   LIG d   1      11.567  10.575  -9.317  0.00  0.00     0.062 H 
ATOM     24  H   LIG d   1      12.193   8.207  -9.527  0.00  0.00     0.062 H 
BRANCH  17  25
ATOM     25  O   LIG d   1       9.237   9.789  -5.532  0.00  0.00    -0.495 OA
BRANCH  25  26
ATOM     26  C   LIG d   1       9.421  11.135  -5.089  0.00  0.00     0.079 C 
ATOM     27  H   LIG d   1       8.526  11.716  -5.314  0.00  0.00     0.066 H 
ATOM     28  H   LIG d   1       9.600  11.144  -4.014  0.00  0.00     0.066 H 
ATOM     29  H   LIG d   1      10.276  11.573  -5.603  0.00  0.00     0.066 H 
ENDBRANCH  25  26
ENDBRANCH  17  25
ENDBRANCH  13  15
ENDBRANCH   9  13
BRANCH   1  30
ATOM     30  C   LIG d   1       9.187   4.181  -8.360  0.00  0.00    -0.035 C 
ATOM     31  H   LIG d   1       8.976   3.126  -8.532  0.00  0.00     0.028 H 
ATOM     32  H   LIG d   1       8.249   4.726  -8.249  0.00  0.00     0.028 H 
ATOM     33  H   LIG d   1       9.744   4.584  -9.207  0.00  0.00     0.028 H 
ENDBRANCH   1  30
BRANCH   4  34
ATOM     34  N   LIG d   1       8.306   0.981  -3.755  0.00  0.00    -0.281 N 
ATOM     35  C   LIG d   1       7.017   1.243  -3.458  0.00  0.00     0.248 C 
ATOM     36  O   LIG d   1       6.614   2.390  -3.466  0.00  0.00    -0.270 OA
ATOM     37  H   LIG d   1       8.648   0.077  -3.673  0.00  0.00     0.155 HD
BRANCH  35  38
ATOM     38  C   LIG d   1       6.098   0.138  -3.119  0.00  0.00     0.037 A 
ATOM     39  C   LIG d   1       6.301  -1.132  -3.662  0.00  0.00    -0.047 A 
ATOM     40  C   LIG d   1       5.442  -2.161  -3.342  0.00  0.00    -0.026 A 
ATOM     41  H   LIG d   1       7.130  -1.309  -4.332  0.00  0.00     0.063 H 
ATOM     42  C   LIG d   1       4.377  -1.936  -2.482  0.00  0.00     0.123 A 
ATOM     43  H   LIG d   1       5.597  -3.143  -3.761  0.00  0.00     0.065 H 
ATOM     44  C   LIG d   1       4.171  -0.676  -1.940  0.00  0.00    -0.026 A 
ATOM     45  F   LIG d   1       3.537  -2.948  -2.172  0.00  0.00    -0.205 F 
ATOM     46  C   LIG d   1       5.029   0.358  -2.248  0.00  0.00    -0.047 A 
ATOM     47  H   LIG d   1       3.340  -0.507  -1.271  0.00  0.00     0.065 H 
ATOM     48  H   LIG d   1       4.871   1.337  -1.822  0.00  0.00     0.063 H 
ENDBRANCH  35  38
ENDBRANCH   4  34
TORSDOF 7
ENDMDL
MODEL 5
REMARK VINA RESULT:      -6.7      8.502     15.879
REMARK  7 active torsions:
REMARK  status: ('A' for Active; 'I' for Inactive)
REMARK    1  A    between atoms: C_1  and  C_2 
REMARK    2  A    between atoms: C_5  and  N_21 
REMARK    3  A    between atoms: C_10  and  C_11 
REMARK    4  A    between atoms: C_11  and  C_13 
REMARK    5  A    between atoms: C_17  and  O_19 
REMARK    6  A    between atoms: O_19  and  C_20 
REMARK       I    between atoms: N_21  and  C_22 
REMARK    7  A    between atoms: C_22  and  C_24 
ROOT
ATOM      1  C   LIG d   1      11.040   5.106  -2.958  0.00  0.00     0.006 A 
ATOM      2  C   LIG d   1      10.318   4.043  -3.654  0.00  0.00     0.025 A 
ATOM      3  C   LIG d   1       9.520   2.974  -3.237  0.00  0.00    -0.029 A 
ATOM      4  C   LIG d   1       8.973   2.124  -4.179  0.00  0.00     0.035 A 
ATOM      5  C   LIG d   1       9.207   2.340  -5.537  0.00  0.00    -0.037 A 
ATOM      6  C   LIG d   1       9.987   3.393  -5.957  0.00  0.00    -0.017 A 
ATOM      7  C   LIG d   1      10.553   4.257  -5.026  0.00  0.00     0.136 A 
ATOM      8  O   LIG d   1      11.340   5.345  -5.140  0.00  0.00    -0.451 OA
ATOM      9  C   LIG d   1      11.634   5.855  -3.926  0.00  0.00     0.179 A 
ATOM     10  H   LIG d   1       9.337   2.811  -2.185  0.00  0.00     0.064 H 
ATOM     11  H   LIG d   1       8.771   1.673  -6.267  0.00  0.00     0.064 H 
ATOM     12  H   LIG d   1      10.161   3.549  -7.012  0.00  0.00     0.066 H 
ENDROOT
BRANCH   9  13
ATOM     13  C   LIG d   1      12.469   7.038  -3.686  0.00  0.00     0.228 C 
ATOM     14  O   LIG d   1      13.681   6.946  -3.728  0.00  0.00    -0.283 OA
BRANCH  13  15
ATOM     15  C   LIG d   1      11.836   8.342  -3.392  0.00  0.00     0.029 A 
ATOM     16  C   LIG d   1      10.818   8.827  -4.213  0.00  0.00    -0.009 A 
ATOM     17  C   LIG d   1      10.227  10.046  -3.929  0.00  0.00     0.121 A 
ATOM     18  H   LIG d   1      10.490   8.252  -5.066  0.00  0.00     0.066 H 
ATOM     19  C   LIG d   1      10.654  10.787  -2.836  0.00  0.00    -0.020 A 
ATOM     20  C   LIG d   1      11.666  10.310  -2.023  0.00  0.00    -0.058 A 
ATOM     21  H   LIG d   1      10.193  11.740  -2.619  0.00  0.00     0.065 H 
ATOM     22  C   LIG d   1      12.259   9.095  -2.294  0.00  0.00    -0.051 A 
ATOM     23  H   LIG d   1      11.994  10.892  -1.174  0.00  0.00     0.062 H 
ATOM     24  H   LIG d   1      13.049   8.725  -1.657  0.00  0.00     0.062 H 
BRANCH  17  25
ATOM     25  O   LIG d   1       9.231  10.520  -4.723  0.00  0.00    -0.495 OA
BRANCH  25  26
ATOM     26  C   LIG d   1       9.578  11.540  -5.662  0.00  0.00     0.079 C 
ATOM     27  H   LIG d   1       8.905  11.490  -6.518  0.00  0.00     0.066 H 
ATOM     28  H   LIG d   1       9.491  12.517  -5.187  0.00  0.00     0.066 H 
ATOM     29  H   LIG d   1      10.604  11.390  -5.999  0.00  0.00     0.066 H 
ENDBRANCH  25  26
ENDBRANCH  17  25
ENDBRANCH  13  15
ENDBRANCH   9  13
BRANCH   1  30
ATOM     30  C   LIG d   1      11.112   5.328  -1.469  0.00  0.00    -0.035 C 
ATOM     31  H   LIG d   1      11.653   4.504  -1.004  0.00  0.00     0.028 H 
ATOM     32  H   LIG d   1      11.632   6.265  -1.265  0.00  0.00     0.028 H 
ATOM     33  H   LIG d   1      10.102   5.376  -1.060  0.00  0.00     0.028 H 
ENDBRANCH   1  30
BRANCH   4  34
ATOM     34  N   LIG d   1       8.176   1.048  -3.769  0.00  0.00    -0.281 N 
ATOM     35  C   LIG d   1       6.875   1.247  -3.474  0.00  0.00     0.248 C 
ATOM     36  O   LIG d   1       6.418   2.373  -3.471  0.00  0.00    -0.270 OA
ATOM     37  H   LIG d   1       8.560   0.160  -3.696  0.00  0.00     0.155 HD
BRANCH  35  38
ATOM     38  C   LIG d   1       6.008   0.096  -3.150  0.00  0.00     0.037 A 
ATOM     39  C   LIG d   1       4.994   0.229  -2.200  0.00  0.00    -0.047 A 
ATOM     40  C   LIG d   1       4.187  -0.847  -1.901  0.00  0.00    -0.026 A 
ATOM     41  H   LIG d   1       4.842   1.175  -1.699  0.00  0.00     0.063 H 
ATOM     42  C   LIG d   1       4.381  -2.061  -2.542  0.00  0.00     0.123 A 
ATOM     43  H   LIG d   1       3.403  -0.745  -1.166  0.00  0.00     0.065 H 
ATOM     44  C   LIG d   1       5.387  -2.200  -3.487  0.00  0.00    -0.026 A 
ATOM     45  F   LIG d   1       3.588  -3.114  -2.245  0.00  0.00    -0.205 F 
ATOM     46  C   LIG d   1       6.195  -1.128  -3.798  0.00  0.00    -0.047 A 
ATOM     47  H   LIG d   1       5.534  -3.148  -3.983  0.00  0.00     0.065 H 
ATOM     48  H   LIG d   1       6.976  -1.234  -4.537  0.00  0.00     0.063 H 
ENDBRANCH  35  38
ENDBRANCH   4  34
TORSDOF 7
ENDMDL
MODEL 6
REMARK VINA RESULT:      -6.6      8.094     14.672
REMARK  7 active torsions:
REMARK  status: ('A' for Active; 'I' for Inactive)
REMARK    1  A    between atoms: C_1  and  C_2 
REMARK    2  A    between atoms: C_5  and  N_21 
REMARK    3  A    between atoms: C_10  and  C_11 
REMARK    4  A    between atoms: C_11  and  C_13 
REMARK    5  A    between atoms: C_17  and  O_19 
REMARK    6  A    between atoms: O_19  and  C_20 
REMARK       I    between atoms: N_21  and  C_22 
REMARK    7  A    between atoms: C_22  and  C_24 
ROOT
ATOM      1  C   LIG d   1      10.078   5.557  -5.038  0.00  0.00     0.006 A 
ATOM      2  C   LIG d   1       9.912   4.126  -4.792  0.00  0.00     0.025 A 
ATOM      3  C   LIG d   1       8.924   3.353  -4.175  0.00  0.00    -0.029 A 
ATOM      4  C   LIG d   1       9.077   1.982  -4.103  0.00  0.00     0.035 A 
ATOM      5  C   LIG d   1      10.206   1.373  -4.653  0.00  0.00    -0.037 A 
ATOM      6  C   LIG d   1      11.181   2.126  -5.267  0.00  0.00    -0.017 A 
ATOM      7  C   LIG d   1      11.050   3.508  -5.345  0.00  0.00     0.136 A 
ATOM      8  O   LIG d   1      11.824   4.477  -5.873  0.00  0.00    -0.451 OA
ATOM      9  C   LIG d   1      11.261   5.691  -5.698  0.00  0.00     0.179 A 
ATOM     10  H   LIG d   1       8.049   3.826  -3.754  0.00  0.00     0.064 H 
ATOM     11  H   LIG d   1      10.315   0.300  -4.597  0.00  0.00     0.064 H 
ATOM     12  H   LIG d   1      12.051   1.642  -5.688  0.00  0.00     0.066 H 
ENDROOT
BRANCH   9  13
ATOM     13  C   LIG d   1      11.836   6.962  -6.150  0.00  0.00     0.228 C 
ATOM     14  O   LIG d   1      12.628   7.558  -5.444  0.00  0.00    -0.283 OA
BRANCH  13  15
ATOM     15  C   LIG d   1      11.454   7.521  -7.466  0.00  0.00     0.029 A 
ATOM     16  C   LIG d   1      10.671   6.771  -8.344  0.00  0.00    -0.009 A 
ATOM     17  C   LIG d   1      10.313   7.302  -9.571  0.00  0.00     0.121 A 
ATOM     18  H   LIG d   1      10.342   5.781  -8.065  0.00  0.00     0.066 H 
ATOM     19  C   LIG d   1      10.742   8.573  -9.930  0.00  0.00    -0.020 A 
ATOM     20  C   LIG d   1      11.523   9.315  -9.062  0.00  0.00    -0.058 A 
ATOM     21  H   LIG d   1      10.464   8.983 -10.890  0.00  0.00     0.065 H 
ATOM     22  C   LIG d   1      11.881   8.798  -7.835  0.00  0.00    -0.051 A 
ATOM     23  H   LIG d   1      11.854  10.303  -9.348  0.00  0.00     0.062 H 
ATOM     24  H   LIG d   1      12.491   9.381  -7.161  0.00  0.00     0.062 H 
BRANCH  17  25
ATOM     25  O   LIG d   1       9.545   6.577 -10.427  0.00  0.00    -0.495 OA
BRANCH  25  26
ATOM     26  C   LIG d   1       8.466   5.832  -9.859  0.00  0.00     0.079 C 
ATOM     27  H   LIG d   1       7.983   5.243 -10.638  0.00  0.00     0.066 H 
ATOM     28  H   LIG d   1       8.851   5.166  -9.086  0.00  0.00     0.066 H 
ATOM     29  H   LIG d   1       7.742   6.517  -9.421  0.00  0.00     0.066 H 
ENDBRANCH  25  26
ENDBRANCH  17  25
ENDBRANCH  13  15
ENDBRANCH   9  13
BRANCH   1  30
ATOM     30  C   LIG d   1       9.131   6.660  -4.642  0.00  0.00    -0.035 C 
ATOM     31  H   LIG d   1       8.367   6.262  -3.975  0.00  0.00     0.028 H 
ATOM     32  H   LIG d   1       9.685   7.448  -4.130  0.00  0.00     0.028 H 
ATOM     33  H   LIG d   1       8.657   7.070  -5.534  0.00  0.00     0.028 H 
ENDBRANCH   1  30
BRANCH   4  34
ATOM     34  N   LIG d   1       8.094   1.201  -3.483  0.00  0.00    -0.281 N 
ATOM     35  C   LIG d   1       7.052   0.736  -4.200  0.00  0.00     0.248 C 
ATOM     36  O   LIG d   1       6.913   1.073  -5.359  0.00  0.00    -0.270 OA
ATOM     37  H   LIG d   1       8.163   0.996  -2.537  0.00  0.00     0.155 HD
BRANCH  35  38
ATOM     38  C   LIG d   1       6.075  -0.179  -3.573  0.00  0.00     0.037 A 
ATOM     39  C   LIG d   1       5.309   0.252  -2.488  0.00  0.00    -0.047 A 
ATOM     40  C   LIG d   1       4.398  -0.604  -1.908  0.00  0.00    -0.026 A 
ATOM     41  H   LIG d   1       5.429   1.255  -2.105  0.00  0.00     0.063 H 
ATOM     42  C   LIG d   1       4.243  -1.891  -2.399  0.00  0.00     0.123 A 
ATOM     43  H   LIG d   1       3.805  -0.272  -1.069  0.00  0.00     0.065 H 
ATOM     44  C   LIG d   1       5.001  -2.325  -3.477  0.00  0.00    -0.026 A 
ATOM     45  F   LIG d   1       3.349  -2.727  -1.826  0.00  0.00    -0.205 F 
ATOM     46  C   LIG d   1       5.909  -1.474  -4.069  0.00  0.00    -0.047 A 
ATOM     47  H   LIG d   1       4.876  -3.328  -3.855  0.00  0.00     0.065 H 
ATOM     48  H   LIG d   1       6.497  -1.810  -4.910  0.00  0.00     0.063 H 
ENDBRANCH  35  38
ENDBRANCH   4  34
TORSDOF 7
ENDMDL
MODEL 7
REMARK VINA RESULT:      -6.6      7.539     13.327
REMARK  7 active torsions:
REMARK  status: ('A' for Active; 'I' for Inactive)
REMARK    1  A    between atoms: C_1  and  C_2 
REMARK    2  A    between atoms: C_5  and  N_21 
REMARK    3  A    between atoms: C_10  and  C_11 
REMARK    4  A    between atoms: C_11  and  C_13 
REMARK    5  A    between atoms: C_17  and  O_19 
REMARK    6  A    between atoms: O_19  and  C_20 
REMARK       I    between atoms: N_21  and  C_22 
REMARK    7  A    between atoms: C_22  and  C_24 
ROOT
ATOM      1  C   LIG d   1       8.644   1.570  -5.167  0.00  0.00     0.006 A 
ATOM      2  C   LIG d   1       7.376   0.844  -5.128  0.00  0.00     0.025 A 
ATOM      3  C   LIG d   1       6.609   0.174  -6.084  0.00  0.00    -0.029 A 
ATOM      4  C   LIG d   1       5.420  -0.422  -5.710  0.00  0.00     0.035 A 
ATOM      5  C   LIG d   1       4.996  -0.363  -4.382  0.00  0.00    -0.037 A 
ATOM      6  C   LIG d   1       5.748   0.290  -3.432  0.00  0.00    -0.017 A 
ATOM      7  C   LIG d   1       6.944   0.902  -3.789  0.00  0.00     0.136 A 
ATOM      8  O   LIG d   1       7.867   1.596  -3.093  0.00  0.00    -0.451 OA
ATOM      9  C   LIG d   1       8.875   1.995  -3.895  0.00  0.00     0.179 A 
ATOM     10  H   LIG d   1       6.941   0.126  -7.111  0.00  0.00     0.064 H 
ATOM     11  H   LIG d   1       4.067  -0.836  -4.096  0.00  0.00     0.064 H 
ATOM     12  H   LIG d   1       5.407   0.329  -2.407  0.00  0.00     0.066 H 
ENDROOT
BRANCH   9  13
ATOM     13  C   LIG d   1      10.042   2.771  -3.463  0.00  0.00     0.228 C 
ATOM     14  O   LIG d   1      11.095   2.208  -3.228  0.00  0.00    -0.283 OA
BRANCH  13  15
ATOM     15  C   LIG d   1       9.941   4.239  -3.313  0.00  0.00     0.029 A 
ATOM     16  C   LIG d   1       9.501   5.023  -4.380  0.00  0.00    -0.009 A 
ATOM     17  C   LIG d   1       9.403   6.396  -4.230  0.00  0.00     0.121 A 
ATOM     18  H   LIG d   1       9.234   4.560  -5.318  0.00  0.00     0.066 H 
ATOM     19  C   LIG d   1       9.752   6.990  -3.025  0.00  0.00    -0.020 A 
ATOM     20  C   LIG d   1      10.193   6.215  -1.968  0.00  0.00    -0.058 A 
ATOM     21  H   LIG d   1       9.679   8.062  -2.914  0.00  0.00     0.065 H 
ATOM     22  C   LIG d   1      10.289   4.846  -2.104  0.00  0.00    -0.051 A 
ATOM     23  H   LIG d   1      10.463   6.684  -1.033  0.00  0.00     0.062 H 
ATOM     24  H   LIG d   1      10.634   4.244  -1.277  0.00  0.00     0.062 H 
BRANCH  17  25
ATOM     25  O   LIG d   1       8.970   7.163  -5.266  0.00  0.00    -0.495 OA
BRANCH  25  26
ATOM     26  C   LIG d   1       9.808   8.249  -5.665  0.00  0.00     0.079 C 
ATOM     27  H   LIG d   1       9.418   8.690  -6.582  0.00  0.00     0.066 H 
ATOM     28  H   LIG d   1       9.825   9.004  -4.878  0.00  0.00     0.066 H 
ATOM     29  H   LIG d   1      10.819   7.883  -5.839  0.00  0.00     0.066 H 
ENDBRANCH  25  26
ENDBRANCH  17  25
ENDBRANCH  13  15
ENDBRANCH   9  13
BRANCH   1  30
ATOM     30  C   LIG d   1       9.520   1.800  -6.372  0.00  0.00    -0.035 C 
ATOM     31  H   LIG d   1      10.198   2.631  -6.176  0.00  0.00     0.028 H 
ATOM     32  H   LIG d   1      10.100   0.899  -6.577  0.00  0.00     0.028 H 
ATOM     33  H   LIG d   1       8.896   2.035  -7.235  0.00  0.00     0.028 H 
ENDBRANCH   1  30
BRANCH   4  34
ATOM     34  N   LIG d   1       4.643  -1.092  -6.663  0.00  0.00    -0.281 N 
ATOM     35  C   LIG d   1       3.745  -0.408  -7.401  0.00  0.00     0.248 C 
ATOM     36  O   LIG d   1       3.542   0.768  -7.174  0.00  0.00    -0.270 OA
ATOM     37  H   LIG d   1       4.749  -2.047  -6.790  0.00  0.00     0.155 HD
BRANCH  35  38
ATOM     38  C   LIG d   1       3.006  -1.092  -8.482  0.00  0.00     0.037 A 
ATOM     39  C   LIG d   1       3.282  -2.427  -8.783  0.00  0.00    -0.047 A 
ATOM     40  C   LIG d   1       2.589  -3.061  -9.791  0.00  0.00    -0.026 A 
ATOM     41  H   LIG d   1       4.038  -2.962  -8.226  0.00  0.00     0.063 H 
ATOM     42  C   LIG d   1       1.620  -2.375 -10.507  0.00  0.00     0.123 A 
ATOM     43  H   LIG d   1       2.801  -4.093 -10.025  0.00  0.00     0.065 H 
ATOM     44  C   LIG d   1       1.341  -1.048 -10.212  0.00  0.00    -0.026 A 
ATOM     45  F   LIG d   1       0.944  -3.001 -11.495  0.00  0.00    -0.205 F 
ATOM     46  C   LIG d   1       2.023  -0.407  -9.201  0.00  0.00    -0.047 A 
ATOM     47  H   LIG d   1       0.585  -0.519 -10.773  0.00  0.00     0.065 H 
ATOM     48  H   LIG d   1       1.804   0.624  -8.969  0.00  0.00     0.063 H 
ENDBRANCH  35  38
ENDBRANCH   4  34
TORSDOF 7
ENDMDL
MODEL 8
REMARK VINA RESULT:      -6.6      8.684     11.254
REMARK  7 active torsions:
REMARK  status: ('A' for Active; 'I' for Inactive)
REMARK    1  A    between atoms: C_1  and  C_2 
REMARK    2  A    between atoms: C_5  and  N_21 
REMARK    3  A    between atoms: C_10  and  C_11 
REMARK    4  A    between atoms: C_11  and  C_13 
REMARK    5  A    between atoms: C_17  and  O_19 
REMARK    6  A    between atoms: O_19  and  C_20 
REMARK       I    between atoms: N_21  and  C_22 
REMARK    7  A    between atoms: C_22  and  C_24 
ROOT
ATOM      1  C   LIG d   1       7.400   0.887  -4.680  0.00  0.00     0.006 A 
ATOM      2  C   LIG d   1       8.410   1.933  -4.528  0.00  0.00     0.025 A 
ATOM      3  C   LIG d   1       8.880   2.681  -3.445  0.00  0.00    -0.029 A 
ATOM      4  C   LIG d   1       9.871   3.623  -3.646  0.00  0.00     0.035 A 
ATOM      5  C   LIG d   1      10.406   3.816  -4.920  0.00  0.00    -0.037 A 
ATOM      6  C   LIG d   1       9.953   3.079  -5.991  0.00  0.00    -0.017 A 
ATOM      7  C   LIG d   1       8.952   2.131  -5.812  0.00  0.00     0.136 A 
ATOM      8  O   LIG d   1       8.326   1.283  -6.653  0.00  0.00    -0.451 OA
ATOM      9  C   LIG d   1       7.408   0.544  -5.997  0.00  0.00     0.179 A 
ATOM     10  H   LIG d   1       8.467   2.528  -2.459  0.00  0.00     0.064 H 
ATOM     11  H   LIG d   1      11.184   4.550  -5.068  0.00  0.00     0.064 H 
ATOM     12  H   LIG d   1      10.375   3.239  -6.973  0.00  0.00     0.066 H 
ENDROOT
BRANCH   9  13
ATOM     13  C   LIG d   1       6.548  -0.475  -6.609  0.00  0.00     0.228 C 
ATOM     14  O   LIG d   1       6.895  -1.641  -6.614  0.00  0.00    -0.283 OA
BRANCH  13  15
ATOM     15  C   LIG d   1       5.259  -0.084  -7.220  0.00  0.00     0.029 A 
ATOM     16  C   LIG d   1       5.237   0.557  -8.459  0.00  0.00    -0.009 A 
ATOM     17  C   LIG d   1       4.026   0.914  -9.026  0.00  0.00     0.121 A 
ATOM     18  H   LIG d   1       6.161   0.770  -8.974  0.00  0.00     0.066 H 
ATOM     19  C   LIG d   1       2.839   0.645  -8.359  0.00  0.00    -0.020 A 
ATOM     20  C   LIG d   1       2.859   0.013  -7.128  0.00  0.00    -0.058 A 
ATOM     21  H   LIG d   1       1.896   0.929  -8.803  0.00  0.00     0.065 H 
ATOM     22  C   LIG d   1       4.060  -0.352  -6.556  0.00  0.00    -0.051 A 
ATOM     23  H   LIG d   1       1.932  -0.193  -6.614  0.00  0.00     0.062 H 
ATOM     24  H   LIG d   1       4.072  -0.844  -5.594  0.00  0.00     0.062 H 
BRANCH  17  25
ATOM     25  O   LIG d   1       3.999   1.534 -10.236  0.00  0.00    -0.495 OA
BRANCH  25  26
ATOM     26  C   LIG d   1       4.054   0.699 -11.394  0.00  0.00     0.079 C 
ATOM     27  H   LIG d   1       3.205   0.921 -12.041  0.00  0.00     0.066 H 
ATOM     28  H   LIG d   1       4.982   0.887 -11.935  0.00  0.00     0.066 H 
ATOM     29  H   LIG d   1       4.015  -0.346 -11.091  0.00  0.00     0.066 H 
ENDBRANCH  25  26
ENDBRANCH  17  25
ENDBRANCH  13  15
ENDBRANCH   9  13
BRANCH   1  30
ATOM     30  C   LIG d   1       6.527   0.306  -3.597  0.00  0.00    -0.035 C 
ATOM     31  H   LIG d   1       5.657  -0.170  -4.048  0.00  0.00     0.028 H 
ATOM     32  H   LIG d   1       7.094  -0.435  -3.032  0.00  0.00     0.028 H 
ATOM     33  H   LIG d   1       6.201   1.102  -2.928  0.00  0.00     0.028 H 
ENDBRANCH   1  30
BRANCH   4  34
ATOM     34  N   LIG d   1      10.344   4.380  -2.568  0.00  0.00    -0.281 N 
ATOM     35  C   LIG d   1       9.964   5.666  -2.429  0.00  0.00     0.248 C 
ATOM     36  O   LIG d   1       9.288   6.196  -3.289  0.00  0.00    -0.270 OA
ATOM     37  H   LIG d   1      10.947   3.980  -1.922  0.00  0.00     0.155 HD
BRANCH  35  38
ATOM     38  C   LIG d   1      10.373   6.431  -1.233  0.00  0.00     0.037 A 
ATOM     39  C   LIG d   1      10.977   5.778  -0.157  0.00  0.00    -0.047 A 
ATOM     40  C   LIG d   1      11.358   6.497   0.956  0.00  0.00    -0.026 A 
ATOM     41  H   LIG d   1      11.145   4.712  -0.196  0.00  0.00     0.063 H 
ATOM     42  C   LIG d   1      11.141   7.865   1.008  0.00  0.00     0.123 A 
ATOM     43  H   LIG d   1      11.824   5.993   1.789  0.00  0.00     0.065 H 
ATOM     44  C   LIG d   1      10.542   8.519  -0.058  0.00  0.00    -0.026 A 
ATOM     45  F   LIG d   1      11.516   8.564   2.102  0.00  0.00    -0.205 F 
ATOM     46  C   LIG d   1      10.164   7.812  -1.179  0.00  0.00    -0.047 A 
ATOM     47  H   LIG d   1      10.376   9.585  -0.012  0.00  0.00     0.065 H 
ATOM     48  H   LIG d   1       9.701   8.321  -2.010  0.00  0.00     0.063 H 
ENDBRANCH  35  38
ENDBRANCH   4  34
TORSDOF 7
ENDMDL
MODEL 9
REMARK VINA RESULT:      -6.5      8.031     11.564
REMARK  7 active torsions:
REMARK  status: ('A' for Active; 'I' for Inactive)
REMARK    1  A    between atoms: C_1  and  C_2 
REMARK    2  A    between atoms: C_5  and  N_21 
REMARK    3  A    between atoms: C_10  and  C_11 
REMARK    4  A    between atoms: C_11  and  C_13 
REMARK    5  A    between atoms: C_17  and  O_19 
REMARK    6  A    between atoms: O_19  and  C_20 
REMARK       I    between atoms: N_21  and  C_22 
REMARK    7  A    between atoms: C_22  and  C_24 
ROOT
ATOM      1  C   LIG d   1       3.615  -0.675  -7.295  0.00  0.00     0.006 A 
ATOM      2  C   LIG d   1       3.806   0.002  -8.576  0.00  0.00     0.025 A 
ATOM      3  C   LIG d   1       4.330  -0.386  -9.813  0.00  0.00    -0.029 A 
ATOM      4  C   LIG d   1       4.372   0.524 -10.851  0.00  0.00     0.035 A 
ATOM      5  C   LIG d   1       3.884   1.818 -10.668  0.00  0.00    -0.037 A 
ATOM      6  C   LIG d   1       3.361   2.207  -9.456  0.00  0.00    -0.017 A 
ATOM      7  C   LIG d   1       3.315   1.309  -8.396  0.00  0.00     0.136 A 
ATOM      8  O   LIG d   1       2.871   1.405  -7.126  0.00  0.00    -0.451 OA
ATOM      9  C   LIG d   1       3.042   0.241  -6.467  0.00  0.00     0.179 A 
ATOM     10  H   LIG d   1       4.704  -1.390  -9.953  0.00  0.00     0.064 H 
ATOM     11  H   LIG d   1       3.915   2.522 -11.487  0.00  0.00     0.064 H 
ATOM     12  H   LIG d   1       2.987   3.212  -9.327  0.00  0.00     0.066 H 
ENDROOT
BRANCH   9  13
ATOM     13  C   LIG d   1       2.669  -0.002  -5.069  0.00  0.00     0.228 C 
ATOM     14  O   LIG d   1       1.525   0.188  -4.702  0.00  0.00    -0.283 OA
BRANCH  13  15
ATOM     15  C   LIG d   1       3.685  -0.479  -4.105  0.00  0.00     0.029 A 
ATOM     16  C   LIG d   1       4.991   0.006  -4.168  0.00  0.00    -0.009 A 
ATOM     17  C   LIG d   1       5.935  -0.441  -3.258  0.00  0.00     0.121 A 
ATOM     18  H   LIG d   1       5.265   0.730  -4.921  0.00  0.00     0.066 H 
ATOM     19  C   LIG d   1       5.583  -1.376  -2.294  0.00  0.00    -0.020 A 
ATOM     20  C   LIG d   1       4.289  -1.861  -2.234  0.00  0.00    -0.058 A 
ATOM     21  H   LIG d   1       6.323  -1.725  -1.589  0.00  0.00     0.065 H 
ATOM     22  C   LIG d   1       3.340  -1.419  -3.132  0.00  0.00    -0.051 A 
ATOM     23  H   LIG d   1       4.022  -2.589  -1.482  0.00  0.00     0.062 H 
ATOM     24  H   LIG d   1       2.331  -1.801  -3.082  0.00  0.00     0.062 H 
BRANCH  17  25
ATOM     25  O   LIG d   1       7.208   0.034  -3.312  0.00  0.00    -0.495 OA
BRANCH  25  26
ATOM     26  C   LIG d   1       7.392   1.337  -3.869  0.00  0.00     0.079 C 
ATOM     27  H   LIG d   1       7.892   1.975  -3.140  0.00  0.00     0.066 H 
ATOM     28  H   LIG d   1       8.004   1.264  -4.768  0.00  0.00     0.066 H 
ATOM     29  H   LIG d   1       6.423   1.765  -4.123  0.00  0.00     0.066 H 
ENDBRANCH  25  26
ENDBRANCH  17  25
ENDBRANCH  13  15
ENDBRANCH   9  13
BRANCH   1  30
ATOM     30  C   LIG d   1       3.977  -2.099  -6.959  0.00  0.00    -0.035 C 
ATOM     31  H   LIG d   1       4.794  -2.106  -6.238  0.00  0.00     0.028 H 
ATOM     32  H   LIG d   1       3.110  -2.603  -6.530  0.00  0.00     0.028 H 
ATOM     33  H   LIG d   1       4.288  -2.618  -7.866  0.00  0.00     0.028 H 
ENDBRANCH   1  30
BRANCH   4  34
ATOM     34  N   LIG d   1       4.899   0.145 -12.092  0.00  0.00    -0.281 N 
ATOM     35  C   LIG d   1       4.129  -0.520 -12.976  0.00  0.00     0.248 C 
ATOM     36  O   LIG d   1       3.010  -0.874 -12.661  0.00  0.00    -0.270 OA
ATOM     37  H   LIG d   1       5.819   0.359 -12.314  0.00  0.00     0.155 HD
BRANCH  35  38
ATOM     38  C   LIG d   1       4.649  -0.822 -14.326  0.00  0.00     0.037 A 
ATOM     39  C   LIG d   1       3.764  -1.032 -15.386  0.00  0.00    -0.047 A 
ATOM     40  C   LIG d   1       4.253  -1.312 -16.643  0.00  0.00    -0.026 A 
ATOM     41  H   LIG d   1       2.698  -0.975 -15.220  0.00  0.00     0.063 H 
ATOM     42  C   LIG d   1       5.621  -1.387 -16.856  0.00  0.00     0.123 A 
ATOM     43  H   LIG d   1       3.571  -1.475 -17.463  0.00  0.00     0.065 H 
ATOM     44  C   LIG d   1       6.505  -1.179 -15.807  0.00  0.00    -0.026 A 
ATOM     45  F   LIG d   1       6.096  -1.663 -18.091  0.00  0.00    -0.205 F 
ATOM     46  C   LIG d   1       6.026  -0.891 -14.548  0.00  0.00    -0.047 A 
ATOM     47  H   LIG d   1       7.569  -1.238 -15.980  0.00  0.00     0.065 H 
ATOM     48  H   LIG d   1       6.714  -0.725 -13.732  0.00  0.00     0.063 H 
ENDBRANCH  35  38
ENDBRANCH   4  34
TORSDOF 7
ENDMDL
