MODEL 1
REMARK VINA RESULT:      -5.8      0.000      0.000
REMARK  11 active torsions:
REMARK  status: ('A' for Active; 'I' for Inactive)
REMARK    1  A    between atoms: C_1  and  C_2 
REMARK    2  A    between atoms: C_5  and  C_8 
REMARK    3  A    between atoms: C_8  and  C_18 
REMARK    4  A    between atoms: C_12  and  C_15 
REMARK    5  A    between atoms: C_15  and  C_16 
REMARK    6  A    between atoms: C_15  and  C_17 
REMARK    7  A    between atoms: C_18  and  C_19 
REMARK    8  A    between atoms: C_19  and  N_20 
REMARK    9  A    between atoms: N_20  and  C_21 
REMARK       I    between atoms: N_20  and  C_28 
REMARK   10  A    between atoms: C_21  and  C_22 
REMARK   11  A    between atoms: C_28  and  C_30 
ROOT
ATOM      1  C   LIG d   1       5.838  -0.671  -5.906  0.00  0.00     0.002 C 
ATOM      2  C   LIG d   1       7.204  -0.067  -5.565  0.00  0.00    -0.020 C 
ATOM      3  C   LIG d   1       7.816  -0.838  -4.393  0.00  0.00     0.049 C 
ATOM      4  O   LIG d   1       6.926  -0.789  -3.276  0.00  0.00    -0.376 OA
ATOM      5  C   LIG d   1       5.649  -1.382  -3.520  0.00  0.00     0.062 C 
ATOM      6  H   LIG d   1       5.781  -2.427  -3.800  0.00  0.00     0.060 H 
ATOM      7  C   LIG d   1       4.950  -0.633  -4.658  0.00  0.00    -0.017 C 
ATOM      8  H   LIG d   1       7.861  -0.141  -6.432  0.00  0.00     0.030 H 
ATOM      9  H   LIG d   1       7.081   0.979  -5.287  0.00  0.00     0.030 H 
ATOM     10  H   LIG d   1       7.976  -1.876  -4.685  0.00  0.00     0.056 H 
ATOM     11  H   LIG d   1       8.769  -0.387  -4.118  0.00  0.00     0.056 H 
ATOM     12  H   LIG d   1       4.781   0.403  -4.362  0.00  0.00     0.030 H 
ATOM     13  H   LIG d   1       3.995  -1.110  -4.876  0.00  0.00     0.030 H 
ENDROOT
BRANCH   1  14
ATOM     14  C   LIG d   1       5.193   0.130  -7.008  0.00  0.00    -0.041 A 
ATOM     15  C   LIG d   1       5.965   0.632  -8.039  0.00  0.00    -0.058 A 
ATOM     16  C   LIG d   1       5.373   1.366  -9.051  0.00  0.00    -0.059 A 
ATOM     17  H   LIG d   1       7.029   0.449  -8.056  0.00  0.00     0.062 H 
ATOM     18  C   LIG d   1       4.011   1.600  -9.030  0.00  0.00    -0.050 A 
ATOM     19  H   LIG d   1       5.976   1.758  -9.856  0.00  0.00     0.062 H 
ATOM     20  C   LIG d   1       3.240   1.097  -7.997  0.00  0.00    -0.059 A 
ATOM     21  C   LIG d   1       3.830   0.358  -6.989  0.00  0.00    -0.058 A 
ATOM     22  H   LIG d   1       2.175   1.280  -7.980  0.00  0.00     0.062 H 
ATOM     23  H   LIG d   1       3.227  -0.037  -6.186  0.00  0.00     0.062 H 
BRANCH  18  24
ATOM     24  C   LIG d   1       3.366   2.400 -10.131  0.00  0.00    -0.040 C 
ATOM     25  H   LIG d   1       3.270   1.781 -11.022  0.00  0.00     0.028 H 
ATOM     26  H   LIG d   1       2.379   2.731  -9.810  0.00  0.00     0.028 H 
ATOM     27  H   LIG d   1       3.984   3.270 -10.356  0.00  0.00     0.028 H 
ENDBRANCH  18  24
ENDBRANCH   1  14
BRANCH   1  28
ATOM     28  C   LIG d   1       6.018  -2.120  -6.362  0.00  0.00    -0.027 C 
ATOM     29  H   LIG d   1       6.680  -2.149  -7.227  0.00  0.00     0.029 H 
ATOM     30  H   LIG d   1       6.453  -2.705  -5.552  0.00  0.00     0.029 H 
BRANCH  28  31
ATOM     31  C   LIG d   1       4.657  -2.708  -6.741  0.00  0.00     0.016 C 
ATOM     32  H   LIG d   1       4.302  -3.351  -5.936  0.00  0.00     0.046 H 
ATOM     33  H   LIG d   1       3.944  -1.900  -6.902  0.00  0.00     0.046 H 
BRANCH  31  34
ATOM     34  N   LIG d   1       4.790  -3.493  -7.970  0.00  0.00    -0.297 N 
ATOM     35  C   LIG d   1       4.511  -4.811  -7.962  0.00  0.00     0.213 C 
ATOM     36  O   LIG d   1       4.710  -5.480  -8.954  0.00  0.00    -0.276 OA
BRANCH  34  37
ATOM     37  C   LIG d   1       5.229  -2.845  -9.210  0.00  0.00     0.040 C 
ATOM     38  H   LIG d   1       5.983  -2.093  -8.979  0.00  0.00     0.051 H 
ATOM     39  H   LIG d   1       5.656  -3.593  -9.878  0.00  0.00     0.051 H 
BRANCH  37  40
ATOM     40  C   LIG d   1       4.050  -2.187  -9.878  0.00  0.00    -0.030 A 
ATOM     41  C   LIG d   1       4.223  -1.495 -11.062  0.00  0.00    -0.057 A 
ATOM     42  C   LIG d   1       3.141  -0.893 -11.675  0.00  0.00    -0.061 A 
ATOM     43  H   LIG d   1       5.204  -1.427 -11.508  0.00  0.00     0.062 H 
ATOM     44  C   LIG d   1       1.886  -0.981 -11.105  0.00  0.00    -0.062 A 
ATOM     45  H   LIG d   1       3.277  -0.353 -12.601  0.00  0.00     0.062 H 
ATOM     46  C   LIG d   1       1.712  -1.673  -9.920  0.00  0.00    -0.061 A 
ATOM     47  H   LIG d   1       1.041  -0.510 -11.584  0.00  0.00     0.062 H 
ATOM     48  C   LIG d   1       2.793  -2.280  -9.310  0.00  0.00    -0.057 A 
ATOM     49  H   LIG d   1       0.731  -1.742  -9.475  0.00  0.00     0.062 H 
ATOM     50  H   LIG d   1       2.656  -2.824  -8.387  0.00  0.00     0.062 H 
ENDBRANCH  37  40
ENDBRANCH  34  37
BRANCH  35  51
ATOM     51  C   LIG d   1       3.951  -5.455  -6.720  0.00  0.00     0.012 C 
ATOM     52  H   LIG d   1       4.694  -5.420  -5.925  0.00  0.00     0.032 H 
ATOM     53  H   LIG d   1       3.055  -4.919  -6.405  0.00  0.00     0.032 H 
ATOM     54  H   LIG d   1       3.696  -6.494  -6.934  0.00  0.00     0.032 H 
ENDBRANCH  35  51
ENDBRANCH  31  34
ENDBRANCH  28  31
ENDBRANCH   1  28
BRANCH   5  55
ATOM     55  C   LIG d   1       4.796  -1.297  -2.253  0.00  0.00    -0.020 C 
ATOM     56  H   LIG d   1       5.305  -1.811  -1.437  0.00  0.00     0.032 H 
BRANCH  55  57
ATOM     57  C   LIG d   1       4.585   0.172  -1.879  0.00  0.00    -0.060 C 
ATOM     58  H   LIG d   1       5.244   0.798  -2.480  0.00  0.00     0.023 H 
ATOM     59  H   LIG d   1       3.548   0.449  -2.070  0.00  0.00     0.023 H 
ATOM     60  H   LIG d   1       4.810   0.314  -0.823  0.00  0.00     0.023 H 
ENDBRANCH  55  57
BRANCH  55  61
ATOM     61  C   LIG d   1       3.440  -1.959  -2.506  0.00  0.00    -0.060 C 
ATOM     62  H   LIG d   1       3.476  -2.998  -2.176  0.00  0.00     0.023 H 
ATOM     63  H   LIG d   1       2.667  -1.428  -1.952  0.00  0.00     0.023 H 
ATOM     64  H   LIG d   1       3.213  -1.926  -3.572  0.00  0.00     0.023 H 
ENDBRANCH  55  61
ENDBRANCH   5  55
TORSDOF 11
ENDMDL
MODEL 2
REMARK VINA RESULT:      -5.4      2.246      6.770
REMARK  11 active torsions:
REMARK  status: ('A' for Active; 'I' for Inactive)
REMARK    1  A    between atoms: C_1  and  C_2 
REMARK    2  A    between atoms: C_5  and  C_8 
REMARK    3  A    between atoms: C_8  and  C_18 
REMARK    4  A    between atoms: C_12  and  C_15 
REMARK    5  A    between atoms: C_15  and  C_16 
REMARK    6  A    between atoms: C_15  and  C_17 
REMARK    7  A    between atoms: C_18  and  C_19 
REMARK    8  A    between atoms: C_19  and  N_20 
REMARK    9  A    between atoms: N_20  and  C_21 
REMARK       I    between atoms: N_20  and  C_28 
REMARK   10  A    between atoms: C_21  and  C_22 
REMARK   11  A    between atoms: C_28  and  C_30 
ROOT
ATOM      1  C   LIG d   1       5.702  -1.477  -7.378  0.00  0.00     0.002 C 
ATOM      2  C   LIG d   1       6.851  -1.290  -8.373  0.00  0.00    -0.020 C 
ATOM      3  C   LIG d   1       6.824   0.144  -8.907  0.00  0.00     0.049 C 
ATOM      4  O   LIG d   1       5.556   0.401  -9.514  0.00  0.00    -0.376 OA
ATOM      5  C   LIG d   1       4.447   0.288  -8.620  0.00  0.00     0.062 C 
ATOM      6  H   LIG d   1       4.573   0.987  -7.793  0.00  0.00     0.060 H 
ATOM      7  C   LIG d   1       4.379  -1.141  -8.073  0.00  0.00    -0.017 C 
ATOM      8  H   LIG d   1       7.801  -1.473  -7.871  0.00  0.00     0.030 H 
ATOM      9  H   LIG d   1       6.734  -1.989  -9.200  0.00  0.00     0.030 H 
ATOM     10  H   LIG d   1       6.981   0.842  -8.085  0.00  0.00     0.056 H 
ATOM     11  H   LIG d   1       7.613   0.272  -9.648  0.00  0.00     0.056 H 
ATOM     12  H   LIG d   1       4.212  -1.838  -8.895  0.00  0.00     0.030 H 
ATOM     13  H   LIG d   1       3.561  -1.219  -7.357  0.00  0.00     0.030 H 
ENDROOT
BRANCH   1  14
ATOM     14  C   LIG d   1       5.673  -2.908  -6.904  0.00  0.00    -0.041 A 
ATOM     15  C   LIG d   1       4.718  -3.314  -5.992  0.00  0.00    -0.058 A 
ATOM     16  C   LIG d   1       4.690  -4.627  -5.557  0.00  0.00    -0.059 A 
ATOM     17  H   LIG d   1       3.991  -2.606  -5.619  0.00  0.00     0.062 H 
ATOM     18  C   LIG d   1       5.619  -5.532  -6.034  0.00  0.00    -0.050 A 
ATOM     19  H   LIG d   1       3.944  -4.943  -4.845  0.00  0.00     0.062 H 
ATOM     20  C   LIG d   1       6.575  -5.125  -6.947  0.00  0.00    -0.059 A 
ATOM     21  C   LIG d   1       6.599  -3.815  -7.386  0.00  0.00    -0.058 A 
ATOM     22  H   LIG d   1       7.302  -5.832  -7.319  0.00  0.00     0.062 H 
ATOM     23  H   LIG d   1       7.343  -3.498  -8.101  0.00  0.00     0.062 H 
BRANCH  18  24
ATOM     24  C   LIG d   1       5.590  -6.962  -5.560  0.00  0.00    -0.040 C 
ATOM     25  H   LIG d   1       4.960  -7.553  -6.225  0.00  0.00     0.028 H 
ATOM     26  H   LIG d   1       6.602  -7.366  -5.564  0.00  0.00     0.028 H 
ATOM     27  H   LIG d   1       5.188  -7.001  -4.548  0.00  0.00     0.028 H 
ENDBRANCH  18  24
ENDBRANCH   1  14
BRANCH   1  28
ATOM     28  C   LIG d   1       5.903  -0.545  -6.182  0.00  0.00    -0.027 C 
ATOM     29  H   LIG d   1       5.830   0.491  -6.513  0.00  0.00     0.029 H 
ATOM     30  H   LIG d   1       5.134  -0.742  -5.434  0.00  0.00     0.029 H 
BRANCH  28  31
ATOM     31  C   LIG d   1       7.283  -0.789  -5.569  0.00  0.00     0.016 C 
ATOM     32  H   LIG d   1       7.383  -1.842  -5.306  0.00  0.00     0.046 H 
ATOM     33  H   LIG d   1       8.054  -0.521  -6.292  0.00  0.00     0.046 H 
BRANCH  31  34
ATOM     34  N   LIG d   1       7.436   0.032  -4.366  0.00  0.00    -0.297 N 
ATOM     35  C   LIG d   1       7.919   1.286  -4.463  0.00  0.00     0.213 C 
ATOM     36  O   LIG d   1       8.133   1.933  -3.459  0.00  0.00    -0.276 OA
BRANCH  34  37
ATOM     37  C   LIG d   1       7.064  -0.511  -3.056  0.00  0.00     0.040 C 
ATOM     38  H   LIG d   1       7.440  -1.529  -2.966  0.00  0.00     0.051 H 
ATOM     39  H   LIG d   1       7.500   0.108  -2.271  0.00  0.00     0.051 H 
BRANCH  37  40
ATOM     40  C   LIG d   1       5.563  -0.514  -2.921  0.00  0.00    -0.030 A 
ATOM     41  C   LIG d   1       4.871   0.682  -2.870  0.00  0.00    -0.057 A 
ATOM     42  C   LIG d   1       3.495   0.678  -2.746  0.00  0.00    -0.061 A 
ATOM     43  H   LIG d   1       5.406   1.618  -2.929  0.00  0.00     0.062 H 
ATOM     44  C   LIG d   1       2.810  -0.520  -2.672  0.00  0.00    -0.062 A 
ATOM     45  H   LIG d   1       2.954   1.612  -2.708  0.00  0.00     0.062 H 
ATOM     46  C   LIG d   1       3.502  -1.716  -2.721  0.00  0.00    -0.061 A 
ATOM     47  H   LIG d   1       1.735  -0.522  -2.575  0.00  0.00     0.062 H 
ATOM     48  C   LIG d   1       4.878  -1.713  -2.851  0.00  0.00    -0.057 A 
ATOM     49  H   LIG d   1       2.967  -2.651  -2.663  0.00  0.00     0.062 H 
ATOM     50  H   LIG d   1       5.419  -2.647  -2.894  0.00  0.00     0.062 H 
ENDBRANCH  37  40
ENDBRANCH  34  37
BRANCH  35  51
ATOM     51  C   LIG d   1       8.193   1.886  -5.818  0.00  0.00     0.012 C 
ATOM     52  H   LIG d   1       7.857   2.922  -5.831  0.00  0.00     0.032 H 
ATOM     53  H   LIG d   1       9.263   1.848  -6.024  0.00  0.00     0.032 H 
ATOM     54  H   LIG d   1       7.656   1.320  -6.580  0.00  0.00     0.032 H 
ENDBRANCH  35  51
ENDBRANCH  31  34
ENDBRANCH  28  31
ENDBRANCH   1  28
BRANCH   5  55
ATOM     55  C   LIG d   1       3.152   0.610  -9.367  0.00  0.00    -0.020 C 
ATOM     56  H   LIG d   1       3.346   0.625 -10.440  0.00  0.00     0.032 H 
BRANCH  55  57
ATOM     57  C   LIG d   1       2.103  -0.460  -9.054  0.00  0.00    -0.060 C 
ATOM     58  H   LIG d   1       1.861  -0.431  -7.992  0.00  0.00     0.023 H 
ATOM     59  H   LIG d   1       1.203  -0.268  -9.637  0.00  0.00     0.023 H 
ATOM     60  H   LIG d   1       2.499  -1.443  -9.310  0.00  0.00     0.023 H 
ENDBRANCH  55  57
BRANCH  55  61
ATOM     61  C   LIG d   1       2.633   1.979  -8.924  0.00  0.00    -0.060 C 
ATOM     62  H   LIG d   1       2.442   2.596  -9.802  0.00  0.00     0.023 H 
ATOM     63  H   LIG d   1       1.710   1.852  -8.360  0.00  0.00     0.023 H 
ATOM     64  H   LIG d   1       3.381   2.464  -8.295  0.00  0.00     0.023 H 
ENDBRANCH  55  61
ENDBRANCH   5  55
TORSDOF 11
ENDMDL
MODEL 3
REMARK VINA RESULT:      -5.3      1.815      4.753
REMARK  11 active torsions:
REMARK  status: ('A' for Active; 'I' for Inactive)
REMARK    1  A    between atoms: C_1  and  C_2 
REMARK    2  A    between atoms: C_5  and  C_8 
REMARK    3  A    between atoms: C_8  and  C_18 
REMARK    4  A    between atoms: C_12  and  C_15 
REMARK    5  A    between atoms: C_15  and  C_16 
REMARK    6  A    between atoms: C_15  and  C_17 
REMARK    7  A    between atoms: C_18  and  C_19 
REMARK    8  A    between atoms: C_19  and  N_20 
REMARK    9  A    between atoms: N_20  and  C_21 
REMARK       I    between atoms: N_20  and  C_28 
REMARK   10  A    between atoms: C_21  and  C_22 
REMARK   11  A    between atoms: C_28  and  C_30 
ROOT
ATOM      1  C   LIG d   1       5.644  -2.178  -4.659  0.00  0.00     0.002 C 
ATOM      2  C   LIG d   1       4.958  -2.067  -3.295  0.00  0.00    -0.020 C 
ATOM      3  C   LIG d   1       4.815  -0.589  -2.924  0.00  0.00     0.049 C 
ATOM      4  O   LIG d   1       6.104   0.026  -2.915  0.00  0.00    -0.376 OA
ATOM      5  C   LIG d   1       6.775  -0.005  -4.176  0.00  0.00     0.062 C 
ATOM      6  H   LIG d   1       6.165   0.501  -4.925  0.00  0.00     0.060 H 
ATOM      7  C   LIG d   1       6.997  -1.460  -4.598  0.00  0.00    -0.017 C 
ATOM      8  H   LIG d   1       3.971  -2.527  -3.345  0.00  0.00     0.030 H 
ATOM      9  H   LIG d   1       5.560  -2.574  -2.542  0.00  0.00     0.030 H 
ATOM     10  H   LIG d   1       4.179  -0.090  -3.656  0.00  0.00     0.056 H 
ATOM     11  H   LIG d   1       4.364  -0.504  -1.935  0.00  0.00     0.056 H 
ATOM     12  H   LIG d   1       7.640  -1.956  -3.871  0.00  0.00     0.030 H 
ATOM     13  H   LIG d   1       7.469  -1.487  -5.580  0.00  0.00     0.030 H 
ENDROOT
BRANCH   1  14
ATOM     14  C   LIG d   1       5.860  -3.631  -4.999  0.00  0.00    -0.041 A 
ATOM     15  C   LIG d   1       4.777  -4.444  -5.272  0.00  0.00    -0.058 A 
ATOM     16  C   LIG d   1       4.974  -5.777  -5.584  0.00  0.00    -0.059 A 
ATOM     17  H   LIG d   1       3.776  -4.039  -5.244  0.00  0.00     0.062 H 
ATOM     18  C   LIG d   1       6.255  -6.296  -5.620  0.00  0.00    -0.050 A 
ATOM     19  H   LIG d   1       4.128  -6.412  -5.797  0.00  0.00     0.062 H 
ATOM     20  C   LIG d   1       7.339  -5.481  -5.346  0.00  0.00    -0.059 A 
ATOM     21  C   LIG d   1       7.141  -4.148  -5.041  0.00  0.00    -0.058 A 
ATOM     22  H   LIG d   1       8.339  -5.887  -5.374  0.00  0.00     0.062 H 
ATOM     23  H   LIG d   1       7.988  -3.512  -4.831  0.00  0.00     0.062 H 
BRANCH  18  24
ATOM     24  C   LIG d   1       6.470  -7.748  -5.959  0.00  0.00    -0.040 C 
ATOM     25  H   LIG d   1       7.533  -7.932  -6.116  0.00  0.00     0.028 H 
ATOM     26  H   LIG d   1       6.111  -8.370  -5.139  0.00  0.00     0.028 H 
ATOM     27  H   LIG d   1       5.920  -7.994  -6.867  0.00  0.00     0.028 H 
ENDBRANCH  18  24
ENDBRANCH   1  14
BRANCH   1  28
ATOM     28  C   LIG d   1       4.767  -1.526  -5.729  0.00  0.00    -0.027 C 
ATOM     29  H   LIG d   1       3.850  -2.103  -5.848  0.00  0.00     0.029 H 
ATOM     30  H   LIG d   1       4.520  -0.509  -5.427  0.00  0.00     0.029 H 
BRANCH  28  31
ATOM     31  C   LIG d   1       5.524  -1.492  -7.059  0.00  0.00     0.016 C 
ATOM     32  H   LIG d   1       5.779  -0.462  -7.306  0.00  0.00     0.046 H 
ATOM     33  H   LIG d   1       6.436  -2.081  -6.973  0.00  0.00     0.046 H 
BRANCH  31  34
ATOM     34  N   LIG d   1       4.679  -2.053  -8.116  0.00  0.00    -0.297 N 
ATOM     35  C   LIG d   1       5.147  -3.046  -8.898  0.00  0.00     0.213 C 
ATOM     36  O   LIG d   1       4.484  -3.446  -9.831  0.00  0.00    -0.276 OA
BRANCH  34  37
ATOM     37  C   LIG d   1       3.324  -1.533  -8.324  0.00  0.00     0.040 C 
ATOM     38  H   LIG d   1       2.798  -2.166  -9.038  0.00  0.00     0.051 H 
ATOM     39  H   LIG d   1       2.786  -1.532  -7.376  0.00  0.00     0.051 H 
BRANCH  37  40
ATOM     40  C   LIG d   1       3.402  -0.127  -8.860  0.00  0.00    -0.030 A 
ATOM     41  C   LIG d   1       3.913   0.104 -10.123  0.00  0.00    -0.057 A 
ATOM     42  C   LIG d   1       3.984   1.394 -10.615  0.00  0.00    -0.061 A 
ATOM     43  H   LIG d   1       4.256  -0.723 -10.726  0.00  0.00     0.062 H 
ATOM     44  C   LIG d   1       3.544   2.453  -9.844  0.00  0.00    -0.062 A 
ATOM     45  H   LIG d   1       4.383   1.575 -11.602  0.00  0.00     0.062 H 
ATOM     46  C   LIG d   1       3.033   2.222  -8.580  0.00  0.00    -0.061 A 
ATOM     47  H   LIG d   1       3.599   3.460 -10.228  0.00  0.00     0.062 H 
ATOM     48  C   LIG d   1       2.957   0.932  -8.090  0.00  0.00    -0.057 A 
ATOM     49  H   LIG d   1       2.689   3.049  -7.978  0.00  0.00     0.062 H 
ATOM     50  H   LIG d   1       2.554   0.751  -7.105  0.00  0.00     0.062 H 
ENDBRANCH  37  40
ENDBRANCH  34  37
BRANCH  35  51
ATOM     51  C   LIG d   1       6.493  -3.659  -8.612  0.00  0.00     0.012 C 
ATOM     52  H   LIG d   1       6.724  -4.402  -9.375  0.00  0.00     0.032 H 
ATOM     53  H   LIG d   1       7.256  -2.882  -8.619  0.00  0.00     0.032 H 
ATOM     54  H   LIG d   1       6.472  -4.139  -7.632  0.00  0.00     0.032 H 
ENDBRANCH  35  51
ENDBRANCH  31  34
ENDBRANCH  28  31
ENDBRANCH   1  28
BRANCH   5  55
ATOM     55  C   LIG d   1       8.125   0.702  -4.055  0.00  0.00    -0.020 C 
ATOM     56  H   LIG d   1       8.547   0.513  -3.067  0.00  0.00     0.032 H 
BRANCH  55  57
ATOM     57  C   LIG d   1       9.078   0.168  -5.128  0.00  0.00    -0.060 C 
ATOM     58  H   LIG d   1       8.609  -0.666  -5.647  0.00  0.00     0.023 H 
ATOM     59  H   LIG d   1       9.301   0.961  -5.842  0.00  0.00     0.023 H 
ATOM     60  H   LIG d   1      10.002  -0.168  -4.658  0.00  0.00     0.023 H 
ENDBRANCH  55  57
BRANCH  55  61
ATOM     61  C   LIG d   1       7.932   2.208  -4.247  0.00  0.00    -0.060 C 
ATOM     62  H   LIG d   1       8.906   2.698  -4.268  0.00  0.00     0.023 H 
ATOM     63  H   LIG d   1       7.412   2.390  -5.187  0.00  0.00     0.023 H 
ATOM     64  H   LIG d   1       7.344   2.607  -3.421  0.00  0.00     0.023 H 
ENDBRANCH  55  61
ENDBRANCH   5  55
TORSDOF 11
ENDMDL
MODEL 4
REMARK VINA RESULT:      -5.3      2.319      4.523
REMARK  11 active torsions:
REMARK  status: ('A' for Active; 'I' for Inactive)
REMARK    1  A    between atoms: C_1  and  C_2 
REMARK    2  A    between atoms: C_5  and  C_8 
REMARK    3  A    between atoms: C_8  and  C_18 
REMARK    4  A    between atoms: C_12  and  C_15 
REMARK    5  A    between atoms: C_15  and  C_16 
REMARK    6  A    between atoms: C_15  and  C_17 
REMARK    7  A    between atoms: C_18  and  C_19 
REMARK    8  A    between atoms: C_19  and  N_20 
REMARK    9  A    between atoms: N_20  and  C_21 
REMARK       I    between atoms: N_20  and  C_28 
REMARK   10  A    between atoms: C_21  and  C_22 
REMARK   11  A    between atoms: C_28  and  C_30 
ROOT
ATOM      1  C   LIG d   1       4.312  -1.043  -6.167  0.00  0.00     0.002 C 
ATOM      2  C   LIG d   1       2.959  -0.485  -6.620  0.00  0.00    -0.020 C 
ATOM      3  C   LIG d   1       2.656   0.793  -5.834  0.00  0.00     0.049 C 
ATOM      4  O   LIG d   1       2.663   0.504  -4.435  0.00  0.00    -0.376 OA
ATOM      5  C   LIG d   1       3.917   0.024  -3.945  0.00  0.00     0.062 C 
ATOM      6  H   LIG d   1       4.692   0.765  -4.141  0.00  0.00     0.060 H 
ATOM      7  C   LIG d   1       4.271  -1.286  -4.655  0.00  0.00    -0.017 C 
ATOM      8  H   LIG d   1       2.997  -0.257  -7.685  0.00  0.00     0.030 H 
ATOM      9  H   LIG d   1       2.180  -1.222  -6.431  0.00  0.00     0.030 H 
ATOM     10  H   LIG d   1       3.414   1.544  -6.055  0.00  0.00     0.056 H 
ATOM     11  H   LIG d   1       1.675   1.173  -6.122  0.00  0.00     0.056 H 
ATOM     12  H   LIG d   1       3.518  -2.039  -4.427  0.00  0.00     0.030 H 
ATOM     13  H   LIG d   1       5.248  -1.631  -4.315  0.00  0.00     0.030 H 
ENDROOT
BRANCH   1  14
ATOM     14  C   LIG d   1       4.585  -2.344  -6.879  0.00  0.00    -0.041 A 
ATOM     15  C   LIG d   1       3.917  -2.642  -8.052  0.00  0.00    -0.058 A 
ATOM     16  C   LIG d   1       4.167  -3.835  -8.705  0.00  0.00    -0.059 A 
ATOM     17  H   LIG d   1       3.201  -1.943  -8.458  0.00  0.00     0.062 H 
ATOM     18  C   LIG d   1       5.084  -4.729  -8.184  0.00  0.00    -0.050 A 
ATOM     19  H   LIG d   1       3.646  -4.068  -9.621  0.00  0.00     0.062 H 
ATOM     20  C   LIG d   1       5.751  -4.430  -7.010  0.00  0.00    -0.059 A 
ATOM     21  C   LIG d   1       5.506  -3.235  -6.361  0.00  0.00    -0.058 A 
ATOM     22  H   LIG d   1       6.467  -5.129  -6.603  0.00  0.00     0.062 H 
ATOM     23  H   LIG d   1       6.030  -3.000  -5.447  0.00  0.00     0.062 H 
BRANCH  18  24
ATOM     24  C   LIG d   1       5.356  -6.029  -8.896  0.00  0.00    -0.040 C 
ATOM     25  H   LIG d   1       5.783  -6.745  -8.194  0.00  0.00     0.028 H 
ATOM     26  H   LIG d   1       4.423  -6.426  -9.297  0.00  0.00     0.028 H 
ATOM     27  H   LIG d   1       6.057  -5.857  -9.712  0.00  0.00     0.028 H 
ENDBRANCH  18  24
ENDBRANCH   1  14
BRANCH   1  28
ATOM     28  C   LIG d   1       5.417  -0.038  -6.495  0.00  0.00    -0.027 C 
ATOM     29  H   LIG d   1       5.058   0.973  -6.299  0.00  0.00     0.029 H 
ATOM     30  H   LIG d   1       6.289  -0.240  -5.873  0.00  0.00     0.029 H 
BRANCH  28  31
ATOM     31  C   LIG d   1       5.803  -0.165  -7.970  0.00  0.00     0.016 C 
ATOM     32  H   LIG d   1       6.810  -0.576  -8.047  0.00  0.00     0.046 H 
ATOM     33  H   LIG d   1       5.100  -0.828  -8.473  0.00  0.00     0.046 H 
BRANCH  31  34
ATOM     34  N   LIG d   1       5.765   1.156  -8.600  0.00  0.00    -0.297 N 
ATOM     35  C   LIG d   1       6.908   1.841  -8.801  0.00  0.00     0.213 C 
ATOM     36  O   LIG d   1       6.870   2.972  -9.237  0.00  0.00    -0.276 OA
BRANCH  34  37
ATOM     37  C   LIG d   1       4.483   1.736  -9.011  0.00  0.00     0.040 C 
ATOM     38  H   LIG d   1       3.844   1.861  -8.137  0.00  0.00     0.051 H 
ATOM     39  H   LIG d   1       4.656   2.707  -9.476  0.00  0.00     0.051 H 
BRANCH  37  40
ATOM     40  C   LIG d   1       3.809   0.818  -9.999  0.00  0.00    -0.030 A 
ATOM     41  C   LIG d   1       4.443   0.494 -11.184  0.00  0.00    -0.057 A 
ATOM     42  C   LIG d   1       3.826  -0.348 -12.089  0.00  0.00    -0.061 A 
ATOM     43  H   LIG d   1       5.420   0.898 -11.401  0.00  0.00     0.062 H 
ATOM     44  C   LIG d   1       2.575  -0.866 -11.811  0.00  0.00    -0.062 A 
ATOM     45  H   LIG d   1       4.321  -0.602 -13.015  0.00  0.00     0.062 H 
ATOM     46  C   LIG d   1       1.941  -0.541 -10.626  0.00  0.00    -0.061 A 
ATOM     47  H   LIG d   1       2.093  -1.523 -12.518  0.00  0.00     0.062 H 
ATOM     48  C   LIG d   1       2.561   0.296  -9.717  0.00  0.00    -0.057 A 
ATOM     49  H   LIG d   1       0.964  -0.946 -10.408  0.00  0.00     0.062 H 
ATOM     50  H   LIG d   1       2.067   0.547  -8.790  0.00  0.00     0.062 H 
ENDBRANCH  37  40
ENDBRANCH  34  37
BRANCH  35  51
ATOM     51  C   LIG d   1       8.235   1.200  -8.486  0.00  0.00     0.012 C 
ATOM     52  H   LIG d   1       9.009   1.966  -8.450  0.00  0.00     0.032 H 
ATOM     53  H   LIG d   1       8.176   0.697  -7.521  0.00  0.00     0.032 H 
ATOM     54  H   LIG d   1       8.480   0.473  -9.261  0.00  0.00     0.032 H 
ENDBRANCH  35  51
ENDBRANCH  31  34
ENDBRANCH  28  31
ENDBRANCH   1  28
BRANCH   5  55
ATOM     55  C   LIG d   1       3.816  -0.224  -2.439  0.00  0.00    -0.020 C 
ATOM     56  H   LIG d   1       2.771  -0.172  -2.132  0.00  0.00     0.032 H 
BRANCH  55  57
ATOM     57  C   LIG d   1       4.375  -1.610  -2.112  0.00  0.00    -0.060 C 
ATOM     58  H   LIG d   1       4.898  -2.005  -2.983  0.00  0.00     0.023 H 
ATOM     59  H   LIG d   1       5.070  -1.533  -1.275  0.00  0.00     0.023 H 
ATOM     60  H   LIG d   1       3.557  -2.279  -1.845  0.00  0.00     0.023 H 
ENDBRANCH  55  57
BRANCH  55  61
ATOM     61  C   LIG d   1       4.621   0.841  -1.692  0.00  0.00    -0.060 C 
ATOM     62  H   LIG d   1       5.303   1.333  -2.385  0.00  0.00     0.023 H 
ATOM     63  H   LIG d   1       3.940   1.578  -1.265  0.00  0.00     0.023 H 
ATOM     64  H   LIG d   1       5.194   0.369  -0.893  0.00  0.00     0.023 H 
ENDBRANCH  55  61
ENDBRANCH   5  55
TORSDOF 11
ENDMDL
MODEL 5
REMARK VINA RESULT:      -5.3      2.370      4.576
REMARK  11 active torsions:
REMARK  status: ('A' for Active; 'I' for Inactive)
REMARK    1  A    between atoms: C_1  and  C_2 
REMARK    2  A    between atoms: C_5  and  C_8 
REMARK    3  A    between atoms: C_8  and  C_18 
REMARK    4  A    between atoms: C_12  and  C_15 
REMARK    5  A    between atoms: C_15  and  C_16 
REMARK    6  A    between atoms: C_15  and  C_17 
REMARK    7  A    between atoms: C_18  and  C_19 
REMARK    8  A    between atoms: C_19  and  N_20 
REMARK    9  A    between atoms: N_20  and  C_21 
REMARK       I    between atoms: N_20  and  C_28 
REMARK   10  A    between atoms: C_21  and  C_22 
REMARK   11  A    between atoms: C_28  and  C_30 
ROOT
ATOM      1  C   LIG d   1       6.122  -0.710  -5.584  0.00  0.00     0.002 C 
ATOM      2  C   LIG d   1       6.210  -2.193  -5.955  0.00  0.00    -0.020 C 
ATOM      3  C   LIG d   1       4.797  -2.779  -6.019  0.00  0.00     0.049 C 
ATOM      4  O   LIG d   1       4.146  -2.589  -4.761  0.00  0.00    -0.376 OA
ATOM      5  C   LIG d   1       3.994  -1.219  -4.383  0.00  0.00     0.062 C 
ATOM      6  H   LIG d   1       3.416  -0.695  -5.145  0.00  0.00     0.060 H 
ATOM      7  C   LIG d   1       5.375  -0.571  -4.254  0.00  0.00    -0.017 C 
ATOM      8  H   LIG d   1       6.691  -2.298  -6.927  0.00  0.00     0.030 H 
ATOM      9  H   LIG d   1       6.789  -2.724  -5.201  0.00  0.00     0.030 H 
ATOM     10  H   LIG d   1       4.229  -2.274  -6.801  0.00  0.00     0.056 H 
ATOM     11  H   LIG d   1       4.854  -3.844  -6.242  0.00  0.00     0.056 H 
ATOM     12  H   LIG d   1       5.939  -1.069  -3.465  0.00  0.00     0.030 H 
ATOM     13  H   LIG d   1       5.260   0.485  -4.009  0.00  0.00     0.030 H 
ENDROOT
BRANCH   1  14
ATOM     14  C   LIG d   1       7.512  -0.143  -5.442  0.00  0.00    -0.041 A 
ATOM     15  C   LIG d   1       8.613  -0.960  -5.619  0.00  0.00    -0.058 A 
ATOM     16  C   LIG d   1       9.888  -0.440  -5.490  0.00  0.00    -0.059 A 
ATOM     17  H   LIG d   1       8.477  -2.004  -5.859  0.00  0.00     0.062 H 
ATOM     18  C   LIG d   1      10.061   0.896  -5.182  0.00  0.00    -0.050 A 
ATOM     19  H   LIG d   1      10.747  -1.079  -5.627  0.00  0.00     0.062 H 
ATOM     20  C   LIG d   1       8.959   1.713  -5.005  0.00  0.00    -0.059 A 
ATOM     21  C   LIG d   1       7.685   1.195  -5.140  0.00  0.00    -0.058 A 
ATOM     22  H   LIG d   1       9.095   2.757  -4.764  0.00  0.00     0.062 H 
ATOM     23  H   LIG d   1       6.825   1.834  -5.006  0.00  0.00     0.062 H 
BRANCH  18  24
ATOM     24  C   LIG d   1      11.450   1.462  -5.040  0.00  0.00    -0.040 C 
ATOM     25  H   LIG d   1      12.172   0.648  -4.996  0.00  0.00     0.028 H 
ATOM     26  H   LIG d   1      11.672   2.100  -5.896  0.00  0.00     0.028 H 
ATOM     27  H   LIG d   1      11.510   2.052  -4.125  0.00  0.00     0.028 H 
ENDBRANCH  18  24
ENDBRANCH   1  14
BRANCH   1  28
ATOM     28  C   LIG d   1       5.368   0.048  -6.677  0.00  0.00    -0.027 C 
ATOM     29  H   LIG d   1       4.372  -0.380  -6.794  0.00  0.00     0.029 H 
ATOM     30  H   LIG d   1       5.281   1.098  -6.397  0.00  0.00     0.029 H 
BRANCH  28  31
ATOM     31  C   LIG d   1       6.131  -0.065  -7.998  0.00  0.00     0.016 C 
ATOM     32  H   LIG d   1       7.149  -0.402  -7.802  0.00  0.00     0.046 H 
ATOM     33  H   LIG d   1       5.630  -0.784  -8.646  0.00  0.00     0.046 H 
BRANCH  31  34
ATOM     34  N   LIG d   1       6.167   1.243  -8.655  0.00  0.00    -0.297 N 
ATOM     35  C   LIG d   1       7.350   1.814  -8.955  0.00  0.00     0.213 C 
ATOM     36  O   LIG d   1       7.383   2.937  -9.414  0.00  0.00    -0.276 OA
BRANCH  34  37
ATOM     37  C   LIG d   1       4.916   1.932  -8.986  0.00  0.00     0.040 C 
ATOM     38  H   LIG d   1       4.391   2.190  -8.067  0.00  0.00     0.051 H 
ATOM     39  H   LIG d   1       5.140   2.842  -9.543  0.00  0.00     0.051 H 
BRANCH  37  40
ATOM     40  C   LIG d   1       4.050   1.028  -9.824  0.00  0.00    -0.030 A 
ATOM     41  C   LIG d   1       4.475   0.632 -11.079  0.00  0.00    -0.057 A 
ATOM     42  C   LIG d   1       3.681  -0.197 -11.847  0.00  0.00    -0.061 A 
ATOM     43  H   LIG d   1       5.428   0.971 -11.457  0.00  0.00     0.062 H 
ATOM     44  C   LIG d   1       2.462  -0.631 -11.362  0.00  0.00    -0.062 A 
ATOM     45  H   LIG d   1       4.012  -0.507 -12.827  0.00  0.00     0.062 H 
ATOM     46  C   LIG d   1       2.036  -0.235 -10.108  0.00  0.00    -0.061 A 
ATOM     47  H   LIG d   1       1.841  -1.279 -11.963  0.00  0.00     0.062 H 
ATOM     48  C   LIG d   1       2.833   0.590  -9.337  0.00  0.00    -0.057 A 
ATOM     49  H   LIG d   1       1.084  -0.574  -9.729  0.00  0.00     0.062 H 
ATOM     50  H   LIG d   1       2.503   0.896  -8.355  0.00  0.00     0.062 H 
ENDBRANCH  37  40
ENDBRANCH  34  37
BRANCH  35  51
ATOM     51  C   LIG d   1       8.633   1.058  -8.722  0.00  0.00     0.012 C 
ATOM     52  H   LIG d   1       9.384   1.733  -8.314  0.00  0.00     0.032 H 
ATOM     53  H   LIG d   1       8.454   0.246  -8.018  0.00  0.00     0.032 H 
ATOM     54  H   LIG d   1       8.988   0.647  -9.667  0.00  0.00     0.032 H 
ENDBRANCH  35  51
ENDBRANCH  31  34
ENDBRANCH  28  31
ENDBRANCH   1  28
BRANCH   5  55
ATOM     55  C   LIG d   1       3.264  -1.137  -3.042  0.00  0.00    -0.020 C 
ATOM     56  H   LIG d   1       2.196  -1.289  -3.199  0.00  0.00     0.032 H 
BRANCH  55  57
ATOM     57  C   LIG d   1       3.800  -2.222  -2.104  0.00  0.00    -0.060 C 
ATOM     58  H   LIG d   1       4.469  -1.770  -1.371  0.00  0.00     0.023 H 
ATOM     59  H   LIG d   1       2.967  -2.701  -1.589  0.00  0.00     0.023 H 
ATOM     60  H   LIG d   1       4.345  -2.967  -2.683  0.00  0.00     0.023 H 
ENDBRANCH  55  57
BRANCH  55  61
ATOM     61  C   LIG d   1       3.498   0.239  -2.417  0.00  0.00    -0.060 C 
ATOM     62  H   LIG d   1       4.430   0.228  -1.851  0.00  0.00     0.023 H 
ATOM     63  H   LIG d   1       3.559   0.990  -3.204  0.00  0.00     0.023 H 
ATOM     64  H   LIG d   1       2.671   0.480  -1.748  0.00  0.00     0.023 H 
ENDBRANCH  55  61
ENDBRANCH   5  55
TORSDOF 11
ENDMDL
MODEL 6
REMARK VINA RESULT:      -5.2      2.392      4.113
REMARK  11 active torsions:
REMARK  status: ('A' for Active; 'I' for Inactive)
REMARK    1  A    between atoms: C_1  and  C_2 
REMARK    2  A    between atoms: C_5  and  C_8 
REMARK    3  A    between atoms: C_8  and  C_18 
REMARK    4  A    between atoms: C_12  and  C_15 
REMARK    5  A    between atoms: C_15  and  C_16 
REMARK    6  A    between atoms: C_15  and  C_17 
REMARK    7  A    between atoms: C_18  and  C_19 
REMARK    8  A    between atoms: C_19  and  N_20 
REMARK    9  A    between atoms: N_20  and  C_21 
REMARK       I    between atoms: N_20  and  C_28 
REMARK   10  A    between atoms: C_21  and  C_22 
REMARK   11  A    between atoms: C_28  and  C_30 
ROOT
ATOM      1  C   LIG d   1       8.263   0.130  -6.330  0.00  0.00     0.002 C 
ATOM      2  C   LIG d   1       9.711  -0.183  -6.715  0.00  0.00    -0.020 C 
ATOM      3  C   LIG d   1      10.577  -0.187  -5.453  0.00  0.00     0.049 C 
ATOM      4  O   LIG d   1      10.470   1.079  -4.800  0.00  0.00    -0.376 OA
ATOM      5  C   LIG d   1       9.146   1.406  -4.374  0.00  0.00     0.062 C 
ATOM      6  H   LIG d   1       8.786   0.640  -3.686  0.00  0.00     0.060 H 
ATOM      7  C   LIG d   1       8.221   1.473  -5.593  0.00  0.00    -0.017 C 
ATOM      8  H   LIG d   1       9.757  -1.163  -7.191  0.00  0.00     0.030 H 
ATOM      9  H   LIG d   1      10.077   0.576  -7.406  0.00  0.00     0.030 H 
ATOM     10  H   LIG d   1      10.236  -0.973  -4.780  0.00  0.00     0.056 H 
ATOM     11  H   LIG d   1      11.617  -0.368  -5.726  0.00  0.00     0.056 H 
ATOM     12  H   LIG d   1       8.557   2.266  -6.261  0.00  0.00     0.030 H 
ATOM     13  H   LIG d   1       7.202   1.679  -5.266  0.00  0.00     0.030 H 
ENDROOT
BRANCH   1  14
ATOM     14  C   LIG d   1       7.415   0.213  -7.574  0.00  0.00    -0.041 A 
ATOM     15  C   LIG d   1       6.685   1.356  -7.838  0.00  0.00    -0.058 A 
ATOM     16  C   LIG d   1       5.909   1.433  -8.979  0.00  0.00    -0.059 A 
ATOM     17  H   LIG d   1       6.723   2.191  -7.153  0.00  0.00     0.062 H 
ATOM     18  C   LIG d   1       5.861   0.365  -9.856  0.00  0.00    -0.050 A 
ATOM     19  H   LIG d   1       5.338   2.326  -9.185  0.00  0.00     0.062 H 
ATOM     20  C   LIG d   1       6.592  -0.779  -9.591  0.00  0.00    -0.059 A 
ATOM     21  C   LIG d   1       7.373  -0.853  -8.453  0.00  0.00    -0.058 A 
ATOM     22  H   LIG d   1       6.555  -1.614 -10.276  0.00  0.00     0.062 H 
ATOM     23  H   LIG d   1       7.946  -1.745  -8.249  0.00  0.00     0.062 H 
BRANCH  18  24
ATOM     24  C   LIG d   1       5.014   0.448 -11.099  0.00  0.00    -0.040 C 
ATOM     25  H   LIG d   1       5.545  -0.013 -11.932  0.00  0.00     0.028 H 
ATOM     26  H   LIG d   1       4.073  -0.077 -10.933  0.00  0.00     0.028 H 
ATOM     27  H   LIG d   1       4.810   1.493 -11.330  0.00  0.00     0.028 H 
ENDBRANCH  18  24
ENDBRANCH   1  14
BRANCH   1  28
ATOM     28  C   LIG d   1       7.725  -0.972  -5.415  0.00  0.00    -0.027 C 
ATOM     29  H   LIG d   1       7.546  -1.874  -6.001  0.00  0.00     0.029 H 
ATOM     30  H   LIG d   1       8.455  -1.185  -4.634  0.00  0.00     0.029 H 
BRANCH  28  31
ATOM     31  C   LIG d   1       6.414  -0.510  -4.775  0.00  0.00     0.016 C 
ATOM     32  H   LIG d   1       6.604  -0.186  -3.752  0.00  0.00     0.046 H 
ATOM     33  H   LIG d   1       6.002   0.320  -5.349  0.00  0.00     0.046 H 
BRANCH  31  34
ATOM     34  N   LIG d   1       5.458  -1.620  -4.766  0.00  0.00    -0.297 N 
ATOM     35  C   LIG d   1       4.779  -1.915  -3.641  0.00  0.00     0.213 C 
ATOM     36  O   LIG d   1       4.058  -2.890  -3.606  0.00  0.00    -0.276 OA
BRANCH  34  37
ATOM     37  C   LIG d   1       5.241  -2.410  -5.982  0.00  0.00     0.040 C 
ATOM     38  H   LIG d   1       6.186  -2.528  -6.511  0.00  0.00     0.051 H 
ATOM     39  H   LIG d   1       4.852  -3.392  -5.711  0.00  0.00     0.051 H 
BRANCH  37  40
ATOM     40  C   LIG d   1       4.251  -1.703  -6.871  0.00  0.00    -0.030 A 
ATOM     41  C   LIG d   1       3.767  -0.459  -6.514  0.00  0.00    -0.057 A 
ATOM     42  C   LIG d   1       2.859   0.189  -7.331  0.00  0.00    -0.061 A 
ATOM     43  H   LIG d   1       4.099   0.007  -5.599  0.00  0.00     0.062 H 
ATOM     44  C   LIG d   1       2.436  -0.407  -8.503  0.00  0.00    -0.062 A 
ATOM     45  H   LIG d   1       2.481   1.162  -7.053  0.00  0.00     0.062 H 
ATOM     46  C   LIG d   1       2.920  -1.652  -8.860  0.00  0.00    -0.061 A 
ATOM     47  H   LIG d   1       1.726   0.100  -9.141  0.00  0.00     0.062 H 
ATOM     48  C   LIG d   1       3.832  -2.298  -8.047  0.00  0.00    -0.057 A 
ATOM     49  H   LIG d   1       2.589  -2.117  -9.776  0.00  0.00     0.062 H 
ATOM     50  H   LIG d   1       4.213  -3.268  -8.327  0.00  0.00     0.062 H 
ENDBRANCH  37  40
ENDBRANCH  34  37
BRANCH  35  51
ATOM     51  C   LIG d   1       4.914  -1.034  -2.426  0.00  0.00     0.012 C 
ATOM     52  H   LIG d   1       5.884  -0.540  -2.441  0.00  0.00     0.032 H 
ATOM     53  H   LIG d   1       4.123  -0.284  -2.431  0.00  0.00     0.032 H 
ATOM     54  H   LIG d   1       4.830  -1.644  -1.525  0.00  0.00     0.032 H 
ENDBRANCH  35  51
ENDBRANCH  31  34
ENDBRANCH  28  31
ENDBRANCH   1  28
BRANCH   5  55
ATOM     55  C   LIG d   1       9.156   2.762  -3.666  0.00  0.00    -0.020 C 
ATOM     56  H   LIG d   1       8.287   2.838  -3.013  0.00  0.00     0.032 H 
BRANCH  55  57
ATOM     57  C   LIG d   1      10.433   2.891  -2.833  0.00  0.00    -0.060 C 
ATOM     58  H   LIG d   1      10.356   3.762  -2.183  0.00  0.00     0.023 H 
ATOM     59  H   LIG d   1      10.562   1.995  -2.225  0.00  0.00     0.023 H 
ATOM     60  H   LIG d   1      11.291   3.006  -3.496  0.00  0.00     0.023 H 
ENDBRANCH  55  57
BRANCH  55  61
ATOM     61  C   LIG d   1       9.111   3.881  -4.708  0.00  0.00    -0.060 C 
ATOM     62  H   LIG d   1       8.102   3.959  -5.114  0.00  0.00     0.023 H 
ATOM     63  H   LIG d   1       9.389   4.825  -4.240  0.00  0.00     0.023 H 
ATOM     64  H   LIG d   1       9.809   3.655  -5.515  0.00  0.00     0.023 H 
ENDBRANCH  55  61
ENDBRANCH   5  55
TORSDOF 11
ENDMDL
MODEL 7
REMARK VINA RESULT:      -5.2      1.799      2.930
REMARK  11 active torsions:
REMARK  status: ('A' for Active; 'I' for Inactive)
REMARK    1  A    between atoms: C_1  and  C_2 
REMARK    2  A    between atoms: C_5  and  C_8 
REMARK    3  A    between atoms: C_8  and  C_18 
REMARK    4  A    between atoms: C_12  and  C_15 
REMARK    5  A    between atoms: C_15  and  C_16 
REMARK    6  A    between atoms: C_15  and  C_17 
REMARK    7  A    between atoms: C_18  and  C_19 
REMARK    8  A    between atoms: C_19  and  N_20 
REMARK    9  A    between atoms: N_20  and  C_21 
REMARK       I    between atoms: N_20  and  C_28 
REMARK   10  A    between atoms: C_21  and  C_22 
REMARK   11  A    between atoms: C_28  and  C_30 
ROOT
ATOM      1  C   LIG d   1       5.703  -1.417  -6.236  0.00  0.00     0.002 C 
ATOM      2  C   LIG d   1       6.569  -2.120  -5.186  0.00  0.00    -0.020 C 
ATOM      3  C   LIG d   1       5.663  -2.892  -4.224  0.00  0.00     0.049 C 
ATOM      4  O   LIG d   1       4.733  -1.991  -3.620  0.00  0.00    -0.376 OA
ATOM      5  C   LIG d   1       3.865  -1.339  -4.549  0.00  0.00     0.062 C 
ATOM      6  H   LIG d   1       3.298  -2.088  -5.103  0.00  0.00     0.060 H 
ATOM      7  C   LIG d   1       4.698  -0.504  -5.525  0.00  0.00    -0.017 C 
ATOM      8  H   LIG d   1       7.250  -2.813  -5.680  0.00  0.00     0.030 H 
ATOM      9  H   LIG d   1       7.142  -1.378  -4.630  0.00  0.00     0.030 H 
ATOM     10  H   LIG d   1       5.120  -3.660  -4.773  0.00  0.00     0.056 H 
ATOM     11  H   LIG d   1       6.271  -3.360  -3.449  0.00  0.00     0.056 H 
ATOM     12  H   LIG d   1       5.234   0.270  -4.976  0.00  0.00     0.030 H 
ATOM     13  H   LIG d   1       4.042  -0.041  -6.262  0.00  0.00     0.030 H 
ENDROOT
BRANCH   1  14
ATOM     14  C   LIG d   1       6.580  -0.590  -7.142  0.00  0.00    -0.041 A 
ATOM     15  C   LIG d   1       7.826  -1.060  -7.513  0.00  0.00    -0.058 A 
ATOM     16  C   LIG d   1       8.631  -0.303  -8.345  0.00  0.00    -0.059 A 
ATOM     17  H   LIG d   1       8.171  -2.019  -7.155  0.00  0.00     0.062 H 
ATOM     18  C   LIG d   1       8.190   0.925  -8.803  0.00  0.00    -0.050 A 
ATOM     19  H   LIG d   1       9.603  -0.669  -8.634  0.00  0.00     0.062 H 
ATOM     20  C   LIG d   1       6.943   1.394  -8.431  0.00  0.00    -0.059 A 
ATOM     21  C   LIG d   1       6.136   0.634  -7.605  0.00  0.00    -0.058 A 
ATOM     22  H   LIG d   1       6.598   2.353  -8.789  0.00  0.00     0.062 H 
ATOM     23  H   LIG d   1       5.162   0.999  -7.318  0.00  0.00     0.062 H 
BRANCH  18  24
ATOM     24  C   LIG d   1       9.066   1.750  -9.708  0.00  0.00    -0.040 C 
ATOM     25  H   LIG d   1       8.542   2.662  -9.990  0.00  0.00     0.028 H 
ATOM     26  H   LIG d   1       9.988   2.007  -9.186  0.00  0.00     0.028 H 
ATOM     27  H   LIG d   1       9.306   1.176 -10.604  0.00  0.00     0.028 H 
ENDBRANCH  18  24
ENDBRANCH   1  14
BRANCH   1  28
ATOM     28  C   LIG d   1       4.951  -2.460  -7.062  0.00  0.00    -0.027 C 
ATOM     29  H   LIG d   1       5.317  -3.456  -6.811  0.00  0.00     0.029 H 
ATOM     30  H   LIG d   1       3.885  -2.400  -6.842  0.00  0.00     0.029 H 
BRANCH  28  31
ATOM     31  C   LIG d   1       5.179  -2.194  -8.552  0.00  0.00     0.016 C 
ATOM     32  H   LIG d   1       5.449  -1.148  -8.697  0.00  0.00     0.046 H 
ATOM     33  H   LIG d   1       5.986  -2.831  -8.915  0.00  0.00     0.046 H 
BRANCH  31  34
ATOM     34  N   LIG d   1       3.952  -2.490  -9.294  0.00  0.00    -0.297 N 
ATOM     35  C   LIG d   1       3.936  -3.487 -10.201  0.00  0.00     0.213 C 
ATOM     36  O   LIG d   1       2.949  -3.672 -10.882  0.00  0.00    -0.276 OA
BRANCH  34  37
ATOM     37  C   LIG d   1       2.741  -1.701  -9.052  0.00  0.00     0.040 C 
ATOM     38  H   LIG d   1       1.948  -2.039  -9.719  0.00  0.00     0.051 H 
ATOM     39  H   LIG d   1       2.424  -1.831  -8.017  0.00  0.00     0.051 H 
BRANCH  37  40
ATOM     40  C   LIG d   1       3.029  -0.244  -9.310  0.00  0.00    -0.030 A 
ATOM     41  C   LIG d   1       3.634   0.141 -10.492  0.00  0.00    -0.057 A 
ATOM     42  C   LIG d   1       3.898   1.477 -10.729  0.00  0.00    -0.061 A 
ATOM     43  H   LIG d   1       3.900  -0.601 -11.230  0.00  0.00     0.062 H 
ATOM     44  C   LIG d   1       3.558   2.427  -9.785  0.00  0.00    -0.062 A 
ATOM     45  H   LIG d   1       4.371   1.779 -11.652  0.00  0.00     0.062 H 
ATOM     46  C   LIG d   1       2.953   2.041  -8.603  0.00  0.00    -0.061 A 
ATOM     47  H   LIG d   1       3.765   3.470  -9.970  0.00  0.00     0.062 H 
ATOM     48  C   LIG d   1       2.684   0.706  -8.368  0.00  0.00    -0.057 A 
ATOM     49  H   LIG d   1       2.688   2.784  -7.866  0.00  0.00     0.062 H 
ATOM     50  H   LIG d   1       2.208   0.405  -7.447  0.00  0.00     0.062 H 
ENDBRANCH  37  40
ENDBRANCH  34  37
BRANCH  35  51
ATOM     51  C   LIG d   1       5.144  -4.373 -10.368  0.00  0.00     0.012 C 
ATOM     52  H   LIG d   1       4.848  -5.303 -10.852  0.00  0.00     0.032 H 
ATOM     53  H   LIG d   1       5.886  -3.864 -10.983  0.00  0.00     0.032 H 
ATOM     54  H   LIG d   1       5.571  -4.591  -9.390  0.00  0.00     0.032 H 
ENDBRANCH  35  51
ENDBRANCH  31  34
ENDBRANCH  28  31
ENDBRANCH   1  28
BRANCH   5  55
ATOM     55  C   LIG d   1       2.900  -0.425  -3.792  0.00  0.00    -0.020 C 
ATOM     56  H   LIG d   1       2.012  -0.991  -3.507  0.00  0.00     0.032 H 
BRANCH  55  57
ATOM     57  C   LIG d   1       3.588   0.112  -2.534  0.00  0.00    -0.060 C 
ATOM     58  H   LIG d   1       4.205   0.970  -2.797  0.00  0.00     0.023 H 
ATOM     59  H   LIG d   1       2.833   0.415  -1.809  0.00  0.00     0.023 H 
ATOM     60  H   LIG d   1       4.214  -0.668  -2.101  0.00  0.00     0.023 H 
ENDBRANCH  55  57
BRANCH  55  61
ATOM     61  C   LIG d   1       2.493   0.744  -4.690  0.00  0.00    -0.060 C 
ATOM     62  H   LIG d   1       1.561   0.503  -5.201  0.00  0.00     0.023 H 
ATOM     63  H   LIG d   1       2.355   1.638  -4.082  0.00  0.00     0.023 H 
ATOM     64  H   LIG d   1       3.275   0.924  -5.429  0.00  0.00     0.023 H 
ENDBRANCH  55  61
ENDBRANCH   5  55
TORSDOF 11
ENDMDL
MODEL 8
REMARK VINA RESULT:      -5.1      2.171      4.905
REMARK  11 active torsions:
REMARK  status: ('A' for Active; 'I' for Inactive)
REMARK    1  A    between atoms: C_1  and  C_2 
REMARK    2  A    between atoms: C_5  and  C_8 
REMARK    3  A    between atoms: C_8  and  C_18 
REMARK    4  A    between atoms: C_12  and  C_15 
REMARK    5  A    between atoms: C_15  and  C_16 
REMARK    6  A    between atoms: C_15  and  C_17 
REMARK    7  A    between atoms: C_18  and  C_19 
REMARK    8  A    between atoms: C_19  and  N_20 
REMARK    9  A    between atoms: N_20  and  C_21 
REMARK       I    between atoms: N_20  and  C_28 
REMARK   10  A    between atoms: C_21  and  C_22 
REMARK   11  A    between atoms: C_28  and  C_30 
ROOT
ATOM      1  C   LIG d   1       7.696  -0.484  -7.246  0.00  0.00     0.002 C 
ATOM      2  C   LIG d   1       9.061  -0.738  -7.893  0.00  0.00    -0.020 C 
ATOM      3  C   LIG d   1      10.081  -1.066  -6.800  0.00  0.00     0.049 C 
ATOM      4  O   LIG d   1      10.135   0.011  -5.862  0.00  0.00    -0.376 OA
ATOM      5  C   LIG d   1       8.899   0.263  -5.191  0.00  0.00     0.062 C 
ATOM      6  H   LIG d   1       8.586  -0.634  -4.657  0.00  0.00     0.060 H 
ATOM      7  C   LIG d   1       7.831   0.645  -6.220  0.00  0.00    -0.017 C 
ATOM      8  H   LIG d   1       8.986  -1.577  -8.584  0.00  0.00     0.030 H 
ATOM      9  H   LIG d   1       9.379   0.153  -8.432  0.00  0.00     0.030 H 
ATOM     10  H   LIG d   1       9.783  -1.980  -6.287  0.00  0.00     0.056 H 
ATOM     11  H   LIG d   1      11.064  -1.206  -7.250  0.00  0.00     0.056 H 
ATOM     12  H   LIG d   1       8.125   1.564  -6.726  0.00  0.00     0.030 H 
ATOM     13  H   LIG d   1       6.877   0.796  -5.715  0.00  0.00     0.030 H 
ENDROOT
BRANCH   1  14
ATOM     14  C   LIG d   1       6.701  -0.084  -8.307  0.00  0.00    -0.041 A 
ATOM     15  C   LIG d   1       6.356  -0.979  -9.302  0.00  0.00    -0.058 A 
ATOM     16  C   LIG d   1       5.444  -0.613 -10.274  0.00  0.00    -0.059 A 
ATOM     17  H   LIG d   1       6.798  -1.965  -9.319  0.00  0.00     0.062 H 
ATOM     18  C   LIG d   1       4.879   0.648 -10.252  0.00  0.00    -0.050 A 
ATOM     19  H   LIG d   1       5.174  -1.312 -11.052  0.00  0.00     0.062 H 
ATOM     20  C   LIG d   1       5.225   1.543  -9.256  0.00  0.00    -0.059 A 
ATOM     21  C   LIG d   1       6.132   1.175  -8.281  0.00  0.00    -0.058 A 
ATOM     22  H   LIG d   1       4.783   2.529  -9.239  0.00  0.00     0.062 H 
ATOM     23  H   LIG d   1       6.399   1.873  -7.501  0.00  0.00     0.062 H 
BRANCH  18  24
ATOM     24  C   LIG d   1       3.885   1.048 -11.312  0.00  0.00    -0.040 C 
ATOM     25  H   LIG d   1       3.789   0.244 -12.042  0.00  0.00     0.028 H 
ATOM     26  H   LIG d   1       2.917   1.237 -10.849  0.00  0.00     0.028 H 
ATOM     27  H   LIG d   1       4.231   1.953 -11.811  0.00  0.00     0.028 H 
ENDBRANCH  18  24
ENDBRANCH   1  14
BRANCH   1  28
ATOM     28  C   LIG d   1       7.216  -1.757  -6.547  0.00  0.00    -0.027 C 
ATOM     29  H   LIG d   1       7.336  -2.608  -7.217  0.00  0.00     0.029 H 
ATOM     30  H   LIG d   1       7.804  -1.920  -5.644  0.00  0.00     0.029 H 
BRANCH  28  31
ATOM     31  C   LIG d   1       5.739  -1.608  -6.172  0.00  0.00     0.016 C 
ATOM     32  H   LIG d   1       5.563  -0.606  -5.782  0.00  0.00     0.046 H 
ATOM     33  H   LIG d   1       5.123  -1.768  -7.057  0.00  0.00     0.046 H 
BRANCH  31  34
ATOM     34  N   LIG d   1       5.392  -2.599  -5.151  0.00  0.00    -0.297 N 
ATOM     35  C   LIG d   1       4.712  -3.710  -5.493  0.00  0.00     0.213 C 
ATOM     36  O   LIG d   1       4.344  -4.485  -4.635  0.00  0.00    -0.276 OA
BRANCH  34  37
ATOM     37  C   LIG d   1       5.784  -2.380  -3.755  0.00  0.00     0.040 C 
ATOM     38  H   LIG d   1       5.487  -3.240  -3.156  0.00  0.00     0.051 H 
ATOM     39  H   LIG d   1       6.866  -2.255  -3.698  0.00  0.00     0.051 H 
BRANCH  37  40
ATOM     40  C   LIG d   1       5.105  -1.142  -3.230  0.00  0.00    -0.030 A 
ATOM     41  C   LIG d   1       5.853  -0.019  -2.929  0.00  0.00    -0.057 A 
ATOM     42  C   LIG d   1       5.230   1.117  -2.448  0.00  0.00    -0.061 A 
ATOM     43  H   LIG d   1       6.924  -0.029  -3.071  0.00  0.00     0.062 H 
ATOM     44  C   LIG d   1       3.861   1.131  -2.267  0.00  0.00    -0.062 A 
ATOM     45  H   LIG d   1       5.814   1.995  -2.213  0.00  0.00     0.062 H 
ATOM     46  C   LIG d   1       3.113   0.007  -2.567  0.00  0.00    -0.061 A 
ATOM     47  H   LIG d   1       3.374   2.018  -1.891  0.00  0.00     0.062 H 
ATOM     48  C   LIG d   1       3.734  -1.127  -3.054  0.00  0.00    -0.057 A 
ATOM     49  H   LIG d   1       2.043   0.018  -2.426  0.00  0.00     0.062 H 
ATOM     50  H   LIG d   1       3.150  -2.003  -3.293  0.00  0.00     0.062 H 
ENDBRANCH  37  40
ENDBRANCH  34  37
BRANCH  35  51
ATOM     51  C   LIG d   1       4.410  -3.993  -6.942  0.00  0.00     0.012 C 
ATOM     52  H   LIG d   1       3.569  -3.379  -7.265  0.00  0.00     0.032 H 
ATOM     53  H   LIG d   1       5.284  -3.759  -7.549  0.00  0.00     0.032 H 
ATOM     54  H   LIG d   1       4.157  -5.047  -7.061  0.00  0.00     0.032 H 
ENDBRANCH  35  51
ENDBRANCH  31  34
ENDBRANCH  28  31
ENDBRANCH   1  28
BRANCH   5  55
ATOM     55  C   LIG d   1       9.083   1.412  -4.197  0.00  0.00    -0.020 C 
ATOM     56  H   LIG d   1       8.776   1.084  -3.203  0.00  0.00     0.032 H 
BRANCH  55  57
ATOM     57  C   LIG d   1      10.556   1.827  -4.166  0.00  0.00    -0.060 C 
ATOM     58  H   LIG d   1      10.629   2.890  -3.940  0.00  0.00     0.023 H 
ATOM     59  H   LIG d   1      11.078   1.256  -3.398  0.00  0.00     0.023 H 
ATOM     60  H   LIG d   1      11.010   1.629  -5.136  0.00  0.00     0.023 H 
ENDBRANCH  55  57
BRANCH  55  61
ATOM     61  C   LIG d   1       8.226   2.603  -4.629  0.00  0.00    -0.060 C 
ATOM     62  H   LIG d   1       8.844   3.315  -5.175  0.00  0.00     0.023 H 
ATOM     63  H   LIG d   1       7.418   2.254  -5.271  0.00  0.00     0.023 H 
ATOM     64  H   LIG d   1       7.807   3.088  -3.747  0.00  0.00     0.023 H 
ENDBRANCH  55  61
ENDBRANCH   5  55
TORSDOF 11
ENDMDL
MODEL 9
REMARK VINA RESULT:      -5.1      1.312      2.068
REMARK  11 active torsions:
REMARK  status: ('A' for Active; 'I' for Inactive)
REMARK    1  A    between atoms: C_1  and  C_2 
REMARK    2  A    between atoms: C_5  and  C_8 
REMARK    3  A    between atoms: C_8  and  C_18 
REMARK    4  A    between atoms: C_12  and  C_15 
REMARK    5  A    between atoms: C_15  and  C_16 
REMARK    6  A    between atoms: C_15  and  C_17 
REMARK    7  A    between atoms: C_18  and  C_19 
REMARK    8  A    between atoms: C_19  and  N_20 
REMARK    9  A    between atoms: N_20  and  C_21 
REMARK       I    between atoms: N_20  and  C_28 
REMARK   10  A    between atoms: C_21  and  C_22 
REMARK   11  A    between atoms: C_28  and  C_30 
ROOT
ATOM      1  C   LIG d   1       5.628  -0.732  -5.762  0.00  0.00     0.002 C 
ATOM      2  C   LIG d   1       6.993  -0.135  -5.406  0.00  0.00    -0.020 C 
ATOM      3  C   LIG d   1       7.439  -0.679  -4.047  0.00  0.00     0.049 C 
ATOM      4  O   LIG d   1       6.455  -0.363  -3.062  0.00  0.00    -0.376 OA
ATOM      5  C   LIG d   1       5.169  -0.934  -3.317  0.00  0.00     0.062 C 
ATOM      6  H   LIG d   1       5.258  -2.019  -3.369  0.00  0.00     0.060 H 
ATOM      7  C   LIG d   1       4.631  -0.400  -4.647  0.00  0.00    -0.017 C 
ATOM      8  H   LIG d   1       7.722  -0.414  -6.168  0.00  0.00     0.030 H 
ATOM      9  H   LIG d   1       6.913   0.950  -5.356  0.00  0.00     0.030 H 
ATOM     10  H   LIG d   1       7.557  -1.761  -4.110  0.00  0.00     0.056 H 
ATOM     11  H   LIG d   1       8.391  -0.226  -3.769  0.00  0.00     0.056 H 
ATOM     12  H   LIG d   1       4.505   0.681  -4.582  0.00  0.00     0.030 H 
ATOM     13  H   LIG d   1       3.671  -0.867  -4.865  0.00  0.00     0.030 H 
ENDROOT
BRANCH   1  14
ATOM     14  C   LIG d   1       5.143  -0.143  -7.063  0.00  0.00    -0.041 A 
ATOM     15  C   LIG d   1       3.797  -0.175  -7.376  0.00  0.00    -0.058 A 
ATOM     16  C   LIG d   1       3.352   0.365  -8.569  0.00  0.00    -0.059 A 
ATOM     17  H   LIG d   1       3.093  -0.621  -6.689  0.00  0.00     0.062 H 
ATOM     18  C   LIG d   1       4.253   0.936  -9.448  0.00  0.00    -0.050 A 
ATOM     19  H   LIG d   1       2.301   0.340  -8.813  0.00  0.00     0.062 H 
ATOM     20  C   LIG d   1       5.600   0.967  -9.134  0.00  0.00    -0.059 A 
ATOM     21  C   LIG d   1       6.044   0.433  -7.939  0.00  0.00    -0.058 A 
ATOM     22  H   LIG d   1       6.304   1.413  -9.821  0.00  0.00     0.062 H 
ATOM     23  H   LIG d   1       7.095   0.461  -7.693  0.00  0.00     0.062 H 
BRANCH  18  24
ATOM     24  C   LIG d   1       3.768   1.524 -10.747  0.00  0.00    -0.040 C 
ATOM     25  H   LIG d   1       4.321   1.081 -11.576  0.00  0.00     0.028 H 
ATOM     26  H   LIG d   1       2.705   1.315 -10.866  0.00  0.00     0.028 H 
ATOM     27  H   LIG d   1       3.927   2.602 -10.739  0.00  0.00     0.028 H 
ENDBRANCH  18  24
ENDBRANCH   1  14
BRANCH   1  28
ATOM     28  C   LIG d   1       5.753  -2.250  -5.902  0.00  0.00    -0.027 C 
ATOM     29  H   LIG d   1       6.063  -2.678  -4.948  0.00  0.00     0.029 H 
ATOM     30  H   LIG d   1       4.789  -2.669  -6.192  0.00  0.00     0.029 H 
BRANCH  28  31
ATOM     31  C   LIG d   1       6.795  -2.581  -6.972  0.00  0.00     0.016 C 
ATOM     32  H   LIG d   1       6.805  -1.793  -7.725  0.00  0.00     0.046 H 
ATOM     33  H   LIG d   1       7.779  -2.654  -6.510  0.00  0.00     0.046 H 
BRANCH  31  34
ATOM     34  N   LIG d   1       6.457  -3.857  -7.605  0.00  0.00    -0.297 N 
ATOM     35  C   LIG d   1       7.436  -4.695  -8.000  0.00  0.00     0.213 C 
ATOM     36  O   LIG d   1       7.159  -5.708  -8.607  0.00  0.00    -0.276 OA
BRANCH  34  37
ATOM     37  C   LIG d   1       5.052  -4.224  -7.810  0.00  0.00     0.040 C 
ATOM     38  H   LIG d   1       4.977  -5.300  -7.963  0.00  0.00     0.051 H 
ATOM     39  H   LIG d   1       4.471  -3.941  -6.932  0.00  0.00     0.051 H 
BRANCH  37  40
ATOM     40  C   LIG d   1       4.517  -3.505  -9.022  0.00  0.00    -0.030 A 
ATOM     41  C   LIG d   1       3.152  -3.375  -9.201  0.00  0.00    -0.057 A 
ATOM     42  C   LIG d   1       2.661  -2.715 -10.311  0.00  0.00    -0.061 A 
ATOM     43  H   LIG d   1       2.470  -3.787  -8.472  0.00  0.00     0.062 H 
ATOM     44  C   LIG d   1       3.534  -2.185 -11.243  0.00  0.00    -0.062 A 
ATOM     45  H   LIG d   1       1.595  -2.612 -10.451  0.00  0.00     0.062 H 
ATOM     46  C   LIG d   1       4.899  -2.316 -11.064  0.00  0.00    -0.061 A 
ATOM     47  H   LIG d   1       3.150  -1.670 -12.111  0.00  0.00     0.062 H 
ATOM     48  C   LIG d   1       5.390  -2.971  -9.951  0.00  0.00    -0.057 A 
ATOM     49  H   LIG d   1       5.580  -1.903 -11.792  0.00  0.00     0.062 H 
ATOM     50  H   LIG d   1       6.456  -3.070  -9.809  0.00  0.00     0.062 H 
ENDBRANCH  37  40
ENDBRANCH  34  37
BRANCH  35  51
ATOM     51  C   LIG d   1       8.874  -4.374  -7.686  0.00  0.00     0.012 C 
ATOM     52  H   LIG d   1       9.109  -3.371  -8.041  0.00  0.00     0.032 H 
ATOM     53  H   LIG d   1       9.032  -4.424  -6.609  0.00  0.00     0.032 H 
ATOM     54  H   LIG d   1       9.523  -5.096  -8.182  0.00  0.00     0.032 H 
ENDBRANCH  35  51
ENDBRANCH  31  34
ENDBRANCH  28  31
ENDBRANCH   1  28
BRANCH   5  55
ATOM     55  C   LIG d   1       4.209  -0.554  -2.189  0.00  0.00    -0.020 C 
ATOM     56  H   LIG d   1       4.314  -1.264  -1.368  0.00  0.00     0.032 H 
BRANCH  55  57
ATOM     57  C   LIG d   1       4.540   0.855  -1.691  0.00  0.00    -0.060 C 
ATOM     58  H   LIG d   1       4.124   0.995  -0.694  0.00  0.00     0.023 H 
ATOM     59  H   LIG d   1       5.622   0.982  -1.654  0.00  0.00     0.023 H 
ATOM     60  H   LIG d   1       4.112   1.591  -2.371  0.00  0.00     0.023 H 
ENDBRANCH  55  57
BRANCH  55  61
ATOM     61  C   LIG d   1       2.771  -0.586  -2.710  0.00  0.00    -0.060 C 
ATOM     62  H   LIG d   1       2.080  -0.456  -1.877  0.00  0.00     0.023 H 
ATOM     63  H   LIG d   1       2.628   0.219  -3.431  0.00  0.00     0.023 H 
ATOM     64  H   LIG d   1       2.581  -1.545  -3.193  0.00  0.00     0.023 H 
ENDBRANCH  55  61
ENDBRANCH   5  55
TORSDOF 11
ENDMDL
