MODEL 1
REMARK VINA RESULT:      -8.1      0.000      0.000
REMARK  5 active torsions:
REMARK  status: ('A' for Active; 'I' for Inactive)
REMARK    1  A    between atoms: C_5  and  C_7 
REMARK    2  A    between atoms: C_7  and  N_8 
REMARK    3  A    between atoms: C_13  and  C_30 
REMARK    4  A    between atoms: C_30  and  C_31 
REMARK    5  A    between atoms: C_31  and  C_32 
ROOT
ATOM      1  N   LIG d   1       5.283  -0.028  -9.382  0.00  0.00    -0.237 N 
ATOM      2  C   LIG d   1       5.908  -1.190  -9.158  0.00  0.00     0.228 A 
ATOM      3  O   LIG d   1       6.281  -1.961 -10.015  0.00  0.00    -0.275 OA
ATOM      4  C   LIG d   1       6.075  -1.390  -7.669  0.00  0.00     0.065 A 
ATOM      5  H   LIG d   1       7.119  -1.503  -7.376  0.00  0.00     0.042 H 
ATOM      6  C   LIG d   1       5.199  -2.576  -7.211  0.00  0.00     0.021 C 
ATOM      7  H   LIG d   1       5.611  -3.025  -6.307  0.00  0.00     0.047 H 
ATOM      8  N   LIG d   1       3.866  -1.980  -6.932  0.00  0.00    -0.295 N 
ATOM      9  C   LIG d   1       4.175  -0.680  -6.309  0.00  0.00     0.136 A 
ATOM     10  C   LIG d   1       5.412  -0.124  -7.060  0.00  0.00     0.080 A 
ATOM     11  H   LIG d   1       6.086   0.439  -6.415  0.00  0.00     0.043 H 
ATOM     12  C   LIG d   1       4.968   0.656  -8.276  0.00  0.00     0.229 A 
ATOM     13  O   LIG d   1       4.409   1.731  -8.253  0.00  0.00    -0.275 OA
ATOM     14  C   LIG d   1       4.446  -0.822  -4.839  0.00  0.00     0.003 A 
ATOM     15  C   LIG d   1       5.371  -1.536  -4.111  0.00  0.00    -0.055 A 
ATOM     16  C   LIG d   1       5.372  -1.463  -2.729  0.00  0.00    -0.061 A 
ATOM     17  C   LIG d   1       4.441  -0.671  -2.082  0.00  0.00    -0.060 A 
ATOM     18  C   LIG d   1       3.513   0.047  -2.807  0.00  0.00    -0.040 A 
ATOM     19  C   LIG d   1       3.505  -0.021  -4.198  0.00  0.00     0.039 A 
ATOM     20  N   LIG d   1       2.680   0.599  -5.138  0.00  0.00    -0.283 N 
ATOM     21  C   LIG d   1       3.007   0.265  -6.402  0.00  0.00     0.243 A 
ATOM     22  O   LIG d   1       2.465   0.650  -7.417  0.00  0.00    -0.273 OA
ATOM     23  H   LIG d   1       3.339  -1.858  -7.784  0.00  0.00     0.123 HD
ATOM     24  H   LIG d   1       6.097  -2.154  -4.618  0.00  0.00     0.062 H 
ATOM     25  H   LIG d   1       6.096  -2.023  -2.158  0.00  0.00     0.062 H 
ATOM     26  H   LIG d   1       4.441  -0.614  -1.004  0.00  0.00     0.062 H 
ATOM     27  H   LIG d   1       2.789   0.664  -2.295  0.00  0.00     0.064 H 
ATOM     28  H   LIG d   1       1.955   1.201  -4.908  0.00  0.00     0.155 HD
ENDROOT
BRANCH   1  29
ATOM     29  C   LIG d   1       4.976   0.458 -10.730  0.00  0.00     0.049 C 
ATOM     30  H   LIG d   1       5.832   0.282 -11.383  0.00  0.00     0.052 H 
ATOM     31  H   LIG d   1       4.762   1.526 -10.691  0.00  0.00     0.052 H 
BRANCH  29  32
ATOM     32  C   LIG d   1       3.776  -0.276 -11.267  0.00  0.00    -0.011 A 
ATOM     33  C   LIG d   1       3.843  -0.905 -12.498  0.00  0.00     0.046 A 
ATOM     34  C   LIG d   1       2.740  -1.579 -12.991  0.00  0.00    -0.043 A 
ATOM     35 CL   LIG d   1       5.311  -0.848 -13.422  0.00  0.00    -0.083 Cl
ATOM     36  C   LIG d   1       1.572  -1.625 -12.254  0.00  0.00    -0.060 A 
ATOM     37  H   LIG d   1       2.793  -2.072 -13.951  0.00  0.00     0.063 H 
ATOM     38  C   LIG d   1       1.505  -0.996 -11.025  0.00  0.00    -0.061 A 
ATOM     39  H   LIG d   1       0.712  -2.152 -12.639  0.00  0.00     0.062 H 
ATOM     40  C   LIG d   1       2.606  -0.322 -10.531  0.00  0.00    -0.056 A 
ATOM     41  H   LIG d   1       0.590  -1.029 -10.451  0.00  0.00     0.062 H 
ATOM     42  H   LIG d   1       2.553   0.168  -9.570  0.00  0.00     0.062 H 
ENDBRANCH  29  32
ENDBRANCH   1  29
BRANCH   6  43
ATOM     43  C   LIG d   1       5.096  -3.621  -8.324  0.00  0.00    -0.032 C 
ATOM     44  H   LIG d   1       5.347  -3.161  -9.279  0.00  0.00     0.028 H 
ATOM     45  H   LIG d   1       5.789  -4.438  -8.121  0.00  0.00     0.028 H 
BRANCH  43  46
ATOM     46  C   LIG d   1       3.667  -4.166  -8.380  0.00  0.00    -0.012 C 
ATOM     47  H   LIG d   1       2.974  -3.404  -8.023  0.00  0.00     0.033 H 
ATOM     48  H   LIG d   1       3.419  -4.430  -9.408  0.00  0.00     0.033 H 
BRANCH  46  49
ATOM     49  C   LIG d   1       3.562  -5.391  -7.508  0.00  0.00     0.042 C 
ATOM     50  O   LIG d   1       3.654  -6.500  -8.003  0.00  0.00    -0.550 OA
ATOM     51  O   LIG d   1       3.385  -5.270  -6.307  0.00  0.00    -0.550 OA
ENDBRANCH  46  49
ENDBRANCH  43  46
ENDBRANCH   6  43
TORSDOF 5
ENDMDL
MODEL 2
REMARK VINA RESULT:      -7.8      2.894      6.936
REMARK  5 active torsions:
REMARK  status: ('A' for Active; 'I' for Inactive)
REMARK    1  A    between atoms: C_5  and  C_7 
REMARK    2  A    between atoms: C_7  and  N_8 
REMARK    3  A    between atoms: C_13  and  C_30 
REMARK    4  A    between atoms: C_30  and  C_31 
REMARK    5  A    between atoms: C_31  and  C_32 
ROOT
ATOM      1  N   LIG d   1       6.615  -1.464  -5.857  0.00  0.00    -0.237 N 
ATOM      2  C   LIG d   1       6.284  -0.530  -6.756  0.00  0.00     0.228 A 
ATOM      3  O   LIG d   1       6.400   0.666  -6.600  0.00  0.00    -0.275 OA
ATOM      4  C   LIG d   1       5.741  -1.200  -7.998  0.00  0.00     0.065 A 
ATOM      5  H   LIG d   1       6.312  -0.951  -8.893  0.00  0.00     0.042 H 
ATOM      6  C   LIG d   1       4.240  -0.872  -8.142  0.00  0.00     0.021 C 
ATOM      7  H   LIG d   1       3.936  -0.935  -9.187  0.00  0.00     0.047 H 
ATOM      8  N   LIG d   1       3.543  -1.910  -7.337  0.00  0.00    -0.295 N 
ATOM      9  C   LIG d   1       4.315  -3.140  -7.588  0.00  0.00     0.136 A 
ATOM     10  C   LIG d   1       5.803  -2.713  -7.646  0.00  0.00     0.080 A 
ATOM     11  H   LIG d   1       6.388  -3.291  -8.362  0.00  0.00     0.043 H 
ATOM     12  C   LIG d   1       6.396  -2.722  -6.255  0.00  0.00     0.229 A 
ATOM     13  O   LIG d   1       6.632  -3.715  -5.601  0.00  0.00    -0.275 OA
ATOM     14  C   LIG d   1       3.889  -3.809  -8.863  0.00  0.00     0.003 A 
ATOM     15  C   LIG d   1       3.857  -3.406 -10.180  0.00  0.00    -0.055 A 
ATOM     16  C   LIG d   1       3.399  -4.271 -11.158  0.00  0.00    -0.061 A 
ATOM     17  C   LIG d   1       2.972  -5.539 -10.810  0.00  0.00    -0.060 A 
ATOM     18  C   LIG d   1       3.003  -5.948  -9.493  0.00  0.00    -0.040 A 
ATOM     19  C   LIG d   1       3.463  -5.083  -8.502  0.00  0.00     0.039 A 
ATOM     20  N   LIG d   1       3.587  -5.261  -7.122  0.00  0.00    -0.283 N 
ATOM     21  C   LIG d   1       4.080  -4.165  -6.511  0.00  0.00     0.243 A 
ATOM     22  O   LIG d   1       4.293  -4.032  -5.324  0.00  0.00    -0.273 OA
ATOM     23  H   LIG d   1       3.550  -1.671  -6.356  0.00  0.00     0.123 HD
ATOM     24  H   LIG d   1       4.190  -2.415 -10.449  0.00  0.00     0.062 H 
ATOM     25  H   LIG d   1       3.372  -3.955 -12.190  0.00  0.00     0.062 H 
ATOM     26  H   LIG d   1       2.614  -6.214 -11.573  0.00  0.00     0.062 H 
ATOM     27  H   LIG d   1       2.670  -6.941  -9.228  0.00  0.00     0.064 H 
ATOM     28  H   LIG d   1       3.346  -6.077  -6.657  0.00  0.00     0.155 HD
ENDROOT
BRANCH   1  29
ATOM     29  C   LIG d   1       7.177  -1.134  -4.544  0.00  0.00     0.049 C 
ATOM     30  H   LIG d   1       7.910  -0.334  -4.654  0.00  0.00     0.052 H 
ATOM     31  H   LIG d   1       7.660  -2.015  -4.124  0.00  0.00     0.052 H 
BRANCH  29  32
ATOM     32  C   LIG d   1       6.073  -0.680  -3.625  0.00  0.00    -0.011 A 
ATOM     33  C   LIG d   1       6.050   0.624  -3.162  0.00  0.00     0.046 A 
ATOM     34  C   LIG d   1       5.037   1.040  -2.318  0.00  0.00    -0.043 A 
ATOM     35 CL   LIG d   1       7.294   1.736  -3.640  0.00  0.00    -0.083 Cl
ATOM     36  C   LIG d   1       4.046   0.154  -1.937  0.00  0.00    -0.060 A 
ATOM     37  H   LIG d   1       5.018   2.057  -1.957  0.00  0.00     0.063 H 
ATOM     38  C   LIG d   1       4.070  -1.148  -2.400  0.00  0.00    -0.061 A 
ATOM     39  H   LIG d   1       3.255   0.479  -1.279  0.00  0.00     0.062 H 
ATOM     40  C   LIG d   1       5.082  -1.566  -3.243  0.00  0.00    -0.056 A 
ATOM     41  H   LIG d   1       3.298  -1.842  -2.100  0.00  0.00     0.062 H 
ATOM     42  H   LIG d   1       5.099  -2.583  -3.605  0.00  0.00     0.062 H 
ENDBRANCH  29  32
ENDBRANCH   1  29
BRANCH   6  43
ATOM     43  C   LIG d   1       3.945   0.523  -7.587  0.00  0.00    -0.032 C 
ATOM     44  H   LIG d   1       3.350   0.435  -6.679  0.00  0.00     0.028 H 
ATOM     45  H   LIG d   1       4.883   1.029  -7.359  0.00  0.00     0.028 H 
BRANCH  43  46
ATOM     46  C   LIG d   1       3.169   1.332  -8.628  0.00  0.00    -0.012 C 
ATOM     47  H   LIG d   1       2.388   0.709  -9.064  0.00  0.00     0.033 H 
ATOM     48  H   LIG d   1       2.715   2.200  -8.150  0.00  0.00     0.033 H 
BRANCH  46  49
ATOM     49  C   LIG d   1       4.110   1.792  -9.711  0.00  0.00     0.042 C 
ATOM     50  O   LIG d   1       5.043   2.527  -9.437  0.00  0.00    -0.550 OA
ATOM     51  O   LIG d   1       3.939   1.426 -10.862  0.00  0.00    -0.550 OA
ENDBRANCH  46  49
ENDBRANCH  43  46
ENDBRANCH   6  43
TORSDOF 5
ENDMDL
MODEL 3
REMARK VINA RESULT:      -7.4      3.156      7.284
REMARK  5 active torsions:
REMARK  status: ('A' for Active; 'I' for Inactive)
REMARK    1  A    between atoms: C_5  and  C_7 
REMARK    2  A    between atoms: C_7  and  N_8 
REMARK    3  A    between atoms: C_13  and  C_30 
REMARK    4  A    between atoms: C_30  and  C_31 
REMARK    5  A    between atoms: C_31  and  C_32 
ROOT
ATOM      1  N   LIG d   1       6.559  -1.627  -5.494  0.00  0.00    -0.237 N 
ATOM      2  C   LIG d   1       7.587  -1.081  -6.152  0.00  0.00     0.228 A 
ATOM      3  O   LIG d   1       8.634  -0.731  -5.651  0.00  0.00    -0.275 OA
ATOM      4  C   LIG d   1       7.240  -0.966  -7.619  0.00  0.00     0.065 A 
ATOM      5  H   LIG d   1       7.940  -1.503  -8.259  0.00  0.00     0.042 H 
ATOM      6  C   LIG d   1       7.111   0.524  -8.000  0.00  0.00     0.021 C 
ATOM      7  H   LIG d   1       7.312   0.663  -9.062  0.00  0.00     0.047 H 
ATOM      8  N   LIG d   1       5.701   0.878  -7.688  0.00  0.00    -0.295 N 
ATOM      9  C   LIG d   1       4.933  -0.315  -8.088  0.00  0.00     0.136 A 
ATOM     10  C   LIG d   1       5.797  -1.539  -7.692  0.00  0.00     0.080 A 
ATOM     11  H   LIG d   1       5.707  -2.372  -8.389  0.00  0.00     0.043 H 
ATOM     12  C   LIG d   1       5.506  -1.932  -6.262  0.00  0.00     0.229 A 
ATOM     13  O   LIG d   1       4.478  -2.441  -5.870  0.00  0.00    -0.275 OA
ATOM     14  C   LIG d   1       4.634  -0.311  -9.561  0.00  0.00     0.003 A 
ATOM     15  C   LIG d   1       5.425  -0.283 -10.688  0.00  0.00    -0.055 A 
ATOM     16  C   LIG d   1       4.843  -0.288 -11.943  0.00  0.00    -0.061 A 
ATOM     17  C   LIG d   1       3.465  -0.321 -12.061  0.00  0.00    -0.060 A 
ATOM     18  C   LIG d   1       2.669  -0.350 -10.935  0.00  0.00    -0.040 A 
ATOM     19  C   LIG d   1       3.247  -0.345  -9.668  0.00  0.00     0.039 A 
ATOM     20  N   LIG d   1       2.665  -0.369  -8.399  0.00  0.00    -0.283 N 
ATOM     21  C   LIG d   1       3.587  -0.353  -7.416  0.00  0.00     0.243 A 
ATOM     22  O   LIG d   1       3.373  -0.366  -6.222  0.00  0.00    -0.273 OA
ATOM     23  H   LIG d   1       5.586   1.070  -6.704  0.00  0.00     0.123 HD
ATOM     24  H   LIG d   1       6.500  -0.257 -10.593  0.00  0.00     0.062 H 
ATOM     25  H   LIG d   1       5.461  -0.265 -12.827  0.00  0.00     0.062 H 
ATOM     26  H   LIG d   1       3.010  -0.324 -13.041  0.00  0.00     0.062 H 
ATOM     27  H   LIG d   1       1.594  -0.377 -11.036  0.00  0.00     0.064 H 
ATOM     28  H   LIG d   1       1.708  -0.394  -8.243  0.00  0.00     0.155 HD
ENDROOT
BRANCH   1  29
ATOM     29  C   LIG d   1       6.586  -1.876  -4.050  0.00  0.00     0.049 C 
ATOM     30  H   LIG d   1       7.619  -1.862  -3.699  0.00  0.00     0.052 H 
ATOM     31  H   LIG d   1       6.144  -2.850  -3.841  0.00  0.00     0.052 H 
BRANCH  29  32
ATOM     32  C   LIG d   1       5.799  -0.805  -3.340  0.00  0.00    -0.011 A 
ATOM     33  C   LIG d   1       4.628  -1.130  -2.680  0.00  0.00     0.046 A 
ATOM     34  C   LIG d   1       3.906  -0.146  -2.028  0.00  0.00    -0.043 A 
ATOM     35 CL   LIG d   1       4.064  -2.771  -2.669  0.00  0.00    -0.083 Cl
ATOM     36  C   LIG d   1       4.355   1.161  -2.037  0.00  0.00    -0.060 A 
ATOM     37  H   LIG d   1       2.992  -0.399  -1.512  0.00  0.00     0.063 H 
ATOM     38  C   LIG d   1       5.526   1.485  -2.697  0.00  0.00    -0.061 A 
ATOM     39  H   LIG d   1       3.792   1.929  -1.528  0.00  0.00     0.062 H 
ATOM     40  C   LIG d   1       6.248   0.503  -3.348  0.00  0.00    -0.056 A 
ATOM     41  H   LIG d   1       5.875   2.507  -2.707  0.00  0.00     0.062 H 
ATOM     42  H   LIG d   1       7.163   0.757  -3.863  0.00  0.00     0.062 H 
ENDBRANCH  29  32
ENDBRANCH   1  29
BRANCH   6  43
ATOM     43  C   LIG d   1       8.073   1.371  -7.163  0.00  0.00    -0.032 C 
ATOM     44  H   LIG d   1       7.534   2.216  -6.736  0.00  0.00     0.028 H 
ATOM     45  H   LIG d   1       8.489   0.763  -6.361  0.00  0.00     0.028 H 
BRANCH  43  46
ATOM     46  C   LIG d   1       9.205   1.887  -8.054  0.00  0.00    -0.012 C 
ATOM     47  H   LIG d   1      10.142   1.867  -7.497  0.00  0.00     0.033 H 
ATOM     48  H   LIG d   1       9.293   1.250  -8.934  0.00  0.00     0.033 H 
BRANCH  46  49
ATOM     49  C   LIG d   1       8.903   3.299  -8.483  0.00  0.00     0.042 C 
ATOM     50  O   LIG d   1       9.378   4.237  -7.866  0.00  0.00    -0.550 OA
ATOM     51  O   LIG d   1       8.185   3.503  -9.448  0.00  0.00    -0.550 OA
ENDBRANCH  46  49
ENDBRANCH  43  46
ENDBRANCH   6  43
TORSDOF 5
ENDMDL
MODEL 4
REMARK VINA RESULT:      -7.2      3.236      5.212
REMARK  5 active torsions:
REMARK  status: ('A' for Active; 'I' for Inactive)
REMARK    1  A    between atoms: C_5  and  C_7 
REMARK    2  A    between atoms: C_7  and  N_8 
REMARK    3  A    between atoms: C_13  and  C_30 
REMARK    4  A    between atoms: C_30  and  C_31 
REMARK    5  A    between atoms: C_31  and  C_32 
ROOT
ATOM      1  N   LIG d   1       4.354  -0.343  -6.258  0.00  0.00    -0.237 N 
ATOM      2  C   LIG d   1       3.936  -1.152  -5.278  0.00  0.00     0.228 A 
ATOM      3  O   LIG d   1       2.833  -1.135  -4.777  0.00  0.00    -0.275 OA
ATOM      4  C   LIG d   1       5.056  -2.091  -4.891  0.00  0.00     0.065 A 
ATOM      5  H   LIG d   1       4.783  -3.140  -5.008  0.00  0.00     0.042 H 
ATOM      6  C   LIG d   1       5.533  -1.758  -3.462  0.00  0.00     0.021 C 
ATOM      7  H   LIG d   1       5.979  -2.637  -2.996  0.00  0.00     0.047 H 
ATOM      8  N   LIG d   1       6.553  -0.691  -3.638  0.00  0.00    -0.295 N 
ATOM      9  C   LIG d   1       7.283  -1.087  -4.856  0.00  0.00     0.136 A 
ATOM     10  C   LIG d   1       6.221  -1.664  -5.827  0.00  0.00     0.080 A 
ATOM     11  H   LIG d   1       6.599  -2.486  -6.435  0.00  0.00     0.043 H 
ATOM     12  C   LIG d   1       5.616  -0.550  -6.649  0.00  0.00     0.229 A 
ATOM     13  O   LIG d   1       6.187   0.065  -7.525  0.00  0.00    -0.275 OA
ATOM     14  C   LIG d   1       8.354  -2.096  -4.556  0.00  0.00     0.003 A 
ATOM     15  C   LIG d   1       8.340  -3.356  -3.999  0.00  0.00    -0.055 A 
ATOM     16  C   LIG d   1       9.522  -4.060  -3.848  0.00  0.00    -0.061 A 
ATOM     17  C   LIG d   1      10.716  -3.494  -4.256  0.00  0.00    -0.060 A 
ATOM     18  C   LIG d   1      10.735  -2.233  -4.815  0.00  0.00    -0.040 A 
ATOM     19  C   LIG d   1       9.549  -1.518  -4.971  0.00  0.00     0.039 A 
ATOM     20  N   LIG d   1       9.313  -0.247  -5.498  0.00  0.00    -0.283 N 
ATOM     21  C   LIG d   1       8.007   0.082  -5.468  0.00  0.00     0.243 A 
ATOM     22  O   LIG d   1       7.511   1.119  -5.856  0.00  0.00    -0.273 OA
ATOM     23  H   LIG d   1       6.116   0.211  -3.754  0.00  0.00     0.123 HD
ATOM     24  H   LIG d   1       7.406  -3.795  -3.680  0.00  0.00     0.062 H 
ATOM     25  H   LIG d   1       9.512  -5.046  -3.411  0.00  0.00     0.062 H 
ATOM     26  H   LIG d   1      11.639  -4.042  -4.138  0.00  0.00     0.062 H 
ATOM     27  H   LIG d   1      11.671  -1.798  -5.133  0.00  0.00     0.064 H 
ATOM     28  H   LIG d   1      10.009   0.333  -5.846  0.00  0.00     0.155 HD
ENDROOT
BRANCH   1  29
ATOM     29  C   LIG d   1       3.495   0.682  -6.857  0.00  0.00     0.049 C 
ATOM     30  H   LIG d   1       4.026   1.634  -6.876  0.00  0.00     0.052 H 
ATOM     31  H   LIG d   1       2.585   0.784  -6.267  0.00  0.00     0.052 H 
BRANCH  29  32
ATOM     32  C   LIG d   1       3.138   0.278  -8.264  0.00  0.00    -0.011 A 
ATOM     33  C   LIG d   1       3.496   1.087  -9.328  0.00  0.00     0.046 A 
ATOM     34  C   LIG d   1       3.168   0.715 -10.620  0.00  0.00    -0.043 A 
ATOM     35 CL   LIG d   1       4.356   2.567  -9.042  0.00  0.00    -0.083 Cl
ATOM     36  C   LIG d   1       2.484  -0.464 -10.847  0.00  0.00    -0.060 A 
ATOM     37  H   LIG d   1       3.448   1.346 -11.450  0.00  0.00     0.063 H 
ATOM     38  C   LIG d   1       2.127  -1.271  -9.784  0.00  0.00    -0.061 A 
ATOM     39  H   LIG d   1       2.229  -0.754 -11.856  0.00  0.00     0.062 H 
ATOM     40  C   LIG d   1       2.454  -0.901  -8.493  0.00  0.00    -0.056 A 
ATOM     41  H   LIG d   1       1.589  -2.191  -9.962  0.00  0.00     0.062 H 
ATOM     42  H   LIG d   1       2.175  -1.534  -7.663  0.00  0.00     0.062 H 
ENDBRANCH  29  32
ENDBRANCH   1  29
BRANCH   6  43
ATOM     43  C   LIG d   1       4.364  -1.246  -2.617  0.00  0.00    -0.032 C 
ATOM     44  H   LIG d   1       3.531  -0.985  -3.270  0.00  0.00     0.028 H 
ATOM     45  H   LIG d   1       4.049  -2.025  -1.922  0.00  0.00     0.028 H 
BRANCH  43  46
ATOM     46  C   LIG d   1       4.805  -0.009  -1.833  0.00  0.00    -0.012 C 
ATOM     47  H   LIG d   1       4.480  -0.101  -0.796  0.00  0.00     0.033 H 
ATOM     48  H   LIG d   1       5.891   0.075  -1.867  0.00  0.00     0.033 H 
BRANCH  46  49
ATOM     49  C   LIG d   1       4.187   1.221  -2.446  0.00  0.00     0.042 C 
ATOM     50  O   LIG d   1       4.737   1.778  -3.381  0.00  0.00    -0.550 OA
ATOM     51  O   LIG d   1       3.136   1.658  -2.008  0.00  0.00    -0.550 OA
ENDBRANCH  46  49
ENDBRANCH  43  46
ENDBRANCH   6  43
TORSDOF 5
ENDMDL
MODEL 5
REMARK VINA RESULT:      -6.8      3.999      5.900
REMARK  5 active torsions:
REMARK  status: ('A' for Active; 'I' for Inactive)
REMARK    1  A    between atoms: C_5  and  C_7 
REMARK    2  A    between atoms: C_7  and  N_8 
REMARK    3  A    between atoms: C_13  and  C_30 
REMARK    4  A    between atoms: C_30  and  C_31 
REMARK    5  A    between atoms: C_31  and  C_32 
ROOT
ATOM      1  N   LIG d   1       9.403  -0.079  -6.840  0.00  0.00    -0.237 N 
ATOM      2  C   LIG d   1       8.641  -0.930  -7.537  0.00  0.00     0.228 A 
ATOM      3  O   LIG d   1       8.767  -1.180  -8.716  0.00  0.00    -0.275 OA
ATOM      4  C   LIG d   1       7.595  -1.529  -6.623  0.00  0.00     0.065 A 
ATOM      5  H   LIG d   1       7.652  -2.616  -6.577  0.00  0.00     0.042 H 
ATOM      6  C   LIG d   1       6.198  -1.026  -7.046  0.00  0.00     0.021 C 
ATOM      7  H   LIG d   1       5.431  -1.740  -6.744  0.00  0.00     0.047 H 
ATOM      8  N   LIG d   1       6.021   0.262  -6.324  0.00  0.00    -0.295 N 
ATOM      9  C   LIG d   1       6.627   0.021  -5.002  0.00  0.00     0.136 A 
ATOM     10  C   LIG d   1       7.883  -0.851  -5.255  0.00  0.00     0.080 A 
ATOM     11  H   LIG d   1       8.074  -1.570  -4.458  0.00  0.00     0.043 H 
ATOM     12  C   LIG d   1       9.073   0.034  -5.549  0.00  0.00     0.229 A 
ATOM     13  O   LIG d   1       9.637   0.740  -4.741  0.00  0.00    -0.275 OA
ATOM     14  C   LIG d   1       5.667  -0.662  -4.070  0.00  0.00     0.003 A 
ATOM     15  C   LIG d   1       4.987  -1.859  -4.120  0.00  0.00    -0.055 A 
ATOM     16  C   LIG d   1       4.151  -2.225  -3.080  0.00  0.00    -0.061 A 
ATOM     17  C   LIG d   1       4.000  -1.384  -1.992  0.00  0.00    -0.060 A 
ATOM     18  C   LIG d   1       4.679  -0.185  -1.937  0.00  0.00    -0.040 A 
ATOM     19  C   LIG d   1       5.523   0.190  -2.980  0.00  0.00     0.039 A 
ATOM     20  N   LIG d   1       6.305   1.334  -3.154  0.00  0.00    -0.283 N 
ATOM     21  C   LIG d   1       6.985   1.312  -4.317  0.00  0.00     0.243 A 
ATOM     22  O   LIG d   1       7.738   2.168  -4.733  0.00  0.00    -0.273 OA
ATOM     23  H   LIG d   1       6.490   1.014  -6.806  0.00  0.00     0.123 HD
ATOM     24  H   LIG d   1       5.106  -2.513  -4.971  0.00  0.00     0.062 H 
ATOM     25  H   LIG d   1       3.617  -3.162  -3.118  0.00  0.00     0.062 H 
ATOM     26  H   LIG d   1       3.347  -1.669  -1.180  0.00  0.00     0.062 H 
ATOM     27  H   LIG d   1       4.557   0.465  -1.083  0.00  0.00     0.064 H 
ATOM     28  H   LIG d   1       6.353   2.060  -2.513  0.00  0.00     0.155 HD
ENDROOT
BRANCH   1  29
ATOM     29  C   LIG d   1      10.514   0.662  -7.443  0.00  0.00     0.049 C 
ATOM     30  H   LIG d   1      10.838   0.155  -8.353  0.00  0.00     0.052 H 
ATOM     31  H   LIG d   1      11.344   0.710  -6.738  0.00  0.00     0.052 H 
BRANCH  29  32
ATOM     32  C   LIG d   1      10.061   2.059  -7.780  0.00  0.00    -0.011 A 
ATOM     33  C   LIG d   1      10.645   3.146  -7.153  0.00  0.00     0.046 A 
ATOM     34  C   LIG d   1      10.228   4.428  -7.463  0.00  0.00    -0.043 A 
ATOM     35 CL   LIG d   1      11.897   2.900  -5.977  0.00  0.00    -0.083 Cl
ATOM     36  C   LIG d   1       9.230   4.623  -8.400  0.00  0.00    -0.060 A 
ATOM     37  H   LIG d   1      10.683   5.277  -6.975  0.00  0.00     0.063 H 
ATOM     38  C   LIG d   1       8.649   3.537  -9.026  0.00  0.00    -0.061 A 
ATOM     39  H   LIG d   1       8.907   5.624  -8.642  0.00  0.00     0.062 H 
ATOM     40  C   LIG d   1       9.063   2.256  -8.717  0.00  0.00    -0.056 A 
ATOM     41  H   LIG d   1       7.866   3.690  -9.755  0.00  0.00     0.062 H 
ATOM     42  H   LIG d   1       8.609   1.408  -9.207  0.00  0.00     0.062 H 
ENDBRANCH  29  32
ENDBRANCH   1  29
BRANCH   6  43
ATOM     43  C   LIG d   1       6.149  -0.802  -8.559  0.00  0.00    -0.032 C 
ATOM     44  H   LIG d   1       6.935  -0.107  -8.849  0.00  0.00     0.028 H 
ATOM     45  H   LIG d   1       6.298  -1.753  -9.072  0.00  0.00     0.028 H 
BRANCH  43  46
ATOM     46  C   LIG d   1       4.787  -0.222  -8.944  0.00  0.00    -0.012 C 
ATOM     47  H   LIG d   1       4.332  -0.843  -9.716  0.00  0.00     0.033 H 
ATOM     48  H   LIG d   1       4.139  -0.201  -8.068  0.00  0.00     0.033 H 
BRANCH  46  49
ATOM     49  C   LIG d   1       4.968   1.179  -9.468  0.00  0.00     0.042 C 
ATOM     50  O   LIG d   1       5.448   2.040  -8.751  0.00  0.00    -0.550 OA
ATOM     51  O   LIG d   1       4.635   1.451 -10.610  0.00  0.00    -0.550 OA
ENDBRANCH  46  49
ENDBRANCH  43  46
ENDBRANCH   6  43
TORSDOF 5
ENDMDL
MODEL 6
REMARK VINA RESULT:      -6.7      3.513      6.688
REMARK  5 active torsions:
REMARK  status: ('A' for Active; 'I' for Inactive)
REMARK    1  A    between atoms: C_5  and  C_7 
REMARK    2  A    between atoms: C_7  and  N_8 
REMARK    3  A    between atoms: C_13  and  C_30 
REMARK    4  A    between atoms: C_30  and  C_31 
REMARK    5  A    between atoms: C_31  and  C_32 
ROOT
ATOM      1  N   LIG d   1       5.354  -2.200  -5.613  0.00  0.00    -0.237 N 
ATOM      2  C   LIG d   1       6.515  -2.111  -6.271  0.00  0.00     0.228 A 
ATOM      3  O   LIG d   1       6.867  -1.169  -6.948  0.00  0.00    -0.275 OA
ATOM      4  C   LIG d   1       7.320  -3.369  -6.040  0.00  0.00     0.065 A 
ATOM      5  H   LIG d   1       8.292  -3.169  -5.588  0.00  0.00     0.042 H 
ATOM      6  C   LIG d   1       7.433  -4.155  -7.364  0.00  0.00     0.021 C 
ATOM      7  H   LIG d   1       8.328  -4.777  -7.361  0.00  0.00     0.047 H 
ATOM      8  N   LIG d   1       6.212  -5.002  -7.411  0.00  0.00    -0.295 N 
ATOM      9  C   LIG d   1       6.022  -5.438  -6.016  0.00  0.00     0.136 A 
ATOM     10  C   LIG d   1       6.396  -4.224  -5.129  0.00  0.00     0.080 A 
ATOM     11  H   LIG d   1       6.873  -4.509  -4.191  0.00  0.00     0.043 H 
ATOM     12  C   LIG d   1       5.187  -3.339  -4.931  0.00  0.00     0.229 A 
ATOM     13  O   LIG d   1       4.215  -3.619  -4.263  0.00  0.00    -0.275 OA
ATOM     14  C   LIG d   1       6.870  -6.635  -5.691  0.00  0.00     0.003 A 
ATOM     15  C   LIG d   1       8.227  -6.869  -5.715  0.00  0.00    -0.055 A 
ATOM     16  C   LIG d   1       8.723  -8.109  -5.349  0.00  0.00    -0.061 A 
ATOM     17  C   LIG d   1       7.851  -9.110  -4.961  0.00  0.00    -0.060 A 
ATOM     18  C   LIG d   1       6.492  -8.880  -4.935  0.00  0.00    -0.040 A 
ATOM     19  C   LIG d   1       5.985  -7.635  -5.301  0.00  0.00     0.039 A 
ATOM     20  N   LIG d   1       4.671  -7.165  -5.357  0.00  0.00    -0.283 N 
ATOM     21  C   LIG d   1       4.606  -5.883  -5.768  0.00  0.00     0.243 A 
ATOM     22  O   LIG d   1       3.602  -5.218  -5.911  0.00  0.00    -0.273 OA
ATOM     23  H   LIG d   1       5.417  -4.473  -7.737  0.00  0.00     0.123 HD
ATOM     24  H   LIG d   1       8.905  -6.086  -6.019  0.00  0.00     0.062 H 
ATOM     25  H   LIG d   1       9.786  -8.294  -5.369  0.00  0.00     0.062 H 
ATOM     26  H   LIG d   1       8.237 -10.078  -4.676  0.00  0.00     0.062 H 
ATOM     27  H   LIG d   1       5.817  -9.666  -4.628  0.00  0.00     0.064 H 
ATOM     28  H   LIG d   1       3.894  -7.699  -5.127  0.00  0.00     0.155 HD
ENDROOT
BRANCH   1  29
ATOM     29  C   LIG d   1       4.349  -1.133  -5.633  0.00  0.00     0.049 C 
ATOM     30  H   LIG d   1       3.356  -1.572  -5.734  0.00  0.00     0.052 H 
ATOM     31  H   LIG d   1       4.541  -0.468  -6.475  0.00  0.00     0.052 H 
BRANCH  29  32
ATOM     32  C   LIG d   1       4.423  -0.350  -4.348  0.00  0.00    -0.011 A 
ATOM     33  C   LIG d   1       3.262   0.105  -3.747  0.00  0.00     0.046 A 
ATOM     34  C   LIG d   1       3.331   0.824  -2.567  0.00  0.00    -0.043 A 
ATOM     35 CL   LIG d   1       1.722  -0.226  -4.475  0.00  0.00    -0.083 Cl
ATOM     36  C   LIG d   1       4.558   1.087  -1.988  0.00  0.00    -0.060 A 
ATOM     37  H   LIG d   1       2.425   1.178  -2.098  0.00  0.00     0.063 H 
ATOM     38  C   LIG d   1       5.717   0.631  -2.588  0.00  0.00    -0.061 A 
ATOM     39  H   LIG d   1       4.611   1.647  -1.067  0.00  0.00     0.062 H 
ATOM     40  C   LIG d   1       5.650  -0.087  -3.767  0.00  0.00    -0.056 A 
ATOM     41  H   LIG d   1       6.676   0.840  -2.137  0.00  0.00     0.062 H 
ATOM     42  H   LIG d   1       6.556  -0.443  -4.235  0.00  0.00     0.062 H 
ENDBRANCH  29  32
ENDBRANCH   1  29
BRANCH   6  43
ATOM     43  C   LIG d   1       7.462  -3.191  -8.553  0.00  0.00    -0.032 C 
ATOM     44  H   LIG d   1       7.176  -2.194  -8.219  0.00  0.00     0.028 H 
ATOM     45  H   LIG d   1       8.468  -3.160  -8.972  0.00  0.00     0.028 H 
BRANCH  43  46
ATOM     46  C   LIG d   1       6.479  -3.672  -9.622  0.00  0.00    -0.012 C 
ATOM     47  H   LIG d   1       6.970  -3.669 -10.595  0.00  0.00     0.033 H 
ATOM     48  H   LIG d   1       6.149  -4.683  -9.385  0.00  0.00     0.033 H 
BRANCH  46  49
ATOM     49  C   LIG d   1       5.286  -2.751  -9.658  0.00  0.00     0.042 C 
ATOM     50  O   LIG d   1       4.333  -2.960  -8.929  0.00  0.00    -0.550 OA
ATOM     51  O   LIG d   1       5.277  -1.796 -10.417  0.00  0.00    -0.550 OA
ENDBRANCH  46  49
ENDBRANCH  43  46
ENDBRANCH   6  43
TORSDOF 5
ENDMDL
MODEL 7
REMARK VINA RESULT:      -6.6      3.995      6.616
REMARK  5 active torsions:
REMARK  status: ('A' for Active; 'I' for Inactive)
REMARK    1  A    between atoms: C_5  and  C_7 
REMARK    2  A    between atoms: C_7  and  N_8 
REMARK    3  A    between atoms: C_13  and  C_30 
REMARK    4  A    between atoms: C_30  and  C_31 
REMARK    5  A    between atoms: C_31  and  C_32 
ROOT
ATOM      1  N   LIG d   1       6.886  -4.468  -5.825  0.00  0.00    -0.237 N 
ATOM      2  C   LIG d   1       5.689  -4.372  -6.415  0.00  0.00     0.228 A 
ATOM      3  O   LIG d   1       5.363  -4.940  -7.435  0.00  0.00    -0.275 OA
ATOM      4  C   LIG d   1       4.807  -3.443  -5.613  0.00  0.00     0.065 A 
ATOM      5  H   LIG d   1       3.890  -3.925  -5.271  0.00  0.00     0.042 H 
ATOM      6  C   LIG d   1       4.533  -2.163  -6.431  0.00  0.00     0.021 C 
ATOM      7  H   LIG d   1       3.595  -1.705  -6.117  0.00  0.00     0.047 H 
ATOM      8  N   LIG d   1       5.677  -1.263  -6.125  0.00  0.00    -0.295 N 
ATOM      9  C   LIG d   1       5.936  -1.483  -4.691  0.00  0.00     0.136 A 
ATOM     10  C   LIG d   1       5.726  -2.998  -4.441  0.00  0.00     0.080 A 
ATOM     11  H   LIG d   1       5.300  -3.216  -3.462  0.00  0.00     0.043 H 
ATOM     12  C   LIG d   1       7.013  -3.746  -4.705  0.00  0.00     0.229 A 
ATOM     13  O   LIG d   1       8.006  -3.697  -4.013  0.00  0.00    -0.275 OA
ATOM     14  C   LIG d   1       5.023  -0.656  -3.831  0.00  0.00     0.003 A 
ATOM     15  C   LIG d   1       3.654  -0.578  -3.704  0.00  0.00    -0.055 A 
ATOM     16  C   LIG d   1       3.091   0.305  -2.800  0.00  0.00    -0.061 A 
ATOM     17  C   LIG d   1       3.908   1.110  -2.026  0.00  0.00    -0.060 A 
ATOM     18  C   LIG d   1       5.279   1.035  -2.150  0.00  0.00    -0.040 A 
ATOM     19  C   LIG d   1       5.854   0.148  -3.057  0.00  0.00     0.039 A 
ATOM     20  N   LIG d   1       7.193  -0.107  -3.361  0.00  0.00    -0.283 N 
ATOM     21  C   LIG d   1       7.327  -1.052  -4.311  0.00  0.00     0.243 A 
ATOM     22  O   LIG d   1       8.367  -1.474  -4.772  0.00  0.00    -0.273 OA
ATOM     23  H   LIG d   1       6.484  -1.503  -6.681  0.00  0.00     0.123 HD
ATOM     24  H   LIG d   1       3.019  -1.207  -4.310  0.00  0.00     0.062 H 
ATOM     25  H   LIG d   1       2.018   0.368  -2.701  0.00  0.00     0.062 H 
ATOM     26  H   LIG d   1       3.469   1.800  -1.321  0.00  0.00     0.062 H 
ATOM     27  H   LIG d   1       5.911   1.666  -1.541  0.00  0.00     0.064 H 
ATOM     28  H   LIG d   1       7.940   0.344  -2.937  0.00  0.00     0.155 HD
ENDROOT
BRANCH   1  29
ATOM     29  C   LIG d   1       7.967  -5.301  -6.358  0.00  0.00     0.049 C 
ATOM     30  H   LIG d   1       8.900  -4.737  -6.343  0.00  0.00     0.052 H 
ATOM     31  H   LIG d   1       7.732  -5.589  -7.383  0.00  0.00     0.052 H 
BRANCH  29  32
ATOM     32  C   LIG d   1       8.113  -6.537  -5.510  0.00  0.00    -0.011 A 
ATOM     33  C   LIG d   1       9.328  -6.828  -4.915  0.00  0.00     0.046 A 
ATOM     34  C   LIG d   1       9.462  -7.963  -4.136  0.00  0.00    -0.043 A 
ATOM     35 CL   LIG d   1      10.684  -5.769  -5.147  0.00  0.00    -0.083 Cl
ATOM     36  C   LIG d   1       8.383  -8.806  -3.951  0.00  0.00    -0.060 A 
ATOM     37  H   LIG d   1      10.410  -8.190  -3.671  0.00  0.00     0.063 H 
ATOM     38  C   LIG d   1       7.169  -8.515  -4.545  0.00  0.00    -0.061 A 
ATOM     39  H   LIG d   1       8.488  -9.691  -3.342  0.00  0.00     0.062 H 
ATOM     40  C   LIG d   1       7.034  -7.381  -5.324  0.00  0.00    -0.056 A 
ATOM     41  H   LIG d   1       6.327  -9.176  -4.404  0.00  0.00     0.062 H 
ATOM     42  H   LIG d   1       6.085  -7.154  -5.787  0.00  0.00     0.062 H 
ENDBRANCH  29  32
ENDBRANCH   1  29
BRANCH   6  43
ATOM     43  C   LIG d   1       4.492  -2.487  -7.926  0.00  0.00    -0.032 C 
ATOM     44  H   LIG d   1       5.357  -3.094  -8.190  0.00  0.00     0.028 H 
ATOM     45  H   LIG d   1       3.579  -3.037  -8.154  0.00  0.00     0.028 H 
BRANCH  43  46
ATOM     46  C   LIG d   1       4.518  -1.185  -8.730  0.00  0.00    -0.012 C 
ATOM     47  H   LIG d   1       5.477  -0.688  -8.586  0.00  0.00     0.033 H 
ATOM     48  H   LIG d   1       4.380  -1.409  -9.788  0.00  0.00     0.033 H 
BRANCH  46  49
ATOM     49  C   LIG d   1       3.407  -0.282  -8.259  0.00  0.00     0.042 C 
ATOM     50  O   LIG d   1       3.669   0.726  -7.627  0.00  0.00    -0.550 OA
ATOM     51  O   LIG d   1       2.247  -0.561  -8.512  0.00  0.00    -0.550 OA
ENDBRANCH  46  49
ENDBRANCH  43  46
ENDBRANCH   6  43
TORSDOF 5
ENDMDL
MODEL 8
REMARK VINA RESULT:      -6.4      4.755      6.822
REMARK  5 active torsions:
REMARK  status: ('A' for Active; 'I' for Inactive)
REMARK    1  A    between atoms: C_5  and  C_7 
REMARK    2  A    between atoms: C_7  and  N_8 
REMARK    3  A    between atoms: C_13  and  C_30 
REMARK    4  A    between atoms: C_30  and  C_31 
REMARK    5  A    between atoms: C_31  and  C_32 
ROOT
ATOM      1  N   LIG d   1       9.470  -3.118  -5.757  0.00  0.00    -0.237 N 
ATOM      2  C   LIG d   1       8.571  -4.090  -5.558  0.00  0.00     0.228 A 
ATOM      3  O   LIG d   1       8.569  -5.167  -6.112  0.00  0.00    -0.275 OA
ATOM      4  C   LIG d   1       7.558  -3.632  -4.534  0.00  0.00     0.065 A 
ATOM      5  H   LIG d   1       7.515  -4.288  -3.664  0.00  0.00     0.042 H 
ATOM      6  C   LIG d   1       6.183  -3.460  -5.215  0.00  0.00     0.021 C 
ATOM      7  H   LIG d   1       5.381  -3.579  -4.486  0.00  0.00     0.047 H 
ATOM      8  N   LIG d   1       6.194  -2.074  -5.752  0.00  0.00    -0.295 N 
ATOM      9  C   LIG d   1       6.888  -1.290  -4.715  0.00  0.00     0.136 A 
ATOM     10  C   LIG d   1       8.028  -2.194  -4.181  0.00  0.00     0.080 A 
ATOM     11  H   LIG d   1       8.219  -2.059  -3.116  0.00  0.00     0.043 H 
ATOM     12  C   LIG d   1       9.267  -2.014  -5.029  0.00  0.00     0.229 A 
ATOM     13  O   LIG d   1       9.964  -1.023  -5.050  0.00  0.00    -0.275 OA
ATOM     14  C   LIG d   1       5.953  -0.882  -3.612  0.00  0.00     0.003 A 
ATOM     15  C   LIG d   1       5.160  -1.586  -2.733  0.00  0.00    -0.055 A 
ATOM     16  C   LIG d   1       4.387  -0.911  -1.804  0.00  0.00    -0.061 A 
ATOM     17  C   LIG d   1       4.413   0.471  -1.763  0.00  0.00    -0.060 A 
ATOM     18  C   LIG d   1       5.206   1.180  -2.641  0.00  0.00    -0.040 A 
ATOM     19  C   LIG d   1       5.987   0.509  -3.579  0.00  0.00     0.039 A 
ATOM     20  N   LIG d   1       6.856   0.994  -4.558  0.00  0.00    -0.283 N 
ATOM     21  C   LIG d   1       7.426   0.002  -5.269  0.00  0.00     0.243 A 
ATOM     22  O   LIG d   1       8.218   0.125  -6.180  0.00  0.00    -0.273 OA
ATOM     23  H   LIG d   1       6.688  -2.031  -6.631  0.00  0.00     0.123 HD
ATOM     24  H   LIG d   1       5.141  -2.665  -2.768  0.00  0.00     0.062 H 
ATOM     25  H   LIG d   1       3.765  -1.462  -1.116  0.00  0.00     0.062 H 
ATOM     26  H   LIG d   1       3.810   0.998  -1.039  0.00  0.00     0.062 H 
ATOM     27  H   LIG d   1       5.222   2.260  -2.602  0.00  0.00     0.064 H 
ATOM     28  H   LIG d   1       7.029   1.936  -4.710  0.00  0.00     0.155 HD
ENDROOT
BRANCH   1  29
ATOM     29  C   LIG d   1      10.589  -3.256  -6.693  0.00  0.00     0.049 C 
ATOM     30  H   LIG d   1      10.706  -2.331  -7.258  0.00  0.00     0.052 H 
ATOM     31  H   LIG d   1      10.391  -4.079  -7.379  0.00  0.00     0.052 H 
BRANCH  29  32
ATOM     32  C   LIG d   1      11.854  -3.537  -5.924  0.00  0.00    -0.011 A 
ATOM     33  C   LIG d   1      12.927  -2.669  -6.016  0.00  0.00     0.046 A 
ATOM     34  C   LIG d   1      14.089  -2.928  -5.310  0.00  0.00    -0.043 A 
ATOM     35 CL   LIG d   1      12.817  -1.256  -7.017  0.00  0.00    -0.083 Cl
ATOM     36  C   LIG d   1      14.177  -4.053  -4.512  0.00  0.00    -0.060 A 
ATOM     37  H   LIG d   1      14.926  -2.249  -5.381  0.00  0.00     0.063 H 
ATOM     38  C   LIG d   1      13.104  -4.920  -4.420  0.00  0.00    -0.061 A 
ATOM     39  H   LIG d   1      15.083  -4.254  -3.960  0.00  0.00     0.062 H 
ATOM     40  C   LIG d   1      11.943  -4.663  -5.125  0.00  0.00    -0.056 A 
ATOM     41  H   LIG d   1      13.174  -5.801  -3.800  0.00  0.00     0.062 H 
ATOM     42  H   LIG d   1      11.106  -5.341  -5.052  0.00  0.00     0.062 H 
ENDBRANCH  29  32
ENDBRANCH   1  29
BRANCH   6  43
ATOM     43  C   LIG d   1       6.023  -4.473  -6.351  0.00  0.00    -0.032 C 
ATOM     44  H   LIG d   1       6.934  -4.496  -6.949  0.00  0.00     0.028 H 
ATOM     45  H   LIG d   1       5.839  -5.463  -5.932  0.00  0.00     0.028 H 
BRANCH  43  46
ATOM     46  C   LIG d   1       4.843  -4.065  -7.235  0.00  0.00    -0.012 C 
ATOM     47  H   LIG d   1       4.487  -3.080  -6.933  0.00  0.00     0.033 H 
ATOM     48  H   LIG d   1       5.163  -4.032  -8.276  0.00  0.00     0.033 H 
BRANCH  46  49
ATOM     49  C   LIG d   1       3.731  -5.071  -7.084  0.00  0.00     0.042 C 
ATOM     50  O   LIG d   1       3.332  -5.375  -5.973  0.00  0.00    -0.550 OA
ATOM     51  O   LIG d   1       3.230  -5.579  -8.073  0.00  0.00    -0.550 OA
ENDBRANCH  46  49
ENDBRANCH  43  46
ENDBRANCH   6  43
TORSDOF 5
ENDMDL
MODEL 9
REMARK VINA RESULT:      -6.4      2.456      6.465
REMARK  5 active torsions:
REMARK  status: ('A' for Active; 'I' for Inactive)
REMARK    1  A    between atoms: C_5  and  C_7 
REMARK    2  A    between atoms: C_7  and  N_8 
REMARK    3  A    between atoms: C_13  and  C_30 
REMARK    4  A    between atoms: C_30  and  C_31 
REMARK    5  A    between atoms: C_31  and  C_32 
ROOT
ATOM      1  N   LIG d   1       5.626  -1.877  -5.780  0.00  0.00    -0.237 N 
ATOM      2  C   LIG d   1       5.051  -3.079  -5.903  0.00  0.00     0.228 A 
ATOM      3  O   LIG d   1       5.218  -4.015  -5.153  0.00  0.00    -0.275 OA
ATOM      4  C   LIG d   1       4.163  -3.087  -7.126  0.00  0.00     0.065 A 
ATOM      5  H   LIG d   1       3.125  -3.322  -6.889  0.00  0.00     0.042 H 
ATOM      6  C   LIG d   1       4.758  -4.039  -8.185  0.00  0.00     0.021 C 
ATOM      7  H   LIG d   1       3.973  -4.413  -8.843  0.00  0.00     0.047 H 
ATOM      8  N   LIG d   1       5.721  -3.204  -8.951  0.00  0.00    -0.295 N 
ATOM      9  C   LIG d   1       5.054  -1.894  -9.062  0.00  0.00     0.136 A 
ATOM     10  C   LIG d   1       4.339  -1.657  -7.708  0.00  0.00     0.080 A 
ATOM     11  H   LIG d   1       3.395  -1.122  -7.810  0.00  0.00     0.043 H 
ATOM     12  C   LIG d   1       5.289  -0.999  -6.733  0.00  0.00     0.229 A 
ATOM     13  O   LIG d   1       5.686   0.143  -6.805  0.00  0.00    -0.275 OA
ATOM     14  C   LIG d   1       4.082  -1.865 -10.206  0.00  0.00     0.003 A 
ATOM     15  C   LIG d   1       2.963  -2.605 -10.519  0.00  0.00    -0.055 A 
ATOM     16  C   LIG d   1       2.254  -2.335 -11.676  0.00  0.00    -0.061 A 
ATOM     17  C   LIG d   1       2.672  -1.320 -12.517  0.00  0.00    -0.060 A 
ATOM     18  C   LIG d   1       3.791  -0.575 -12.208  0.00  0.00    -0.040 A 
ATOM     19  C   LIG d   1       4.511  -0.840 -11.045  0.00  0.00     0.039 A 
ATOM     20  N   LIG d   1       5.657  -0.238 -10.524  0.00  0.00    -0.283 N 
ATOM     21  C   LIG d   1       6.042  -0.798  -9.360  0.00  0.00     0.243 A 
ATOM     22  O   LIG d   1       6.999  -0.482  -8.685  0.00  0.00    -0.273 OA
ATOM     23  H   LIG d   1       6.599  -3.123  -8.460  0.00  0.00     0.123 HD
ATOM     24  H   LIG d   1       2.639  -3.398  -9.861  0.00  0.00     0.062 H 
ATOM     25  H   LIG d   1       1.378  -2.915 -11.922  0.00  0.00     0.062 H 
ATOM     26  H   LIG d   1       2.119  -1.108 -13.420  0.00  0.00     0.062 H 
ATOM     27  H   LIG d   1       4.111   0.218 -12.869  0.00  0.00     0.064 H 
ATOM     28  H   LIG d   1       6.123   0.499 -10.949  0.00  0.00     0.155 HD
ENDROOT
BRANCH   1  29
ATOM     29  C   LIG d   1       6.544  -1.546  -4.687  0.00  0.00     0.049 C 
ATOM     30  H   LIG d   1       7.366  -0.943  -5.074  0.00  0.00     0.052 H 
ATOM     31  H   LIG d   1       6.938  -2.465  -4.254  0.00  0.00     0.052 H 
BRANCH  29  32
ATOM     32  C   LIG d   1       5.805  -0.769  -3.629  0.00  0.00    -0.011 A 
ATOM     33  C   LIG d   1       6.148   0.547  -3.372  0.00  0.00     0.046 A 
ATOM     34  C   LIG d   1       5.470   1.261  -2.400  0.00  0.00    -0.043 A 
ATOM     35 CL   LIG d   1       7.429   1.301  -4.268  0.00  0.00    -0.083 Cl
ATOM     36  C   LIG d   1       4.450   0.660  -1.686  0.00  0.00    -0.060 A 
ATOM     37  H   LIG d   1       5.736   2.288  -2.200  0.00  0.00     0.063 H 
ATOM     38  C   LIG d   1       4.108  -0.654  -1.945  0.00  0.00    -0.061 A 
ATOM     39  H   LIG d   1       3.920   1.218  -0.929  0.00  0.00     0.062 H 
ATOM     40  C   LIG d   1       4.785  -1.369  -2.915  0.00  0.00    -0.056 A 
ATOM     41  H   LIG d   1       3.313  -1.125  -1.384  0.00  0.00     0.062 H 
ATOM     42  H   LIG d   1       4.516  -2.395  -3.116  0.00  0.00     0.062 H 
ENDBRANCH  29  32
ENDBRANCH   1  29
BRANCH   6  43
ATOM     43  C   LIG d   1       5.482  -5.204  -7.506  0.00  0.00    -0.032 C 
ATOM     44  H   LIG d   1       6.410  -5.413  -8.036  0.00  0.00     0.028 H 
ATOM     45  H   LIG d   1       5.706  -4.939  -6.473  0.00  0.00     0.028 H 
BRANCH  43  46
ATOM     46  C   LIG d   1       4.588  -6.445  -7.534  0.00  0.00    -0.012 C 
ATOM     47  H   LIG d   1       3.546  -6.144  -7.426  0.00  0.00     0.033 H 
ATOM     48  H   LIG d   1       4.719  -6.967  -8.482  0.00  0.00     0.033 H 
BRANCH  46  49
ATOM     49  C   LIG d   1       4.967  -7.362  -6.399  0.00  0.00     0.042 C 
ATOM     50  O   LIG d   1       5.986  -7.156  -5.764  0.00  0.00    -0.550 OA
ATOM     51  O   LIG d   1       4.252  -8.309  -6.118  0.00  0.00    -0.550 OA
ENDBRANCH  46  49
ENDBRANCH  43  46
ENDBRANCH   6  43
TORSDOF 5
ENDMDL
