MODEL 1
REMARK VINA RESULT:      -7.5      0.000      0.000
REMARK  6 active torsions:
REMARK  status: ('A' for Active; 'I' for Inactive)
REMARK    1  A    between atoms: C_1  and  C_2 
REMARK    2  A    between atoms: C_5  and  N_9 
REMARK    3  A    between atoms: C_6  and  C_8 
REMARK    4  A    between atoms: N_9  and  C_10 
REMARK    5  A    between atoms: C_12  and  C_21 
REMARK    6  A    between atoms: C_17  and  O_20 
ROOT
ATOM      1  C   LIG d   1       4.903  -3.896  -5.681  0.00  0.00     0.221 A 
ATOM      2  C   LIG d   1       4.708  -2.727  -6.463  0.00  0.00     0.053 A 
ATOM      3  C   LIG d   1       4.342  -2.849  -7.765  0.00  0.00     0.142 A 
ATOM      4  O   LIG d   1       4.152  -4.042  -8.354  0.00  0.00    -0.454 OA
ATOM      5  C   LIG d   1       4.312  -5.211  -7.694  0.00  0.00     0.142 A 
ATOM      6  C   LIG d   1       4.695  -5.201  -6.344  0.00  0.00     0.092 A 
ATOM      7  C   LIG d   1       4.867  -6.397  -5.655  0.00  0.00    -0.003 A 
ATOM      8  C   LIG d   1       4.663  -7.598  -6.311  0.00  0.00     0.118 A 
ATOM      9  C   LIG d   1       4.289  -7.607  -7.650  0.00  0.00    -0.017 A 
ATOM     10  C   LIG d   1       4.105  -6.424  -8.335  0.00  0.00    -0.015 A 
ATOM     11  H   LIG d   1       4.850  -1.750  -6.028  0.00  0.00     0.072 H 
ATOM     12  H   LIG d   1       5.159  -6.389  -4.615  0.00  0.00     0.066 H 
ATOM     13  H   LIG d   1       4.131  -8.548  -8.156  0.00  0.00     0.066 H 
ATOM     14  H   LIG d   1       3.813  -6.442  -9.376  0.00  0.00     0.066 H 
ENDROOT
BRANCH   1  15
ATOM     15  N   LIG d   1       5.260  -3.819  -4.407  0.00  0.00    -0.204 N 
ATOM     16  H   LIG d   1       5.639  -4.593  -3.962  0.00  0.00     0.454 HD
BRANCH  15  17
ATOM     17  C   LIG d   1       5.093  -2.651  -3.721  0.00  0.00     0.209 A 
ATOM     18  C   LIG d   1       3.842  -2.320  -3.193  0.00  0.00     0.010 A 
ATOM     19  C   LIG d   1       3.681  -1.139  -2.499  0.00  0.00    -0.053 A 
ATOM     20  H   LIG d   1       3.003  -2.987  -3.327  0.00  0.00     0.068 H 
ATOM     21  C   LIG d   1       4.754  -0.283  -2.325  0.00  0.00    -0.050 A 
ATOM     22  H   LIG d   1       2.715  -0.881  -2.090  0.00  0.00     0.062 H 
ATOM     23  C   LIG d   1       5.995  -0.602  -2.851  0.00  0.00    -0.050 A 
ATOM     24  C   LIG d   1       6.173  -1.781  -3.541  0.00  0.00     0.021 A 
ATOM     25  H   LIG d   1       6.827   0.074  -2.715  0.00  0.00     0.062 H 
BRANCH  21  26
ATOM     26  C   LIG d   1       4.570   1.006  -1.567  0.00  0.00    -0.040 C 
ATOM     27  H   LIG d   1       5.545   1.424  -1.319  0.00  0.00     0.028 H 
ATOM     28  H   LIG d   1       4.017   1.714  -2.184  0.00  0.00     0.028 H 
ATOM     29  H   LIG d   1       4.015   0.812  -0.650  0.00  0.00     0.028 H 
ENDBRANCH  21  26
BRANCH  24  30
ATOM     30  C   LIG d   1       7.526  -2.129  -4.105  0.00  0.00    -0.034 C 
ATOM     31  H   LIG d   1       8.294  -1.939  -3.355  0.00  0.00     0.028 H 
ATOM     32  H   LIG d   1       7.544  -3.183  -4.383  0.00  0.00     0.028 H 
ATOM     33  H   LIG d   1       7.721  -1.519  -4.987  0.00  0.00     0.028 H 
ENDBRANCH  24  30
ENDBRANCH  15  17
ENDBRANCH   1  15
BRANCH   3  34
ATOM     34  C   LIG d   1       4.145  -1.625  -8.564  0.00  0.00     0.021 A 
ATOM     35  C   LIG d   1       3.950  -0.397  -7.928  0.00  0.00    -0.005 A 
ATOM     36  C   LIG d   1       3.770   0.748  -8.680  0.00  0.00     0.167 A 
ATOM     37  H   LIG d   1       3.945  -0.341  -6.849  0.00  0.00     0.066 H 
ATOM     38  C   LIG d   1       3.771   0.674 -10.073  0.00  0.00     0.166 A 
ATOM     39  O   LIG d   1       3.567   2.047  -8.313  0.00  0.00    -0.453 OA
ATOM     40  C   LIG d   1       3.959  -0.548 -10.705  0.00  0.00    -0.015 A 
ATOM     41  O   LIG d   1       3.569   1.926 -10.575  0.00  0.00    -0.453 OA
ATOM     42  C   LIG d   1       4.145  -1.692  -9.960  0.00  0.00    -0.047 A 
ATOM     43  H   LIG d   1       3.960  -0.601 -11.784  0.00  0.00     0.066 H 
ATOM     44  H   LIG d   1       4.291  -2.641 -10.455  0.00  0.00     0.063 H 
ATOM     45  C   LIG d   1       3.854   2.828  -9.489  0.00  0.00     0.233 C 
ATOM     46  H   LIG d   1       3.204   3.702  -9.537  0.00  0.00     0.117 H 
ATOM     47  H   LIG d   1       4.902   3.127  -9.505  0.00  0.00     0.117 H 
ENDBRANCH   3  34
BRANCH   8  48
ATOM     48  O   LIG d   1       4.830  -8.773  -5.646  0.00  0.00    -0.507 OA
ATOM     49  H   LIG d   1       4.002  -9.181  -5.357  0.00  0.00     0.292 HD
ENDBRANCH   8  48
TORSDOF 6
ENDMDL
MODEL 2
REMARK VINA RESULT:      -7.4      2.554      7.114
REMARK  6 active torsions:
REMARK  status: ('A' for Active; 'I' for Inactive)
REMARK    1  A    between atoms: C_1  and  C_2 
REMARK    2  A    between atoms: C_5  and  N_9 
REMARK    3  A    between atoms: C_6  and  C_8 
REMARK    4  A    between atoms: N_9  and  C_10 
REMARK    5  A    between atoms: C_12  and  C_21 
REMARK    6  A    between atoms: C_17  and  O_20 
ROOT
ATOM      1  C   LIG d   1       5.801  -1.697  -5.747  0.00  0.00     0.221 A 
ATOM      2  C   LIG d   1       5.615  -2.995  -6.291  0.00  0.00     0.053 A 
ATOM      3  C   LIG d   1       4.967  -3.939  -5.560  0.00  0.00     0.142 A 
ATOM      4  O   LIG d   1       4.484  -3.695  -4.330  0.00  0.00    -0.454 OA
ATOM      5  C   LIG d   1       4.610  -2.492  -3.727  0.00  0.00     0.142 A 
ATOM      6  C   LIG d   1       5.270  -1.446  -4.390  0.00  0.00     0.092 A 
ATOM      7  C   LIG d   1       5.410  -0.204  -3.778  0.00  0.00    -0.003 A 
ATOM      8  C   LIG d   1       4.899  -0.009  -2.507  0.00  0.00     0.118 A 
ATOM      9  C   LIG d   1       4.250  -1.047  -1.848  0.00  0.00    -0.017 A 
ATOM     10  C   LIG d   1       4.098  -2.276  -2.455  0.00  0.00    -0.015 A 
ATOM     11  H   LIG d   1       5.987  -3.232  -7.276  0.00  0.00     0.072 H 
ATOM     12  H   LIG d   1       5.915   0.601  -4.291  0.00  0.00     0.066 H 
ATOM     13  H   LIG d   1       3.854  -0.887  -0.856  0.00  0.00     0.066 H 
ATOM     14  H   LIG d   1       3.592  -3.077  -1.934  0.00  0.00     0.066 H 
ENDROOT
BRANCH   1  15
ATOM     15  N   LIG d   1       6.429  -0.750  -6.428  0.00  0.00    -0.204 N 
ATOM     16  H   LIG d   1       7.382  -0.616  -6.306  0.00  0.00     0.454 HD
BRANCH  15  17
ATOM     17  C   LIG d   1       5.735   0.038  -7.299  0.00  0.00     0.209 A 
ATOM     18  C   LIG d   1       4.343  -0.065  -7.384  0.00  0.00     0.010 A 
ATOM     19  C   LIG d   1       3.649   0.736  -8.266  0.00  0.00    -0.053 A 
ATOM     20  H   LIG d   1       3.813  -0.770  -6.761  0.00  0.00     0.068 H 
ATOM     21  C   LIG d   1       4.326   1.640  -9.066  0.00  0.00    -0.050 A 
ATOM     22  H   LIG d   1       2.574   0.657  -8.334  0.00  0.00     0.062 H 
ATOM     23  C   LIG d   1       5.704   1.744  -8.991  0.00  0.00    -0.050 A 
ATOM     24  C   LIG d   1       6.412   0.955  -8.111  0.00  0.00     0.021 A 
ATOM     25  H   LIG d   1       6.226   2.449  -9.622  0.00  0.00     0.062 H 
BRANCH  21  26
ATOM     26  C   LIG d   1       3.559   2.511 -10.028  0.00  0.00    -0.040 C 
ATOM     27  H   LIG d   1       3.770   2.197 -11.049  0.00  0.00     0.028 H 
ATOM     28  H   LIG d   1       2.491   2.416  -9.831  0.00  0.00     0.028 H 
ATOM     29  H   LIG d   1       3.862   3.549  -9.898  0.00  0.00     0.028 H 
ENDBRANCH  21  26
BRANCH  24  30
ATOM     30  C   LIG d   1       7.911   1.075  -8.025  0.00  0.00    -0.034 C 
ATOM     31  H   LIG d   1       8.203   1.263  -6.992  0.00  0.00     0.028 H 
ATOM     32  H   LIG d   1       8.371   0.149  -8.369  0.00  0.00     0.028 H 
ATOM     33  H   LIG d   1       8.247   1.901  -8.653  0.00  0.00     0.028 H 
ENDBRANCH  24  30
ENDBRANCH  15  17
ENDBRANCH   1  15
BRANCH   3  34
ATOM     34  C   LIG d   1       4.783  -5.282  -6.140  0.00  0.00     0.021 A 
ATOM     35  C   LIG d   1       5.195  -6.414  -5.432  0.00  0.00    -0.005 A 
ATOM     36  C   LIG d   1       5.017  -7.671  -5.977  0.00  0.00     0.167 A 
ATOM     37  H   LIG d   1       5.649  -6.306  -4.457  0.00  0.00     0.066 H 
ATOM     38  C   LIG d   1       4.435  -7.808  -7.238  0.00  0.00     0.166 A 
ATOM     39  O   LIG d   1       5.323  -8.913  -5.501  0.00  0.00    -0.453 OA
ATOM     40  C   LIG d   1       4.031  -6.682  -7.943  0.00  0.00    -0.015 A 
ATOM     41  O   LIG d   1       4.379  -9.135  -7.548  0.00  0.00    -0.453 OA
ATOM     42  C   LIG d   1       4.201  -5.427  -7.402  0.00  0.00    -0.047 A 
ATOM     43  H   LIG d   1       3.580  -6.792  -8.919  0.00  0.00     0.066 H 
ATOM     44  H   LIG d   1       3.884  -4.553  -7.954  0.00  0.00     0.063 H 
ATOM     45  C   LIG d   1       4.552  -9.831  -6.300  0.00  0.00     0.233 C 
ATOM     46  H   LIG d   1       5.100 -10.760  -6.452  0.00  0.00     0.117 H 
ATOM     47  H   LIG d   1       3.586 -10.027  -5.834  0.00  0.00     0.117 H 
ENDBRANCH   3  34
BRANCH   8  48
ATOM     48  O   LIG d   1       5.032   1.202  -1.900  0.00  0.00    -0.507 OA
ATOM     49  H   LIG d   1       5.683   1.781  -2.320  0.00  0.00     0.292 HD
ENDBRANCH   8  48
TORSDOF 6
ENDMDL
MODEL 3
REMARK VINA RESULT:      -7.3      2.612      7.564
REMARK  6 active torsions:
REMARK  status: ('A' for Active; 'I' for Inactive)
REMARK    1  A    between atoms: C_1  and  C_2 
REMARK    2  A    between atoms: C_5  and  N_9 
REMARK    3  A    between atoms: C_6  and  C_8 
REMARK    4  A    between atoms: N_9  and  C_10 
REMARK    5  A    between atoms: C_12  and  C_21 
REMARK    6  A    between atoms: C_17  and  O_20 
ROOT
ATOM      1  C   LIG d   1       4.910  -1.647  -6.178  0.00  0.00     0.221 A 
ATOM      2  C   LIG d   1       5.237  -3.002  -6.448  0.00  0.00     0.053 A 
ATOM      3  C   LIG d   1       5.144  -3.922  -5.454  0.00  0.00     0.142 A 
ATOM      4  O   LIG d   1       4.750  -3.604  -4.209  0.00  0.00    -0.454 OA
ATOM      5  C   LIG d   1       4.417  -2.343  -3.853  0.00  0.00     0.142 A 
ATOM      6  C   LIG d   1       4.483  -1.312  -4.802  0.00  0.00     0.092 A 
ATOM      7  C   LIG d   1       4.148  -0.009  -4.447  0.00  0.00    -0.003 A 
ATOM      8  C   LIG d   1       3.754   0.264  -3.149  0.00  0.00     0.118 A 
ATOM      9  C   LIG d   1       3.693  -0.757  -2.208  0.00  0.00    -0.017 A 
ATOM     10  C   LIG d   1       4.013  -2.053  -2.558  0.00  0.00    -0.015 A 
ATOM     11  H   LIG d   1       5.557  -3.298  -7.435  0.00  0.00     0.072 H 
ATOM     12  H   LIG d   1       4.196   0.784  -5.179  0.00  0.00     0.066 H 
ATOM     13  H   LIG d   1       3.385  -0.537  -1.197  0.00  0.00     0.066 H 
ATOM     14  H   LIG d   1       3.963  -2.840  -1.819  0.00  0.00     0.066 H 
ENDROOT
BRANCH   1  15
ATOM     15  N   LIG d   1       4.988  -0.719  -7.120  0.00  0.00    -0.204 N 
ATOM     16  H   LIG d   1       5.632   0.001  -7.040  0.00  0.00     0.454 HD
BRANCH  15  17
ATOM     17  C   LIG d   1       4.161  -0.777  -8.204  0.00  0.00     0.209 A 
ATOM     18  C   LIG d   1       2.788  -0.560  -8.052  0.00  0.00     0.010 A 
ATOM     19  C   LIG d   1       1.958  -0.617  -9.152  0.00  0.00    -0.053 A 
ATOM     20  H   LIG d   1       2.378  -0.347  -7.076  0.00  0.00     0.068 H 
ATOM     21  C   LIG d   1       2.481  -0.890 -10.404  0.00  0.00    -0.050 A 
ATOM     22  H   LIG d   1       0.898  -0.451  -9.036  0.00  0.00     0.062 H 
ATOM     23  C   LIG d   1       3.839  -1.112 -10.562  0.00  0.00    -0.050 A 
ATOM     24  C   LIG d   1       4.682  -1.051  -9.473  0.00  0.00     0.021 A 
ATOM     25  H   LIG d   1       4.239  -1.328 -11.542  0.00  0.00     0.062 H 
BRANCH  21  26
ATOM     26  C   LIG d   1       1.568  -0.953 -11.601  0.00  0.00    -0.040 C 
ATOM     27  H   LIG d   1       1.218   0.050 -11.844  0.00  0.00     0.028 H 
ATOM     28  H   LIG d   1       2.112  -1.365 -12.451  0.00  0.00     0.028 H 
ATOM     29  H   LIG d   1       0.713  -1.589 -11.373  0.00  0.00     0.028 H 
ENDBRANCH  21  26
BRANCH  24  30
ATOM     30  C   LIG d   1       6.160  -1.285  -9.648  0.00  0.00    -0.034 C 
ATOM     31  H   LIG d   1       6.631  -1.380  -8.669  0.00  0.00     0.028 H 
ATOM     32  H   LIG d   1       6.319  -2.200 -10.218  0.00  0.00     0.028 H 
ATOM     33  H   LIG d   1       6.601  -0.444 -10.183  0.00  0.00     0.028 H 
ENDBRANCH  24  30
ENDBRANCH  15  17
ENDBRANCH   1  15
BRANCH   3  34
ATOM     34  C   LIG d   1       5.488  -5.325  -5.752  0.00  0.00     0.021 A 
ATOM     35  C   LIG d   1       4.598  -6.350  -5.422  0.00  0.00    -0.005 A 
ATOM     36  C   LIG d   1       4.922  -7.663  -5.706  0.00  0.00     0.167 A 
ATOM     37  H   LIG d   1       3.656  -6.116  -4.948  0.00  0.00     0.066 H 
ATOM     38  C   LIG d   1       6.142  -7.963  -6.313  0.00  0.00     0.166 A 
ATOM     39  O   LIG d   1       4.242  -8.827  -5.494  0.00  0.00    -0.453 OA
ATOM     40  C   LIG d   1       7.028  -6.944  -6.636  0.00  0.00    -0.015 A 
ATOM     41  O   LIG d   1       6.223  -9.314  -6.479  0.00  0.00    -0.453 OA
ATOM     42  C   LIG d   1       6.708  -5.633  -6.359  0.00  0.00    -0.047 A 
ATOM     43  H   LIG d   1       7.972  -7.181  -7.106  0.00  0.00     0.066 H 
ATOM     44  H   LIG d   1       7.400  -4.843  -6.612  0.00  0.00     0.063 H 
ATOM     45  C   LIG d   1       4.875  -9.801  -6.346  0.00  0.00     0.233 C 
ATOM     46  H   LIG d   1       4.867 -10.784  -5.875  0.00  0.00     0.117 H 
ATOM     47  H   LIG d   1       4.383  -9.838  -7.318  0.00  0.00     0.117 H 
ENDBRANCH   3  34
BRANCH   8  48
ATOM     48  O   LIG d   1       3.425   1.535  -2.792  0.00  0.00    -0.507 OA
ATOM     49  H   LIG d   1       3.807   1.818  -1.950  0.00  0.00     0.292 HD
ENDBRANCH   8  48
TORSDOF 6
ENDMDL
MODEL 4
REMARK VINA RESULT:      -7.3      2.541      7.290
REMARK  6 active torsions:
REMARK  status: ('A' for Active; 'I' for Inactive)
REMARK    1  A    between atoms: C_1  and  C_2 
REMARK    2  A    between atoms: C_5  and  N_9 
REMARK    3  A    between atoms: C_6  and  C_8 
REMARK    4  A    between atoms: N_9  and  C_10 
REMARK    5  A    between atoms: C_12  and  C_21 
REMARK    6  A    between atoms: C_17  and  O_20 
ROOT
ATOM      1  C   LIG d   1       5.167  -1.139  -5.793  0.00  0.00     0.221 A 
ATOM      2  C   LIG d   1       5.052  -2.418  -6.397  0.00  0.00     0.053 A 
ATOM      3  C   LIG d   1       4.683  -3.484  -5.641  0.00  0.00     0.142 A 
ATOM      4  O   LIG d   1       4.417  -3.381  -4.327  0.00  0.00    -0.454 OA
ATOM      5  C   LIG d   1       4.498  -2.207  -3.661  0.00  0.00     0.142 A 
ATOM      6  C   LIG d   1       4.876  -1.042  -4.346  0.00  0.00     0.092 A 
ATOM      7  C   LIG d   1       4.968   0.170  -3.670  0.00  0.00    -0.003 A 
ATOM      8  C   LIG d   1       4.689   0.220  -2.316  0.00  0.00     0.118 A 
ATOM      9  C   LIG d   1       4.319  -0.936  -1.637  0.00  0.00    -0.017 A 
ATOM     10  C   LIG d   1       4.215  -2.139  -2.304  0.00  0.00    -0.015 A 
ATOM     11  H   LIG d   1       5.256  -2.544  -7.450  0.00  0.00     0.072 H 
ATOM     12  H   LIG d   1       5.256   1.067  -4.199  0.00  0.00     0.066 H 
ATOM     13  H   LIG d   1       4.102  -0.890  -0.580  0.00  0.00     0.066 H 
ATOM     14  H   LIG d   1       3.926  -3.031  -1.767  0.00  0.00     0.066 H 
ENDROOT
BRANCH   1  15
ATOM     15  N   LIG d   1       5.524  -0.075  -6.496  0.00  0.00    -0.204 N 
ATOM     16  H   LIG d   1       6.031   0.637  -6.076  0.00  0.00     0.454 HD
BRANCH  15  17
ATOM     17  C   LIG d   1       5.178   0.020  -7.813  0.00  0.00     0.209 A 
ATOM     18  C   LIG d   1       6.127  -0.232  -8.809  0.00  0.00     0.010 A 
ATOM     19  C   LIG d   1       5.770  -0.135 -10.137  0.00  0.00    -0.053 A 
ATOM     20  H   LIG d   1       7.137  -0.502  -8.538  0.00  0.00     0.068 H 
ATOM     21  C   LIG d   1       4.476   0.211 -10.485  0.00  0.00    -0.050 A 
ATOM     22  H   LIG d   1       6.501  -0.329 -10.907  0.00  0.00     0.062 H 
ATOM     23  C   LIG d   1       3.532   0.467  -9.505  0.00  0.00    -0.050 A 
ATOM     24  C   LIG d   1       3.873   0.369  -8.173  0.00  0.00     0.021 A 
ATOM     25  H   LIG d   1       2.525   0.741  -9.785  0.00  0.00     0.062 H 
BRANCH  21  26
ATOM     26  C   LIG d   1       4.093   0.315 -11.939  0.00  0.00    -0.040 C 
ATOM     27  H   LIG d   1       3.722   1.318 -12.146  0.00  0.00     0.028 H 
ATOM     28  H   LIG d   1       4.968   0.116 -12.559  0.00  0.00     0.028 H 
ATOM     29  H   LIG d   1       3.315  -0.414 -12.164  0.00  0.00     0.028 H 
ENDBRANCH  21  26
BRANCH  24  30
ATOM     30  C   LIG d   1       2.842   0.641  -7.108  0.00  0.00    -0.034 C 
ATOM     31  H   LIG d   1       2.434   1.643  -7.243  0.00  0.00     0.028 H 
ATOM     32  H   LIG d   1       2.038  -0.091  -7.184  0.00  0.00     0.028 H 
ATOM     33  H   LIG d   1       3.307   0.568  -6.125  0.00  0.00     0.028 H 
ENDBRANCH  24  30
ENDBRANCH  15  17
ENDBRANCH   1  15
BRANCH   3  34
ATOM     34  C   LIG d   1       4.569  -4.805  -6.285  0.00  0.00     0.021 A 
ATOM     35  C   LIG d   1       5.027  -5.949  -5.626  0.00  0.00    -0.005 A 
ATOM     36  C   LIG d   1       4.914  -7.186  -6.232  0.00  0.00     0.167 A 
ATOM     37  H   LIG d   1       5.466  -5.866  -4.642  0.00  0.00     0.066 H 
ATOM     38  C   LIG d   1       4.352  -7.289  -7.504  0.00  0.00     0.166 A 
ATOM     39  O   LIG d   1       5.273  -8.433  -5.810  0.00  0.00    -0.453 OA
ATOM     40  C   LIG d   1       3.902  -6.152  -8.161  0.00  0.00    -0.015 A 
ATOM     41  O   LIG d   1       4.361  -8.601  -7.877  0.00  0.00    -0.453 OA
ATOM     42  C   LIG d   1       4.007  -4.917  -7.560  0.00  0.00    -0.047 A 
ATOM     43  H   LIG d   1       3.467  -6.236  -9.146  0.00  0.00     0.066 H 
ATOM     44  H   LIG d   1       3.655  -4.034  -8.074  0.00  0.00     0.063 H 
ATOM     45  C   LIG d   1       4.555  -9.347  -6.661  0.00  0.00     0.233 C 
ATOM     46  H   LIG d   1       5.148 -10.242  -6.850  0.00  0.00     0.117 H 
ATOM     47  H   LIG d   1       3.594  -9.610  -6.216  0.00  0.00     0.117 H 
ENDBRANCH   3  34
BRANCH   8  48
ATOM     48  O   LIG d   1       4.776   1.401  -1.646  0.00  0.00    -0.507 OA
ATOM     49  H   LIG d   1       3.922   1.826  -1.487  0.00  0.00     0.292 HD
ENDBRANCH   8  48
TORSDOF 6
ENDMDL
MODEL 5
REMARK VINA RESULT:      -7.2      5.065      7.508
REMARK  6 active torsions:
REMARK  status: ('A' for Active; 'I' for Inactive)
REMARK    1  A    between atoms: C_1  and  C_2 
REMARK    2  A    between atoms: C_5  and  N_9 
REMARK    3  A    between atoms: C_6  and  C_8 
REMARK    4  A    between atoms: N_9  and  C_10 
REMARK    5  A    between atoms: C_12  and  C_21 
REMARK    6  A    between atoms: C_17  and  O_20 
ROOT
ATOM      1  C   LIG d   1       7.474  -0.845  -4.519  0.00  0.00     0.221 A 
ATOM      2  C   LIG d   1       8.295   0.295  -4.726  0.00  0.00     0.053 A 
ATOM      3  C   LIG d   1       7.990   1.460  -4.100  0.00  0.00     0.142 A 
ATOM      4  O   LIG d   1       6.933   1.586  -3.280  0.00  0.00    -0.454 OA
ATOM      5  C   LIG d   1       6.092   0.560  -3.019  0.00  0.00     0.142 A 
ATOM      6  C   LIG d   1       6.311  -0.690  -3.619  0.00  0.00     0.092 A 
ATOM      7  C   LIG d   1       5.449  -1.752  -3.362  0.00  0.00    -0.003 A 
ATOM      8  C   LIG d   1       4.372  -1.567  -2.514  0.00  0.00     0.118 A 
ATOM      9  C   LIG d   1       4.153  -0.327  -1.924  0.00  0.00    -0.017 A 
ATOM     10  C   LIG d   1       5.010   0.726  -2.166  0.00  0.00    -0.015 A 
ATOM     11  H   LIG d   1       9.154   0.236  -5.377  0.00  0.00     0.072 H 
ATOM     12  H   LIG d   1       5.620  -2.714  -3.822  0.00  0.00     0.066 H 
ATOM     13  H   LIG d   1       3.310  -0.189  -1.263  0.00  0.00     0.066 H 
ATOM     14  H   LIG d   1       4.831   1.686  -1.702  0.00  0.00     0.066 H 
ENDROOT
BRANCH   1  15
ATOM     15  N   LIG d   1       7.737  -1.999  -5.113  0.00  0.00    -0.204 N 
ATOM     16  H   LIG d   1       7.176  -2.310  -5.841  0.00  0.00     0.454 HD
BRANCH  15  17
ATOM     17  C   LIG d   1       8.796  -2.753  -4.699  0.00  0.00     0.209 A 
ATOM     18  C   LIG d   1       8.767  -3.380  -3.449  0.00  0.00     0.010 A 
ATOM     19  C   LIG d   1       9.840  -4.141  -3.038  0.00  0.00    -0.053 A 
ATOM     20  H   LIG d   1       7.905  -3.269  -2.808  0.00  0.00     0.068 H 
ATOM     21  C   LIG d   1      10.946  -4.285  -3.859  0.00  0.00    -0.050 A 
ATOM     22  H   LIG d   1       9.820  -4.626  -2.073  0.00  0.00     0.062 H 
ATOM     23  C   LIG d   1      10.985  -3.663  -5.095  0.00  0.00    -0.050 A 
ATOM     24  C   LIG d   1       9.917  -2.904  -5.522  0.00  0.00     0.021 A 
ATOM     25  H   LIG d   1      11.853  -3.776  -5.728  0.00  0.00     0.062 H 
BRANCH  21  26
ATOM     26  C   LIG d   1      12.116  -5.118  -3.402  0.00  0.00    -0.040 C 
ATOM     27  H   LIG d   1      13.040  -4.562  -3.556  0.00  0.00     0.028 H 
ATOM     28  H   LIG d   1      12.003  -5.351  -2.343  0.00  0.00     0.028 H 
ATOM     29  H   LIG d   1      12.149  -6.044  -3.976  0.00  0.00     0.028 H 
ENDBRANCH  21  26
BRANCH  24  30
ATOM     30  C   LIG d   1       9.958  -2.233  -6.871  0.00  0.00    -0.034 C 
ATOM     31  H   LIG d   1      10.871  -1.643  -6.957  0.00  0.00     0.028 H 
ATOM     32  H   LIG d   1       9.941  -2.990  -7.655  0.00  0.00     0.028 H 
ATOM     33  H   LIG d   1       9.092  -1.580  -6.980  0.00  0.00     0.028 H 
ENDBRANCH  24  30
ENDBRANCH  15  17
ENDBRANCH   1  15
BRANCH   3  34
ATOM     34  C   LIG d   1       8.854   2.634  -4.326  0.00  0.00     0.021 A 
ATOM     35  C   LIG d   1       9.478   3.264  -3.246  0.00  0.00    -0.005 A 
ATOM     36  C   LIG d   1      10.289   4.361  -3.463  0.00  0.00     0.167 A 
ATOM     37  H   LIG d   1       9.328   2.892  -2.243  0.00  0.00     0.066 H 
ATOM     38  C   LIG d   1      10.477   4.844  -4.759  0.00  0.00     0.166 A 
ATOM     39  O   LIG d   1      11.003   5.141  -2.600  0.00  0.00    -0.453 OA
ATOM     40  C   LIG d   1       9.852   4.220  -5.831  0.00  0.00    -0.015 A 
ATOM     41  O   LIG d   1      11.307   5.925  -4.703  0.00  0.00    -0.453 OA
ATOM     42  C   LIG d   1       9.046   3.123  -5.621  0.00  0.00    -0.047 A 
ATOM     43  H   LIG d   1      10.000   4.597  -6.833  0.00  0.00     0.066 H 
ATOM     44  H   LIG d   1       8.562   2.640  -6.458  0.00  0.00     0.063 H 
ATOM     45  C   LIG d   1      11.952   5.851  -3.419  0.00  0.00     0.233 C 
ATOM     46  H   LIG d   1      12.130   6.850  -3.021  0.00  0.00     0.117 H 
ATOM     47  H   LIG d   1      12.887   5.295  -3.491  0.00  0.00     0.117 H 
ENDBRANCH   3  34
BRANCH   8  48
ATOM     48  O   LIG d   1       3.524  -2.599  -2.258  0.00  0.00    -0.507 OA
ATOM     49  H   LIG d   1       2.655  -2.323  -1.935  0.00  0.00     0.292 HD
ENDBRANCH   8  48
TORSDOF 6
ENDMDL
MODEL 6
REMARK VINA RESULT:      -7.2      5.772      8.245
REMARK  6 active torsions:
REMARK  status: ('A' for Active; 'I' for Inactive)
REMARK    1  A    between atoms: C_1  and  C_2 
REMARK    2  A    between atoms: C_5  and  N_9 
REMARK    3  A    between atoms: C_6  and  C_8 
REMARK    4  A    between atoms: N_9  and  C_10 
REMARK    5  A    between atoms: C_12  and  C_21 
REMARK    6  A    between atoms: C_17  and  O_20 
ROOT
ATOM      1  C   LIG d   1       8.440   1.233  -4.391  0.00  0.00     0.221 A 
ATOM      2  C   LIG d   1       8.813   2.468  -3.799  0.00  0.00     0.053 A 
ATOM      3  C   LIG d   1       9.151   3.515  -4.594  0.00  0.00     0.142 A 
ATOM      4  O   LIG d   1       9.147   3.435  -5.936  0.00  0.00    -0.454 OA
ATOM      5  C   LIG d   1       8.808   2.304  -6.594  0.00  0.00     0.142 A 
ATOM      6  C   LIG d   1       8.446   1.158  -5.868  0.00  0.00     0.092 A 
ATOM      7  C   LIG d   1       8.100  -0.013  -6.535  0.00  0.00    -0.003 A 
ATOM      8  C   LIG d   1       8.118  -0.043  -7.918  0.00  0.00     0.118 A 
ATOM      9  C   LIG d   1       8.481   1.091  -8.635  0.00  0.00    -0.017 A 
ATOM     10  C   LIG d   1       8.815   2.259  -7.981  0.00  0.00    -0.015 A 
ATOM     11  H   LIG d   1       8.828   2.574  -2.725  0.00  0.00     0.072 H 
ATOM     12  H   LIG d   1       7.818  -0.893  -5.975  0.00  0.00     0.066 H 
ATOM     13  H   LIG d   1       8.494   1.061  -9.715  0.00  0.00     0.066 H 
ATOM     14  H   LIG d   1       9.095   3.135  -8.548  0.00  0.00     0.066 H 
ENDROOT
BRANCH   1  15
ATOM     15  N   LIG d   1       8.104   0.188  -3.650  0.00  0.00    -0.204 N 
ATOM     16  H   LIG d   1       8.793  -0.381  -3.272  0.00  0.00     0.454 HD
BRANCH  15  17
ATOM     17  C   LIG d   1       6.788  -0.090  -3.419  0.00  0.00     0.209 A 
ATOM     18  C   LIG d   1       5.897   0.942  -3.106  0.00  0.00     0.010 A 
ATOM     19  C   LIG d   1       4.569   0.654  -2.875  0.00  0.00    -0.053 A 
ATOM     20  H   LIG d   1       6.248   1.961  -3.046  0.00  0.00     0.068 H 
ATOM     21  C   LIG d   1       4.117  -0.652  -2.951  0.00  0.00    -0.050 A 
ATOM     22  H   LIG d   1       3.879   1.449  -2.633  0.00  0.00     0.062 H 
ATOM     23  C   LIG d   1       4.994  -1.680  -3.254  0.00  0.00    -0.050 A 
ATOM     24  C   LIG d   1       6.323  -1.407  -3.494  0.00  0.00     0.021 A 
ATOM     25  H   LIG d   1       4.634  -2.697  -3.308  0.00  0.00     0.062 H 
BRANCH  21  26
ATOM     26  C   LIG d   1       2.663  -0.959  -2.696  0.00  0.00    -0.040 C 
ATOM     27  H   LIG d   1       2.228  -0.171  -2.083  0.00  0.00     0.028 H 
ATOM     28  H   LIG d   1       2.133  -1.016  -3.646  0.00  0.00     0.028 H 
ATOM     29  H   LIG d   1       2.579  -1.912  -2.174  0.00  0.00     0.028 H 
ENDBRANCH  21  26
BRANCH  24  30
ATOM     30  C   LIG d   1       7.275  -2.525  -3.832  0.00  0.00    -0.034 C 
ATOM     31  H   LIG d   1       7.111  -3.361  -3.151  0.00  0.00     0.028 H 
ATOM     32  H   LIG d   1       7.103  -2.853  -4.857  0.00  0.00     0.028 H 
ATOM     33  H   LIG d   1       8.302  -2.172  -3.732  0.00  0.00     0.028 H 
ENDBRANCH  24  30
ENDBRANCH  15  17
ENDBRANCH   1  15
BRANCH   3  34
ATOM     34  C   LIG d   1       9.535   4.791  -3.962  0.00  0.00     0.021 A 
ATOM     35  C   LIG d   1       9.938   4.817  -2.625  0.00  0.00    -0.005 A 
ATOM     36  C   LIG d   1      10.301   6.014  -2.037  0.00  0.00     0.167 A 
ATOM     37  H   LIG d   1       9.968   3.902  -2.051  0.00  0.00     0.066 H 
ATOM     38  C   LIG d   1      10.255   7.196  -2.778  0.00  0.00     0.166 A 
ATOM     39  O   LIG d   1      10.726   6.307  -0.774  0.00  0.00    -0.453 OA
ATOM     40  C   LIG d   1       9.850   7.169  -4.105  0.00  0.00    -0.015 A 
ATOM     41  O   LIG d   1      10.652   8.226  -1.977  0.00  0.00    -0.453 OA
ATOM     42  C   LIG d   1       9.492   5.978  -4.698  0.00  0.00    -0.047 A 
ATOM     43  H   LIG d   1       9.817   8.087  -4.676  0.00  0.00     0.066 H 
ATOM     44  H   LIG d   1       9.178   5.962  -5.732  0.00  0.00     0.063 H 
ATOM     45  C   LIG d   1      11.331   7.611  -0.866  0.00  0.00     0.233 C 
ATOM     46  H   LIG d   1      11.160   8.178   0.049  0.00  0.00     0.117 H 
ATOM     47  H   LIG d   1      12.399   7.525  -1.070  0.00  0.00     0.117 H 
ENDBRANCH   3  34
BRANCH   8  48
ATOM     48  O   LIG d   1       7.781  -1.184  -8.577  0.00  0.00    -0.507 OA
ATOM     49  H   LIG d   1       8.414  -1.906  -8.460  0.00  0.00     0.292 HD
ENDBRANCH   8  48
TORSDOF 6
ENDMDL
MODEL 7
REMARK VINA RESULT:      -7.1      3.584      6.868
REMARK  6 active torsions:
REMARK  status: ('A' for Active; 'I' for Inactive)
REMARK    1  A    between atoms: C_1  and  C_2 
REMARK    2  A    between atoms: C_5  and  N_9 
REMARK    3  A    between atoms: C_6  and  C_8 
REMARK    4  A    between atoms: N_9  and  C_10 
REMARK    5  A    between atoms: C_12  and  C_21 
REMARK    6  A    between atoms: C_17  and  O_20 
ROOT
ATOM      1  C   LIG d   1       6.798  -2.476  -4.058  0.00  0.00     0.221 A 
ATOM      2  C   LIG d   1       6.495  -3.617  -4.847  0.00  0.00     0.053 A 
ATOM      3  C   LIG d   1       5.198  -3.963  -5.050  0.00  0.00     0.142 A 
ATOM      4  O   LIG d   1       4.173  -3.264  -4.532  0.00  0.00    -0.454 OA
ATOM      5  C   LIG d   1       4.358  -2.165  -3.768  0.00  0.00     0.142 A 
ATOM      6  C   LIG d   1       5.660  -1.721  -3.490  0.00  0.00     0.092 A 
ATOM      7  C   LIG d   1       5.863  -0.594  -2.700  0.00  0.00    -0.003 A 
ATOM      8  C   LIG d   1       4.773   0.086  -2.187  0.00  0.00     0.118 A 
ATOM      9  C   LIG d   1       3.484  -0.357  -2.459  0.00  0.00    -0.017 A 
ATOM     10  C   LIG d   1       3.276  -1.468  -3.251  0.00  0.00    -0.015 A 
ATOM     11  H   LIG d   1       7.289  -4.204  -5.282  0.00  0.00     0.072 H 
ATOM     12  H   LIG d   1       6.866  -0.251  -2.489  0.00  0.00     0.066 H 
ATOM     13  H   LIG d   1       2.637   0.178  -2.055  0.00  0.00     0.066 H 
ATOM     14  H   LIG d   1       2.269  -1.803  -3.456  0.00  0.00     0.066 H 
ENDROOT
BRANCH   1  15
ATOM     15  N   LIG d   1       8.050  -2.106  -3.836  0.00  0.00    -0.204 N 
ATOM     16  H   LIG d   1       8.274  -1.165  -3.772  0.00  0.00     0.454 HD
BRANCH  15  17
ATOM     17  C   LIG d   1       9.027  -3.050  -3.699  0.00  0.00     0.209 A 
ATOM     18  C   LIG d   1       9.066  -3.860  -2.560  0.00  0.00     0.010 A 
ATOM     19  C   LIG d   1      10.055  -4.812  -2.430  0.00  0.00    -0.053 A 
ATOM     20  H   LIG d   1       8.324  -3.741  -1.785  0.00  0.00     0.068 H 
ATOM     21  C   LIG d   1      11.007  -4.966  -3.422  0.00  0.00    -0.050 A 
ATOM     22  H   LIG d   1      10.087  -5.438  -1.551  0.00  0.00     0.062 H 
ATOM     23  C   LIG d   1      10.978  -4.164  -4.550  0.00  0.00    -0.050 A 
ATOM     24  C   LIG d   1       9.992  -3.212  -4.698  0.00  0.00     0.021 A 
ATOM     25  H   LIG d   1      11.727  -4.288  -5.319  0.00  0.00     0.062 H 
BRANCH  21  26
ATOM     26  C   LIG d   1      12.085  -6.009  -3.272  0.00  0.00    -0.040 C 
ATOM     27  H   LIG d   1      13.058  -5.554  -3.456  0.00  0.00     0.028 H 
ATOM     28  H   LIG d   1      12.059  -6.414  -2.260  0.00  0.00     0.028 H 
ATOM     29  H   LIG d   1      11.917  -6.811  -3.989  0.00  0.00     0.028 H 
ENDBRANCH  21  26
BRANCH  24  30
ATOM     30  C   LIG d   1       9.957  -2.345  -5.930  0.00  0.00    -0.034 C 
ATOM     31  H   LIG d   1      10.737  -1.586  -5.863  0.00  0.00     0.028 H 
ATOM     32  H   LIG d   1      10.126  -2.961  -6.813  0.00  0.00     0.028 H 
ATOM     33  H   LIG d   1       8.984  -1.860  -6.007  0.00  0.00     0.028 H 
ENDBRANCH  24  30
ENDBRANCH  15  17
ENDBRANCH   1  15
BRANCH   3  34
ATOM     34  C   LIG d   1       4.901  -5.150  -5.873  0.00  0.00     0.021 A 
ATOM     35  C   LIG d   1       4.017  -5.054  -6.950  0.00  0.00    -0.005 A 
ATOM     36  C   LIG d   1       3.744  -6.168  -7.721  0.00  0.00     0.167 A 
ATOM     37  H   LIG d   1       3.549  -4.108  -7.183  0.00  0.00     0.066 H 
ATOM     38  C   LIG d   1       4.345  -7.390  -7.416  0.00  0.00     0.166 A 
ATOM     39  O   LIG d   1       2.937  -6.338  -8.808  0.00  0.00    -0.453 OA
ATOM     40  C   LIG d   1       5.220  -7.486  -6.342  0.00  0.00    -0.015 A 
ATOM     41  O   LIG d   1       3.912  -8.322  -8.313  0.00  0.00    -0.453 OA
ATOM     42  C   LIG d   1       5.499  -6.377  -5.573  0.00  0.00    -0.047 A 
ATOM     43  H   LIG d   1       5.683  -8.434  -6.109  0.00  0.00     0.066 H 
ATOM     44  H   LIG d   1       6.180  -6.456  -4.738  0.00  0.00     0.063 H 
ATOM     45  C   LIG d   1       3.364  -7.574  -9.414  0.00  0.00     0.233 C 
ATOM     46  H   LIG d   1       2.516  -8.100  -9.850  0.00  0.00     0.117 H 
ATOM     47  H   LIG d   1       4.129  -7.387 -10.168  0.00  0.00     0.117 H 
ENDBRANCH   3  34
BRANCH   8  48
ATOM     48  O   LIG d   1       4.962   1.189  -1.414  0.00  0.00    -0.507 OA
ATOM     49  H   LIG d   1       5.843   1.243  -1.017  0.00  0.00     0.292 HD
ENDBRANCH   8  48
TORSDOF 6
ENDMDL
MODEL 8
REMARK VINA RESULT:      -6.9      3.444      6.799
REMARK  6 active torsions:
REMARK  status: ('A' for Active; 'I' for Inactive)
REMARK    1  A    between atoms: C_1  and  C_2 
REMARK    2  A    between atoms: C_5  and  N_9 
REMARK    3  A    between atoms: C_6  and  C_8 
REMARK    4  A    between atoms: N_9  and  C_10 
REMARK    5  A    between atoms: C_12  and  C_21 
REMARK    6  A    between atoms: C_17  and  O_20 
ROOT
ATOM      1  C   LIG d   1       6.759  -2.200  -4.097  0.00  0.00     0.221 A 
ATOM      2  C   LIG d   1       6.491  -3.372  -4.851  0.00  0.00     0.053 A 
ATOM      3  C   LIG d   1       5.211  -3.805  -4.980  0.00  0.00     0.142 A 
ATOM      4  O   LIG d   1       4.171  -3.164  -4.420  0.00  0.00    -0.454 OA
ATOM      5  C   LIG d   1       4.323  -2.040  -3.684  0.00  0.00     0.142 A 
ATOM      6  C   LIG d   1       5.605  -1.508  -3.482  0.00  0.00     0.092 A 
ATOM      7  C   LIG d   1       5.775  -0.355  -2.723  0.00  0.00    -0.003 A 
ATOM      8  C   LIG d   1       4.670   0.263  -2.164  0.00  0.00     0.118 A 
ATOM      9  C   LIG d   1       3.400  -0.268  -2.361  0.00  0.00    -0.017 A 
ATOM     10  C   LIG d   1       3.225  -1.405  -3.122  0.00  0.00    -0.015 A 
ATOM     11  H   LIG d   1       7.299  -3.916  -5.318  0.00  0.00     0.072 H 
ATOM     12  H   LIG d   1       6.762   0.056  -2.571  0.00  0.00     0.066 H 
ATOM     13  H   LIG d   1       2.542   0.219  -1.921  0.00  0.00     0.066 H 
ATOM     14  H   LIG d   1       2.233  -1.809  -3.269  0.00  0.00     0.066 H 
ENDROOT
BRANCH   1  15
ATOM     15  N   LIG d   1       7.994  -1.745  -3.948  0.00  0.00    -0.204 N 
ATOM     16  H   LIG d   1       8.422  -1.779  -3.078  0.00  0.00     0.454 HD
BRANCH  15  17
ATOM     17  C   LIG d   1       8.665  -1.226  -5.017  0.00  0.00     0.209 A 
ATOM     18  C   LIG d   1       8.163  -0.105  -5.684  0.00  0.00     0.010 A 
ATOM     19  C   LIG d   1       8.847   0.415  -6.763  0.00  0.00    -0.053 A 
ATOM     20  H   LIG d   1       7.243   0.354  -5.355  0.00  0.00     0.068 H 
ATOM     21  C   LIG d   1      10.026  -0.172  -7.187  0.00  0.00    -0.050 A 
ATOM     22  H   LIG d   1       8.461   1.281  -7.280  0.00  0.00     0.062 H 
ATOM     23  C   LIG d   1      10.527  -1.287  -6.535  0.00  0.00    -0.050 A 
ATOM     24  C   LIG d   1       9.858  -1.813  -5.451  0.00  0.00     0.021 A 
ATOM     25  H   LIG d   1      11.446  -1.741  -6.874  0.00  0.00     0.062 H 
BRANCH  21  26
ATOM     26  C   LIG d   1      10.767   0.401  -8.368  0.00  0.00    -0.040 C 
ATOM     27  H   LIG d   1      10.071   0.949  -9.002  0.00  0.00     0.028 H 
ATOM     28  H   LIG d   1      11.547   1.076  -8.014  0.00  0.00     0.028 H 
ATOM     29  H   LIG d   1      11.219  -0.408  -8.940  0.00  0.00     0.028 H 
ENDBRANCH  21  26
BRANCH  24  30
ATOM     30  C   LIG d   1      10.408  -3.022  -4.739  0.00  0.00    -0.034 C 
ATOM     31  H   LIG d   1       9.633  -3.455  -4.106  0.00  0.00     0.028 H 
ATOM     32  H   LIG d   1      10.733  -3.760  -5.472  0.00  0.00     0.028 H 
ATOM     33  H   LIG d   1      11.256  -2.726  -4.121  0.00  0.00     0.028 H 
ENDBRANCH  24  30
ENDBRANCH  15  17
ENDBRANCH   1  15
BRANCH   3  34
ATOM     34  C   LIG d   1       4.951  -5.025  -5.767  0.00  0.00     0.021 A 
ATOM     35  C   LIG d   1       4.079  -4.984  -6.857  0.00  0.00    -0.005 A 
ATOM     36  C   LIG d   1       3.841  -6.128  -7.594  0.00  0.00     0.167 A 
ATOM     37  H   LIG d   1       3.594  -4.056  -7.127  0.00  0.00     0.066 H 
ATOM     38  C   LIG d   1       4.464  -7.326  -7.241  0.00  0.00     0.166 A 
ATOM     39  O   LIG d   1       3.052  -6.352  -8.685  0.00  0.00    -0.453 OA
ATOM     40  C   LIG d   1       5.325  -7.368  -6.154  0.00  0.00    -0.015 A 
ATOM     41  O   LIG d   1       4.063  -8.296  -8.112  0.00  0.00    -0.453 OA
ATOM     42  C   LIG d   1       5.571  -6.229  -5.419  0.00  0.00    -0.047 A 
ATOM     43  H   LIG d   1       5.806  -8.297  -5.884  0.00  0.00     0.066 H 
ATOM     44  H   LIG d   1       6.243  -6.265  -4.573  0.00  0.00     0.063 H 
ATOM     45  C   LIG d   1       3.513  -7.597  -9.244  0.00  0.00     0.233 C 
ATOM     46  H   LIG d   1       2.682  -8.156  -9.673  0.00  0.00     0.117 H 
ATOM     47  H   LIG d   1       4.284  -7.418  -9.994  0.00  0.00     0.117 H 
ENDBRANCH   3  34
BRANCH   8  48
ATOM     48  O   LIG d   1       4.826   1.390  -1.419  0.00  0.00    -0.507 OA
ATOM     49  H   LIG d   1       4.617   2.206  -1.895  0.00  0.00     0.292 HD
ENDBRANCH   8  48
TORSDOF 6
ENDMDL
MODEL 9
REMARK VINA RESULT:      -6.8      6.559      9.531
REMARK  6 active torsions:
REMARK  status: ('A' for Active; 'I' for Inactive)
REMARK    1  A    between atoms: C_1  and  C_2 
REMARK    2  A    between atoms: C_5  and  N_9 
REMARK    3  A    between atoms: C_6  and  C_8 
REMARK    4  A    between atoms: N_9  and  C_10 
REMARK    5  A    between atoms: C_12  and  C_21 
REMARK    6  A    between atoms: C_17  and  O_20 
ROOT
ATOM      1  C   LIG d   1       9.502   1.670  -4.352  0.00  0.00     0.221 A 
ATOM      2  C   LIG d   1       9.427   2.888  -3.626  0.00  0.00     0.053 A 
ATOM      3  C   LIG d   1      10.541   3.373  -3.020  0.00  0.00     0.142 A 
ATOM      4  O   LIG d   1      11.728   2.745  -3.078  0.00  0.00    -0.454 OA
ATOM      5  C   LIG d   1      11.900   1.582  -3.744  0.00  0.00     0.142 A 
ATOM      6  C   LIG d   1      10.813   0.988  -4.402  0.00  0.00     0.092 A 
ATOM      7  C   LIG d   1      10.977  -0.212  -5.087  0.00  0.00    -0.003 A 
ATOM      8  C   LIG d   1      12.220  -0.820  -5.110  0.00  0.00     0.118 A 
ATOM      9  C   LIG d   1      13.296  -0.233  -4.453  0.00  0.00    -0.017 A 
ATOM     10  C   LIG d   1      13.141   0.962  -3.782  0.00  0.00    -0.015 A 
ATOM     11  H   LIG d   1       8.493   3.424  -3.556  0.00  0.00     0.072 H 
ATOM     12  H   LIG d   1      10.140  -0.666  -5.596  0.00  0.00     0.066 H 
ATOM     13  H   LIG d   1      14.263  -0.713  -4.475  0.00  0.00     0.066 H 
ATOM     14  H   LIG d   1      13.985   1.410  -3.275  0.00  0.00     0.066 H 
ENDROOT
BRANCH   1  15
ATOM     15  N   LIG d   1       8.438   1.164  -4.957  0.00  0.00    -0.204 N 
ATOM     16  H   LIG d   1       8.364   1.203  -5.923  0.00  0.00     0.454 HD
BRANCH  15  17
ATOM     17  C   LIG d   1       7.443   0.588  -4.221  0.00  0.00     0.209 A 
ATOM     18  C   LIG d   1       6.613   1.379  -3.421  0.00  0.00     0.010 A 
ATOM     19  C   LIG d   1       5.609   0.790  -2.682  0.00  0.00    -0.053 A 
ATOM     20  H   LIG d   1       6.756   2.449  -3.384  0.00  0.00     0.068 H 
ATOM     21  C   LIG d   1       5.424  -0.581  -2.728  0.00  0.00    -0.050 A 
ATOM     22  H   LIG d   1       4.967   1.399  -2.063  0.00  0.00     0.062 H 
ATOM     23  C   LIG d   1       6.246  -1.371  -3.513  0.00  0.00    -0.050 A 
ATOM     24  C   LIG d   1       7.249  -0.797  -4.263  0.00  0.00     0.021 A 
ATOM     25  H   LIG d   1       6.097  -2.441  -3.541  0.00  0.00     0.062 H 
BRANCH  21  26
ATOM     26  C   LIG d   1       4.326  -1.217  -1.915  0.00  0.00    -0.040 C 
ATOM     27  H   LIG d   1       4.670  -2.174  -1.525  0.00  0.00     0.028 H 
ATOM     28  H   LIG d   1       4.061  -0.560  -1.087  0.00  0.00     0.028 H 
ATOM     29  H   LIG d   1       3.452  -1.376  -2.547  0.00  0.00     0.028 H 
ENDBRANCH  21  26
BRANCH  24  30
ATOM     30  C   LIG d   1       8.138  -1.658  -5.122  0.00  0.00    -0.034 C 
ATOM     31  H   LIG d   1       8.582  -1.050  -5.911  0.00  0.00     0.028 H 
ATOM     32  H   LIG d   1       8.929  -2.091  -4.509  0.00  0.00     0.028 H 
ATOM     33  H   LIG d   1       7.548  -2.458  -5.570  0.00  0.00     0.028 H 
ENDBRANCH  24  30
ENDBRANCH  15  17
ENDBRANCH   1  15
BRANCH   3  34
ATOM     34  C   LIG d   1      10.445   4.640  -2.270  0.00  0.00     0.021 A 
ATOM     35  C   LIG d   1      11.147   4.800  -1.073  0.00  0.00    -0.005 A 
ATOM     36  C   LIG d   1      11.058   5.990  -0.375  0.00  0.00     0.167 A 
ATOM     37  H   LIG d   1      11.762   3.996  -0.694  0.00  0.00     0.066 H 
ATOM     38  C   LIG d   1      10.259   7.025  -0.862  0.00  0.00     0.166 A 
ATOM     39  O   LIG d   1      11.634   6.396   0.794  0.00  0.00    -0.453 OA
ATOM     40  C   LIG d   1       9.558   6.862  -2.049  0.00  0.00    -0.015 A 
ATOM     41  O   LIG d   1      10.336   8.076   0.003  0.00  0.00    -0.453 OA
ATOM     42  C   LIG d   1       9.647   5.681  -2.751  0.00  0.00    -0.047 A 
ATOM     43  H   LIG d   1       8.941   7.667  -2.424  0.00  0.00     0.066 H 
ATOM     44  H   LIG d   1       9.100   5.558  -3.675  0.00  0.00     0.063 H 
ATOM     45  C   LIG d   1      11.506   7.831   0.806  0.00  0.00     0.233 C 
ATOM     46  H   LIG d   1      11.355   8.194   1.823  0.00  0.00     0.117 H 
ATOM     47  H   LIG d   1      12.383   8.298   0.358  0.00  0.00     0.117 H 
ENDBRANCH   3  34
BRANCH   8  48
ATOM     48  O   LIG d   1      12.390  -1.994  -5.776  0.00  0.00    -0.507 OA
ATOM     49  H   LIG d   1      11.930  -2.743  -5.373  0.00  0.00     0.292 HD
ENDBRANCH   8  48
TORSDOF 6
ENDMDL
MODEL 10
REMARK VINA RESULT:      -6.7      3.475      5.302
REMARK  6 active torsions:
REMARK  status: ('A' for Active; 'I' for Inactive)
REMARK    1  A    between atoms: C_1  and  C_2 
REMARK    2  A    between atoms: C_5  and  N_9 
REMARK    3  A    between atoms: C_6  and  C_8 
REMARK    4  A    between atoms: N_9  and  C_10 
REMARK    5  A    between atoms: C_12  and  C_21 
REMARK    6  A    between atoms: C_17  and  O_20 
ROOT
ATOM      1  C   LIG d   1       4.314  -0.611  -7.539  0.00  0.00     0.221 A 
ATOM      2  C   LIG d   1       5.499   0.163  -7.435  0.00  0.00     0.053 A 
ATOM      3  C   LIG d   1       5.949   0.846  -8.519  0.00  0.00     0.142 A 
ATOM      4  O   LIG d   1       5.312   0.822  -9.703  0.00  0.00    -0.454 OA
ATOM      5  C   LIG d   1       4.177   0.116  -9.902  0.00  0.00     0.142 A 
ATOM      6  C   LIG d   1       3.628  -0.631  -8.849  0.00  0.00     0.092 A 
ATOM      7  C   LIG d   1       2.463  -1.366  -9.044  0.00  0.00    -0.003 A 
ATOM      8  C   LIG d   1       1.851  -1.360 -10.284  0.00  0.00     0.118 A 
ATOM      9  C   LIG d   1       2.398  -0.623 -11.328  0.00  0.00    -0.017 A 
ATOM     10  C   LIG d   1       3.547   0.117 -11.138  0.00  0.00    -0.015 A 
ATOM     11  H   LIG d   1       6.040   0.209  -6.502  0.00  0.00     0.072 H 
ATOM     12  H   LIG d   1       2.039  -1.939  -8.231  0.00  0.00     0.066 H 
ATOM     13  H   LIG d   1       1.916  -0.623 -12.295  0.00  0.00     0.066 H 
ATOM     14  H   LIG d   1       3.964   0.686 -11.957  0.00  0.00     0.066 H 
ENDROOT
BRANCH   1  15
ATOM     15  N   LIG d   1       3.844  -1.292  -6.504  0.00  0.00    -0.204 N 
ATOM     16  H   LIG d   1       3.377  -2.130  -6.647  0.00  0.00     0.454 HD
BRANCH  15  17
ATOM     17  C   LIG d   1       4.015  -0.813  -5.238  0.00  0.00     0.209 A 
ATOM     18  C   LIG d   1       3.235   0.254  -4.780  0.00  0.00     0.010 A 
ATOM     19  C   LIG d   1       3.412   0.731  -3.498  0.00  0.00    -0.053 A 
ATOM     20  H   LIG d   1       2.496   0.702  -5.427  0.00  0.00     0.068 H 
ATOM     21  C   LIG d   1       4.359   0.159  -2.667  0.00  0.00    -0.050 A 
ATOM     22  H   LIG d   1       2.812   1.555  -3.143  0.00  0.00     0.062 H 
ATOM     23  C   LIG d   1       5.139  -0.894  -3.116  0.00  0.00    -0.050 A 
ATOM     24  C   LIG d   1       4.969  -1.387  -4.392  0.00  0.00     0.021 A 
ATOM     25  H   LIG d   1       5.878  -1.333  -2.462  0.00  0.00     0.062 H 
BRANCH  21  26
ATOM     26  C   LIG d   1       4.547   0.687  -1.268  0.00  0.00    -0.040 C 
ATOM     27  H   LIG d   1       4.717  -0.144  -0.585  0.00  0.00     0.028 H 
ATOM     28  H   LIG d   1       5.407   1.357  -1.247  0.00  0.00     0.028 H 
ATOM     29  H   LIG d   1       3.654   1.232  -0.963  0.00  0.00     0.028 H 
ENDBRANCH  21  26
BRANCH  24  30
ATOM     30  C   LIG d   1       5.813  -2.537  -4.876  0.00  0.00    -0.034 C 
ATOM     31  H   LIG d   1       5.705  -2.638  -5.956  0.00  0.00     0.028 H 
ATOM     32  H   LIG d   1       6.858  -2.350  -4.632  0.00  0.00     0.028 H 
ATOM     33  H   LIG d   1       5.487  -3.458  -4.391  0.00  0.00     0.028 H 
ENDBRANCH  24  30
ENDBRANCH  15  17
ENDBRANCH   1  15
BRANCH   3  34
ATOM     34  C   LIG d   1       7.182   1.645  -8.394  0.00  0.00     0.021 A 
ATOM     35  C   LIG d   1       7.447   2.672  -9.302  0.00  0.00    -0.005 A 
ATOM     36  C   LIG d   1       8.602   3.421  -9.179  0.00  0.00     0.167 A 
ATOM     37  H   LIG d   1       6.748   2.883 -10.099  0.00  0.00     0.066 H 
ATOM     38  C   LIG d   1       9.505   3.144  -8.152  0.00  0.00     0.166 A 
ATOM     39  O   LIG d   1       9.086   4.461  -9.917  0.00  0.00    -0.453 OA
ATOM     40  C   LIG d   1       9.243   2.120  -7.253  0.00  0.00    -0.015 A 
ATOM     41  O   LIG d   1      10.554   4.011  -8.251  0.00  0.00    -0.453 OA
ATOM     42  C   LIG d   1       8.092   1.373  -7.368  0.00  0.00    -0.047 A 
ATOM     43  H   LIG d   1       9.945   1.908  -6.459  0.00  0.00     0.066 H 
ATOM     44  H   LIG d   1       7.891   0.576  -6.666  0.00  0.00     0.063 H 
ATOM     45  C   LIG d   1      10.090   5.083  -9.092  0.00  0.00     0.233 C 
ATOM     46  H   LIG d   1      10.904   5.470  -9.705  0.00  0.00     0.117 H 
ATOM     47  H   LIG d   1       9.651   5.880  -8.490  0.00  0.00     0.117 H 
ENDBRANCH   3  34
BRANCH   8  48
ATOM     48  O   LIG d   1       0.712  -2.077 -10.484  0.00  0.00    -0.507 OA
ATOM     49  H   LIG d   1       0.766  -2.702 -11.220  0.00  0.00     0.292 HD
ENDBRANCH   8  48
TORSDOF 6
ENDMDL
