MODEL 1
REMARK VINA RESULT:      -5.5      0.000      0.000
REMARK  8 active torsions:
REMARK  status: ('A' for Active; 'I' for Inactive)
REMARK    1  A    between atoms: C_1  and  C_2 
REMARK    2  A    between atoms: C_5  and  C_8 
REMARK    3  A    between atoms: C_8  and  C_18 
REMARK    4  A    between atoms: C_12  and  C_15 
REMARK    5  A    between atoms: C_15  and  C_16 
REMARK    6  A    between atoms: C_15  and  C_17 
REMARK    7  A    between atoms: C_18  and  C_19 
REMARK    8  A    between atoms: C_19  and  N_20 
ROOT
ATOM      1  C   LIG d   1       5.031  -1.376  -6.142  0.00  0.00     0.005 C 
ATOM      2  C   LIG d   1       4.693  -2.793  -6.617  0.00  0.00    -0.019 C 
ATOM      3  C   LIG d   1       5.014  -3.788  -5.500  0.00  0.00     0.049 C 
ATOM      4  O   LIG d   1       4.277  -3.438  -4.326  0.00  0.00    -0.376 OA
ATOM      5  C   LIG d   1       4.587  -2.142  -3.809  0.00  0.00     0.062 C 
ATOM      6  H   LIG d   1       5.649  -2.091  -3.568  0.00  0.00     0.060 H 
ATOM      7  C   LIG d   1       4.249  -1.080  -4.858  0.00  0.00    -0.016 C 
ATOM      8  H   LIG d   1       3.634  -2.851  -6.864  0.00  0.00     0.030 H 
ATOM      9  H   LIG d   1       5.288  -3.032  -7.499  0.00  0.00     0.030 H 
ATOM     10  H   LIG d   1       4.736  -4.793  -5.816  0.00  0.00     0.056 H 
ATOM     11  H   LIG d   1       6.082  -3.758  -5.282  0.00  0.00     0.056 H 
ATOM     12  H   LIG d   1       4.526  -0.095  -4.483  0.00  0.00     0.030 H 
ATOM     13  H   LIG d   1       3.180  -1.104  -5.069  0.00  0.00     0.030 H 
ENDROOT
BRANCH   1  14
ATOM     14  C   LIG d   1       4.647  -0.381  -7.207  0.00  0.00    -0.041 A 
ATOM     15  C   LIG d   1       3.408   0.231  -7.165  0.00  0.00    -0.058 A 
ATOM     16  C   LIG d   1       3.055   1.144  -8.141  0.00  0.00    -0.059 A 
ATOM     17  H   LIG d   1       2.716  -0.005  -6.371  0.00  0.00     0.062 H 
ATOM     18  C   LIG d   1       3.942   1.446  -9.158  0.00  0.00    -0.050 A 
ATOM     19  H   LIG d   1       2.088   1.623  -8.109  0.00  0.00     0.062 H 
ATOM     20  C   LIG d   1       5.179   0.830  -9.202  0.00  0.00    -0.059 A 
ATOM     21  C   LIG d   1       5.533  -0.080  -8.224  0.00  0.00    -0.058 A 
ATOM     22  H   LIG d   1       5.870   1.062  -9.999  0.00  0.00     0.062 H 
ATOM     23  H   LIG d   1       6.501  -0.558  -8.256  0.00  0.00     0.062 H 
BRANCH  18  24
ATOM     24  C   LIG d   1       3.559   2.442 -10.222  0.00  0.00    -0.040 C 
ATOM     25  H   LIG d   1       3.842   2.054 -11.201  0.00  0.00     0.028 H 
ATOM     26  H   LIG d   1       2.481   2.606 -10.195  0.00  0.00     0.028 H 
ATOM     27  H   LIG d   1       4.075   3.385 -10.041  0.00  0.00     0.028 H 
ENDBRANCH  18  24
ENDBRANCH   1  14
BRANCH   1  28
ATOM     28  C   LIG d   1       6.532  -1.272  -5.863  0.00  0.00    -0.003 C 
ATOM     29  H   LIG d   1       6.864  -2.161  -5.327  0.00  0.00     0.033 H 
ATOM     30  H   LIG d   1       7.072  -1.193  -6.806  0.00  0.00     0.033 H 
BRANCH  28  31
ATOM     31  C   LIG d   1       6.808  -0.031  -5.012  0.00  0.00    -0.035 C 
ATOM     32  H   LIG d   1       7.234   0.751  -5.639  0.00  0.00     0.081 H 
ATOM     33  H   LIG d   1       5.875   0.323  -4.573  0.00  0.00     0.081 H 
BRANCH  31  34
ATOM     34  N   LIG d   1       7.754  -0.372  -3.941  0.00  0.00     0.218 N 
ATOM     35  H   LIG d   1       7.845   0.410  -3.311  0.00  0.00     0.199 HD
ATOM     36  H   LIG d   1       7.413  -1.174  -3.433  0.00  0.00     0.199 HD
ATOM     37  H   LIG d   1       8.655  -0.586  -4.344  0.00  0.00     0.199 HD
ENDBRANCH  31  34
ENDBRANCH  28  31
ENDBRANCH   1  28
BRANCH   5  38
ATOM     38  C   LIG d   1       3.765  -1.888  -2.543  0.00  0.00    -0.020 C 
ATOM     39  H   LIG d   1       3.412  -2.839  -2.143  0.00  0.00     0.032 H 
BRANCH  38  40
ATOM     40  C   LIG d   1       4.637  -1.188  -1.500  0.00  0.00    -0.060 C 
ATOM     41  H   LIG d   1       4.824  -1.866  -0.668  0.00  0.00     0.023 H 
ATOM     42  H   LIG d   1       5.586  -0.901  -1.954  0.00  0.00     0.023 H 
ATOM     43  H   LIG d   1       4.125  -0.298  -1.137  0.00  0.00     0.023 H 
ENDBRANCH  38  40
BRANCH  38  44
ATOM     44  C   LIG d   1       2.566  -1.001  -2.884  0.00  0.00    -0.060 C 
ATOM     45  H   LIG d   1       2.701  -0.574  -3.877  0.00  0.00     0.023 H 
ATOM     46  H   LIG d   1       1.655  -1.600  -2.866  0.00  0.00     0.023 H 
ATOM     47  H   LIG d   1       2.488  -0.199  -2.151  0.00  0.00     0.023 H 
ENDBRANCH  38  44
ENDBRANCH   5  38
TORSDOF 8
ENDMDL
MODEL 2
REMARK VINA RESULT:      -5.4      1.917      2.390
REMARK  8 active torsions:
REMARK  status: ('A' for Active; 'I' for Inactive)
REMARK    1  A    between atoms: C_1  and  C_2 
REMARK    2  A    between atoms: C_5  and  C_8 
REMARK    3  A    between atoms: C_8  and  C_18 
REMARK    4  A    between atoms: C_12  and  C_15 
REMARK    5  A    between atoms: C_15  and  C_16 
REMARK    6  A    between atoms: C_15  and  C_17 
REMARK    7  A    between atoms: C_18  and  C_19 
REMARK    8  A    between atoms: C_19  and  N_20 
ROOT
ATOM      1  C   LIG d   1       5.262  -1.110  -6.012  0.00  0.00     0.005 C 
ATOM      2  C   LIG d   1       6.053  -2.417  -6.133  0.00  0.00    -0.019 C 
ATOM      3  C   LIG d   1       7.039  -2.517  -4.967  0.00  0.00     0.049 C 
ATOM      4  O   LIG d   1       6.323  -2.448  -3.732  0.00  0.00    -0.376 OA
ATOM      5  C   LIG d   1       5.603  -1.229  -3.542  0.00  0.00     0.062 C 
ATOM      6  H   LIG d   1       6.296  -0.388  -3.577  0.00  0.00     0.060 H 
ATOM      7  C   LIG d   1       4.559  -1.076  -4.651  0.00  0.00    -0.016 C 
ATOM      8  H   LIG d   1       5.367  -3.262  -6.103  0.00  0.00     0.030 H 
ATOM      9  H   LIG d   1       6.602  -2.423  -7.075  0.00  0.00     0.030 H 
ATOM     10  H   LIG d   1       7.575  -3.464  -5.023  0.00  0.00     0.056 H 
ATOM     11  H   LIG d   1       7.751  -1.693  -5.020  0.00  0.00     0.056 H 
ATOM     12  H   LIG d   1       4.038  -0.126  -4.535  0.00  0.00     0.030 H 
ATOM     13  H   LIG d   1       3.842  -1.895  -4.592  0.00  0.00     0.030 H 
ENDROOT
BRANCH   1  14
ATOM     14  C   LIG d   1       4.235  -1.039  -7.112  0.00  0.00    -0.041 A 
ATOM     15  C   LIG d   1       4.105  -2.087  -8.004  0.00  0.00    -0.058 A 
ATOM     16  C   LIG d   1       3.162  -2.022  -9.014  0.00  0.00    -0.059 A 
ATOM     17  H   LIG d   1       4.739  -2.955  -7.914  0.00  0.00     0.062 H 
ATOM     18  C   LIG d   1       2.349  -0.910  -9.130  0.00  0.00    -0.050 A 
ATOM     19  H   LIG d   1       3.059  -2.840  -9.711  0.00  0.00     0.062 H 
ATOM     20  C   LIG d   1       2.483   0.140  -8.240  0.00  0.00    -0.059 A 
ATOM     21  C   LIG d   1       3.423   0.073  -7.229  0.00  0.00    -0.058 A 
ATOM     22  H   LIG d   1       1.852   1.011  -8.333  0.00  0.00     0.062 H 
ATOM     23  H   LIG d   1       3.525   0.892  -6.531  0.00  0.00     0.062 H 
BRANCH  18  24
ATOM     24  C   LIG d   1       1.321  -0.839 -10.228  0.00  0.00    -0.040 C 
ATOM     25  H   LIG d   1       0.946  -1.841 -10.440  0.00  0.00     0.028 H 
ATOM     26  H   LIG d   1       0.494  -0.202  -9.913  0.00  0.00     0.028 H 
ATOM     27  H   LIG d   1       1.776  -0.425 -11.128  0.00  0.00     0.028 H 
ENDBRANCH  18  24
ENDBRANCH   1  14
BRANCH   1  28
ATOM     28  C   LIG d   1       6.216   0.081  -6.124  0.00  0.00    -0.003 C 
ATOM     29  H   LIG d   1       5.670   1.003  -5.923  0.00  0.00     0.033 H 
ATOM     30  H   LIG d   1       7.022  -0.030  -5.398  0.00  0.00     0.033 H 
BRANCH  28  31
ATOM     31  C   LIG d   1       6.804   0.133  -7.536  0.00  0.00    -0.035 C 
ATOM     32  H   LIG d   1       7.851  -0.166  -7.503  0.00  0.00     0.081 H 
ATOM     33  H   LIG d   1       6.251  -0.547  -8.184  0.00  0.00     0.081 H 
BRANCH  31  34
ATOM     34  N   LIG d   1       6.700   1.502  -8.058  0.00  0.00     0.218 N 
ATOM     35  H   LIG d   1       5.731   1.780  -8.085  0.00  0.00     0.199 HD
ATOM     36  H   LIG d   1       7.213   2.131  -7.459  0.00  0.00     0.199 HD
ATOM     37  H   LIG d   1       7.085   1.537  -8.990  0.00  0.00     0.199 HD
ENDBRANCH  31  34
ENDBRANCH  28  31
ENDBRANCH   1  28
BRANCH   5  38
ATOM     38  C   LIG d   1       4.902  -1.256  -2.182  0.00  0.00    -0.020 C 
ATOM     39  H   LIG d   1       5.585  -1.651  -1.430  0.00  0.00     0.032 H 
BRANCH  38  40
ATOM     40  C   LIG d   1       4.484   0.164  -1.796  0.00  0.00    -0.060 C 
ATOM     41  H   LIG d   1       4.294   0.745  -2.698  0.00  0.00     0.023 H 
ATOM     42  H   LIG d   1       3.577   0.124  -1.192  0.00  0.00     0.023 H 
ATOM     43  H   LIG d   1       5.281   0.634  -1.222  0.00  0.00     0.023 H 
ENDBRANCH  38  40
BRANCH  38  44
ATOM     44  C   LIG d   1       3.662  -2.148  -2.265  0.00  0.00    -0.060 C 
ATOM     45  H   LIG d   1       3.836  -3.065  -1.703  0.00  0.00     0.023 H 
ATOM     46  H   LIG d   1       2.806  -1.620  -1.843  0.00  0.00     0.023 H 
ATOM     47  H   LIG d   1       3.460  -2.393  -3.307  0.00  0.00     0.023 H 
ENDBRANCH  38  44
ENDBRANCH   5  38
TORSDOF 8
ENDMDL
MODEL 3
REMARK VINA RESULT:      -5.2      2.897      5.209
REMARK  8 active torsions:
REMARK  status: ('A' for Active; 'I' for Inactive)
REMARK    1  A    between atoms: C_1  and  C_2 
REMARK    2  A    between atoms: C_5  and  C_8 
REMARK    3  A    between atoms: C_8  and  C_18 
REMARK    4  A    between atoms: C_12  and  C_15 
REMARK    5  A    between atoms: C_15  and  C_16 
REMARK    6  A    between atoms: C_15  and  C_17 
REMARK    7  A    between atoms: C_18  and  C_19 
REMARK    8  A    between atoms: C_19  and  N_20 
ROOT
ATOM      1  C   LIG d   1       5.597  -1.783  -4.826  0.00  0.00     0.005 C 
ATOM      2  C   LIG d   1       5.358  -1.008  -6.125  0.00  0.00    -0.019 C 
ATOM      3  C   LIG d   1       3.912  -0.508  -6.154  0.00  0.00     0.049 C 
ATOM      4  O   LIG d   1       3.669   0.306  -5.004  0.00  0.00    -0.376 OA
ATOM      5  C   LIG d   1       3.831  -0.379  -3.760  0.00  0.00     0.062 C 
ATOM      6  H   LIG d   1       3.149  -1.229  -3.722  0.00  0.00     0.060 H 
ATOM      7  C   LIG d   1       5.273  -0.874  -3.636  0.00  0.00    -0.016 C 
ATOM      8  H   LIG d   1       6.039  -0.158  -6.174  0.00  0.00     0.030 H 
ATOM      9  H   LIG d   1       5.532  -1.665  -6.978  0.00  0.00     0.030 H 
ATOM     10  H   LIG d   1       3.748   0.082  -7.056  0.00  0.00     0.056 H 
ATOM     11  H   LIG d   1       3.232  -1.359  -6.147  0.00  0.00     0.056 H 
ATOM     12  H   LIG d   1       5.388  -1.435  -2.708  0.00  0.00     0.030 H 
ATOM     13  H   LIG d   1       5.953  -0.022  -3.633  0.00  0.00     0.030 H 
ENDROOT
BRANCH   1  14
ATOM     14  C   LIG d   1       7.039  -2.214  -4.753  0.00  0.00    -0.041 A 
ATOM     15  C   LIG d   1       7.929  -1.818  -5.735  0.00  0.00    -0.058 A 
ATOM     16  C   LIG d   1       9.252  -2.213  -5.669  0.00  0.00    -0.059 A 
ATOM     17  H   LIG d   1       7.590  -1.202  -6.554  0.00  0.00     0.062 H 
ATOM     18  C   LIG d   1       9.686  -3.002  -4.619  0.00  0.00    -0.050 A 
ATOM     19  H   LIG d   1       9.947  -1.904  -6.435  0.00  0.00     0.062 H 
ATOM     20  C   LIG d   1       8.795  -3.401  -3.641  0.00  0.00    -0.059 A 
ATOM     21  C   LIG d   1       7.473  -3.003  -3.705  0.00  0.00    -0.058 A 
ATOM     22  H   LIG d   1       9.133  -4.021  -2.824  0.00  0.00     0.062 H 
ATOM     23  H   LIG d   1       6.778  -3.312  -2.938  0.00  0.00     0.062 H 
BRANCH  18  24
ATOM     24  C   LIG d   1      11.128  -3.431  -4.546  0.00  0.00    -0.040 C 
ATOM     25  H   LIG d   1      11.773  -2.570  -4.721  0.00  0.00     0.028 H 
ATOM     26  H   LIG d   1      11.335  -3.843  -3.558  0.00  0.00     0.028 H 
ATOM     27  H   LIG d   1      11.322  -4.190  -5.304  0.00  0.00     0.028 H 
ENDBRANCH  18  24
ENDBRANCH   1  14
BRANCH   1  28
ATOM     28  C   LIG d   1       4.692  -3.016  -4.789  0.00  0.00    -0.003 C 
ATOM     29  H   LIG d   1       4.998  -3.666  -3.969  0.00  0.00     0.033 H 
ATOM     30  H   LIG d   1       3.658  -2.704  -4.639  0.00  0.00     0.033 H 
BRANCH  28  31
ATOM     31  C   LIG d   1       4.809  -3.775  -6.112  0.00  0.00    -0.035 C 
ATOM     32  H   LIG d   1       4.939  -3.065  -6.927  0.00  0.00     0.081 H 
ATOM     33  H   LIG d   1       5.668  -4.445  -6.072  0.00  0.00     0.081 H 
BRANCH  31  34
ATOM     34  N   LIG d   1       3.587  -4.559  -6.335  0.00  0.00     0.218 N 
ATOM     35  H   LIG d   1       3.570  -4.892  -7.288  0.00  0.00     0.199 HD
ATOM     36  H   LIG d   1       3.572  -5.347  -5.705  0.00  0.00     0.199 HD
ATOM     37  H   LIG d   1       2.779  -3.979  -6.167  0.00  0.00     0.199 HD
ENDBRANCH  31  34
ENDBRANCH  28  31
ENDBRANCH   1  28
BRANCH   5  38
ATOM     38  C   LIG d   1       3.518   0.577  -2.607  0.00  0.00    -0.020 C 
ATOM     39  H   LIG d   1       2.594   0.267  -2.119  0.00  0.00     0.032 H 
BRANCH  38  40
ATOM     40  C   LIG d   1       4.665   0.547  -1.595  0.00  0.00    -0.060 C 
ATOM     41  H   LIG d   1       5.094  -0.454  -1.561  0.00  0.00     0.023 H 
ATOM     42  H   LIG d   1       5.433   1.261  -1.894  0.00  0.00     0.023 H 
ATOM     43  H   LIG d   1       4.286   0.814  -0.609  0.00  0.00     0.023 H 
ENDBRANCH  38  40
BRANCH  38  44
ATOM     44  C   LIG d   1       3.356   1.998  -3.152  0.00  0.00    -0.060 C 
ATOM     45  H   LIG d   1       3.649   2.716  -2.386  0.00  0.00     0.023 H 
ATOM     46  H   LIG d   1       3.990   2.124  -4.030  0.00  0.00     0.023 H 
ATOM     47  H   LIG d   1       2.316   2.165  -3.428  0.00  0.00     0.023 H 
ENDBRANCH  38  44
ENDBRANCH   5  38
TORSDOF 8
ENDMDL
MODEL 4
REMARK VINA RESULT:      -5.1      2.767      4.402
REMARK  8 active torsions:
REMARK  status: ('A' for Active; 'I' for Inactive)
REMARK    1  A    between atoms: C_1  and  C_2 
REMARK    2  A    between atoms: C_5  and  C_8 
REMARK    3  A    between atoms: C_8  and  C_18 
REMARK    4  A    between atoms: C_12  and  C_15 
REMARK    5  A    between atoms: C_15  and  C_16 
REMARK    6  A    between atoms: C_15  and  C_17 
REMARK    7  A    between atoms: C_18  and  C_19 
REMARK    8  A    between atoms: C_19  and  N_20 
ROOT
ATOM      1  C   LIG d   1       7.128   0.127  -4.627  0.00  0.00     0.005 C 
ATOM      2  C   LIG d   1       6.357  -0.173  -5.916  0.00  0.00    -0.019 C 
ATOM      3  C   LIG d   1       5.431  -1.368  -5.681  0.00  0.00     0.049 C 
ATOM      4  O   LIG d   1       4.547  -1.078  -4.595  0.00  0.00    -0.376 OA
ATOM      5  C   LIG d   1       5.211  -0.836  -3.353  0.00  0.00     0.062 C 
ATOM      6  H   LIG d   1       5.804  -1.710  -3.081  0.00  0.00     0.060 H 
ATOM      7  C   LIG d   1       6.128   0.381  -3.494  0.00  0.00    -0.016 C 
ATOM      8  H   LIG d   1       5.765   0.697  -6.197  0.00  0.00     0.030 H 
ATOM      9  H   LIG d   1       7.061  -0.410  -6.714  0.00  0.00     0.030 H 
ATOM     10  H   LIG d   1       4.847  -1.560  -6.582  0.00  0.00     0.056 H 
ATOM     11  H   LIG d   1       6.027  -2.249  -5.440  0.00  0.00     0.056 H 
ATOM     12  H   LIG d   1       6.669   0.541  -2.561  0.00  0.00     0.030 H 
ATOM     13  H   LIG d   1       5.532   1.262  -3.726  0.00  0.00     0.030 H 
ENDROOT
BRANCH   1  14
ATOM     14  C   LIG d   1       7.986   1.350  -4.825  0.00  0.00    -0.041 A 
ATOM     15  C   LIG d   1       8.246   1.812  -6.103  0.00  0.00    -0.058 A 
ATOM     16  C   LIG d   1       9.032   2.934  -6.285  0.00  0.00    -0.059 A 
ATOM     17  H   LIG d   1       7.835   1.296  -6.957  0.00  0.00     0.062 H 
ATOM     18  C   LIG d   1       9.558   3.595  -5.190  0.00  0.00    -0.050 A 
ATOM     19  H   LIG d   1       9.235   3.296  -7.282  0.00  0.00     0.062 H 
ATOM     20  C   LIG d   1       9.302   3.130  -3.914  0.00  0.00    -0.059 A 
ATOM     21  C   LIG d   1       8.512   2.010  -3.731  0.00  0.00    -0.058 A 
ATOM     22  H   LIG d   1       9.716   3.644  -3.059  0.00  0.00     0.062 H 
ATOM     23  H   LIG d   1       8.309   1.650  -2.733  0.00  0.00     0.062 H 
BRANCH  18  24
ATOM     24  C   LIG d   1      10.414   4.819  -5.388  0.00  0.00    -0.040 C 
ATOM     25  H   LIG d   1      11.460   4.522  -5.461  0.00  0.00     0.028 H 
ATOM     26  H   LIG d   1      10.117   5.326  -6.306  0.00  0.00     0.028 H 
ATOM     27  H   LIG d   1      10.287   5.494  -4.542  0.00  0.00     0.028 H 
ENDBRANCH  18  24
ENDBRANCH   1  14
BRANCH   1  28
ATOM     28  C   LIG d   1       8.015  -1.067  -4.268  0.00  0.00    -0.003 C 
ATOM     29  H   LIG d   1       8.525  -0.870  -3.325  0.00  0.00     0.033 H 
ATOM     30  H   LIG d   1       7.398  -1.960  -4.168  0.00  0.00     0.033 H 
BRANCH  28  31
ATOM     31  C   LIG d   1       9.051  -1.284  -5.373  0.00  0.00    -0.035 C 
ATOM     32  H   LIG d   1       8.840  -2.220  -5.890  0.00  0.00     0.081 H 
ATOM     33  H   LIG d   1       9.003  -0.458  -6.083  0.00  0.00     0.081 H 
BRANCH  31  34
ATOM     34  N   LIG d   1      10.393  -1.344  -4.780  0.00  0.00     0.218 N 
ATOM     35  H   LIG d   1      10.898  -2.126  -5.168  0.00  0.00     0.199 HD
ATOM     36  H   LIG d   1      10.890  -0.490  -4.985  0.00  0.00     0.199 HD
ATOM     37  H   LIG d   1      10.315  -1.457  -3.780  0.00  0.00     0.199 HD
ENDBRANCH  31  34
ENDBRANCH  28  31
ENDBRANCH   1  28
BRANCH   5  38
ATOM     38  C   LIG d   1       4.171  -0.566  -2.263  0.00  0.00    -0.020 C 
ATOM     39  H   LIG d   1       4.320  -1.264  -1.439  0.00  0.00     0.032 H 
BRANCH  38  40
ATOM     40  C   LIG d   1       4.326   0.867  -1.754  0.00  0.00    -0.060 C 
ATOM     41  H   LIG d   1       5.208   0.934  -1.118  0.00  0.00     0.023 H 
ATOM     42  H   LIG d   1       4.437   1.544  -2.601  0.00  0.00     0.023 H 
ATOM     43  H   LIG d   1       3.443   1.147  -1.180  0.00  0.00     0.023 H 
ENDBRANCH  38  40
BRANCH  38  44
ATOM     44  C   LIG d   1       2.766  -0.753  -2.841  0.00  0.00    -0.060 C 
ATOM     45  H   LIG d   1       2.127  -1.225  -2.096  0.00  0.00     0.023 H 
ATOM     46  H   LIG d   1       2.353   0.219  -3.111  0.00  0.00     0.023 H 
ATOM     47  H   LIG d   1       2.819  -1.384  -3.728  0.00  0.00     0.023 H 
ENDBRANCH  38  44
ENDBRANCH   5  38
TORSDOF 8
ENDMDL
MODEL 5
REMARK VINA RESULT:      -5.1      2.402      5.564
REMARK  8 active torsions:
REMARK  status: ('A' for Active; 'I' for Inactive)
REMARK    1  A    between atoms: C_1  and  C_2 
REMARK    2  A    between atoms: C_5  and  C_8 
REMARK    3  A    between atoms: C_8  and  C_18 
REMARK    4  A    between atoms: C_12  and  C_15 
REMARK    5  A    between atoms: C_15  and  C_16 
REMARK    6  A    between atoms: C_15  and  C_17 
REMARK    7  A    between atoms: C_18  and  C_19 
REMARK    8  A    between atoms: C_19  and  N_20 
ROOT
ATOM      1  C   LIG d   1       4.772  -0.899  -7.034  0.00  0.00     0.005 C 
ATOM      2  C   LIG d   1       6.234  -0.975  -7.484  0.00  0.00    -0.019 C 
ATOM      3  C   LIG d   1       6.285  -1.379  -8.959  0.00  0.00     0.049 C 
ATOM      4  O   LIG d   1       5.544  -0.435  -9.736  0.00  0.00    -0.376 OA
ATOM      5  C   LIG d   1       4.159  -0.355  -9.391  0.00  0.00     0.062 C 
ATOM      6  H   LIG d   1       3.696  -1.334  -9.518  0.00  0.00     0.060 H 
ATOM      7  C   LIG d   1       4.022   0.090  -7.933  0.00  0.00    -0.016 C 
ATOM      8  H   LIG d   1       6.705  -0.001  -7.356  0.00  0.00     0.030 H 
ATOM      9  H   LIG d   1       6.760  -1.718  -6.885  0.00  0.00     0.030 H 
ATOM     10  H   LIG d   1       7.321  -1.392  -9.297  0.00  0.00     0.056 H 
ATOM     11  H   LIG d   1       5.850  -2.371  -9.080  0.00  0.00     0.056 H 
ATOM     12  H   LIG d   1       2.968   0.108  -7.654  0.00  0.00     0.030 H 
ATOM     13  H   LIG d   1       4.449   1.085  -7.814  0.00  0.00     0.030 H 
ENDROOT
BRANCH   1  14
ATOM     14  C   LIG d   1       4.708  -0.427  -5.603  0.00  0.00    -0.041 A 
ATOM     15  C   LIG d   1       3.483  -0.166  -5.017  0.00  0.00    -0.058 A 
ATOM     16  C   LIG d   1       3.424   0.266  -3.705  0.00  0.00    -0.059 A 
ATOM     17  H   LIG d   1       2.574  -0.298  -5.583  0.00  0.00     0.062 H 
ATOM     18  C   LIG d   1       4.589   0.435  -2.979  0.00  0.00    -0.050 A 
ATOM     19  H   LIG d   1       2.468   0.471  -3.245  0.00  0.00     0.062 H 
ATOM     20  C   LIG d   1       5.813   0.178  -3.568  0.00  0.00    -0.059 A 
ATOM     21  C   LIG d   1       5.872  -0.258  -4.879  0.00  0.00    -0.058 A 
ATOM     22  H   LIG d   1       6.723   0.314  -3.003  0.00  0.00     0.062 H 
ATOM     23  H   LIG d   1       6.828  -0.463  -5.337  0.00  0.00     0.062 H 
BRANCH  18  24
ATOM     24  C   LIG d   1       4.525   0.904  -1.549  0.00  0.00    -0.040 C 
ATOM     25  H   LIG d   1       5.263   0.363  -0.956  0.00  0.00     0.028 H 
ATOM     26  H   LIG d   1       4.739   1.972  -1.507  0.00  0.00     0.028 H 
ATOM     27  H   LIG d   1       3.529   0.717  -1.148  0.00  0.00     0.028 H 
ENDBRANCH  18  24
ENDBRANCH   1  14
BRANCH   1  28
ATOM     28  C   LIG d   1       4.127  -2.282  -7.145  0.00  0.00    -0.003 C 
ATOM     29  H   LIG d   1       3.092  -2.228  -6.805  0.00  0.00     0.033 H 
ATOM     30  H   LIG d   1       4.151  -2.611  -8.184  0.00  0.00     0.033 H 
BRANCH  28  31
ATOM     31  C   LIG d   1       4.898  -3.277  -6.277  0.00  0.00    -0.035 C 
ATOM     32  H   LIG d   1       5.631  -3.801  -6.890  0.00  0.00     0.081 H 
ATOM     33  H   LIG d   1       5.410  -2.741  -5.477  0.00  0.00     0.081 H 
BRANCH  31  34
ATOM     34  N   LIG d   1       3.962  -4.247  -5.695  0.00  0.00     0.218 N 
ATOM     35  H   LIG d   1       4.209  -4.418  -4.731  0.00  0.00     0.199 HD
ATOM     36  H   LIG d   1       3.024  -3.879  -5.740  0.00  0.00     0.199 HD
ATOM     37  H   LIG d   1       4.009  -5.113  -6.211  0.00  0.00     0.199 HD
ENDBRANCH  31  34
ENDBRANCH  28  31
ENDBRANCH   1  28
BRANCH   5  38
ATOM     38  C   LIG d   1       3.464   0.659 -10.301  0.00  0.00    -0.020 C 
ATOM     39  H   LIG d   1       2.391   0.468 -10.305  0.00  0.00     0.032 H 
BRANCH  38  40
ATOM     40  C   LIG d   1       3.729   2.074  -9.783  0.00  0.00    -0.060 C 
ATOM     41  H   LIG d   1       3.196   2.223  -8.845  0.00  0.00     0.023 H 
ATOM     42  H   LIG d   1       4.798   2.207  -9.619  0.00  0.00     0.023 H 
ATOM     43  H   LIG d   1       3.382   2.801 -10.517  0.00  0.00     0.023 H 
ENDBRANCH  38  40
BRANCH  38  44
ATOM     44  C   LIG d   1       4.011   0.527 -11.724  0.00  0.00    -0.060 C 
ATOM     45  H   LIG d   1       4.128   1.518 -12.161  0.00  0.00     0.023 H 
ATOM     46  H   LIG d   1       4.979   0.025 -11.696  0.00  0.00     0.023 H 
ATOM     47  H   LIG d   1       3.317  -0.057 -12.327  0.00  0.00     0.023 H 
ENDBRANCH  38  44
ENDBRANCH   5  38
TORSDOF 8
ENDMDL
MODEL 6
REMARK VINA RESULT:      -5.1      3.546      6.273
REMARK  8 active torsions:
REMARK  status: ('A' for Active; 'I' for Inactive)
REMARK    1  A    between atoms: C_1  and  C_2 
REMARK    2  A    between atoms: C_5  and  C_8 
REMARK    3  A    between atoms: C_8  and  C_18 
REMARK    4  A    between atoms: C_12  and  C_15 
REMARK    5  A    between atoms: C_15  and  C_16 
REMARK    6  A    between atoms: C_15  and  C_17 
REMARK    7  A    between atoms: C_18  and  C_19 
REMARK    8  A    between atoms: C_19  and  N_20 
ROOT
ATOM      1  C   LIG d   1       6.990  -2.317  -4.308  0.00  0.00     0.005 C 
ATOM      2  C   LIG d   1       7.719  -1.056  -4.782  0.00  0.00    -0.019 C 
ATOM      3  C   LIG d   1       6.688   0.020  -5.130  0.00  0.00     0.049 C 
ATOM      4  O   LIG d   1       5.871   0.283  -3.986  0.00  0.00    -0.376 OA
ATOM      5  C   LIG d   1       5.129  -0.849  -3.527  0.00  0.00     0.062 C 
ATOM      6  H   LIG d   1       4.482  -1.209  -4.327  0.00  0.00     0.060 H 
ATOM      7  C   LIG d   1       6.098  -1.960  -3.115  0.00  0.00    -0.016 C 
ATOM      8  H   LIG d   1       8.371  -0.693  -3.989  0.00  0.00     0.030 H 
ATOM      9  H   LIG d   1       8.313  -1.290  -5.666  0.00  0.00     0.030 H 
ATOM     10  H   LIG d   1       7.201   0.934  -5.427  0.00  0.00     0.056 H 
ATOM     11  H   LIG d   1       6.061  -0.329  -5.951  0.00  0.00     0.056 H 
ATOM     12  H   LIG d   1       5.534  -2.841  -2.806  0.00  0.00     0.030 H 
ATOM     13  H   LIG d   1       6.717  -1.615  -2.287  0.00  0.00     0.030 H 
ENDROOT
BRANCH   1  14
ATOM     14  C   LIG d   1       7.999  -3.356  -3.890  0.00  0.00    -0.041 A 
ATOM     15  C   LIG d   1       8.303  -4.404  -4.739  0.00  0.00    -0.058 A 
ATOM     16  C   LIG d   1       9.228  -5.357  -4.356  0.00  0.00    -0.059 A 
ATOM     17  H   LIG d   1       7.817  -4.480  -5.700  0.00  0.00     0.062 H 
ATOM     18  C   LIG d   1       9.851  -5.261  -3.125  0.00  0.00    -0.050 A 
ATOM     19  H   LIG d   1       9.467  -6.176  -5.019  0.00  0.00     0.062 H 
ATOM     20  C   LIG d   1       9.543  -4.215  -2.275  0.00  0.00    -0.059 A 
ATOM     21  C   LIG d   1       8.620  -3.260  -2.660  0.00  0.00    -0.058 A 
ATOM     22  H   LIG d   1      10.026  -4.142  -1.312  0.00  0.00     0.062 H 
ATOM     23  H   LIG d   1       8.383  -2.441  -1.997  0.00  0.00     0.062 H 
BRANCH  18  24
ATOM     24  C   LIG d   1      10.861  -6.298  -2.708  0.00  0.00    -0.040 C 
ATOM     25  H   LIG d   1      11.277  -6.030  -1.737  0.00  0.00     0.028 H 
ATOM     26  H   LIG d   1      10.375  -7.271  -2.638  0.00  0.00     0.028 H 
ATOM     27  H   LIG d   1      11.662  -6.344  -3.445  0.00  0.00     0.028 H 
ENDBRANCH  18  24
ENDBRANCH   1  14
BRANCH   1  28
ATOM     28  C   LIG d   1       6.127  -2.871  -5.444  0.00  0.00    -0.003 C 
ATOM     29  H   LIG d   1       5.660  -2.044  -5.980  0.00  0.00     0.033 H 
ATOM     30  H   LIG d   1       6.753  -3.441  -6.131  0.00  0.00     0.033 H 
BRANCH  28  31
ATOM     31  C   LIG d   1       5.043  -3.781  -4.865  0.00  0.00    -0.035 C 
ATOM     32  H   LIG d   1       5.454  -4.777  -4.704  0.00  0.00     0.081 H 
ATOM     33  H   LIG d   1       4.695  -3.373  -3.916  0.00  0.00     0.081 H 
BRANCH  31  34
ATOM     34  N   LIG d   1       3.918  -3.862  -5.806  0.00  0.00     0.218 N 
ATOM     35  H   LIG d   1       3.261  -3.122  -5.609  0.00  0.00     0.199 HD
ATOM     36  H   LIG d   1       4.261  -3.763  -6.750  0.00  0.00     0.199 HD
ATOM     37  H   LIG d   1       3.459  -4.755  -5.706  0.00  0.00     0.199 HD
ENDBRANCH  31  34
ENDBRANCH  28  31
ENDBRANCH   1  28
BRANCH   5  38
ATOM     38  C   LIG d   1       4.275  -0.445  -2.324  0.00  0.00    -0.020 C 
ATOM     39  H   LIG d   1       4.497  -1.103  -1.483  0.00  0.00     0.032 H 
BRANCH  38  40
ATOM     40  C   LIG d   1       4.590   1.001  -1.937  0.00  0.00    -0.060 C 
ATOM     41  H   LIG d   1       5.577   1.047  -1.477  0.00  0.00     0.023 H 
ATOM     42  H   LIG d   1       4.576   1.627  -2.829  0.00  0.00     0.023 H 
ATOM     43  H   LIG d   1       3.843   1.360  -1.230  0.00  0.00     0.023 H 
ENDBRANCH  38  40
BRANCH  38  44
ATOM     44  C   LIG d   1       2.793  -0.564  -2.687  0.00  0.00    -0.060 C 
ATOM     45  H   LIG d   1       2.246   0.276  -2.259  0.00  0.00     0.023 H 
ATOM     46  H   LIG d   1       2.684  -0.553  -3.772  0.00  0.00     0.023 H 
ATOM     47  H   LIG d   1       2.396  -1.497  -2.290  0.00  0.00     0.023 H 
ENDBRANCH  38  44
ENDBRANCH   5  38
TORSDOF 8
ENDMDL
MODEL 7
REMARK VINA RESULT:      -5.1      2.858      5.269
REMARK  8 active torsions:
REMARK  status: ('A' for Active; 'I' for Inactive)
REMARK    1  A    between atoms: C_1  and  C_2 
REMARK    2  A    between atoms: C_5  and  C_8 
REMARK    3  A    between atoms: C_8  and  C_18 
REMARK    4  A    between atoms: C_12  and  C_15 
REMARK    5  A    between atoms: C_15  and  C_16 
REMARK    6  A    between atoms: C_15  and  C_17 
REMARK    7  A    between atoms: C_18  and  C_19 
REMARK    8  A    between atoms: C_19  and  N_20 
ROOT
ATOM      1  C   LIG d   1       6.007  -2.605  -4.839  0.00  0.00     0.005 C 
ATOM      2  C   LIG d   1       7.343  -2.280  -4.165  0.00  0.00    -0.019 C 
ATOM      3  C   LIG d   1       7.356  -0.805  -3.759  0.00  0.00     0.049 C 
ATOM      4  O   LIG d   1       6.252  -0.542  -2.890  0.00  0.00    -0.376 OA
ATOM      5  C   LIG d   1       4.974  -0.783  -3.483  0.00  0.00     0.062 C 
ATOM      6  H   LIG d   1       4.860  -0.159  -4.369  0.00  0.00     0.060 H 
ATOM      7  C   LIG d   1       4.865  -2.258  -3.878  0.00  0.00    -0.016 C 
ATOM      8  H   LIG d   1       7.466  -2.903  -3.280  0.00  0.00     0.030 H 
ATOM      9  H   LIG d   1       8.158  -2.472  -4.864  0.00  0.00     0.030 H 
ATOM     10  H   LIG d   1       8.287  -0.578  -3.240  0.00  0.00     0.056 H 
ATOM     11  H   LIG d   1       7.274  -0.181  -4.650  0.00  0.00     0.056 H 
ATOM     12  H   LIG d   1       3.909  -2.435  -4.370  0.00  0.00     0.030 H 
ATOM     13  H   LIG d   1       4.937  -2.880  -2.987  0.00  0.00     0.030 H 
ENDROOT
BRANCH   1  14
ATOM     14  C   LIG d   1       5.954  -4.074  -5.174  0.00  0.00    -0.041 A 
ATOM     15  C   LIG d   1       4.746  -4.746  -5.145  0.00  0.00    -0.058 A 
ATOM     16  C   LIG d   1       4.697  -6.093  -5.453  0.00  0.00    -0.059 A 
ATOM     17  H   LIG d   1       3.841  -4.219  -4.883  0.00  0.00     0.062 H 
ATOM     18  C   LIG d   1       5.856  -6.767  -5.791  0.00  0.00    -0.050 A 
ATOM     19  H   LIG d   1       3.754  -6.618  -5.432  0.00  0.00     0.062 H 
ATOM     20  C   LIG d   1       7.064  -6.096  -5.814  0.00  0.00    -0.059 A 
ATOM     21  C   LIG d   1       7.112  -4.748  -5.510  0.00  0.00    -0.058 A 
ATOM     22  H   LIG d   1       7.970  -6.623  -6.073  0.00  0.00     0.062 H 
ATOM     23  H   LIG d   1       8.056  -4.223  -5.533  0.00  0.00     0.062 H 
BRANCH  18  24
ATOM     24  C   LIG d   1       5.803  -8.235  -6.127  0.00  0.00    -0.040 C 
ATOM     25  H   LIG d   1       5.644  -8.811  -5.215  0.00  0.00     0.028 H 
ATOM     26  H   LIG d   1       4.982  -8.420  -6.820  0.00  0.00     0.028 H 
ATOM     27  H   LIG d   1       6.743  -8.537  -6.588  0.00  0.00     0.028 H 
ENDBRANCH  18  24
ENDBRANCH   1  14
BRANCH   1  28
ATOM     28  C   LIG d   1       5.863  -1.783  -6.121  0.00  0.00    -0.003 C 
ATOM     29  H   LIG d   1       5.782  -0.726  -5.868  0.00  0.00     0.033 H 
ATOM     30  H   LIG d   1       6.739  -1.939  -6.752  0.00  0.00     0.033 H 
BRANCH  28  31
ATOM     31  C   LIG d   1       4.607  -2.226  -6.874  0.00  0.00    -0.035 C 
ATOM     32  H   LIG d   1       4.877  -2.521  -7.888  0.00  0.00     0.081 H 
ATOM     33  H   LIG d   1       4.154  -3.071  -6.358  0.00  0.00     0.081 H 
BRANCH  31  34
ATOM     34  N   LIG d   1       3.651  -1.112  -6.926  0.00  0.00     0.218 N 
ATOM     35  H   LIG d   1       2.941  -1.246  -6.221  0.00  0.00     0.199 HD
ATOM     36  H   LIG d   1       4.135  -0.244  -6.754  0.00  0.00     0.199 HD
ATOM     37  H   LIG d   1       3.218  -1.082  -7.837  0.00  0.00     0.199 HD
ENDBRANCH  31  34
ENDBRANCH  28  31
ENDBRANCH   1  28
BRANCH   5  38
ATOM     38  C   LIG d   1       3.872  -0.443  -2.476  0.00  0.00    -0.020 C 
ATOM     39  H   LIG d   1       3.994  -1.057  -1.583  0.00  0.00     0.032 H 
BRANCH  38  40
ATOM     40  C   LIG d   1       3.969   1.035  -2.094  0.00  0.00    -0.060 C 
ATOM     41  H   LIG d   1       4.869   1.466  -2.533  0.00  0.00     0.023 H 
ATOM     42  H   LIG d   1       3.093   1.565  -2.468  0.00  0.00     0.023 H 
ATOM     43  H   LIG d   1       4.014   1.129  -1.010  0.00  0.00     0.023 H 
ENDBRANCH  38  40
BRANCH  38  44
ATOM     44  C   LIG d   1       2.504  -0.719  -3.103  0.00  0.00    -0.060 C 
ATOM     45  H   LIG d   1       2.202   0.138  -3.706  0.00  0.00     0.023 H 
ATOM     46  H   LIG d   1       2.568  -1.604  -3.736  0.00  0.00     0.023 H 
ATOM     47  H   LIG d   1       1.771  -0.887  -2.316  0.00  0.00     0.023 H 
ENDBRANCH  38  44
ENDBRANCH   5  38
TORSDOF 8
ENDMDL
MODEL 8
REMARK VINA RESULT:      -5.1      2.324      5.185
REMARK  8 active torsions:
REMARK  status: ('A' for Active; 'I' for Inactive)
REMARK    1  A    between atoms: C_1  and  C_2 
REMARK    2  A    between atoms: C_5  and  C_8 
REMARK    3  A    between atoms: C_8  and  C_18 
REMARK    4  A    between atoms: C_12  and  C_15 
REMARK    5  A    between atoms: C_15  and  C_16 
REMARK    6  A    between atoms: C_15  and  C_17 
REMARK    7  A    between atoms: C_18  and  C_19 
REMARK    8  A    between atoms: C_19  and  N_20 
ROOT
ATOM      1  C   LIG d   1       5.729  -1.236  -3.621  0.00  0.00     0.005 C 
ATOM      2  C   LIG d   1       5.129  -1.483  -2.234  0.00  0.00    -0.019 C 
ATOM      3  C   LIG d   1       4.328  -0.251  -1.807  0.00  0.00     0.049 C 
ATOM      4  O   LIG d   1       3.314   0.016  -2.778  0.00  0.00    -0.376 OA
ATOM      5  C   LIG d   1       3.819   0.301  -4.084  0.00  0.00     0.062 C 
ATOM      6  H   LIG d   1       4.478   1.168  -4.039  0.00  0.00     0.060 H 
ATOM      7  C   LIG d   1       4.600  -0.908  -4.603  0.00  0.00    -0.016 C 
ATOM      8  H   LIG d   1       4.471  -2.351  -2.271  0.00  0.00     0.030 H 
ATOM      9  H   LIG d   1       5.931  -1.662  -1.518  0.00  0.00     0.030 H 
ATOM     10  H   LIG d   1       3.862  -0.437  -0.839  0.00  0.00     0.056 H 
ATOM     11  H   LIG d   1       4.994   0.608  -1.731  0.00  0.00     0.056 H 
ATOM     12  H   LIG d   1       5.023  -0.678  -5.581  0.00  0.00     0.030 H 
ATOM     13  H   LIG d   1       3.931  -1.765  -4.689  0.00  0.00     0.030 H 
ENDROOT
BRANCH   1  14
ATOM     14  C   LIG d   1       6.456  -2.473  -4.084  0.00  0.00    -0.041 A 
ATOM     15  C   LIG d   1       5.852  -3.333  -4.983  0.00  0.00    -0.058 A 
ATOM     16  C   LIG d   1       6.519  -4.467  -5.408  0.00  0.00    -0.059 A 
ATOM     17  H   LIG d   1       4.861  -3.120  -5.352  0.00  0.00     0.062 H 
ATOM     18  C   LIG d   1       7.790  -4.740  -4.935  0.00  0.00    -0.050 A 
ATOM     19  H   LIG d   1       6.049  -5.140  -6.110  0.00  0.00     0.062 H 
ATOM     20  C   LIG d   1       8.391  -3.882  -4.033  0.00  0.00    -0.059 A 
ATOM     21  C   LIG d   1       7.726  -2.746  -3.612  0.00  0.00    -0.058 A 
ATOM     22  H   LIG d   1       9.381  -4.097  -3.661  0.00  0.00     0.062 H 
ATOM     23  H   LIG d   1       8.197  -2.073  -2.910  0.00  0.00     0.062 H 
BRANCH  18  24
ATOM     24  C   LIG d   1       8.517  -5.975  -5.399  0.00  0.00    -0.040 C 
ATOM     25  H   LIG d   1       9.592  -5.793  -5.377  0.00  0.00     0.028 H 
ATOM     26  H   LIG d   1       8.277  -6.808  -4.739  0.00  0.00     0.028 H 
ATOM     27  H   LIG d   1       8.211  -6.218  -6.417  0.00  0.00     0.028 H 
ENDBRANCH  18  24
ENDBRANCH   1  14
BRANCH   1  28
ATOM     28  C   LIG d   1       6.708  -0.062  -3.557  0.00  0.00    -0.003 C 
ATOM     29  H   LIG d   1       6.226   0.785  -3.069  0.00  0.00     0.033 H 
ATOM     30  H   LIG d   1       7.590  -0.355  -2.988  0.00  0.00     0.033 H 
BRANCH  28  31
ATOM     31  C   LIG d   1       7.123   0.335  -4.975  0.00  0.00    -0.035 C 
ATOM     32  H   LIG d   1       7.980  -0.263  -5.283  0.00  0.00     0.081 H 
ATOM     33  H   LIG d   1       6.293   0.160  -5.659  0.00  0.00     0.081 H 
BRANCH  31  34
ATOM     34  N   LIG d   1       7.485   1.758  -4.999  0.00  0.00     0.218 N 
ATOM     35  H   LIG d   1       7.997   1.989  -4.160  0.00  0.00     0.199 HD
ATOM     36  H   LIG d   1       8.062   1.946  -5.805  0.00  0.00     0.199 HD
ATOM     37  H   LIG d   1       6.647   2.318  -5.046  0.00  0.00     0.199 HD
ENDBRANCH  31  34
ENDBRANCH  28  31
ENDBRANCH   1  28
BRANCH   5  38
ATOM     38  C   LIG d   1       2.652   0.598  -5.029  0.00  0.00    -0.020 C 
ATOM     39  H   LIG d   1       2.430   1.666  -5.007  0.00  0.00     0.032 H 
BRANCH  38  40
ATOM     40  C   LIG d   1       3.030   0.185  -6.452  0.00  0.00    -0.060 C 
ATOM     41  H   LIG d   1       4.088   0.383  -6.619  0.00  0.00     0.023 H 
ATOM     42  H   LIG d   1       2.834  -0.879  -6.586  0.00  0.00     0.023 H 
ATOM     43  H   LIG d   1       2.437   0.756  -7.166  0.00  0.00     0.023 H 
ENDBRANCH  38  40
BRANCH  38  44
ATOM     44  C   LIG d   1       1.419  -0.189  -4.580  0.00  0.00    -0.060 C 
ATOM     45  H   LIG d   1       0.583   0.496  -4.438  0.00  0.00     0.023 H 
ATOM     46  H   LIG d   1       1.161  -0.924  -5.342  0.00  0.00     0.023 H 
ATOM     47  H   LIG d   1       1.635  -0.698  -3.641  0.00  0.00     0.023 H 
ENDBRANCH  38  44
ENDBRANCH   5  38
TORSDOF 8
ENDMDL
MODEL 9
REMARK VINA RESULT:      -5.0      3.351      5.494
REMARK  8 active torsions:
REMARK  status: ('A' for Active; 'I' for Inactive)
REMARK    1  A    between atoms: C_1  and  C_2 
REMARK    2  A    between atoms: C_5  and  C_8 
REMARK    3  A    between atoms: C_8  and  C_18 
REMARK    4  A    between atoms: C_12  and  C_15 
REMARK    5  A    between atoms: C_15  and  C_16 
REMARK    6  A    between atoms: C_15  and  C_17 
REMARK    7  A    between atoms: C_18  and  C_19 
REMARK    8  A    between atoms: C_19  and  N_20 
ROOT
ATOM      1  C   LIG d   1       7.296  -2.855  -4.511  0.00  0.00     0.005 C 
ATOM      2  C   LIG d   1       6.399  -4.050  -4.847  0.00  0.00    -0.019 C 
ATOM      3  C   LIG d   1       7.245  -5.149  -5.493  0.00  0.00     0.049 C 
ATOM      4  O   LIG d   1       8.302  -5.518  -4.604  0.00  0.00    -0.376 OA
ATOM      5  C   LIG d   1       9.201  -4.452  -4.293  0.00  0.00     0.062 C 
ATOM      6  H   LIG d   1       9.650  -4.074  -5.212  0.00  0.00     0.060 H 
ATOM      7  C   LIG d   1       8.433  -3.325  -3.598  0.00  0.00    -0.016 C 
ATOM      8  H   LIG d   1       5.943  -4.431  -3.933  0.00  0.00     0.030 H 
ATOM      9  H   LIG d   1       5.619  -3.736  -5.541  0.00  0.00     0.030 H 
ATOM     10  H   LIG d   1       6.621  -6.019  -5.695  0.00  0.00     0.056 H 
ATOM     11  H   LIG d   1       7.668  -4.780  -6.428  0.00  0.00     0.056 H 
ATOM     12  H   LIG d   1       9.107  -2.492  -3.399  0.00  0.00     0.030 H 
ATOM     13  H   LIG d   1       8.019  -3.691  -2.659  0.00  0.00     0.030 H 
ENDROOT
BRANCH   1  14
ATOM     14  C   LIG d   1       6.486  -1.798  -3.804  0.00  0.00    -0.041 A 
ATOM     15  C   LIG d   1       6.986  -0.516  -3.676  0.00  0.00    -0.058 A 
ATOM     16  C   LIG d   1       6.244   0.454  -3.029  0.00  0.00    -0.059 A 
ATOM     17  H   LIG d   1       7.957  -0.272  -4.081  0.00  0.00     0.062 H 
ATOM     18  C   LIG d   1       5.000   0.141  -2.511  0.00  0.00    -0.050 A 
ATOM     19  H   LIG d   1       6.633   1.456  -2.928  0.00  0.00     0.062 H 
ATOM     20  C   LIG d   1       4.503  -1.143  -2.635  0.00  0.00    -0.059 A 
ATOM     21  C   LIG d   1       5.244  -2.111  -3.286  0.00  0.00    -0.058 A 
ATOM     22  H   LIG d   1       3.534  -1.388  -2.227  0.00  0.00     0.062 H 
ATOM     23  H   LIG d   1       4.853  -3.113  -3.387  0.00  0.00     0.062 H 
BRANCH  18  24
ATOM     24  C   LIG d   1       4.190   1.198  -1.806  0.00  0.00    -0.040 C 
ATOM     25  H   LIG d   1       3.832   1.927  -2.534  0.00  0.00     0.028 H 
ATOM     26  H   LIG d   1       3.337   0.733  -1.311  0.00  0.00     0.028 H 
ATOM     27  H   LIG d   1       4.812   1.700  -1.066  0.00  0.00     0.028 H 
ENDBRANCH  18  24
ENDBRANCH   1  14
BRANCH   1  28
ATOM     28  C   LIG d   1       7.882  -2.274  -5.800  0.00  0.00    -0.003 C 
ATOM     29  H   LIG d   1       8.393  -1.338  -5.575  0.00  0.00     0.033 H 
ATOM     30  H   LIG d   1       8.591  -2.982  -6.228  0.00  0.00     0.033 H 
BRANCH  28  31
ATOM     31  C   LIG d   1       6.755  -2.013  -6.800  0.00  0.00    -0.035 C 
ATOM     32  H   LIG d   1       6.835  -2.716  -7.629  0.00  0.00     0.081 H 
ATOM     33  H   LIG d   1       5.792  -2.142  -6.305  0.00  0.00     0.081 H 
BRANCH  31  34
ATOM     34  N   LIG d   1       6.862  -0.640  -7.311  0.00  0.00     0.218 N 
ATOM     35  H   LIG d   1       6.597  -0.621  -8.285  0.00  0.00     0.199 HD
ATOM     36  H   LIG d   1       6.249  -0.036  -6.785  0.00  0.00     0.199 HD
ATOM     37  H   LIG d   1       7.814  -0.319  -7.216  0.00  0.00     0.199 HD
ENDBRANCH  31  34
ENDBRANCH  28  31
ENDBRANCH   1  28
BRANCH   5  38
ATOM     38  C   LIG d   1      10.302  -4.968  -3.363  0.00  0.00    -0.020 C 
ATOM     39  H   LIG d   1      10.642  -5.944  -3.710  0.00  0.00     0.032 H 
BRANCH  38  40
ATOM     40  C   LIG d   1      11.475  -3.987  -3.368  0.00  0.00    -0.060 C 
ATOM     41  H   LIG d   1      12.079  -4.137  -2.474  0.00  0.00     0.023 H 
ATOM     42  H   LIG d   1      12.088  -4.158  -4.253  0.00  0.00     0.023 H 
ATOM     43  H   LIG d   1      11.095  -2.965  -3.383  0.00  0.00     0.023 H 
ENDBRANCH  38  40
BRANCH  38  44
ATOM     44  C   LIG d   1       9.750  -5.095  -1.941  0.00  0.00    -0.060 C 
ATOM     45  H   LIG d   1       8.874  -4.457  -1.834  0.00  0.00     0.023 H 
ATOM     46  H   LIG d   1       9.470  -6.132  -1.752  0.00  0.00     0.023 H 
ATOM     47  H   LIG d   1      10.513  -4.788  -1.227  0.00  0.00     0.023 H 
ENDBRANCH  38  44
ENDBRANCH   5  38
TORSDOF 8
ENDMDL
MODEL 10
REMARK VINA RESULT:      -5.0      2.915      5.415
REMARK  8 active torsions:
REMARK  status: ('A' for Active; 'I' for Inactive)
REMARK    1  A    between atoms: C_1  and  C_2 
REMARK    2  A    between atoms: C_5  and  C_8 
REMARK    3  A    between atoms: C_8  and  C_18 
REMARK    4  A    between atoms: C_12  and  C_15 
REMARK    5  A    between atoms: C_15  and  C_16 
REMARK    6  A    between atoms: C_15  and  C_17 
REMARK    7  A    between atoms: C_18  and  C_19 
REMARK    8  A    between atoms: C_19  and  N_20 
ROOT
ATOM      1  C   LIG d   1       5.957  -3.426  -5.099  0.00  0.00     0.005 C 
ATOM      2  C   LIG d   1       4.861  -4.495  -5.077  0.00  0.00    -0.019 C 
ATOM      3  C   LIG d   1       5.283  -5.668  -5.964  0.00  0.00     0.049 C 
ATOM      4  O   LIG d   1       6.533  -6.187  -5.501  0.00  0.00    -0.376 OA
ATOM      5  C   LIG d   1       7.607  -5.245  -5.544  0.00  0.00     0.062 C 
ATOM      6  H   LIG d   1       7.745  -4.897  -6.568  0.00  0.00     0.060 H 
ATOM      7  C   LIG d   1       7.277  -4.054  -4.641  0.00  0.00    -0.016 C 
ATOM      8  H   LIG d   1       4.714  -4.844  -4.055  0.00  0.00     0.030 H 
ATOM      9  H   LIG d   1       3.931  -4.069  -5.455  0.00  0.00     0.030 H 
ATOM     10  H   LIG d   1       4.526  -6.451  -5.918  0.00  0.00     0.056 H 
ATOM     11  H   LIG d   1       5.391  -5.325  -6.993  0.00  0.00     0.056 H 
ATOM     12  H   LIG d   1       8.075  -3.314  -4.706  0.00  0.00     0.030 H 
ATOM     13  H   LIG d   1       7.180  -4.395  -3.610  0.00  0.00     0.030 H 
ENDROOT
BRANCH   1  14
ATOM     14  C   LIG d   1       5.585  -2.300  -4.168  0.00  0.00    -0.041 A 
ATOM     15  C   LIG d   1       6.392  -1.181  -4.080  0.00  0.00    -0.058 A 
ATOM     16  C   LIG d   1       6.051  -0.149  -3.226  0.00  0.00    -0.059 A 
ATOM     17  H   LIG d   1       7.289  -1.114  -4.676  0.00  0.00     0.062 H 
ATOM     18  C   LIG d   1       4.901  -0.235  -2.463  0.00  0.00    -0.050 A 
ATOM     19  H   LIG d   1       6.680   0.726  -3.157  0.00  0.00     0.062 H 
ATOM     20  C   LIG d   1       4.097  -1.356  -2.548  0.00  0.00    -0.059 A 
ATOM     21  C   LIG d   1       4.437  -2.387  -3.404  0.00  0.00    -0.058 A 
ATOM     22  H   LIG d   1       3.202  -1.425  -1.949  0.00  0.00     0.062 H 
ATOM     23  H   LIG d   1       3.806  -3.261  -3.474  0.00  0.00     0.062 H 
BRANCH  18  24
ATOM     24  C   LIG d   1       4.528   0.891  -1.534  0.00  0.00    -0.040 C 
ATOM     25  H   LIG d   1       3.504   1.206  -1.738  0.00  0.00     0.028 H 
ATOM     26  H   LIG d   1       4.603   0.550  -0.501  0.00  0.00     0.028 H 
ATOM     27  H   LIG d   1       5.204   1.732  -1.690  0.00  0.00     0.028 H 
ENDBRANCH  18  24
ENDBRANCH   1  14
BRANCH   1  28
ATOM     28  C   LIG d   1       6.117  -2.882  -6.520  0.00  0.00    -0.003 C 
ATOM     29  H   LIG d   1       6.789  -2.024  -6.507  0.00  0.00     0.033 H 
ATOM     30  H   LIG d   1       6.532  -3.659  -7.162  0.00  0.00     0.033 H 
BRANCH  28  31
ATOM     31  C   LIG d   1       4.751  -2.451  -7.058  0.00  0.00    -0.035 C 
ATOM     32  H   LIG d   1       4.502  -3.048  -7.936  0.00  0.00     0.081 H 
ATOM     33  H   LIG d   1       3.994  -2.603  -6.289  0.00  0.00     0.081 H 
BRANCH  31  34
ATOM     34  N   LIG d   1       4.797  -1.031  -7.429  0.00  0.00     0.218 N 
ATOM     35  H   LIG d   1       4.865  -0.946  -8.432  0.00  0.00     0.199 HD
ATOM     36  H   LIG d   1       3.956  -0.572  -7.110  0.00  0.00     0.199 HD
ATOM     37  H   LIG d   1       5.600  -0.596  -6.999  0.00  0.00     0.199 HD
ENDBRANCH  31  34
ENDBRANCH  28  31
ENDBRANCH   1  28
BRANCH   5  38
ATOM     38  C   LIG d   1       8.893  -5.915  -5.056  0.00  0.00    -0.020 C 
ATOM     39  H   LIG d   1       9.624  -5.928  -5.864  0.00  0.00     0.032 H 
BRANCH  38  40
ATOM     40  C   LIG d   1       9.457  -5.132  -3.870  0.00  0.00    -0.060 C 
ATOM     41  H   LIG d   1      10.206  -5.737  -3.358  0.00  0.00     0.023 H 
ATOM     42  H   LIG d   1       9.917  -4.211  -4.228  0.00  0.00     0.023 H 
ATOM     43  H   LIG d   1       8.651  -4.890  -3.178  0.00  0.00     0.023 H 
ENDBRANCH  38  40
BRANCH  38  44
ATOM     44  C   LIG d   1       8.587  -7.350  -4.621  0.00  0.00    -0.060 C 
ATOM     45  H   LIG d   1       8.184  -7.907  -5.467  0.00  0.00     0.023 H 
ATOM     46  H   LIG d   1       9.504  -7.827  -4.274  0.00  0.00     0.023 H 
ATOM     47  H   LIG d   1       7.856  -7.336  -3.813  0.00  0.00     0.023 H 
ENDBRANCH  38  44
ENDBRANCH   5  38
TORSDOF 8
ENDMDL
