MODEL 1
REMARK VINA RESULT:      -6.6      0.000      0.000
REMARK  10 active torsions:
REMARK  status: ('A' for Active; 'I' for Inactive)
REMARK    1  A    between atoms: C_1  and  O_2 
REMARK    2  A    between atoms: O_2  and  C_3 
REMARK    3  A    between atoms: C_5  and  C_13 
REMARK    4  A    between atoms: C_7  and  O_11 
REMARK    5  A    between atoms: C_8  and  O_9 
REMARK    6  A    between atoms: O_9  and  C_10 
REMARK    7  A    between atoms: O_11  and  C_12 
REMARK    8  A    between atoms: C_20  and  O_24 
REMARK    9  A    between atoms: O_24  and  C_25 
REMARK   10  A    between atoms: C_25  and  C_27 
ROOT
ATOM      1  C   LIG d   1      10.862   3.523  -3.913  0.00  0.00    -0.008 C 
ATOM      2  C   LIG d   1       9.905   2.563  -4.008  0.00  0.00     0.176 A 
ATOM      3  C   LIG d   1      10.046   1.260  -4.671  0.00  0.00     0.232 A 
ATOM      4  O   LIG d   1      11.028   0.815  -5.243  0.00  0.00    -0.283 OA
ATOM      5  C   LIG d   1       8.734   0.611  -4.496  0.00  0.00     0.068 A 
ATOM      6  C   LIG d   1       8.223  -0.629  -4.879  0.00  0.00    -0.044 A 
ATOM      7  C   LIG d   1       6.938  -0.966  -4.559  0.00  0.00    -0.018 A 
ATOM      8  C   LIG d   1       6.139  -0.076  -3.847  0.00  0.00     0.136 A 
ATOM      9  C   LIG d   1       6.635   1.157  -3.454  0.00  0.00     0.024 A 
ATOM     10  C   LIG d   1       7.940   1.514  -3.771  0.00  0.00     0.143 A 
ATOM     11  O   LIG d   1       8.649   2.634  -3.509  0.00  0.00    -0.451 OA
ATOM     12  H   LIG d   1      11.864   3.322  -4.259  0.00  0.00     0.066 H 
ATOM     13  H   LIG d   1       8.842  -1.321  -5.432  0.00  0.00     0.063 H 
ATOM     14  H   LIG d   1       6.541  -1.923  -4.861  0.00  0.00     0.065 H 
ATOM     15  H   LIG d   1       6.007   1.841  -2.901  0.00  0.00     0.069 H 
ENDROOT
BRANCH   1  16
ATOM     16  C   LIG d   1      10.532   4.832  -3.338  0.00  0.00    -0.014 A 
ATOM     17  C   LIG d   1      10.484   4.997  -1.948  0.00  0.00    -0.009 A 
ATOM     18  C   LIG d   1      10.174   6.232  -1.411  0.00  0.00     0.166 A 
ATOM     19  H   LIG d   1      10.688   4.161  -1.298  0.00  0.00     0.066 H 
ATOM     20  C   LIG d   1       9.910   7.312  -2.251  0.00  0.00     0.203 A 
ATOM     21  C   LIG d   1       9.957   7.152  -3.633  0.00  0.00     0.166 A 
ATOM     22  C   LIG d   1      10.272   5.922  -4.178  0.00  0.00    -0.009 A 
ATOM     23  H   LIG d   1      10.313   5.801  -5.251  0.00  0.00     0.066 H 
BRANCH  18  24
ATOM     24  O   LIG d   1      10.127   6.393  -0.062  0.00  0.00    -0.491 OA
BRANCH  24  25
ATOM     25  C   LIG d   1      11.229   5.883   0.691  0.00  0.00     0.079 C 
ATOM     26  H   LIG d   1      10.946   4.940   1.156  0.00  0.00     0.066 H 
ATOM     27  H   LIG d   1      12.078   5.720   0.026  0.00  0.00     0.066 H 
ATOM     28  H   LIG d   1      11.504   6.602   1.463  0.00  0.00     0.066 H 
ENDBRANCH  24  25
ENDBRANCH  18  24
BRANCH  20  29
ATOM     29  O   LIG d   1       9.605   8.525  -1.718  0.00  0.00    -0.488 OA
BRANCH  29  30
ATOM     30  C   LIG d   1      10.691   9.423  -1.484  0.00  0.00     0.079 C 
ATOM     31  H   LIG d   1      10.710  10.181  -2.267  0.00  0.00     0.066 H 
ATOM     32  H   LIG d   1      10.563   9.905  -0.515  0.00  0.00     0.066 H 
ATOM     33  H   LIG d   1      11.629   8.869  -1.492  0.00  0.00     0.066 H 
ENDBRANCH  29  30
ENDBRANCH  20  29
BRANCH  21  34
ATOM     34  O   LIG d   1       9.698   8.210  -4.449  0.00  0.00    -0.491 OA
BRANCH  34  35
ATOM     35  C   LIG d   1       9.267   7.914  -5.779  0.00  0.00     0.079 C 
ATOM     36  H   LIG d   1      10.137   7.751  -6.415  0.00  0.00     0.066 H 
ATOM     37  H   LIG d   1       8.650   7.015  -5.769  0.00  0.00     0.066 H 
ATOM     38  H   LIG d   1       8.685   8.750  -6.167  0.00  0.00     0.066 H 
ENDBRANCH  34  35
ENDBRANCH  21  34
ENDBRANCH   1  16
BRANCH   8  39
ATOM     39  O   LIG d   1       4.863  -0.418  -3.534  0.00  0.00    -0.422 OA
BRANCH  39  40
ATOM     40  C   LIG d   1       4.262  -1.328  -4.326  0.00  0.00     0.344 C 
ATOM     41  O   LIG d   1       4.002  -2.432  -3.893  0.00  0.00    -0.244 OA
BRANCH  40  42
ATOM     42  C   LIG d   1       3.920  -0.981  -5.720  0.00  0.00     0.059 A 
ATOM     43  C   LIG d   1       3.140   0.145  -5.991  0.00  0.00    -0.047 A 
ATOM     44  C   LIG d   1       2.824   0.464  -7.295  0.00  0.00    -0.047 A 
ATOM     45  H   LIG d   1       2.786   0.766  -5.181  0.00  0.00     0.063 H 
ATOM     46  C   LIG d   1       3.277  -0.331  -8.334  0.00  0.00     0.018 A 
ATOM     47  H   LIG d   1       2.221   1.336  -7.506  0.00  0.00     0.063 H 
ATOM     48  C   LIG d   1       4.052  -1.449  -8.072  0.00  0.00    -0.047 A 
ATOM     49 BR   LIG d   1       2.839   0.113 -10.119  0.00  0.00    -0.050 Br
ATOM     50  C   LIG d   1       4.380  -1.775  -6.774  0.00  0.00    -0.047 A 
ATOM     51  H   LIG d   1       4.402  -2.065  -8.887  0.00  0.00     0.063 H 
ATOM     52  H   LIG d   1       4.987  -2.644  -6.570  0.00  0.00     0.063 H 
ENDBRANCH  40  42
ENDBRANCH  39  40
ENDBRANCH   8  39
TORSDOF 10
ENDMDL
MODEL 2
REMARK VINA RESULT:      -6.6      0.035      2.260
REMARK  10 active torsions:
REMARK  status: ('A' for Active; 'I' for Inactive)
REMARK    1  A    between atoms: C_1  and  O_2 
REMARK    2  A    between atoms: O_2  and  C_3 
REMARK    3  A    between atoms: C_5  and  C_13 
REMARK    4  A    between atoms: C_7  and  O_11 
REMARK    5  A    between atoms: C_8  and  O_9 
REMARK    6  A    between atoms: O_9  and  C_10 
REMARK    7  A    between atoms: O_11  and  C_12 
REMARK    8  A    between atoms: C_20  and  O_24 
REMARK    9  A    between atoms: O_24  and  C_25 
REMARK   10  A    between atoms: C_25  and  C_27 
ROOT
ATOM      1  C   LIG d   1      10.843   3.522  -3.918  0.00  0.00    -0.008 C 
ATOM      2  C   LIG d   1       9.888   2.560  -4.015  0.00  0.00     0.176 A 
ATOM      3  C   LIG d   1      10.029   1.261  -4.686  0.00  0.00     0.232 A 
ATOM      4  O   LIG d   1      11.008   0.822  -5.266  0.00  0.00    -0.283 OA
ATOM      5  C   LIG d   1       8.718   0.609  -4.509  0.00  0.00     0.068 A 
ATOM      6  C   LIG d   1       8.208  -0.630  -4.897  0.00  0.00    -0.044 A 
ATOM      7  C   LIG d   1       6.925  -0.971  -4.573  0.00  0.00    -0.018 A 
ATOM      8  C   LIG d   1       6.129  -0.087  -3.851  0.00  0.00     0.136 A 
ATOM      9  C   LIG d   1       6.624   1.144  -3.454  0.00  0.00     0.024 A 
ATOM     10  C   LIG d   1       7.926   1.506  -3.774  0.00  0.00     0.143 A 
ATOM     11  O   LIG d   1       8.634   2.625  -3.509  0.00  0.00    -0.451 OA
ATOM     12  H   LIG d   1      11.844   3.325  -4.271  0.00  0.00     0.066 H 
ATOM     13  H   LIG d   1       8.826  -1.318  -5.458  0.00  0.00     0.063 H 
ATOM     14  H   LIG d   1       6.529  -1.928  -4.879  0.00  0.00     0.065 H 
ATOM     15  H   LIG d   1       5.997   1.823  -2.893  0.00  0.00     0.069 H 
ENDROOT
BRANCH   1  16
ATOM     16  C   LIG d   1      10.514   4.827  -3.334  0.00  0.00    -0.014 A 
ATOM     17  C   LIG d   1      10.218   5.914  -4.166  0.00  0.00    -0.009 A 
ATOM     18  C   LIG d   1       9.908   7.141  -3.612  0.00  0.00     0.166 A 
ATOM     19  H   LIG d   1      10.233   5.793  -5.239  0.00  0.00     0.066 H 
ATOM     20  C   LIG d   1       9.890   7.298  -2.228  0.00  0.00     0.203 A 
ATOM     21  C   LIG d   1      10.184   6.219  -1.397  0.00  0.00     0.166 A 
ATOM     22  C   LIG d   1      10.489   4.988  -1.943  0.00  0.00    -0.009 A 
ATOM     23  H   LIG d   1      10.711   4.151  -1.298  0.00  0.00     0.066 H 
BRANCH  18  24
ATOM     24  O   LIG d   1       9.621   8.197  -4.419  0.00  0.00    -0.491 OA
BRANCH  24  25
ATOM     25  C   LIG d   1       9.334   7.908  -5.788  0.00  0.00     0.079 C 
ATOM     26  H   LIG d   1       9.905   7.035  -6.103  0.00  0.00     0.066 H 
ATOM     27  H   LIG d   1       8.268   7.704  -5.901  0.00  0.00     0.066 H 
ATOM     28  H   LIG d   1       9.608   8.764  -6.406  0.00  0.00     0.066 H 
ENDBRANCH  24  25
ENDBRANCH  18  24
BRANCH  20  29
ATOM     29  O   LIG d   1       9.585   8.507  -1.687  0.00  0.00    -0.488 OA
BRANCH  29  30
ATOM     30  C   LIG d   1      10.674   9.397  -1.432  0.00  0.00     0.079 C 
ATOM     31  H   LIG d   1      10.755  10.115  -2.249  0.00  0.00     0.066 H 
ATOM     32  H   LIG d   1      10.497   9.929  -0.497  0.00  0.00     0.066 H 
ATOM     33  H   LIG d   1      11.600   8.827  -1.356  0.00  0.00     0.066 H 
ENDBRANCH  29  30
ENDBRANCH  20  29
BRANCH  21  34
ATOM     34  O   LIG d   1      10.165   6.378  -0.047  0.00  0.00    -0.491 OA
BRANCH  34  35
ATOM     35  C   LIG d   1      11.281   5.863   0.683  0.00  0.00     0.079 C 
ATOM     36  H   LIG d   1      11.747   6.669   1.250  0.00  0.00     0.066 H 
ATOM     37  H   LIG d   1      10.940   5.086   1.368  0.00  0.00     0.066 H 
ATOM     38  H   LIG d   1      12.007   5.442  -0.012  0.00  0.00     0.066 H 
ENDBRANCH  34  35
ENDBRANCH  21  34
ENDBRANCH   1  16
BRANCH   8  39
ATOM     39  O   LIG d   1       4.855  -0.434  -3.535  0.00  0.00    -0.422 OA
BRANCH  39  40
ATOM     40  C   LIG d   1       4.252  -1.341  -4.330  0.00  0.00     0.344 C 
ATOM     41  O   LIG d   1       3.985  -2.444  -3.898  0.00  0.00    -0.244 OA
BRANCH  40  42
ATOM     42  C   LIG d   1       3.915  -0.991  -5.724  0.00  0.00     0.059 A 
ATOM     43  C   LIG d   1       3.115   0.121  -5.994  0.00  0.00    -0.047 A 
ATOM     44  C   LIG d   1       2.804   0.442  -7.299  0.00  0.00    -0.047 A 
ATOM     45  H   LIG d   1       2.740   0.728  -5.184  0.00  0.00     0.063 H 
ATOM     46  C   LIG d   1       3.283  -0.335  -8.340  0.00  0.00     0.018 A 
ATOM     47  H   LIG d   1       2.185   1.303  -7.510  0.00  0.00     0.063 H 
ATOM     48  C   LIG d   1       4.078  -1.439  -8.078  0.00  0.00    -0.047 A 
ATOM     49 BR   LIG d   1       2.852   0.112 -10.125  0.00  0.00    -0.050 Br
ATOM     50  C   LIG d   1       4.401  -1.768  -6.779  0.00  0.00    -0.047 A 
ATOM     51  H   LIG d   1       4.448  -2.042  -8.894  0.00  0.00     0.063 H 
ATOM     52  H   LIG d   1       5.024  -2.626  -6.576  0.00  0.00     0.063 H 
ENDBRANCH  40  42
ENDBRANCH  39  40
ENDBRANCH   8  39
TORSDOF 10
ENDMDL
MODEL 3
REMARK VINA RESULT:      -6.6      4.013      9.923
REMARK  10 active torsions:
REMARK  status: ('A' for Active; 'I' for Inactive)
REMARK    1  A    between atoms: C_1  and  O_2 
REMARK    2  A    between atoms: O_2  and  C_3 
REMARK    3  A    between atoms: C_5  and  C_13 
REMARK    4  A    between atoms: C_7  and  O_11 
REMARK    5  A    between atoms: C_8  and  O_9 
REMARK    6  A    between atoms: O_9  and  C_10 
REMARK    7  A    between atoms: O_11  and  C_12 
REMARK    8  A    between atoms: C_20  and  O_24 
REMARK    9  A    between atoms: O_24  and  C_25 
REMARK   10  A    between atoms: C_25  and  C_27 
ROOT
ATOM      1  C   LIG d   1       8.307   2.220  -5.163  0.00  0.00    -0.008 C 
ATOM      2  C   LIG d   1       9.158   3.044  -4.498  0.00  0.00     0.176 A 
ATOM      3  C   LIG d   1      10.071   4.022  -5.105  0.00  0.00     0.232 A 
ATOM      4  O   LIG d   1      10.227   4.263  -6.290  0.00  0.00    -0.283 OA
ATOM      5  C   LIG d   1      10.764   4.642  -3.961  0.00  0.00     0.068 A 
ATOM      6  C   LIG d   1      11.735   5.638  -3.858  0.00  0.00    -0.044 A 
ATOM      7  C   LIG d   1      12.192   6.021  -2.628  0.00  0.00    -0.018 A 
ATOM      8  C   LIG d   1      11.686   5.423  -1.478  0.00  0.00     0.136 A 
ATOM      9  C   LIG d   1      10.717   4.436  -1.564  0.00  0.00     0.024 A 
ATOM     10  C   LIG d   1      10.241   4.036  -2.807  0.00  0.00     0.143 A 
ATOM     11  O   LIG d   1       9.317   3.115  -3.156  0.00  0.00    -0.451 OA
ATOM     12  H   LIG d   1       8.186   2.318  -6.231  0.00  0.00     0.066 H 
ATOM     13  H   LIG d   1      12.129   6.103  -4.750  0.00  0.00     0.063 H 
ATOM     14  H   LIG d   1      12.947   6.788  -2.549  0.00  0.00     0.065 H 
ATOM     15  H   LIG d   1      10.330   3.979  -0.665  0.00  0.00     0.069 H 
ENDROOT
BRANCH   1  16
ATOM     16  C   LIG d   1       7.551   1.199  -4.429  0.00  0.00    -0.014 A 
ATOM     17  C   LIG d   1       6.584   1.580  -3.490  0.00  0.00    -0.009 A 
ATOM     18  C   LIG d   1       5.875   0.615  -2.802  0.00  0.00     0.166 A 
ATOM     19  H   LIG d   1       6.393   2.626  -3.305  0.00  0.00     0.066 H 
ATOM     20  C   LIG d   1       6.121  -0.736  -3.040  0.00  0.00     0.203 A 
ATOM     21  C   LIG d   1       7.082  -1.119  -3.972  0.00  0.00     0.166 A 
ATOM     22  C   LIG d   1       7.791  -0.160  -4.669  0.00  0.00    -0.009 A 
ATOM     23  H   LIG d   1       8.533  -0.458  -5.396  0.00  0.00     0.066 H 
BRANCH  18  24
ATOM     24  O   LIG d   1       4.935   0.983  -1.891  0.00  0.00    -0.491 OA
BRANCH  24  25
ATOM     25  C   LIG d   1       3.671   1.412  -2.400  0.00  0.00     0.079 C 
ATOM     26  H   LIG d   1       3.164   2.019  -1.650  0.00  0.00     0.066 H 
ATOM     27  H   LIG d   1       3.826   2.005  -3.303  0.00  0.00     0.066 H 
ATOM     28  H   LIG d   1       3.060   0.541  -2.637  0.00  0.00     0.066 H 
ENDBRANCH  24  25
ENDBRANCH  18  24
BRANCH  20  29
ATOM     29  O   LIG d   1       5.421  -1.682  -2.359  0.00  0.00    -0.488 OA
BRANCH  29  30
ATOM     30  C   LIG d   1       4.224  -2.168  -2.970  0.00  0.00     0.079 C 
ATOM     31  H   LIG d   1       3.387  -2.033  -2.285  0.00  0.00     0.066 H 
ATOM     32  H   LIG d   1       4.034  -1.615  -3.890  0.00  0.00     0.066 H 
ATOM     33  H   LIG d   1       4.338  -3.227  -3.201  0.00  0.00     0.066 H 
ENDBRANCH  29  30
ENDBRANCH  20  29
BRANCH  21  34
ATOM     34  O   LIG d   1       7.319  -2.439  -4.201  0.00  0.00    -0.491 OA
BRANCH  34  35
ATOM     35  C   LIG d   1       6.934  -2.956  -5.477  0.00  0.00     0.079 C 
ATOM     36  H   LIG d   1       7.369  -3.946  -5.613  0.00  0.00     0.066 H 
ATOM     37  H   LIG d   1       5.848  -3.025  -5.528  0.00  0.00     0.066 H 
ATOM     38  H   LIG d   1       7.293  -2.291  -6.262  0.00  0.00     0.066 H 
ENDBRANCH  34  35
ENDBRANCH  21  34
ENDBRANCH   1  16
BRANCH   8  39
ATOM     39  O   LIG d   1      12.146   5.809  -0.260  0.00  0.00    -0.422 OA
BRANCH  39  40
ATOM     40  C   LIG d   1      11.265   6.402   0.568  0.00  0.00     0.344 C 
ATOM     41  O   LIG d   1      10.627   5.734   1.356  0.00  0.00    -0.244 OA
BRANCH  40  42
ATOM     42  C   LIG d   1      11.074   7.866   0.517  0.00  0.00     0.059 A 
ATOM     43  C   LIG d   1      10.186   8.425  -0.405  0.00  0.00    -0.047 A 
ATOM     44  C   LIG d   1      10.012   9.792  -0.447  0.00  0.00    -0.047 A 
ATOM     45  H   LIG d   1       9.636   7.789  -1.082  0.00  0.00     0.063 H 
ATOM     46  C   LIG d   1      10.716  10.611   0.421  0.00  0.00     0.018 A 
ATOM     47  H   LIG d   1       9.325  10.227  -1.159  0.00  0.00     0.063 H 
ATOM     48  C   LIG d   1      11.597  10.062   1.337  0.00  0.00    -0.047 A 
ATOM     49 BR   LIG d   1      10.472  12.484   0.355  0.00  0.00    -0.050 Br
ATOM     50  C   LIG d   1      11.776   8.696   1.394  0.00  0.00    -0.047 A 
ATOM     51  H   LIG d   1      12.144  10.705   2.011  0.00  0.00     0.063 H 
ATOM     52  H   LIG d   1      12.460   8.268   2.112  0.00  0.00     0.063 H 
ENDBRANCH  40  42
ENDBRANCH  39  40
ENDBRANCH   8  39
TORSDOF 10
ENDMDL
MODEL 4
REMARK VINA RESULT:      -6.3      2.147      3.211
REMARK  10 active torsions:
REMARK  status: ('A' for Active; 'I' for Inactive)
REMARK    1  A    between atoms: C_1  and  O_2 
REMARK    2  A    between atoms: O_2  and  C_3 
REMARK    3  A    between atoms: C_5  and  C_13 
REMARK    4  A    between atoms: C_7  and  O_11 
REMARK    5  A    between atoms: C_8  and  O_9 
REMARK    6  A    between atoms: O_9  and  C_10 
REMARK    7  A    between atoms: O_11  and  C_12 
REMARK    8  A    between atoms: C_20  and  O_24 
REMARK    9  A    between atoms: O_24  and  C_25 
REMARK   10  A    between atoms: C_25  and  C_27 
ROOT
ATOM      1  C   LIG d   1      10.568   5.521  -4.329  0.00  0.00    -0.008 C 
ATOM      2  C   LIG d   1       9.857   4.404  -4.629  0.00  0.00     0.176 A 
ATOM      3  C   LIG d   1       9.621   3.860  -5.973  0.00  0.00     0.232 A 
ATOM      4  O   LIG d   1      10.013   4.306  -7.039  0.00  0.00    -0.283 OA
ATOM      5  C   LIG d   1       8.800   2.657  -5.747  0.00  0.00     0.068 A 
ATOM      6  C   LIG d   1       8.254   1.699  -6.602  0.00  0.00    -0.044 A 
ATOM      7  C   LIG d   1       7.525   0.663  -6.089  0.00  0.00    -0.018 A 
ATOM      8  C   LIG d   1       7.331   0.559  -4.714  0.00  0.00     0.136 A 
ATOM      9  C   LIG d   1       7.872   1.500  -3.853  0.00  0.00     0.024 A 
ATOM     10  C   LIG d   1       8.616   2.558  -4.358  0.00  0.00     0.143 A 
ATOM     11  O   LIG d   1       9.239   3.587  -3.744  0.00  0.00    -0.451 OA
ATOM     12  H   LIG d   1      11.107   6.044  -5.106  0.00  0.00     0.066 H 
ATOM     13  H   LIG d   1       8.404   1.778  -7.669  0.00  0.00     0.063 H 
ATOM     14  H   LIG d   1       7.098  -0.075  -6.751  0.00  0.00     0.065 H 
ATOM     15  H   LIG d   1       7.716   1.410  -2.787  0.00  0.00     0.069 H 
ENDROOT
BRANCH   1  16
ATOM     16  C   LIG d   1      10.605   6.019  -2.949  0.00  0.00    -0.014 A 
ATOM     17  C   LIG d   1       9.560   6.815  -2.461  0.00  0.00    -0.009 A 
ATOM     18  C   LIG d   1       9.598   7.281  -1.161  0.00  0.00     0.166 A 
ATOM     19  H   LIG d   1       8.727   7.063  -3.101  0.00  0.00     0.066 H 
ATOM     20  C   LIG d   1      10.674   6.961  -0.336  0.00  0.00     0.203 A 
ATOM     21  C   LIG d   1      11.715   6.170  -0.817  0.00  0.00     0.166 A 
ATOM     22  C   LIG d   1      11.681   5.695  -2.114  0.00  0.00    -0.009 A 
ATOM     23  H   LIG d   1      12.486   5.077  -2.484  0.00  0.00     0.066 H 
BRANCH  18  24
ATOM     24  O   LIG d   1       8.585   8.053  -0.687  0.00  0.00    -0.491 OA
BRANCH  24  25
ATOM     25  C   LIG d   1       8.668   9.457  -0.937  0.00  0.00     0.079 C 
ATOM     26  H   LIG d   1       7.905   9.975  -0.358  0.00  0.00     0.066 H 
ATOM     27  H   LIG d   1       9.654   9.820  -0.645  0.00  0.00     0.066 H 
ATOM     28  H   LIG d   1       8.511   9.647  -1.999  0.00  0.00     0.066 H 
ENDBRANCH  24  25
ENDBRANCH  18  24
BRANCH  20  29
ATOM     29  O   LIG d   1      10.708   7.422   0.942  0.00  0.00    -0.488 OA
BRANCH  29  30
ATOM     30  C   LIG d   1      11.471   8.605   1.185  0.00  0.00     0.079 C 
ATOM     31  H   LIG d   1      11.436   9.247   0.305  0.00  0.00     0.066 H 
ATOM     32  H   LIG d   1      11.054   9.138   2.040  0.00  0.00     0.066 H 
ATOM     33  H   LIG d   1      12.505   8.334   1.396  0.00  0.00     0.066 H 
ENDBRANCH  29  30
ENDBRANCH  20  29
BRANCH  21  34
ATOM     34  O   LIG d   1      12.763   5.860  -0.007  0.00  0.00    -0.491 OA
BRANCH  34  35
ATOM     35  C   LIG d   1      14.073   6.136  -0.507  0.00  0.00     0.079 C 
ATOM     36  H   LIG d   1      14.431   7.076  -0.087  0.00  0.00     0.066 H 
ATOM     37  H   LIG d   1      14.748   5.330  -0.221  0.00  0.00     0.066 H 
ATOM     38  H   LIG d   1      14.039   6.214  -1.593  0.00  0.00     0.066 H 
ENDBRANCH  34  35
ENDBRANCH  21  34
ENDBRANCH   1  16
BRANCH   8  39
ATOM     39  O   LIG d   1       6.604  -0.473  -4.213  0.00  0.00    -0.422 OA
BRANCH  39  40
ATOM     40  C   LIG d   1       5.353  -0.628  -4.689  0.00  0.00     0.344 C 
ATOM     41  O   LIG d   1       4.509   0.216  -4.464  0.00  0.00    -0.244 OA
BRANCH  40  42
ATOM     42  C   LIG d   1       5.009  -1.824  -5.483  0.00  0.00     0.059 A 
ATOM     43  C   LIG d   1       5.035  -3.089  -4.891  0.00  0.00    -0.047 A 
ATOM     44  C   LIG d   1       4.713  -4.203  -5.638  0.00  0.00    -0.047 A 
ATOM     45  H   LIG d   1       5.308  -3.196  -3.852  0.00  0.00     0.063 H 
ATOM     46  C   LIG d   1       4.363  -4.069  -6.971  0.00  0.00     0.018 A 
ATOM     47  H   LIG d   1       4.732  -5.182  -5.182  0.00  0.00     0.063 H 
ATOM     48  C   LIG d   1       4.334  -2.817  -7.563  0.00  0.00    -0.047 A 
ATOM     49 BR   LIG d   1       3.922  -5.601  -7.988  0.00  0.00    -0.050 Br
ATOM     50  C   LIG d   1       4.649  -1.695  -6.826  0.00  0.00    -0.047 A 
ATOM     51  H   LIG d   1       4.062  -2.720  -8.603  0.00  0.00     0.063 H 
ATOM     52  H   LIG d   1       4.623  -0.719  -7.287  0.00  0.00     0.063 H 
ENDBRANCH  40  42
ENDBRANCH  39  40
ENDBRANCH   8  39
TORSDOF 10
ENDMDL
MODEL 5
REMARK VINA RESULT:      -6.2      1.764      2.569
REMARK  10 active torsions:
REMARK  status: ('A' for Active; 'I' for Inactive)
REMARK    1  A    between atoms: C_1  and  O_2 
REMARK    2  A    between atoms: O_2  and  C_3 
REMARK    3  A    between atoms: C_5  and  C_13 
REMARK    4  A    between atoms: C_7  and  O_11 
REMARK    5  A    between atoms: C_8  and  O_9 
REMARK    6  A    between atoms: O_9  and  C_10 
REMARK    7  A    between atoms: O_11  and  C_12 
REMARK    8  A    between atoms: C_20  and  O_24 
REMARK    9  A    between atoms: O_24  and  C_25 
REMARK   10  A    between atoms: C_25  and  C_27 
ROOT
ATOM      1  C   LIG d   1      10.707   5.180  -4.638  0.00  0.00    -0.008 C 
ATOM      2  C   LIG d   1       9.923   4.122  -4.971  0.00  0.00     0.176 A 
ATOM      3  C   LIG d   1       9.625   3.657  -6.333  0.00  0.00     0.232 A 
ATOM      4  O   LIG d   1      10.019   4.129  -7.386  0.00  0.00    -0.283 OA
ATOM      5  C   LIG d   1       8.736   2.496  -6.141  0.00  0.00     0.068 A 
ATOM      6  C   LIG d   1       8.115   1.613  -7.025  0.00  0.00    -0.044 A 
ATOM      7  C   LIG d   1       7.335   0.600  -6.542  0.00  0.00    -0.018 A 
ATOM      8  C   LIG d   1       7.165   0.444  -5.169  0.00  0.00     0.136 A 
ATOM      9  C   LIG d   1       7.782   1.309  -4.279  0.00  0.00     0.024 A 
ATOM     10  C   LIG d   1       8.578   2.343  -4.754  0.00  0.00     0.143 A 
ATOM     11  O   LIG d   1       9.275   3.303  -4.109  0.00  0.00    -0.451 OA
ATOM     12  H   LIG d   1      11.259   5.704  -5.403  0.00  0.00     0.066 H 
ATOM     13  H   LIG d   1       8.245   1.734  -8.091  0.00  0.00     0.063 H 
ATOM     14  H   LIG d   1       6.850  -0.079  -7.226  0.00  0.00     0.065 H 
ATOM     15  H   LIG d   1       7.644   1.178  -3.216  0.00  0.00     0.069 H 
ENDROOT
BRANCH   1  16
ATOM     16  C   LIG d   1      10.804   5.609  -3.238  0.00  0.00    -0.014 A 
ATOM     17  C   LIG d   1      11.923   5.257  -2.472  0.00  0.00    -0.009 A 
ATOM     18  C   LIG d   1      12.011   5.663  -1.154  0.00  0.00     0.166 A 
ATOM     19  H   LIG d   1      12.715   4.669  -2.910  0.00  0.00     0.066 H 
ATOM     20  C   LIG d   1      10.989   6.422  -0.588  0.00  0.00     0.203 A 
ATOM     21  C   LIG d   1       9.875   6.773  -1.346  0.00  0.00     0.166 A 
ATOM     22  C   LIG d   1       9.782   6.376  -2.666  0.00  0.00    -0.009 A 
ATOM     23  H   LIG d   1       8.920   6.654  -3.255  0.00  0.00     0.066 H 
BRANCH  18  24
ATOM     24  O   LIG d   1      13.096   5.322  -0.410  0.00  0.00    -0.491 OA
BRANCH  24  25
ATOM     25  C   LIG d   1      14.355   5.864  -0.813  0.00  0.00     0.079 C 
ATOM     26  H   LIG d   1      14.439   6.891  -0.459  0.00  0.00     0.066 H 
ATOM     27  H   LIG d   1      15.161   5.266  -0.386  0.00  0.00     0.066 H 
ATOM     28  H   LIG d   1      14.426   5.848  -1.901  0.00  0.00     0.066 H 
ENDBRANCH  24  25
ENDBRANCH  18  24
BRANCH  20  29
ATOM     29  O   LIG d   1      11.079   6.819   0.709  0.00  0.00    -0.488 OA
BRANCH  29  30
ATOM     30  C   LIG d   1      10.914   5.812   1.709  0.00  0.00     0.079 C 
ATOM     31  H   LIG d   1      10.700   6.285   2.668  0.00  0.00     0.066 H 
ATOM     32  H   LIG d   1      10.086   5.158   1.434  0.00  0.00     0.066 H 
ATOM     33  H   LIG d   1      11.829   5.225   1.789  0.00  0.00     0.066 H 
ENDBRANCH  29  30
ENDBRANCH  20  29
BRANCH  21  34
ATOM     34  O   LIG d   1       8.880   7.514  -0.789  0.00  0.00    -0.491 OA
BRANCH  34  35
ATOM     35  C   LIG d   1       8.952   8.931  -0.957  0.00  0.00     0.079 C 
ATOM     36  H   LIG d   1       9.907   9.293  -0.576  0.00  0.00     0.066 H 
ATOM     37  H   LIG d   1       8.866   9.176  -2.015  0.00  0.00     0.066 H 
ATOM     38  H   LIG d   1       8.139   9.405  -0.407  0.00  0.00     0.066 H 
ENDBRANCH  34  35
ENDBRANCH  21  34
ENDBRANCH   1  16
BRANCH   8  39
ATOM     39  O   LIG d   1       6.388  -0.565  -4.698  0.00  0.00    -0.422 OA
BRANCH  39  40
ATOM     40  C   LIG d   1       5.054  -0.392  -4.764  0.00  0.00     0.344 C 
ATOM     41  O   LIG d   1       4.442  -0.004  -3.789  0.00  0.00    -0.244 OA
BRANCH  40  42
ATOM     42  C   LIG d   1       4.335  -0.672  -6.023  0.00  0.00     0.059 A 
ATOM     43  C   LIG d   1       4.631  -1.823  -6.757  0.00  0.00    -0.047 A 
ATOM     44  C   LIG d   1       3.956  -2.081  -7.932  0.00  0.00    -0.047 A 
ATOM     45  H   LIG d   1       5.385  -2.511  -6.405  0.00  0.00     0.063 H 
ATOM     46  C   LIG d   1       2.988  -1.200  -8.385  0.00  0.00     0.018 A 
ATOM     47  H   LIG d   1       4.183  -2.971  -8.501  0.00  0.00     0.063 H 
ATOM     48  C   LIG d   1       2.690  -0.057  -7.661  0.00  0.00    -0.047 A 
ATOM     49 BR   LIG d   1       2.068  -1.560  -9.997  0.00  0.00    -0.050 Br
ATOM     50  C   LIG d   1       3.353   0.208  -6.482  0.00  0.00    -0.047 A 
ATOM     51  H   LIG d   1       1.934   0.625  -8.020  0.00  0.00     0.063 H 
ATOM     52  H   LIG d   1       3.117   1.097  -5.916  0.00  0.00     0.063 H 
ENDBRANCH  40  42
ENDBRANCH  39  40
ENDBRANCH   8  39
TORSDOF 10
ENDMDL
MODEL 6
REMARK VINA RESULT:      -6.1      1.724      2.160
REMARK  10 active torsions:
REMARK  status: ('A' for Active; 'I' for Inactive)
REMARK    1  A    between atoms: C_1  and  O_2 
REMARK    2  A    between atoms: O_2  and  C_3 
REMARK    3  A    between atoms: C_5  and  C_13 
REMARK    4  A    between atoms: C_7  and  O_11 
REMARK    5  A    between atoms: C_8  and  O_9 
REMARK    6  A    between atoms: O_9  and  C_10 
REMARK    7  A    between atoms: O_11  and  C_12 
REMARK    8  A    between atoms: C_20  and  O_24 
REMARK    9  A    between atoms: O_24  and  C_25 
REMARK   10  A    between atoms: C_25  and  C_27 
ROOT
ATOM      1  C   LIG d   1      11.265   3.955  -3.746  0.00  0.00    -0.008 C 
ATOM      2  C   LIG d   1      10.371   2.956  -3.963  0.00  0.00     0.176 A 
ATOM      3  C   LIG d   1      10.619   1.716  -4.711  0.00  0.00     0.232 A 
ATOM      4  O   LIG d   1      11.651   1.369  -5.260  0.00  0.00    -0.283 OA
ATOM      5  C   LIG d   1       9.338   0.988  -4.654  0.00  0.00     0.068 A 
ATOM      6  C   LIG d   1       8.918  -0.245  -5.154  0.00  0.00    -0.044 A 
ATOM      7  C   LIG d   1       7.640  -0.673  -4.930  0.00  0.00    -0.018 A 
ATOM      8  C   LIG d   1       6.758   0.117  -4.198  0.00  0.00     0.136 A 
ATOM      9  C   LIG d   1       7.163   1.341  -3.690  0.00  0.00     0.024 A 
ATOM     10  C   LIG d   1       8.459   1.790  -3.909  0.00  0.00     0.143 A 
ATOM     11  O   LIG d   1       9.089   2.922  -3.528  0.00  0.00    -0.451 OA
ATOM     12  H   LIG d   1      12.294   3.834  -4.051  0.00  0.00     0.066 H 
ATOM     13  H   LIG d   1       9.602  -0.859  -5.723  0.00  0.00     0.063 H 
ATOM     14  H   LIG d   1       7.313  -1.624  -5.322  0.00  0.00     0.065 H 
ATOM     15  H   LIG d   1       6.470   1.946  -3.123  0.00  0.00     0.069 H 
ENDROOT
BRANCH   1  16
ATOM     16  C   LIG d   1      10.834   5.198  -3.095  0.00  0.00    -0.014 A 
ATOM     17  C   LIG d   1      10.701   5.252  -1.702  0.00  0.00    -0.009 A 
ATOM     18  C   LIG d   1      10.296   6.424  -1.093  0.00  0.00     0.166 A 
ATOM     19  H   LIG d   1      10.915   4.379  -1.105  0.00  0.00     0.066 H 
ATOM     20  C   LIG d   1      10.019   7.551  -1.864  0.00  0.00     0.203 A 
ATOM     21  C   LIG d   1      10.149   7.501  -3.249  0.00  0.00     0.166 A 
ATOM     22  C   LIG d   1      10.560   6.335  -3.865  0.00  0.00    -0.009 A 
ATOM     23  H   LIG d   1      10.666   6.299  -4.940  0.00  0.00     0.066 H 
BRANCH  18  24
ATOM     24  O   LIG d   1      10.167   6.477   0.259  0.00  0.00    -0.491 OA
BRANCH  24  25
ATOM     25  C   LIG d   1      11.164   5.808   1.032  0.00  0.00     0.079 C 
ATOM     26  H   LIG d   1      10.696   5.322   1.887  0.00  0.00     0.066 H 
ATOM     27  H   LIG d   1      11.661   5.059   0.415  0.00  0.00     0.066 H 
ATOM     28  H   LIG d   1      11.898   6.534   1.384  0.00  0.00     0.066 H 
ENDBRANCH  24  25
ENDBRANCH  18  24
BRANCH  20  29
ATOM     29  O   LIG d   1       9.619   8.702  -1.261  0.00  0.00    -0.488 OA
BRANCH  29  30
ATOM     30  C   LIG d   1      10.644   9.604  -0.840  0.00  0.00     0.079 C 
ATOM     31  H   LIG d   1      11.425   9.645  -1.600  0.00  0.00     0.066 H 
ATOM     32  H   LIG d   1      10.220  10.598  -0.702  0.00  0.00     0.066 H 
ATOM     33  H   LIG d   1      11.070   9.257   0.101  0.00  0.00     0.066 H 
ENDBRANCH  29  30
ENDBRANCH  20  29
BRANCH  21  34
ATOM     34  O   LIG d   1       9.878   8.605  -3.997  0.00  0.00    -0.491 OA
BRANCH  34  35
ATOM     35  C   LIG d   1       9.556   8.393  -5.374  0.00  0.00     0.079 C 
ATOM     36  H   LIG d   1       9.649   7.332  -5.609  0.00  0.00     0.066 H 
ATOM     37  H   LIG d   1       8.533   8.720  -5.562  0.00  0.00     0.066 H 
ATOM     38  H   LIG d   1      10.241   8.965  -5.999  0.00  0.00     0.066 H 
ENDBRANCH  34  35
ENDBRANCH  21  34
ENDBRANCH   1  16
BRANCH   8  39
ATOM     39  O   LIG d   1       5.489  -0.315  -3.981  0.00  0.00    -0.422 OA
BRANCH  39  40
ATOM     40  C   LIG d   1       4.755  -0.627  -5.066  0.00  0.00     0.344 C 
ATOM     41  O   LIG d   1       4.137   0.239  -5.652  0.00  0.00    -0.244 OA
BRANCH  40  42
ATOM     42  C   LIG d   1       4.701  -2.024  -5.544  0.00  0.00     0.059 A 
ATOM     43  C   LIG d   1       4.512  -2.293  -6.902  0.00  0.00    -0.047 A 
ATOM     44  C   LIG d   1       4.462  -3.599  -7.342  0.00  0.00    -0.047 A 
ATOM     45  H   LIG d   1       4.405  -1.481  -7.605  0.00  0.00     0.063 H 
ATOM     46  C   LIG d   1       4.599  -4.642  -6.441  0.00  0.00     0.018 A 
ATOM     47  H   LIG d   1       4.317  -3.809  -8.392  0.00  0.00     0.063 H 
ATOM     48  C   LIG d   1       4.787  -4.381  -5.094  0.00  0.00    -0.047 A 
ATOM     49 BR   LIG d   1       4.529  -6.429  -7.053  0.00  0.00    -0.050 Br
ATOM     50  C   LIG d   1       4.844  -3.080  -4.642  0.00  0.00    -0.047 A 
ATOM     51  H   LIG d   1       4.892  -5.199  -4.397  0.00  0.00     0.063 H 
ATOM     52  H   LIG d   1       4.995  -2.877  -3.592  0.00  0.00     0.063 H 
ENDBRANCH  40  42
ENDBRANCH  39  40
ENDBRANCH   8  39
TORSDOF 10
ENDMDL
MODEL 7
REMARK VINA RESULT:      -6.1      1.734      3.137
REMARK  10 active torsions:
REMARK  status: ('A' for Active; 'I' for Inactive)
REMARK    1  A    between atoms: C_1  and  O_2 
REMARK    2  A    between atoms: O_2  and  C_3 
REMARK    3  A    between atoms: C_5  and  C_13 
REMARK    4  A    between atoms: C_7  and  O_11 
REMARK    5  A    between atoms: C_8  and  O_9 
REMARK    6  A    between atoms: O_9  and  C_10 
REMARK    7  A    between atoms: O_11  and  C_12 
REMARK    8  A    between atoms: C_20  and  O_24 
REMARK    9  A    between atoms: O_24  and  C_25 
REMARK   10  A    between atoms: C_25  and  C_27 
ROOT
ATOM      1  C   LIG d   1      11.279   3.878  -3.524  0.00  0.00    -0.008 C 
ATOM      2  C   LIG d   1      10.368   2.902  -3.776  0.00  0.00     0.176 A 
ATOM      3  C   LIG d   1      10.622   1.639  -4.482  0.00  0.00     0.232 A 
ATOM      4  O   LIG d   1      11.675   1.249  -4.959  0.00  0.00    -0.283 OA
ATOM      5  C   LIG d   1       9.318   0.951  -4.491  0.00  0.00     0.068 A 
ATOM      6  C   LIG d   1       8.891  -0.279  -4.991  0.00  0.00    -0.044 A 
ATOM      7  C   LIG d   1       7.589  -0.662  -4.838  0.00  0.00    -0.018 A 
ATOM      8  C   LIG d   1       6.688   0.170  -4.178  0.00  0.00     0.136 A 
ATOM      9  C   LIG d   1       7.100   1.392  -3.671  0.00  0.00     0.024 A 
ATOM     10  C   LIG d   1       8.421   1.796  -3.818  0.00  0.00     0.143 A 
ATOM     11  O   LIG d   1       9.062   2.917  -3.422  0.00  0.00    -0.451 OA
ATOM     12  H   LIG d   1      12.320   3.720  -3.763  0.00  0.00     0.066 H 
ATOM     13  H   LIG d   1       9.589  -0.926  -5.503  0.00  0.00     0.063 H 
ATOM     14  H   LIG d   1       7.257  -1.612  -5.230  0.00  0.00     0.065 H 
ATOM     15  H   LIG d   1       6.393   2.030  -3.160  0.00  0.00     0.069 H 
ENDROOT
BRANCH   1  16
ATOM     16  C   LIG d   1      10.848   5.148  -2.927  0.00  0.00    -0.014 A 
ATOM     17  C   LIG d   1      10.546   6.242  -3.747  0.00  0.00    -0.009 A 
ATOM     18  C   LIG d   1      10.140   7.435  -3.181  0.00  0.00     0.166 A 
ATOM     19  H   LIG d   1      10.630   6.154  -4.819  0.00  0.00     0.066 H 
ATOM     20  C   LIG d   1      10.032   7.551  -1.797  0.00  0.00     0.203 A 
ATOM     21  C   LIG d   1      10.332   6.465  -0.978  0.00  0.00     0.166 A 
ATOM     22  C   LIG d   1      10.732   5.266  -1.537  0.00  0.00    -0.009 A 
ATOM     23  H   LIG d   1      10.960   4.423  -0.901  0.00  0.00     0.066 H 
BRANCH  18  24
ATOM     24  O   LIG d   1       9.846   8.498  -3.976  0.00  0.00    -0.491 OA
BRANCH  24  25
ATOM     25  C   LIG d   1       9.512   8.218  -5.336  0.00  0.00     0.079 C 
ATOM     26  H   LIG d   1      10.389   8.367  -5.965  0.00  0.00     0.066 H 
ATOM     27  H   LIG d   1       9.174   7.184  -5.422  0.00  0.00     0.066 H 
ATOM     28  H   LIG d   1       8.715   8.888  -5.660  0.00  0.00     0.066 H 
ENDBRANCH  24  25
ENDBRANCH  18  24
BRANCH  20  29
ATOM     29  O   LIG d   1       9.633   8.727  -1.244  0.00  0.00    -0.488 OA
BRANCH  29  30
ATOM     30  C   LIG d   1      10.655   9.670  -0.919  0.00  0.00     0.079 C 
ATOM     31  H   LIG d   1      11.612   9.316  -1.303  0.00  0.00     0.066 H 
ATOM     32  H   LIG d   1      10.418  10.634  -1.370  0.00  0.00     0.066 H 
ATOM     33  H   LIG d   1      10.717   9.782   0.163  0.00  0.00     0.066 H 
ENDBRANCH  29  30
ENDBRANCH  20  29
BRANCH  21  34
ATOM     34  O   LIG d   1      10.225   6.582   0.373  0.00  0.00    -0.491 OA
BRANCH  34  35
ATOM     35  C   LIG d   1      11.115   5.794   1.166  0.00  0.00     0.079 C 
ATOM     36  H   LIG d   1      11.163   4.783   0.760  0.00  0.00     0.066 H 
ATOM     37  H   LIG d   1      12.109   6.241   1.149  0.00  0.00     0.066 H 
ATOM     38  H   LIG d   1      10.751   5.756   2.192  0.00  0.00     0.066 H 
ENDBRANCH  34  35
ENDBRANCH  21  34
ENDBRANCH   1  16
BRANCH   8  39
ATOM     39  O   LIG d   1       5.396  -0.219  -4.032  0.00  0.00    -0.422 OA
BRANCH  39  40
ATOM     40  C   LIG d   1       4.730  -0.563  -5.151  0.00  0.00     0.344 C 
ATOM     41  O   LIG d   1       4.168   0.288  -5.811  0.00  0.00    -0.244 OA
BRANCH  40  42
ATOM     42  C   LIG d   1       4.683  -1.977  -5.576  0.00  0.00     0.059 A 
ATOM     43  C   LIG d   1       4.490  -2.298  -6.922  0.00  0.00    -0.047 A 
ATOM     44  C   LIG d   1       4.447  -3.619  -7.313  0.00  0.00    -0.047 A 
ATOM     45  H   LIG d   1       4.375  -1.513  -7.655  0.00  0.00     0.063 H 
ATOM     46  C   LIG d   1       4.593  -4.627  -6.375  0.00  0.00     0.018 A 
ATOM     47  H   LIG d   1       4.299  -3.869  -8.354  0.00  0.00     0.063 H 
ATOM     48  C   LIG d   1       4.785  -4.315  -5.039  0.00  0.00    -0.047 A 
ATOM     49 BR   LIG d   1       4.532  -6.437  -6.919  0.00  0.00    -0.050 Br
ATOM     50  C   LIG d   1       4.836  -2.998  -4.636  0.00  0.00    -0.047 A 
ATOM     51  H   LIG d   1       4.898  -5.106  -4.312  0.00  0.00     0.063 H 
ATOM     52  H   LIG d   1       4.990  -2.755  -3.595  0.00  0.00     0.063 H 
ENDBRANCH  40  42
ENDBRANCH  39  40
ENDBRANCH   8  39
TORSDOF 10
ENDMDL
MODEL 8
REMARK VINA RESULT:      -6.1      1.395      2.281
REMARK  10 active torsions:
REMARK  status: ('A' for Active; 'I' for Inactive)
REMARK    1  A    between atoms: C_1  and  O_2 
REMARK    2  A    between atoms: O_2  and  C_3 
REMARK    3  A    between atoms: C_5  and  C_13 
REMARK    4  A    between atoms: C_7  and  O_11 
REMARK    5  A    between atoms: C_8  and  O_9 
REMARK    6  A    between atoms: O_9  and  C_10 
REMARK    7  A    between atoms: O_11  and  C_12 
REMARK    8  A    between atoms: C_20  and  O_24 
REMARK    9  A    between atoms: O_24  and  C_25 
REMARK   10  A    between atoms: C_25  and  C_27 
ROOT
ATOM      1  C   LIG d   1      10.578   3.392  -5.579  0.00  0.00    -0.008 C 
ATOM      2  C   LIG d   1       9.702   2.464  -5.113  0.00  0.00     0.176 A 
ATOM      3  C   LIG d   1       9.866   1.006  -5.177  0.00  0.00     0.232 A 
ATOM      4  O   LIG d   1      10.800   0.380  -5.650  0.00  0.00    -0.283 OA
ATOM      5  C   LIG d   1       8.647   0.467  -4.546  0.00  0.00     0.068 A 
ATOM      6  C   LIG d   1       8.198  -0.828  -4.287  0.00  0.00    -0.044 A 
ATOM      7  C   LIG d   1       6.998  -1.021  -3.663  0.00  0.00    -0.018 A 
ATOM      8  C   LIG d   1       6.226   0.071  -3.280  0.00  0.00     0.136 A 
ATOM      9  C   LIG d   1       6.662   1.364  -3.525  0.00  0.00     0.024 A 
ATOM     10  C   LIG d   1       7.880   1.578  -4.158  0.00  0.00     0.143 A 
ATOM     11  O   LIG d   1       8.519   2.716  -4.505  0.00  0.00    -0.451 OA
ATOM     12  H   LIG d   1      11.541   3.083  -5.957  0.00  0.00     0.066 H 
ATOM     13  H   LIG d   1       8.797  -1.677  -4.584  0.00  0.00     0.063 H 
ATOM     14  H   LIG d   1       6.648  -2.024  -3.468  0.00  0.00     0.065 H 
ATOM     15  H   LIG d   1       6.055   2.205  -3.223  0.00  0.00     0.069 H 
ENDROOT
BRANCH   1  16
ATOM     16  C   LIG d   1      10.216   4.814  -5.568  0.00  0.00    -0.014 A 
ATOM     17  C   LIG d   1      10.183   5.521  -4.359  0.00  0.00    -0.009 A 
ATOM     18  C   LIG d   1       9.842   6.859  -4.352  0.00  0.00     0.166 A 
ATOM     19  H   LIG d   1      10.424   5.020  -3.433  0.00  0.00     0.066 H 
ATOM     20  C   LIG d   1       9.531   7.506  -5.547  0.00  0.00     0.203 A 
ATOM     21  C   LIG d   1       9.562   6.807  -6.750  0.00  0.00     0.166 A 
ATOM     22  C   LIG d   1       9.908   5.469  -6.766  0.00  0.00    -0.009 A 
ATOM     23  H   LIG d   1       9.937   4.929  -7.701  0.00  0.00     0.066 H 
BRANCH  18  24
ATOM     24  O   LIG d   1       9.810   7.546  -3.180  0.00  0.00    -0.491 OA
BRANCH  24  25
ATOM     25  C   LIG d   1       9.474   6.807  -2.004  0.00  0.00     0.079 C 
ATOM     26  H   LIG d   1       9.507   7.467  -1.138  0.00  0.00     0.066 H 
ATOM     27  H   LIG d   1       8.470   6.394  -2.109  0.00  0.00     0.066 H 
ATOM     28  H   LIG d   1      10.189   5.995  -1.869  0.00  0.00     0.066 H 
ENDBRANCH  24  25
ENDBRANCH  18  24
BRANCH  20  29
ATOM     29  O   LIG d   1       9.195   8.823  -5.536  0.00  0.00    -0.488 OA
BRANCH  29  30
ATOM     30  C   LIG d   1      10.257   9.765  -5.701  0.00  0.00     0.079 C 
ATOM     31  H   LIG d   1      10.528   9.825  -6.755  0.00  0.00     0.066 H 
ATOM     32  H   LIG d   1       9.931  10.746  -5.353  0.00  0.00     0.066 H 
ATOM     33  H   LIG d   1      11.122   9.443  -5.121  0.00  0.00     0.066 H 
ENDBRANCH  29  30
ENDBRANCH  20  29
BRANCH  21  34
ATOM     34  O   LIG d   1       9.257   7.443  -7.914  0.00  0.00    -0.491 OA
BRANCH  34  35
ATOM     35  C   LIG d   1      10.152   7.252  -9.012  0.00  0.00     0.079 C 
ATOM     36  H   LIG d   1      10.942   6.560  -8.720  0.00  0.00     0.066 H 
ATOM     37  H   LIG d   1       9.604   6.842  -9.860  0.00  0.00     0.066 H 
ATOM     38  H   LIG d   1      10.593   8.209  -9.292  0.00  0.00     0.066 H 
ENDBRANCH  34  35
ENDBRANCH  21  34
ENDBRANCH   1  16
BRANCH   8  39
ATOM     39  O   LIG d   1       5.034  -0.131  -2.661  0.00  0.00    -0.422 OA
BRANCH  39  40
ATOM     40  C   LIG d   1       4.133  -0.900  -3.304  0.00  0.00     0.344 C 
ATOM     41  O   LIG d   1       3.640  -1.856  -2.742  0.00  0.00    -0.244 OA
BRANCH  40  42
ATOM     42  C   LIG d   1       3.746  -0.579  -4.693  0.00  0.00     0.059 A 
ATOM     43  C   LIG d   1       4.334  -1.263  -5.759  0.00  0.00    -0.047 A 
ATOM     44  C   LIG d   1       3.968  -0.959  -7.054  0.00  0.00    -0.047 A 
ATOM     45  H   LIG d   1       5.071  -2.029  -5.571  0.00  0.00     0.063 H 
ATOM     46  C   LIG d   1       3.022   0.022  -7.298  0.00  0.00     0.018 A 
ATOM     47  H   LIG d   1       4.421  -1.488  -7.880  0.00  0.00     0.063 H 
ATOM     48  C   LIG d   1       2.436   0.704  -6.244  0.00  0.00    -0.047 A 
ATOM     49 BR   LIG d   1       2.528   0.433  -9.076  0.00  0.00    -0.050 Br
ATOM     50  C   LIG d   1       2.789   0.406  -4.945  0.00  0.00    -0.047 A 
ATOM     51  H   LIG d   1       1.700   1.469  -6.440  0.00  0.00     0.063 H 
ATOM     52  H   LIG d   1       2.328   0.935  -4.124  0.00  0.00     0.063 H 
ENDBRANCH  40  42
ENDBRANCH  39  40
ENDBRANCH   8  39
TORSDOF 10
ENDMDL
MODEL 9
REMARK VINA RESULT:      -6.0      3.186      6.201
REMARK  10 active torsions:
REMARK  status: ('A' for Active; 'I' for Inactive)
REMARK    1  A    between atoms: C_1  and  O_2 
REMARK    2  A    between atoms: O_2  and  C_3 
REMARK    3  A    between atoms: C_5  and  C_13 
REMARK    4  A    between atoms: C_7  and  O_11 
REMARK    5  A    between atoms: C_8  and  O_9 
REMARK    6  A    between atoms: O_9  and  C_10 
REMARK    7  A    between atoms: O_11  and  C_12 
REMARK    8  A    between atoms: C_20  and  O_24 
REMARK    9  A    between atoms: O_24  and  C_25 
REMARK   10  A    between atoms: C_25  and  C_27 
ROOT
ATOM      1  C   LIG d   1      10.568   9.463  -3.408  0.00  0.00    -0.008 C 
ATOM      2  C   LIG d   1      10.333   8.126  -3.450  0.00  0.00     0.176 A 
ATOM      3  C   LIG d   1      10.705   7.147  -2.420  0.00  0.00     0.232 A 
ATOM      4  O   LIG d   1      11.280   7.355  -1.365  0.00  0.00    -0.283 OA
ATOM      5  C   LIG d   1      10.234   5.854  -2.951  0.00  0.00     0.068 A 
ATOM      6  C   LIG d   1      10.271   4.550  -2.458  0.00  0.00    -0.044 A 
ATOM      7  C   LIG d   1       9.731   3.529  -3.190  0.00  0.00    -0.018 A 
ATOM      8  C   LIG d   1       9.141   3.790  -4.423  0.00  0.00     0.136 A 
ATOM      9  C   LIG d   1       9.092   5.082  -4.922  0.00  0.00     0.024 A 
ATOM     10  C   LIG d   1       9.635   6.130  -4.190  0.00  0.00     0.143 A 
ATOM     11  O   LIG d   1       9.714   7.454  -4.448  0.00  0.00    -0.451 OA
ATOM     12  H   LIG d   1      10.980   9.911  -2.517  0.00  0.00     0.066 H 
ATOM     13  H   LIG d   1      10.729   4.345  -1.501  0.00  0.00     0.063 H 
ATOM     14  H   LIG d   1       9.765   2.519  -2.811  0.00  0.00     0.065 H 
ATOM     15  H   LIG d   1       8.630   5.274  -5.880  0.00  0.00     0.069 H 
ENDROOT
BRANCH   1  16
ATOM     16  C   LIG d   1      10.260  10.299  -4.574  0.00  0.00    -0.014 A 
ATOM     17  C   LIG d   1      10.324   9.757  -5.864  0.00  0.00    -0.009 A 
ATOM     18  C   LIG d   1      10.033  10.547  -6.959  0.00  0.00     0.166 A 
ATOM     19  H   LIG d   1      10.602   8.723  -6.002  0.00  0.00     0.066 H 
ATOM     20  C   LIG d   1       9.676  11.882  -6.782  0.00  0.00     0.203 A 
ATOM     21  C   LIG d   1       9.610  12.425  -5.501  0.00  0.00     0.166 A 
ATOM     22  C   LIG d   1       9.894  11.640  -4.400  0.00  0.00    -0.009 A 
ATOM     23  H   LIG d   1       9.838  12.061  -3.407  0.00  0.00     0.066 H 
BRANCH  18  24
ATOM     24  O   LIG d   1      10.096  10.021  -8.211  0.00  0.00    -0.491 OA
BRANCH  24  25
ATOM     25  C   LIG d   1      10.456   8.643  -8.319  0.00  0.00     0.079 C 
ATOM     26  H   LIG d   1      11.496   8.515  -8.020  0.00  0.00     0.066 H 
ATOM     27  H   LIG d   1       9.814   8.048  -7.667  0.00  0.00     0.066 H 
ATOM     28  H   LIG d   1      10.331   8.314  -9.351  0.00  0.00     0.066 H 
ENDBRANCH  24  25
ENDBRANCH  18  24
BRANCH  20  29
ATOM     29  O   LIG d   1       9.391  12.656  -7.862  0.00  0.00    -0.488 OA
BRANCH  29  30
ATOM     30  C   LIG d   1      10.441  13.485  -8.362  0.00  0.00     0.079 C 
ATOM     31  H   LIG d   1      10.539  13.339  -9.438  0.00  0.00     0.066 H 
ATOM     32  H   LIG d   1      10.208  14.531  -8.158  0.00  0.00     0.066 H 
ATOM     33  H   LIG d   1      11.378  13.221  -7.872  0.00  0.00     0.066 H 
ENDBRANCH  29  30
ENDBRANCH  20  29
BRANCH  21  34
ATOM     34  O   LIG d   1       9.261  13.729  -5.333  0.00  0.00    -0.491 OA
BRANCH  34  35
ATOM     35  C   LIG d   1      10.234  14.590  -4.737  0.00  0.00     0.079 C 
ATOM     36  H   LIG d   1      11.204  14.419  -5.203  0.00  0.00     0.066 H 
ATOM     37  H   LIG d   1       9.938  15.628  -4.883  0.00  0.00     0.066 H 
ATOM     38  H   LIG d   1      10.301  14.378  -3.670  0.00  0.00     0.066 H 
ENDBRANCH  34  35
ENDBRANCH  21  34
ENDBRANCH   1  16
BRANCH   8  39
ATOM     39  O   LIG d   1       8.609   2.770  -5.143  0.00  0.00    -0.422 OA
BRANCH  39  40
ATOM     40  C   LIG d   1       8.818   1.521  -4.683  0.00  0.00     0.344 C 
ATOM     41  O   LIG d   1       9.925   1.026  -4.749  0.00  0.00    -0.244 OA
BRANCH  40  42
ATOM     42  C   LIG d   1       7.700   0.754  -4.097  0.00  0.00     0.059 A 
ATOM     43  C   LIG d   1       6.676   1.416  -3.417  0.00  0.00    -0.047 A 
ATOM     44  C   LIG d   1       5.635   0.695  -2.872  0.00  0.00    -0.047 A 
ATOM     45  H   LIG d   1       6.699   2.492  -3.317  0.00  0.00     0.063 H 
ATOM     46  C   LIG d   1       5.603  -0.684  -2.998  0.00  0.00     0.018 A 
ATOM     47  H   LIG d   1       4.841   1.206  -2.346  0.00  0.00     0.063 H 
ATOM     48  C   LIG d   1       6.616  -1.347  -3.672  0.00  0.00    -0.047 A 
ATOM     49 BR   LIG d   1       4.172  -1.666  -2.248  0.00  0.00    -0.050 Br
ATOM     50  C   LIG d   1       7.659  -0.636  -4.226  0.00  0.00    -0.047 A 
ATOM     51  H   LIG d   1       6.586  -2.422  -3.766  0.00  0.00     0.063 H 
ATOM     52  H   LIG d   1       8.446  -1.153  -4.755  0.00  0.00     0.063 H 
ENDBRANCH  40  42
ENDBRANCH  39  40
ENDBRANCH   8  39
TORSDOF 10
ENDMDL
