MODEL 1
REMARK VINA RESULT:      -7.7      0.000      0.000
REMARK  20 active torsions:
REMARK  status: ('A' for Active; 'I' for Inactive)
REMARK    1  A    between atoms: C_3  and  N_53 
REMARK    2  A    between atoms: N_7  and  C1*_40 
REMARK    3  A    between atoms: C_8  and  N_10 
REMARK    4  A    between atoms: N_10  and  C_11 
REMARK    5  A    between atoms: C_11  and  C_12 
REMARK    6  A    between atoms: C_12  and  C_13 
REMARK    7  A    between atoms: C_13  and  C_14 
REMARK    8  A    between atoms: C_14  and  C_15 
REMARK    9  A    between atoms: C_15  and  N_16 
REMARK   10  A    between atoms: N_16  and  C_17 
REMARK   11  A    between atoms: C_20  and  N_39 
REMARK   12  A    between atoms: N_25  and  C1*_26 
REMARK   13  A    between atoms: C2*_28  and  O2*_38 
REMARK   14  A    between atoms: C3*_30  and  O3*_37 
REMARK   15  A    between atoms: C4*_32  and  C5*_35 
REMARK   16  A    between atoms: C5*_35  and  O5*_36 
REMARK   17  A    between atoms: C2*_42  and  O2*_52 
REMARK   18  A    between atoms: C3*_44  and  O3*_51 
REMARK   19  A    between atoms: C4*_46  and  C5*_49 
REMARK   20  A    between atoms: C5*_49  and  O5*_50 
ROOT
ATOM      1  C   LIG d   1       9.807   4.461  -5.319  0.00  0.00    -0.050 C 
ATOM      2  H   LIG d   1       9.708   4.891  -6.315  0.00  0.00     0.027 H 
ATOM      3  H   LIG d   1      10.861   4.291  -5.099  0.00  0.00     0.027 H 
ENDROOT
BRANCH   1   4
ATOM      4  C   LIG d   1       9.219   5.425  -4.286  0.00  0.00    -0.037 C 
ATOM      5  H   LIG d   1       9.166   4.931  -3.317  0.00  0.00     0.028 H 
ATOM      6  H   LIG d   1       8.219   5.725  -4.597  0.00  0.00     0.028 H 
BRANCH   4   7
ATOM      7  C   LIG d   1      10.113   6.663  -4.179  0.00  0.00     0.012 C 
ATOM      8  H   LIG d   1      10.199   7.134  -5.158  0.00  0.00     0.046 H 
ATOM      9  H   LIG d   1      11.102   6.369  -3.828  0.00  0.00     0.046 H 
BRANCH   7  10
ATOM     10  N   LIG d   1       9.520   7.611  -3.232  0.00  0.00    -0.315 N 
ATOM     11  H   LIG d   1       8.779   8.173  -3.507  0.00  0.00     0.149 HD
BRANCH  10  12
ATOM     12  C   LIG d   1      10.018   7.705  -1.948  0.00  0.00     0.200 A 
ATOM     13  N   LIG d   1      10.475   8.854  -1.363  0.00  0.00    -0.267 N 
ATOM     14  C   LIG d   1      10.882   8.534  -0.088  0.00  0.00     0.169 A 
ATOM     15  C   LIG d   1      10.651   7.157   0.061  0.00  0.00     0.149 A 
ATOM     16  N   LIG d   1      11.403   9.215   0.927  0.00  0.00    -0.216 NA
ATOM     17  C   LIG d   1      10.982   6.558   1.288  0.00  0.00     0.147 A 
ATOM     18  N   LIG d   1      10.123   6.707  -1.105  0.00  0.00    -0.209 NA
ATOM     19  N   LIG d   1      11.497   7.320   2.247  0.00  0.00    -0.219 NA
ATOM     20  C   LIG d   1      11.698   8.613   2.059  0.00  0.00     0.120 A 
ATOM     21  H   LIG d   1      12.114   9.196   2.866  0.00  0.00     0.105 H 
BRANCH  13  22
ATOM     22  C1* LIG d   1      10.524  10.182  -1.981  0.00  0.00     0.168 C 
ATOM     23  H1* LIG d   1      11.401  10.728  -1.633  0.00  0.00     0.087 H 
ATOM     24  O4* LIG d   1      10.542  10.066  -3.420  0.00  0.00    -0.346 OA
ATOM     25  C4* LIG d   1      10.094  11.350  -3.910  0.00  0.00     0.113 C 
ATOM     26  C3* LIG d   1       8.946  11.758  -2.959  0.00  0.00     0.114 C 
ATOM     27  H4* LIG d   1      10.905  12.077  -3.859  0.00  0.00     0.065 H 
ATOM     28  C2* LIG d   1       9.235  10.972  -1.661  0.00  0.00     0.129 C 
ATOM     29  H3* LIG d   1       8.971  12.831  -2.769  0.00  0.00     0.065 H 
ATOM     30  H2* LIG d   1       9.404  11.655  -0.829  0.00  0.00     0.067 H 
BRANCH  25  31
ATOM     31  C5* LIG d   1       9.579  11.226  -5.345  0.00  0.00     0.073 C 
ATOM     32 1H5* LIG d   1       8.711  11.870  -5.476  0.00  0.00     0.058 H 
ATOM     33 2H5* LIG d   1      10.364  11.528  -6.039  0.00  0.00     0.058 H 
BRANCH  31  34
ATOM     34  O5* LIG d   1       9.211   9.870  -5.604  0.00  0.00    -0.392 OA
ATOM     35  H5* LIG d   1       9.837   9.220  -5.258  0.00  0.00     0.209 HD
ENDBRANCH  31  34
ENDBRANCH  25  31
BRANCH  26  36
ATOM     36  O3* LIG d   1       7.682  11.377  -3.505  0.00  0.00    -0.386 OA
ATOM     37  H3* LIG d   1       7.737  10.970  -4.380  0.00  0.00     0.210 HD
ENDBRANCH  26  36
BRANCH  28  38
ATOM     38  O2* LIG d   1       8.161  10.078  -1.365  0.00  0.00    -0.385 OA
ATOM     39  H2* LIG d   1       8.166   9.269  -1.893  0.00  0.00     0.210 HD
ENDBRANCH  28  38
ENDBRANCH  13  22
BRANCH  17  40
ATOM     40  N   LIG d   1      10.775   5.204   1.494  0.00  0.00    -0.341 N 
ATOM     41  H   LIG d   1      10.291   4.900   2.278  0.00  0.00     0.144 HD
ATOM     42  H   LIG d   1      11.116   4.558   0.855  0.00  0.00     0.144 HD
ENDBRANCH  17  40
ENDBRANCH  10  12
ENDBRANCH   7  10
ENDBRANCH   4   7
ENDBRANCH   1   4
BRANCH   1  43
ATOM     43  C   LIG d   1       9.054   3.131  -5.260  0.00  0.00    -0.037 C 
ATOM     44  H   LIG d   1       8.043   3.269  -5.644  0.00  0.00     0.028 H 
ATOM     45  H   LIG d   1       9.574   2.390  -5.867  0.00  0.00     0.028 H 
BRANCH  43  46
ATOM     46  C   LIG d   1       8.986   2.646  -3.810  0.00  0.00     0.012 C 
ATOM     47  H   LIG d   1       9.916   2.896  -3.300  0.00  0.00     0.046 H 
ATOM     48  H   LIG d   1       8.152   3.133  -3.303  0.00  0.00     0.046 H 
BRANCH  46  49
ATOM     49  N   LIG d   1       8.791   1.194  -3.788  0.00  0.00    -0.315 N 
ATOM     50  H   LIG d   1       9.559   0.602  -3.773  0.00  0.00     0.149 HD
BRANCH  49  51
ATOM     51  C   LIG d   1       7.515   0.670  -3.789  0.00  0.00     0.200 A 
ATOM     52  N   LIG d   1       7.150  -0.513  -4.373  0.00  0.00    -0.267 N 
ATOM     53  C   LIG d   1       5.803  -0.682  -4.152  0.00  0.00     0.169 A 
ATOM     54  C   LIG d   1       5.380   0.444  -3.429  0.00  0.00     0.149 A 
ATOM     55  N   LIG d   1       4.914  -1.616  -4.471  0.00  0.00    -0.216 NA
ATOM     56  N   LIG d   1       6.469   1.233  -3.238  0.00  0.00    -0.209 NA
ATOM     57  C   LIG d   1       4.025   0.532  -3.071  0.00  0.00     0.147 A 
ATOM     58  N   LIG d   1       3.209  -0.452  -3.433  0.00  0.00    -0.219 NA
ATOM     59  C   LIG d   1       3.653  -1.493  -4.114  0.00  0.00     0.120 A 
ATOM     60  H   LIG d   1       2.956  -2.271  -4.388  0.00  0.00     0.105 H 
BRANCH  52  61
ATOM     61  C1* LIG d   1       8.034  -1.431  -5.096  0.00  0.00     0.168 C 
ATOM     62  H1* LIG d   1       7.605  -1.687  -6.064  0.00  0.00     0.087 H 
ATOM     63  O4* LIG d   1       9.341  -0.840  -5.267  0.00  0.00    -0.346 OA
ATOM     64  C4* LIG d   1      10.232  -1.952  -5.510  0.00  0.00     0.113 C 
ATOM     65  C3* LIG d   1       9.760  -3.058  -4.541  0.00  0.00     0.114 C 
ATOM     66  H4* LIG d   1      10.141  -2.288  -6.544  0.00  0.00     0.065 H 
ATOM     67  C2* LIG d   1       8.281  -2.707  -4.262  0.00  0.00     0.129 C 
ATOM     68  H3* LIG d   1       9.837  -4.038  -5.012  0.00  0.00     0.065 H 
ATOM     69  H2* LIG d   1       7.628  -3.513  -4.595  0.00  0.00     0.067 H 
BRANCH  64  70
ATOM     70  C5* LIG d   1      11.678  -1.557  -5.206  0.00  0.00     0.073 C 
ATOM     71 1H5* LIG d   1      12.227  -2.432  -4.855  0.00  0.00     0.058 H 
ATOM     72 2H5* LIG d   1      12.147  -1.172  -6.111  0.00  0.00     0.058 H 
BRANCH  70  73
ATOM     73  O5* LIG d   1      11.695  -0.548  -4.195  0.00  0.00    -0.392 OA
ATOM     74  H5* LIG d   1      12.434   0.071  -4.268  0.00  0.00     0.209 HD
ENDBRANCH  70  73
ENDBRANCH  64  70
BRANCH  65  75
ATOM     75  O3* LIG d   1      10.520  -3.024  -3.332  0.00  0.00    -0.386 OA
ATOM     76  H3* LIG d   1      10.584  -3.878  -2.882  0.00  0.00     0.210 HD
ENDBRANCH  65  75
BRANCH  67  77
ATOM     77  O2* LIG d   1       8.080  -2.444  -2.872  0.00  0.00    -0.385 OA
ATOM     78  H2* LIG d   1       8.867  -2.584  -2.326  0.00  0.00     0.210 HD
ENDBRANCH  67  77
ENDBRANCH  52  61
BRANCH  57  79
ATOM     79  N   LIG d   1       3.550   1.621  -2.356  0.00  0.00    -0.341 N 
ATOM     80  H   LIG d   1       3.949   1.852  -1.503  0.00  0.00     0.144 HD
ATOM     81  H   LIG d   1       2.818   2.150  -2.709  0.00  0.00     0.144 HD
ENDBRANCH  57  79
ENDBRANCH  49  51
ENDBRANCH  46  49
ENDBRANCH  43  46
ENDBRANCH   1  43
TORSDOF 20
ENDMDL
MODEL 2
REMARK VINA RESULT:      -7.6      2.096     11.240
REMARK  20 active torsions:
REMARK  status: ('A' for Active; 'I' for Inactive)
REMARK    1  A    between atoms: C_3  and  N_53 
REMARK    2  A    between atoms: N_7  and  C1*_40 
REMARK    3  A    between atoms: C_8  and  N_10 
REMARK    4  A    between atoms: N_10  and  C_11 
REMARK    5  A    between atoms: C_11  and  C_12 
REMARK    6  A    between atoms: C_12  and  C_13 
REMARK    7  A    between atoms: C_13  and  C_14 
REMARK    8  A    between atoms: C_14  and  C_15 
REMARK    9  A    between atoms: C_15  and  N_16 
REMARK   10  A    between atoms: N_16  and  C_17 
REMARK   11  A    between atoms: C_20  and  N_39 
REMARK   12  A    between atoms: N_25  and  C1*_26 
REMARK   13  A    between atoms: C2*_28  and  O2*_38 
REMARK   14  A    between atoms: C3*_30  and  O3*_37 
REMARK   15  A    between atoms: C4*_32  and  C5*_35 
REMARK   16  A    between atoms: C5*_35  and  O5*_36 
REMARK   17  A    between atoms: C2*_42  and  O2*_52 
REMARK   18  A    between atoms: C3*_44  and  O3*_51 
REMARK   19  A    between atoms: C4*_46  and  C5*_49 
REMARK   20  A    between atoms: C5*_49  and  O5*_50 
ROOT
ATOM      1  C   LIG d   1       9.704   4.405  -4.998  0.00  0.00    -0.050 C 
ATOM      2  H   LIG d   1      10.793   4.428  -4.967  0.00  0.00     0.027 H 
ATOM      3  H   LIG d   1       9.375   4.001  -5.955  0.00  0.00     0.027 H 
ENDROOT
BRANCH   1   4
ATOM      4  C   LIG d   1       9.181   3.518  -3.865  0.00  0.00    -0.037 C 
ATOM      5  H   LIG d   1       8.111   3.362  -3.990  0.00  0.00     0.028 H 
ATOM      6  H   LIG d   1       9.369   4.004  -2.907  0.00  0.00     0.028 H 
BRANCH   4   7
ATOM      7  C   LIG d   1       9.901   2.168  -3.901  0.00  0.00     0.012 C 
ATOM      8  H   LIG d   1      10.593   2.103  -3.061  0.00  0.00     0.046 H 
ATOM      9  H   LIG d   1      10.454   2.076  -4.836  0.00  0.00     0.046 H 
BRANCH   7  10
ATOM     10  N   LIG d   1       8.916   1.088  -3.807  0.00  0.00    -0.315 N 
ATOM     11  H   LIG d   1       8.833   0.577  -2.987  0.00  0.00     0.149 HD
BRANCH  10  12
ATOM     12  C   LIG d   1       8.107   0.797  -4.887  0.00  0.00     0.200 A 
ATOM     13  N   LIG d   1       6.816   0.353  -4.805  0.00  0.00    -0.267 N 
ATOM     14  C   LIG d   1       6.356   0.182  -6.091  0.00  0.00     0.169 A 
ATOM     15  C   LIG d   1       7.419   0.540  -6.936  0.00  0.00     0.149 A 
ATOM     16  N   LIG d   1       5.210  -0.219  -6.630  0.00  0.00    -0.216 NA
ATOM     17  C   LIG d   1       7.220   0.458  -8.324  0.00  0.00     0.147 A 
ATOM     18  N   LIG d   1       8.459   0.907  -6.144  0.00  0.00    -0.209 NA
ATOM     19  N   LIG d   1       6.038   0.047  -8.771  0.00  0.00    -0.219 NA
ATOM     20  C   LIG d   1       5.068  -0.280  -7.937  0.00  0.00     0.120 A 
ATOM     21  H   LIG d   1       4.121  -0.605  -8.342  0.00  0.00     0.105 H 
BRANCH  13  22
ATOM     22  C1* LIG d   1       6.060   0.104  -3.575  0.00  0.00     0.168 C 
ATOM     23  H1* LIG d   1       6.451   0.715  -2.761  0.00  0.00     0.087 H 
ATOM     24  O4* LIG d   1       4.658   0.380  -3.781  0.00  0.00    -0.346 OA
ATOM     25  C4* LIG d   1       3.970  -0.344  -2.737  0.00  0.00     0.113 C 
ATOM     26  C3* LIG d   1       4.713  -1.696  -2.637  0.00  0.00     0.114 C 
ATOM     27  H4* LIG d   1       4.039   0.197  -1.793  0.00  0.00     0.065 H 
ATOM     28  C2* LIG d   1       6.119  -1.394  -3.200  0.00  0.00     0.129 C 
ATOM     29  H3* LIG d   1       4.779  -2.019  -1.598  0.00  0.00     0.065 H 
ATOM     30  H2* LIG d   1       6.881  -1.567  -2.441  0.00  0.00     0.067 H 
BRANCH  25  31
ATOM     31  C5* LIG d   1       2.505  -0.568  -3.116  0.00  0.00     0.073 C 
ATOM     32 1H5* LIG d   1       2.171  -1.527  -2.723  0.00  0.00     0.058 H 
ATOM     33 2H5* LIG d   1       1.895   0.231  -2.693  0.00  0.00     0.058 H 
BRANCH  31  34
ATOM     34  O5* LIG d   1       2.375  -0.564  -4.539  0.00  0.00    -0.392 OA
ATOM     35  H5* LIG d   1       2.398  -1.444  -4.939  0.00  0.00     0.209 HD
ENDBRANCH  31  34
ENDBRANCH  25  31
BRANCH  26  36
ATOM     36  O3* LIG d   1       4.059  -2.689  -3.428  0.00  0.00    -0.386 OA
ATOM     37  H3* LIG d   1       4.465  -3.566  -3.375  0.00  0.00     0.210 HD
ENDBRANCH  26  36
BRANCH  28  38
ATOM     38  O2* LIG d   1       6.378  -2.189  -4.359  0.00  0.00    -0.385 OA
ATOM     39  H2* LIG d   1       6.853  -1.721  -5.059  0.00  0.00     0.210 HD
ENDBRANCH  28  38
ENDBRANCH  13  22
BRANCH  17  40
ATOM     40  N   LIG d   1       8.232   0.799  -9.206  0.00  0.00    -0.341 N 
ATOM     41  H   LIG d   1       8.361   1.726  -9.462  0.00  0.00     0.144 HD
ATOM     42  H   LIG d   1       8.811   0.111  -9.569  0.00  0.00     0.144 HD
ENDBRANCH  17  40
ENDBRANCH  10  12
ENDBRANCH   7  10
ENDBRANCH   4   7
ENDBRANCH   1   4
BRANCH   1  43
ATOM     43  C   LIG d   1       9.158   5.823  -4.827  0.00  0.00    -0.037 C 
ATOM     44  H   LIG d   1       8.944   6.251  -5.807  0.00  0.00     0.028 H 
ATOM     45  H   LIG d   1       8.242   5.793  -4.236  0.00  0.00     0.028 H 
BRANCH  43  46
ATOM     46  C   LIG d   1      10.199   6.687  -4.111  0.00  0.00     0.012 C 
ATOM     47  H   LIG d   1      10.907   6.045  -3.590  0.00  0.00     0.046 H 
ATOM     48  H   LIG d   1      10.730   7.297  -4.843  0.00  0.00     0.046 H 
BRANCH  46  49
ATOM     49  N   LIG d   1       9.527   7.560  -3.144  0.00  0.00    -0.315 N 
ATOM     50  H   LIG d   1       8.741   8.062  -3.409  0.00  0.00     0.149 HD
BRANCH  49  51
ATOM     51  C   LIG d   1      10.014   7.666  -1.857  0.00  0.00     0.200 A 
ATOM     52  N   LIG d   1      10.466   8.821  -1.280  0.00  0.00    -0.267 N 
ATOM     53  C   LIG d   1      10.860   8.514   0.002  0.00  0.00     0.169 A 
ATOM     54  C   LIG d   1      10.635   7.137   0.161  0.00  0.00     0.149 A 
ATOM     55  N   LIG d   1      11.368   9.207   1.015  0.00  0.00    -0.216 NA
ATOM     56  N   LIG d   1      10.118   6.676  -1.007  0.00  0.00    -0.209 NA
ATOM     57  C   LIG d   1      10.959   6.551   1.394  0.00  0.00     0.147 A 
ATOM     58  N   LIG d   1      11.464   7.323   2.351  0.00  0.00    -0.219 NA
ATOM     59  C   LIG d   1      11.657   8.615   2.155  0.00  0.00     0.120 A 
ATOM     60  H   LIG d   1      12.069   9.207   2.959  0.00  0.00     0.105 H 
BRANCH  52  61
ATOM     61  C1* LIG d   1      10.519  10.143  -1.911  0.00  0.00     0.168 C 
ATOM     62  H1* LIG d   1      11.397  10.691  -1.571  0.00  0.00     0.087 H 
ATOM     63  O4* LIG d   1      10.534  10.012  -3.349  0.00  0.00    -0.346 OA
ATOM     64  C4* LIG d   1      10.088  11.292  -3.852  0.00  0.00     0.113 C 
ATOM     65  C3* LIG d   1       8.943  11.713  -2.903  0.00  0.00     0.114 C 
ATOM     66  H4* LIG d   1      10.901  12.017  -3.811  0.00  0.00     0.065 H 
ATOM     67  C2* LIG d   1       9.233  10.939  -1.598  0.00  0.00     0.129 C 
ATOM     68  H3* LIG d   1       8.971  12.788  -2.725  0.00  0.00     0.065 H 
ATOM     69  H2* LIG d   1       9.404  11.632  -0.774  0.00  0.00     0.067 H 
BRANCH  64  70
ATOM     70  C5* LIG d   1       9.570  11.155  -5.285  0.00  0.00     0.073 C 
ATOM     71 1H5* LIG d   1       8.701  11.800  -5.420  0.00  0.00     0.058 H 
ATOM     72 2H5* LIG d   1      10.353  11.449  -5.983  0.00  0.00     0.058 H 
BRANCH  70  73
ATOM     73  O5* LIG d   1       9.198   9.798  -5.530  0.00  0.00    -0.392 OA
ATOM     74  H5* LIG d   1       9.770   9.148  -5.099  0.00  0.00     0.209 HD
ENDBRANCH  70  73
ENDBRANCH  64  70
BRANCH  65  75
ATOM     75  O3* LIG d   1       7.677  11.329  -3.443  0.00  0.00    -0.386 OA
ATOM     76  H3* LIG d   1       7.277  11.993  -4.021  0.00  0.00     0.210 HD
ENDBRANCH  65  75
BRANCH  67  77
ATOM     77  O2* LIG d   1       8.157  10.052  -1.289  0.00  0.00    -0.385 OA
ATOM     78  H2* LIG d   1       7.408  10.478  -0.850  0.00  0.00     0.210 HD
ENDBRANCH  67  77
ENDBRANCH  52  61
BRANCH  57  79
ATOM     79  N   LIG d   1      10.759   5.196   1.609  0.00  0.00    -0.341 N 
ATOM     80  H   LIG d   1      11.374   4.698   2.170  0.00  0.00     0.144 HD
ATOM     81  H   LIG d   1      10.006   4.746   1.197  0.00  0.00     0.144 HD
ENDBRANCH  57  79
ENDBRANCH  49  51
ENDBRANCH  46  49
ENDBRANCH  43  46
ENDBRANCH   1  43
TORSDOF 20
ENDMDL
MODEL 3
REMARK VINA RESULT:      -7.5      0.674     11.291
REMARK  20 active torsions:
REMARK  status: ('A' for Active; 'I' for Inactive)
REMARK    1  A    between atoms: C_3  and  N_53 
REMARK    2  A    between atoms: N_7  and  C1*_40 
REMARK    3  A    between atoms: C_8  and  N_10 
REMARK    4  A    between atoms: N_10  and  C_11 
REMARK    5  A    between atoms: C_11  and  C_12 
REMARK    6  A    between atoms: C_12  and  C_13 
REMARK    7  A    between atoms: C_13  and  C_14 
REMARK    8  A    between atoms: C_14  and  C_15 
REMARK    9  A    between atoms: C_15  and  N_16 
REMARK   10  A    between atoms: N_16  and  C_17 
REMARK   11  A    between atoms: C_20  and  N_39 
REMARK   12  A    between atoms: N_25  and  C1*_26 
REMARK   13  A    between atoms: C2*_28  and  O2*_38 
REMARK   14  A    between atoms: C3*_30  and  O3*_37 
REMARK   15  A    between atoms: C4*_32  and  C5*_35 
REMARK   16  A    between atoms: C5*_35  and  O5*_36 
REMARK   17  A    between atoms: C2*_42  and  O2*_52 
REMARK   18  A    between atoms: C3*_44  and  O3*_51 
REMARK   19  A    between atoms: C4*_46  and  C5*_49 
REMARK   20  A    between atoms: C5*_49  and  O5*_50 
ROOT
ATOM      1  C   LIG d   1       9.875   4.625  -4.068  0.00  0.00    -0.050 C 
ATOM      2  H   LIG d   1       9.706   4.738  -2.996  0.00  0.00     0.027 H 
ATOM      3  H   LIG d   1      10.939   4.493  -4.257  0.00  0.00     0.027 H 
ENDROOT
BRANCH   1   4
ATOM      4  C   LIG d   1       9.110   3.401  -4.577  0.00  0.00    -0.037 C 
ATOM      5  H   LIG d   1       9.535   3.076  -5.526  0.00  0.00     0.028 H 
ATOM      6  H   LIG d   1       8.060   3.661  -4.718  0.00  0.00     0.028 H 
BRANCH   4   7
ATOM      7  C   LIG d   1       9.221   2.269  -3.553  0.00  0.00     0.012 C 
ATOM      8  H   LIG d   1       8.546   2.464  -2.721  0.00  0.00     0.046 H 
ATOM      9  H   LIG d   1      10.246   2.211  -3.186  0.00  0.00     0.046 H 
BRANCH   7  10
ATOM     10  N   LIG d   1       8.858   0.999  -4.189  0.00  0.00    -0.315 N 
ATOM     11  H   LIG d   1       9.455   0.592  -4.835  0.00  0.00     0.149 HD
BRANCH  10  12
ATOM     12  C   LIG d   1       7.664   0.385  -3.868  0.00  0.00     0.200 A 
ATOM     13  N   LIG d   1       7.343  -0.911  -4.164  0.00  0.00    -0.267 N 
ATOM     14  C   LIG d   1       6.076  -1.142  -3.679  0.00  0.00     0.169 A 
ATOM     15  C   LIG d   1       5.659   0.060  -3.086  0.00  0.00     0.149 A 
ATOM     16  N   LIG d   1       5.254  -2.186  -3.668  0.00  0.00    -0.216 NA
ATOM     17  C   LIG d   1       4.382   0.105  -2.503  0.00  0.00     0.147 A 
ATOM     18  N   LIG d   1       6.670   0.954  -3.232  0.00  0.00    -0.209 NA
ATOM     19  N   LIG d   1       3.630  -0.990  -2.539  0.00  0.00    -0.219 NA
ATOM     20  C   LIG d   1       4.065  -2.099  -3.109  0.00  0.00     0.120 A 
ATOM     21  H   LIG d   1       3.424  -2.967  -3.113  0.00  0.00     0.105 H 
BRANCH  13  22
ATOM     22  C1* LIG d   1       8.190  -1.876  -4.869  0.00  0.00     0.168 C 
ATOM     23  H1* LIG d   1       7.720  -2.178  -5.805  0.00  0.00     0.087 H 
ATOM     24  O4* LIG d   1       9.494  -1.310  -5.121  0.00  0.00    -0.346 OA
ATOM     25  C4* LIG d   1      10.364  -2.443  -5.340  0.00  0.00     0.113 C 
ATOM     26  C3* LIG d   1       9.921  -3.491  -4.295  0.00  0.00     0.114 C 
ATOM     27  H4* LIG d   1      10.230  -2.833  -6.349  0.00  0.00     0.065 H 
ATOM     28  C2* LIG d   1       8.458  -3.110  -3.978  0.00  0.00     0.129 C 
ATOM     29  H3* LIG d   1       9.971  -4.495  -4.716  0.00  0.00     0.065 H 
ATOM     30  H2* LIG d   1       7.784  -3.924  -4.243  0.00  0.00     0.067 H 
BRANCH  25  31
ATOM     31  C5* LIG d   1      11.825  -2.048  -5.113  0.00  0.00     0.073 C 
ATOM     32 1H5* LIG d   1      12.117  -1.298  -5.847  0.00  0.00     0.058 H 
ATOM     33 2H5* LIG d   1      11.937  -1.638  -4.109  0.00  0.00     0.058 H 
BRANCH  31  34
ATOM     34  O5* LIG d   1      12.657  -3.201  -5.252  0.00  0.00    -0.392 OA
ATOM     35  H5* LIG d   1      12.722  -3.738  -4.451  0.00  0.00     0.209 HD
ENDBRANCH  31  34
ENDBRANCH  25  31
BRANCH  26  36
ATOM     36  O3* LIG d   1      10.728  -3.402  -3.119  0.00  0.00    -0.386 OA
ATOM     37  H3* LIG d   1      11.256  -2.594  -3.065  0.00  0.00     0.210 HD
ENDBRANCH  26  36
BRANCH  28  38
ATOM     38  O2* LIG d   1       8.314  -2.771  -2.598  0.00  0.00    -0.385 OA
ATOM     39  H2* LIG d   1       8.028  -3.507  -2.040  0.00  0.00     0.210 HD
ENDBRANCH  28  38
ENDBRANCH  13  22
BRANCH  17  40
ATOM     40  N   LIG d   1       3.918   1.265  -1.903  0.00  0.00    -0.341 N 
ATOM     41  H   LIG d   1       3.092   1.672  -2.209  0.00  0.00     0.144 HD
ATOM     42  H   LIG d   1       4.418   1.670  -1.177  0.00  0.00     0.144 HD
ENDBRANCH  17  40
ENDBRANCH  10  12
ENDBRANCH   7  10
ENDBRANCH   4   7
ENDBRANCH   1   4
BRANCH   1  43
ATOM     43  C   LIG d   1       9.378   5.875  -4.796  0.00  0.00    -0.037 C 
ATOM     44  H   LIG d   1       9.464   5.726  -5.873  0.00  0.00     0.028 H 
ATOM     45  H   LIG d   1       8.335   6.058  -4.537  0.00  0.00     0.028 H 
BRANCH  43  46
ATOM     46  C   LIG d   1      10.227   7.079  -4.380  0.00  0.00     0.012 C 
ATOM     47  H   LIG d   1      11.182   6.731  -3.988  0.00  0.00     0.046 H 
ATOM     48  H   LIG d   1      10.400   7.718  -5.247  0.00  0.00     0.046 H 
BRANCH  46  49
ATOM     49  N   LIG d   1       9.520   7.840  -3.346  0.00  0.00    -0.315 N 
ATOM     50  H   LIG d   1       8.701   8.310  -3.565  0.00  0.00     0.149 HD
BRANCH  49  51
ATOM     51  C   LIG d   1      10.021   7.886  -2.061  0.00  0.00     0.200 A 
ATOM     52  N   LIG d   1      10.461   9.017  -1.428  0.00  0.00    -0.267 N 
ATOM     53  C   LIG d   1      10.875   8.648  -0.169  0.00  0.00     0.169 A 
ATOM     54  C   LIG d   1      10.677   7.261  -0.082  0.00  0.00     0.149 A 
ATOM     55  N   LIG d   1      11.384   9.295   0.874  0.00  0.00    -0.216 NA
ATOM     56  N   LIG d   1      10.154   6.854  -1.266  0.00  0.00    -0.209 NA
ATOM     57  C   LIG d   1      11.027   6.615   1.115  0.00  0.00     0.147 A 
ATOM     58  N   LIG d   1      11.530   7.345   2.105  0.00  0.00    -0.219 NA
ATOM     59  C   LIG d   1      11.698   8.648   1.976  0.00  0.00     0.120 A 
ATOM     60  H   LIG d   1      12.110   9.204   2.807  0.00  0.00     0.105 H 
BRANCH  52  61
ATOM     61  C1* LIG d   1      10.482  10.371  -1.988  0.00  0.00     0.168 C 
ATOM     62  H1* LIG d   1      11.334  10.928  -1.599  0.00  0.00     0.087 H 
ATOM     63  O4* LIG d   1      10.533  10.316  -3.430  0.00  0.00    -0.346 OA
ATOM     64  C4* LIG d   1      10.054  11.606  -3.875  0.00  0.00     0.113 C 
ATOM     65  C3* LIG d   1       8.876  11.939  -2.933  0.00  0.00     0.114 C 
ATOM     66  H4* LIG d   1      10.841  12.354  -3.778  0.00  0.00     0.065 H 
ATOM     67  C2* LIG d   1       9.164  11.107  -1.664  0.00  0.00     0.129 C 
ATOM     68  H3* LIG d   1       8.863  13.003  -2.698  0.00  0.00     0.065 H 
ATOM     69  H2* LIG d   1       9.294  11.760  -0.801  0.00  0.00     0.067 H 
BRANCH  64  70
ATOM     70  C5* LIG d   1       9.572  11.529  -5.325  0.00  0.00     0.073 C 
ATOM     71 1H5* LIG d   1       8.741  12.220  -5.469  0.00  0.00     0.058 H 
ATOM     72 2H5* LIG d   1      10.389  11.798  -5.994  0.00  0.00     0.058 H 
BRANCH  70  73
ATOM     73  O5* LIG d   1       9.139  10.198  -5.613  0.00  0.00    -0.392 OA
ATOM     74  H5* LIG d   1       9.859   9.582  -5.809  0.00  0.00     0.209 HD
ENDBRANCH  70  73
ENDBRANCH  64  70
BRANCH  65  75
ATOM     75  O3* LIG d   1       7.636  11.543  -3.521  0.00  0.00    -0.386 OA
ATOM     76  H3* LIG d   1       7.568  11.735  -4.467  0.00  0.00     0.210 HD
ENDBRANCH  65  75
BRANCH  67  77
ATOM     77  O2* LIG d   1       8.112  10.170  -1.426  0.00  0.00    -0.385 OA
ATOM     78  H2* LIG d   1       7.270  10.577  -1.178  0.00  0.00     0.210 HD
ENDBRANCH  67  77
ENDBRANCH  52  61
BRANCH  57  79
ATOM     79  N   LIG d   1      10.853   5.248   1.259  0.00  0.00    -0.341 N 
ATOM     80  H   LIG d   1      10.055   4.821   0.912  0.00  0.00     0.144 HD
ATOM     81  H   LIG d   1      11.530   4.718   1.708  0.00  0.00     0.144 HD
ENDBRANCH  57  79
ENDBRANCH  49  51
ENDBRANCH  46  49
ENDBRANCH  43  46
ENDBRANCH   1  43
TORSDOF 20
ENDMDL
MODEL 4
REMARK VINA RESULT:      -7.3      2.150      3.526
REMARK  20 active torsions:
REMARK  status: ('A' for Active; 'I' for Inactive)
REMARK    1  A    between atoms: C_3  and  N_53 
REMARK    2  A    between atoms: N_7  and  C1*_40 
REMARK    3  A    between atoms: C_8  and  N_10 
REMARK    4  A    between atoms: N_10  and  C_11 
REMARK    5  A    between atoms: C_11  and  C_12 
REMARK    6  A    between atoms: C_12  and  C_13 
REMARK    7  A    between atoms: C_13  and  C_14 
REMARK    8  A    between atoms: C_14  and  C_15 
REMARK    9  A    between atoms: C_15  and  N_16 
REMARK   10  A    between atoms: N_16  and  C_17 
REMARK   11  A    between atoms: C_20  and  N_39 
REMARK   12  A    between atoms: N_25  and  C1*_26 
REMARK   13  A    between atoms: C2*_28  and  O2*_38 
REMARK   14  A    between atoms: C3*_30  and  O3*_37 
REMARK   15  A    between atoms: C4*_32  and  C5*_35 
REMARK   16  A    between atoms: C5*_35  and  O5*_36 
REMARK   17  A    between atoms: C2*_42  and  O2*_52 
REMARK   18  A    between atoms: C3*_44  and  O3*_51 
REMARK   19  A    between atoms: C4*_46  and  C5*_49 
REMARK   20  A    between atoms: C5*_49  and  O5*_50 
ROOT
ATOM      1  C   LIG d   1      10.204   4.465  -4.822  0.00  0.00    -0.050 C 
ATOM      2  H   LIG d   1      10.367   4.414  -5.899  0.00  0.00     0.027 H 
ATOM      3  H   LIG d   1      11.160   4.591  -4.315  0.00  0.00     0.027 H 
ENDROOT
BRANCH   1   4
ATOM      4  C   LIG d   1       9.294   5.654  -4.501  0.00  0.00    -0.037 C 
ATOM      5  H   LIG d   1       8.758   5.460  -3.573  0.00  0.00     0.028 H 
ATOM      6  H   LIG d   1       8.580   5.795  -5.312  0.00  0.00     0.028 H 
BRANCH   4   7
ATOM      7  C   LIG d   1      10.145   6.917  -4.345  0.00  0.00     0.012 C 
ATOM      8  H   LIG d   1      10.207   7.433  -5.303  0.00  0.00     0.046 H 
ATOM      9  H   LIG d   1      11.145   6.643  -4.013  0.00  0.00     0.046 H 
BRANCH   7  10
ATOM     10  N   LIG d   1       9.526   7.802  -3.354  0.00  0.00    -0.315 N 
ATOM     11  H   LIG d   1       8.766   8.351  -3.601  0.00  0.00     0.149 HD
BRANCH  10  12
ATOM     12  C   LIG d   1      10.026   7.852  -2.068  0.00  0.00     0.200 A 
ATOM     13  N   LIG d   1      10.464   8.985  -1.440  0.00  0.00    -0.267 N 
ATOM     14  C   LIG d   1      10.880   8.621  -0.179  0.00  0.00     0.169 A 
ATOM     15  C   LIG d   1      10.673   7.236  -0.084  0.00  0.00     0.149 A 
ATOM     16  N   LIG d   1      11.391   9.271   0.861  0.00  0.00    -0.216 NA
ATOM     17  C   LIG d   1      11.017   6.595   1.117  0.00  0.00     0.147 A 
ATOM     18  N   LIG d   1      10.149   6.824  -1.266  0.00  0.00    -0.209 NA
ATOM     19  N   LIG d   1      11.522   7.327   2.105  0.00  0.00    -0.219 NA
ATOM     20  C   LIG d   1      11.700   8.629   1.968  0.00  0.00     0.120 A 
ATOM     21  H   LIG d   1      12.108   9.187   2.797  0.00  0.00     0.105 H 
BRANCH  13  22
ATOM     22  C1* LIG d   1      10.488  10.337  -2.004  0.00  0.00     0.168 C 
ATOM     23  H1* LIG d   1      11.347  10.890  -1.623  0.00  0.00     0.087 H 
ATOM     24  O4* LIG d   1      10.527  10.279  -3.446  0.00  0.00    -0.346 OA
ATOM     25  C4* LIG d   1      10.054  11.570  -3.891  0.00  0.00     0.113 C 
ATOM     26  C3* LIG d   1       8.884  11.913  -2.941  0.00  0.00     0.114 C 
ATOM     27  H4* LIG d   1      10.846  12.314  -3.801  0.00  0.00     0.065 H 
ATOM     28  C2* LIG d   1       9.177  11.083  -1.671  0.00  0.00     0.129 C 
ATOM     29  H3* LIG d   1       8.881  12.977  -2.708  0.00  0.00     0.065 H 
ATOM     30  H2* LIG d   1       9.317  11.737  -0.811  0.00  0.00     0.067 H 
BRANCH  25  31
ATOM     31  C5* LIG d   1       9.561  11.491  -5.337  0.00  0.00     0.073 C 
ATOM     32 1H5* LIG d   1       8.711  12.160  -5.468  0.00  0.00     0.058 H 
ATOM     33 2H5* LIG d   1      10.365  11.788  -6.011  0.00  0.00     0.058 H 
BRANCH  31  34
ATOM     34  O5* LIG d   1       9.162  10.151  -5.632  0.00  0.00    -0.392 OA
ATOM     35  H5* LIG d   1       9.033   9.598  -4.849  0.00  0.00     0.209 HD
ENDBRANCH  31  34
ENDBRANCH  25  31
BRANCH  26  36
ATOM     36  O3* LIG d   1       7.637  11.523  -3.518  0.00  0.00    -0.386 OA
ATOM     37  H3* LIG d   1       7.010  12.252  -3.628  0.00  0.00     0.210 HD
ENDBRANCH  26  36
BRANCH  28  38
ATOM     38  O2* LIG d   1       8.121  10.153  -1.424  0.00  0.00    -0.385 OA
ATOM     39  H2* LIG d   1       7.626  10.325  -0.611  0.00  0.00     0.210 HD
ENDBRANCH  28  38
ENDBRANCH  13  22
BRANCH  17  40
ATOM     40  N   LIG d   1      10.835   5.229   1.269  0.00  0.00    -0.341 N 
ATOM     41  H   LIG d   1      11.595   4.656   1.452  0.00  0.00     0.144 HD
ATOM     42  H   LIG d   1       9.947   4.847   1.192  0.00  0.00     0.144 HD
ENDBRANCH  17  40
ENDBRANCH  10  12
ENDBRANCH   7  10
ENDBRANCH   4   7
ENDBRANCH   1   4
BRANCH   1  43
ATOM     43  C   LIG d   1       9.539   3.173  -4.345  0.00  0.00    -0.037 C 
ATOM     44  H   LIG d   1       9.152   3.315  -3.336  0.00  0.00     0.028 H 
ATOM     45  H   LIG d   1       8.720   2.915  -5.016  0.00  0.00     0.028 H 
BRANCH  43  46
ATOM     46  C   LIG d   1      10.570   2.041  -4.340  0.00  0.00     0.012 C 
ATOM     47  H   LIG d   1      11.217   2.136  -5.211  0.00  0.00     0.046 H 
ATOM     48  H   LIG d   1      11.172   2.102  -3.432  0.00  0.00     0.046 H 
BRANCH  46  49
ATOM     49  N   LIG d   1       9.878   0.750  -4.381  0.00  0.00    -0.315 N 
ATOM     50  H   LIG d   1      10.132   0.044  -3.767  0.00  0.00     0.149 HD
BRANCH  49  51
ATOM     51  C   LIG d   1       8.864   0.540  -5.294  0.00  0.00     0.200 A 
ATOM     52  N   LIG d   1       7.534   0.450  -4.986  0.00  0.00    -0.267 N 
ATOM     53  C   LIG d   1       6.852   0.244  -6.163  0.00  0.00     0.169 A 
ATOM     54  C   LIG d   1       7.824   0.204  -7.176  0.00  0.00     0.149 A 
ATOM     55  N   LIG d   1       5.575   0.084  -6.487  0.00  0.00    -0.216 NA
ATOM     56  N   LIG d   1       9.031   0.391  -6.585  0.00  0.00    -0.209 NA
ATOM     57  C   LIG d   1       7.395  -0.003  -8.497  0.00  0.00     0.147 A 
ATOM     58  N   LIG d   1       6.095  -0.153  -8.726  0.00  0.00    -0.219 NA
ATOM     59  C   LIG d   1       5.218  -0.107  -7.740  0.00  0.00     0.120 A 
ATOM     60  H   LIG d   1       4.170  -0.234  -7.970  0.00  0.00     0.105 H 
BRANCH  52  61
ATOM     61  C1* LIG d   1       6.945   0.557  -3.648  0.00  0.00     0.168 C 
ATOM     62  H1* LIG d   1       7.672   0.965  -2.946  0.00  0.00     0.087 H 
ATOM     63  O4* LIG d   1       5.764   1.386  -3.686  0.00  0.00    -0.346 OA
ATOM     64  C4* LIG d   1       5.012   1.029  -2.504  0.00  0.00     0.113 C 
ATOM     65  C3* LIG d   1       5.147  -0.506  -2.397  0.00  0.00     0.114 C 
ATOM     66  H4* LIG d   1       5.441   1.510  -1.624  0.00  0.00     0.065 H 
ATOM     67  C2* LIG d   1       6.448  -0.823  -3.168  0.00  0.00     0.129 C 
ATOM     68  H3* LIG d   1       5.237  -0.811  -1.355  0.00  0.00     0.065 H 
ATOM     69  H2* LIG d   1       7.180  -1.284  -2.506  0.00  0.00     0.067 H 
BRANCH  64  70
ATOM     70  C5* LIG d   1       3.543   1.425  -2.662  0.00  0.00     0.073 C 
ATOM     71 1H5* LIG d   1       2.914   0.705  -2.137  0.00  0.00     0.058 H 
ATOM     72 2H5* LIG d   1       3.388   2.418  -2.242  0.00  0.00     0.058 H 
BRANCH  70  73
ATOM     73  O5* LIG d   1       3.198   1.436  -4.049  0.00  0.00    -0.392 OA
ATOM     74  H5* LIG d   1       3.940   1.629  -4.638  0.00  0.00     0.209 HD
ENDBRANCH  70  73
ENDBRANCH  64  70
BRANCH  65  75
ATOM     75  O3* LIG d   1       4.030  -1.152  -3.012  0.00  0.00    -0.386 OA
ATOM     76  H3* LIG d   1       4.105  -1.240  -3.972  0.00  0.00     0.210 HD
ENDBRANCH  65  75
BRANCH  67  77
ATOM     77  O2* LIG d   1       6.177  -1.674  -4.283  0.00  0.00    -0.385 OA
ATOM     78  H2* LIG d   1       5.274  -2.021  -4.306  0.00  0.00     0.210 HD
ENDBRANCH  67  77
ENDBRANCH  52  61
BRANCH  57  79
ATOM     79  N   LIG d   1       8.309  -0.051  -9.539  0.00  0.00    -0.341 N 
ATOM     80  H   LIG d   1       8.588  -0.907  -9.899  0.00  0.00     0.144 HD
ATOM     81  H   LIG d   1       8.670   0.771  -9.905  0.00  0.00     0.144 HD
ENDBRANCH  57  79
ENDBRANCH  49  51
ENDBRANCH  46  49
ENDBRANCH  43  46
ENDBRANCH   1  43
TORSDOF 20
ENDMDL
MODEL 5
REMARK VINA RESULT:      -6.9      7.976     12.243
REMARK  20 active torsions:
REMARK  status: ('A' for Active; 'I' for Inactive)
REMARK    1  A    between atoms: C_3  and  N_53 
REMARK    2  A    between atoms: N_7  and  C1*_40 
REMARK    3  A    between atoms: C_8  and  N_10 
REMARK    4  A    between atoms: N_10  and  C_11 
REMARK    5  A    between atoms: C_11  and  C_12 
REMARK    6  A    between atoms: C_12  and  C_13 
REMARK    7  A    between atoms: C_13  and  C_14 
REMARK    8  A    between atoms: C_14  and  C_15 
REMARK    9  A    between atoms: C_15  and  N_16 
REMARK   10  A    between atoms: N_16  and  C_17 
REMARK   11  A    between atoms: C_20  and  N_39 
REMARK   12  A    between atoms: N_25  and  C1*_26 
REMARK   13  A    between atoms: C2*_28  and  O2*_38 
REMARK   14  A    between atoms: C3*_30  and  O3*_37 
REMARK   15  A    between atoms: C4*_32  and  C5*_35 
REMARK   16  A    between atoms: C5*_35  and  O5*_36 
REMARK   17  A    between atoms: C2*_42  and  O2*_52 
REMARK   18  A    between atoms: C3*_44  and  O3*_51 
REMARK   19  A    between atoms: C4*_46  and  C5*_49 
REMARK   20  A    between atoms: C5*_49  and  O5*_50 
ROOT
ATOM      1  C   LIG d   1       2.880   0.657  -9.410  0.00  0.00    -0.050 C 
ATOM      2  H   LIG d   1       3.611   0.252 -10.110  0.00  0.00     0.027 H 
ATOM      3  H   LIG d   1       2.401   1.531  -9.850  0.00  0.00     0.027 H 
ENDROOT
BRANCH   1   4
ATOM      4  C   LIG d   1       1.823  -0.406  -9.105  0.00  0.00    -0.037 C 
ATOM      5  H   LIG d   1       0.853   0.072  -8.976  0.00  0.00     0.028 H 
ATOM      6  H   LIG d   1       2.092  -0.935  -8.190  0.00  0.00     0.028 H 
BRANCH   4   7
ATOM      7  C   LIG d   1       1.751  -1.401 -10.266  0.00  0.00     0.012 C 
ATOM      8  H   LIG d   1       1.318  -0.910 -11.138  0.00  0.00     0.046 H 
ATOM      9  H   LIG d   1       1.130  -2.249  -9.980  0.00  0.00     0.046 H 
BRANCH   7  10
ATOM     10  N   LIG d   1       3.101  -1.870 -10.590  0.00  0.00    -0.315 N 
ATOM     11  H   LIG d   1       3.626  -1.408 -11.262  0.00  0.00     0.149 HD
BRANCH  10  12
ATOM     12  C   LIG d   1       3.624  -2.968  -9.938  0.00  0.00     0.200 A 
ATOM     13  N   LIG d   1       4.479  -3.879 -10.495  0.00  0.00    -0.267 N 
ATOM     14  C   LIG d   1       4.769  -4.816  -9.529  0.00  0.00     0.169 A 
ATOM     15  C   LIG d   1       4.057  -4.427  -8.383  0.00  0.00     0.149 A 
ATOM     16  N   LIG d   1       5.521  -5.910  -9.482  0.00  0.00    -0.216 NA
ATOM     17  C   LIG d   1       4.174  -5.220  -7.229  0.00  0.00     0.147 A 
ATOM     18  N   LIG d   1       3.378  -3.294  -8.694  0.00  0.00    -0.209 NA
ATOM     19  N   LIG d   1       4.951  -6.297  -7.276  0.00  0.00    -0.219 NA
ATOM     20  C   LIG d   1       5.601  -6.623  -8.379  0.00  0.00     0.120 A 
ATOM     21  H   LIG d   1       6.225  -7.504  -8.373  0.00  0.00     0.105 H 
BRANCH  13  22
ATOM     22  C1* LIG d   1       4.991  -3.863 -11.868  0.00  0.00     0.168 C 
ATOM     23  H1* LIG d   1       5.245  -4.873 -12.188  0.00  0.00     0.087 H 
ATOM     24  O4* LIG d   1       4.016  -3.283 -12.761  0.00  0.00    -0.346 OA
ATOM     25  C4* LIG d   1       4.766  -2.864 -13.922  0.00  0.00     0.113 C 
ATOM     26  C3* LIG d   1       6.074  -2.266 -13.354  0.00  0.00     0.114 C 
ATOM     27  H4* LIG d   1       4.987  -3.720 -14.559  0.00  0.00     0.065 H 
ATOM     28  C2* LIG d   1       6.224  -2.939 -11.972  0.00  0.00     0.129 C 
ATOM     29  H3* LIG d   1       6.918  -2.517 -13.995  0.00  0.00     0.065 H 
ATOM     30  H2* LIG d   1       7.143  -3.523 -11.928  0.00  0.00     0.067 H 
BRANCH  25  31
ATOM     31  C5* LIG d   1       3.992  -1.802 -14.706  0.00  0.00     0.073 C 
ATOM     32 1H5* LIG d   1       4.690  -1.082 -15.130  0.00  0.00     0.058 H 
ATOM     33 2H5* LIG d   1       3.432  -2.282 -15.510  0.00  0.00     0.058 H 
BRANCH  31  34
ATOM     34  O5* LIG d   1       3.085  -1.130 -13.831  0.00  0.00    -0.392 OA
ATOM     35  H5* LIG d   1       2.219  -1.555 -13.760  0.00  0.00     0.209 HD
ENDBRANCH  31  34
ENDBRANCH  25  31
BRANCH  26  36
ATOM     36  O3* LIG d   1       5.959  -0.849 -13.212  0.00  0.00    -0.386 OA
ATOM     37  H3* LIG d   1       6.318  -0.348 -13.958  0.00  0.00     0.210 HD
ENDBRANCH  26  36
BRANCH  28  38
ATOM     38  O2* LIG d   1       6.205  -1.960 -10.931  0.00  0.00    -0.385 OA
ATOM     39  H2* LIG d   1       6.515  -1.087 -11.207  0.00  0.00     0.210 HD
ENDBRANCH  28  38
ENDBRANCH  13  22
BRANCH  17  40
ATOM     40  N   LIG d   1       3.495  -4.886  -6.068  0.00  0.00    -0.341 N 
ATOM     41  H   LIG d   1       3.990  -4.651  -5.267  0.00  0.00     0.144 HD
ATOM     42  H   LIG d   1       2.525  -4.887  -6.056  0.00  0.00     0.144 HD
ENDBRANCH  17  40
ENDBRANCH  10  12
ENDBRANCH   7  10
ENDBRANCH   4   7
ENDBRANCH   1   4
BRANCH   1  43
ATOM     43  C   LIG d   1       3.586   1.060  -8.114  0.00  0.00    -0.037 C 
ATOM     44  H   LIG d   1       4.620   1.326  -8.331  0.00  0.00     0.028 H 
ATOM     45  H   LIG d   1       3.075   1.916  -7.672  0.00  0.00     0.028 H 
BRANCH  43  46
ATOM     46  C   LIG d   1       3.557  -0.114  -7.132  0.00  0.00     0.012 C 
ATOM     47  H   LIG d   1       2.666  -0.044  -6.509  0.00  0.00     0.046 H 
ATOM     48  H   LIG d   1       3.540  -1.052  -7.688  0.00  0.00     0.046 H 
BRANCH  46  49
ATOM     49  N   LIG d   1       4.752  -0.070  -6.284  0.00  0.00    -0.315 N 
ATOM     50  H   LIG d   1       4.934   0.713  -5.743  0.00  0.00     0.149 HD
BRANCH  49  51
ATOM     51  C   LIG d   1       5.617  -1.146  -6.256  0.00  0.00     0.200 A 
ATOM     52  N   LIG d   1       6.040  -1.785  -5.123  0.00  0.00    -0.267 N 
ATOM     53  C   LIG d   1       6.884  -2.799  -5.514  0.00  0.00     0.169 A 
ATOM     54  C   LIG d   1       6.955  -2.731  -6.915  0.00  0.00     0.149 A 
ATOM     55  N   LIG d   1       7.581  -3.733  -4.877  0.00  0.00    -0.216 NA
ATOM     56  N   LIG d   1       6.161  -1.703  -7.309  0.00  0.00    -0.209 NA
ATOM     57  C   LIG d   1       7.765  -3.662  -7.584  0.00  0.00     0.147 A 
ATOM     58  N   LIG d   1       8.426  -4.561  -6.862  0.00  0.00    -0.219 NA
ATOM     59  C   LIG d   1       8.328  -4.586  -5.545  0.00  0.00     0.120 A 
ATOM     60  H   LIG d   1       8.883  -5.334  -4.997  0.00  0.00     0.105 H 
BRANCH  52  61
ATOM     61  C1* LIG d   1       5.660  -1.454  -3.747  0.00  0.00     0.168 C 
ATOM     62  H1* LIG d   1       6.463  -1.717  -3.059  0.00  0.00     0.087 H 
ATOM     63  O4* LIG d   1       5.346  -0.048  -3.638  0.00  0.00    -0.346 OA
ATOM     64  C4* LIG d   1       4.535   0.068  -2.447  0.00  0.00     0.113 C 
ATOM     65  C3* LIG d   1       3.599  -1.161  -2.483  0.00  0.00     0.114 C 
ATOM     66  H4* LIG d   1       5.165   0.039  -1.558  0.00  0.00     0.065 H 
ATOM     67  C2* LIG d   1       4.357  -2.184  -3.359  0.00  0.00     0.129 C 
ATOM     68  H3* LIG d   1       3.447  -1.556  -1.479  0.00  0.00     0.065 H 
ATOM     69  H2* LIG d   1       4.579  -3.084  -2.786  0.00  0.00     0.067 H 
BRANCH  64  70
ATOM     70  C5* LIG d   1       3.719   1.361  -2.478  0.00  0.00     0.073 C 
ATOM     71 1H5* LIG d   1       2.778   1.210  -1.946  0.00  0.00     0.058 H 
ATOM     72 2H5* LIG d   1       4.284   2.159  -1.997  0.00  0.00     0.058 H 
BRANCH  70  73
ATOM     73  O5* LIG d   1       3.446   1.721  -3.834  0.00  0.00    -0.392 OA
ATOM     74  H5* LIG d   1       3.015   2.581  -3.934  0.00  0.00     0.209 HD
ENDBRANCH  70  73
ENDBRANCH  64  70
BRANCH  65  75
ATOM     75  O3* LIG d   1       2.347  -0.821  -3.080  0.00  0.00    -0.386 OA
ATOM     76  H3* LIG d   1       1.872  -1.574  -3.458  0.00  0.00     0.210 HD
ENDBRANCH  65  75
BRANCH  67  77
ATOM     77  O2* LIG d   1       3.597  -2.508  -4.525  0.00  0.00    -0.385 OA
ATOM     78  H2* LIG d   1       2.848  -1.918  -4.685  0.00  0.00     0.210 HD
ENDBRANCH  67  77
ENDBRANCH  52  61
BRANCH  57  79
ATOM     79  N   LIG d   1       7.874  -3.643  -8.965  0.00  0.00    -0.341 N 
ATOM     80  H   LIG d   1       7.590  -4.412  -9.485  0.00  0.00     0.144 HD
ATOM     81  H   LIG d   1       8.235  -2.863  -9.412  0.00  0.00     0.144 HD
ENDBRANCH  57  79
ENDBRANCH  49  51
ENDBRANCH  46  49
ENDBRANCH  43  46
ENDBRANCH   1  43
TORSDOF 20
ENDMDL
MODEL 6
REMARK VINA RESULT:      -6.8      2.348     11.431
REMARK  20 active torsions:
REMARK  status: ('A' for Active; 'I' for Inactive)
REMARK    1  A    between atoms: C_3  and  N_53 
REMARK    2  A    between atoms: N_7  and  C1*_40 
REMARK    3  A    between atoms: C_8  and  N_10 
REMARK    4  A    between atoms: N_10  and  C_11 
REMARK    5  A    between atoms: C_11  and  C_12 
REMARK    6  A    between atoms: C_12  and  C_13 
REMARK    7  A    between atoms: C_13  and  C_14 
REMARK    8  A    between atoms: C_14  and  C_15 
REMARK    9  A    between atoms: C_15  and  N_16 
REMARK   10  A    between atoms: N_16  and  C_17 
REMARK   11  A    between atoms: C_20  and  N_39 
REMARK   12  A    between atoms: N_25  and  C1*_26 
REMARK   13  A    between atoms: C2*_28  and  O2*_38 
REMARK   14  A    between atoms: C3*_30  and  O3*_37 
REMARK   15  A    between atoms: C4*_32  and  C5*_35 
REMARK   16  A    between atoms: C5*_35  and  O5*_36 
REMARK   17  A    between atoms: C2*_42  and  O2*_52 
REMARK   18  A    between atoms: C3*_44  and  O3*_51 
REMARK   19  A    between atoms: C4*_46  and  C5*_49 
REMARK   20  A    between atoms: C5*_49  and  O5*_50 
ROOT
ATOM      1  C   LIG d   1       8.997   3.722  -4.534  0.00  0.00    -0.050 C 
ATOM      2  H   LIG d   1       8.033   3.969  -4.979  0.00  0.00     0.027 H 
ATOM      3  H   LIG d   1       8.846   3.355  -3.519  0.00  0.00     0.027 H 
ENDROOT
BRANCH   1   4
ATOM      4  C   LIG d   1       9.683   2.639  -5.371  0.00  0.00    -0.037 C 
ATOM      5  H   LIG d   1      10.760   2.694  -5.223  0.00  0.00     0.028 H 
ATOM      6  H   LIG d   1       9.452   2.793  -6.425  0.00  0.00     0.028 H 
BRANCH   4   7
ATOM      7  C   LIG d   1       9.177   1.262  -4.934  0.00  0.00     0.012 C 
ATOM      8  H   LIG d   1       8.973   1.273  -3.864  0.00  0.00     0.046 H 
ATOM      9  H   LIG d   1       9.935   0.510  -5.153  0.00  0.00     0.046 H 
BRANCH   7  10
ATOM     10  N   LIG d   1       7.946   0.942  -5.662  0.00  0.00    -0.315 N 
ATOM     11  H   LIG d   1       7.914   1.037  -6.627  0.00  0.00     0.149 HD
BRANCH  10  12
ATOM     12  C   LIG d   1       6.832   0.506  -4.974  0.00  0.00     0.200 A 
ATOM     13  N   LIG d   1       5.960  -0.450  -5.415  0.00  0.00    -0.267 N 
ATOM     14  C   LIG d   1       4.990  -0.601  -4.450  0.00  0.00     0.169 A 
ATOM     15  C   LIG d   1       5.319   0.299  -3.423  0.00  0.00     0.149 A 
ATOM     16  N   LIG d   1       3.909  -1.361  -4.320  0.00  0.00    -0.216 NA
ATOM     17  C   LIG d   1       4.483   0.353  -2.295  0.00  0.00     0.147 A 
ATOM     18  N   LIG d   1       6.452   0.945  -3.800  0.00  0.00    -0.209 NA
ATOM     19  N   LIG d   1       3.423  -0.447  -2.253  0.00  0.00    -0.219 NA
ATOM     20  C   LIG d   1       3.154  -1.277  -3.245  0.00  0.00     0.120 A 
ATOM     21  H   LIG d   1       2.285  -1.913  -3.168  0.00  0.00     0.105 H 
BRANCH  13  22
ATOM     22  C1* LIG d   1       6.040  -1.179  -6.683  0.00  0.00     0.168 C 
ATOM     23  H1* LIG d   1       7.064  -1.177  -7.056  0.00  0.00     0.087 H 
ATOM     24  O4* LIG d   1       5.571  -2.535  -6.514  0.00  0.00    -0.346 OA
ATOM     25  C4* LIG d   1       5.223  -2.985  -7.842  0.00  0.00     0.113 C 
ATOM     26  C3* LIG d   1       4.535  -1.770  -8.505  0.00  0.00     0.114 C 
ATOM     27  H4* LIG d   1       6.121  -3.260  -8.395  0.00  0.00     0.065 H 
ATOM     28  C2* LIG d   1       5.085  -0.555  -7.725  0.00  0.00     0.129 C 
ATOM     29  H3* LIG d   1       4.809  -1.704  -9.558  0.00  0.00     0.065 H 
ATOM     30  H2* LIG d   1       5.631   0.112  -8.391  0.00  0.00     0.067 H 
BRANCH  25  31
ATOM     31  C5* LIG d   1       4.258  -4.170  -7.770  0.00  0.00     0.073 C 
ATOM     32 1H5* LIG d   1       3.546  -4.109  -8.592  0.00  0.00     0.058 H 
ATOM     33 2H5* LIG d   1       4.821  -5.101  -7.846  0.00  0.00     0.058 H 
BRANCH  31  34
ATOM     34  O5* LIG d   1       3.555  -4.138  -6.527  0.00  0.00    -0.392 OA
ATOM     35  H5* LIG d   1       3.429  -5.008  -6.124  0.00  0.00     0.209 HD
ENDBRANCH  31  34
ENDBRANCH  25  31
BRANCH  26  36
ATOM     36  O3* LIG d   1       3.116  -1.856  -8.363  0.00  0.00    -0.386 OA
ATOM     37  H3* LIG d   1       2.774  -1.433  -7.563  0.00  0.00     0.210 HD
ENDBRANCH  26  36
BRANCH  28  38
ATOM     38  O2* LIG d   1       4.024   0.147  -7.074  0.00  0.00    -0.385 OA
ATOM     39  H2* LIG d   1       3.572  -0.369  -6.393  0.00  0.00     0.210 HD
ENDBRANCH  28  38
ENDBRANCH  13  22
BRANCH  17  40
ATOM     40  N   LIG d   1       4.758   1.221  -1.250  0.00  0.00    -0.341 N 
ATOM     41  H   LIG d   1       4.257   1.158  -0.423  0.00  0.00     0.144 HD
ATOM     42  H   LIG d   1       5.452   1.892  -1.347  0.00  0.00     0.144 HD
ENDBRANCH  17  40
ENDBRANCH  10  12
ENDBRANCH   7  10
ENDBRANCH   4   7
ENDBRANCH   1   4
BRANCH   1  43
ATOM     43  C   LIG d   1       9.878   4.972  -4.500  0.00  0.00    -0.037 C 
ATOM     44  H   LIG d   1      10.770   4.772  -3.906  0.00  0.00     0.028 H 
ATOM     45  H   LIG d   1      10.170   5.240  -5.515  0.00  0.00     0.028 H 
BRANCH  43  46
ATOM     46  C   LIG d   1       9.097   6.129  -3.872  0.00  0.00     0.012 C 
ATOM     47  H   LIG d   1       8.365   6.503  -4.587  0.00  0.00     0.046 H 
ATOM     48  H   LIG d   1       8.583   5.776  -2.976  0.00  0.00     0.046 H 
BRANCH  46  49
ATOM     49  N   LIG d   1      10.023   7.205  -3.512  0.00  0.00    -0.315 N 
ATOM     50  H   LIG d   1      10.386   7.784  -4.200  0.00  0.00     0.149 HD
BRANCH  49  51
ATOM     51  C   LIG d   1      10.379   7.396  -2.192  0.00  0.00     0.200 A 
ATOM     52  N   LIG d   1      10.747   8.593  -1.641  0.00  0.00    -0.267 N 
ATOM     53  C   LIG d   1      11.020   8.367  -0.311  0.00  0.00     0.169 A 
ATOM     54  C   LIG d   1      10.812   6.996  -0.097  0.00  0.00     0.149 A 
ATOM     55  N   LIG d   1      11.411   9.128   0.704  0.00  0.00    -0.216 NA
ATOM     56  N   LIG d   1      10.423   6.457  -1.280  0.00  0.00    -0.209 NA
ATOM     57  C   LIG d   1      11.028   6.487   1.194  0.00  0.00     0.147 A 
ATOM     58  N   LIG d   1      11.419   7.324   2.149  0.00  0.00    -0.219 NA
ATOM     59  C   LIG d   1      11.601   8.608   1.899  0.00  0.00     0.120 A 
ATOM     60  H   LIG d   1      11.919   9.254   2.704  0.00  0.00     0.105 H 
BRANCH  52  61
ATOM     61  C1* LIG d   1      10.831   9.879  -2.339  0.00  0.00     0.168 C 
ATOM     62  H1* LIG d   1      11.780  10.367  -2.120  0.00  0.00     0.087 H 
ATOM     63  O4* LIG d   1      10.681   9.688  -3.762  0.00  0.00    -0.346 OA
ATOM     64  C4* LIG d   1      10.281  10.978  -4.278  0.00  0.00     0.113 C 
ATOM     65  C3* LIG d   1       9.281  11.529  -3.237  0.00  0.00     0.114 C 
ATOM     66  H4* LIG d   1      11.146  11.636  -4.358  0.00  0.00     0.065 H 
ATOM     67  C2* LIG d   1       9.651  10.788  -1.933  0.00  0.00     0.129 C 
ATOM     68  H3* LIG d   1       9.409  12.604  -3.115  0.00  0.00     0.065 H 
ATOM     69  H2* LIG d   1       9.962  11.498  -1.166  0.00  0.00     0.067 H 
BRANCH  64  70
ATOM     70  C5* LIG d   1       9.602  10.824  -5.640  0.00  0.00     0.073 C 
ATOM     71 1H5* LIG d   1      10.286  10.330  -6.332  0.00  0.00     0.058 H 
ATOM     72 2H5* LIG d   1       8.699  10.225  -5.530  0.00  0.00     0.058 H 
BRANCH  70  73
ATOM     73  O5* LIG d   1       9.259  12.114  -6.151  0.00  0.00    -0.392 OA
ATOM     74  H5* LIG d   1       9.573  12.850  -5.607  0.00  0.00     0.209 HD
ENDBRANCH  70  73
ENDBRANCH  64  70
BRANCH  65  75
ATOM     75  O3* LIG d   1       7.939  11.226  -3.621  0.00  0.00    -0.386 OA
ATOM     76  H3* LIG d   1       7.847  10.934  -4.539  0.00  0.00     0.210 HD
ENDBRANCH  65  75
BRANCH  67  77
ATOM     77  O2* LIG d   1       8.550  10.004  -1.469  0.00  0.00    -0.385 OA
ATOM     78  H2* LIG d   1       8.254  10.229  -0.576  0.00  0.00     0.210 HD
ENDBRANCH  67  77
ENDBRANCH  52  61
BRANCH  57  79
ATOM     79  N   LIG d   1      10.839   5.141   1.466  0.00  0.00    -0.341 N 
ATOM     80  H   LIG d   1      11.449   4.675   2.058  0.00  0.00     0.144 HD
ATOM     81  H   LIG d   1      10.097   4.665   1.062  0.00  0.00     0.144 HD
ENDBRANCH  57  79
ENDBRANCH  49  51
ENDBRANCH  46  49
ENDBRANCH  43  46
ENDBRANCH   1  43
TORSDOF 20
ENDMDL
MODEL 7
REMARK VINA RESULT:      -6.5      6.500     10.265
REMARK  20 active torsions:
REMARK  status: ('A' for Active; 'I' for Inactive)
REMARK    1  A    between atoms: C_3  and  N_53 
REMARK    2  A    between atoms: N_7  and  C1*_40 
REMARK    3  A    between atoms: C_8  and  N_10 
REMARK    4  A    between atoms: N_10  and  C_11 
REMARK    5  A    between atoms: C_11  and  C_12 
REMARK    6  A    between atoms: C_12  and  C_13 
REMARK    7  A    between atoms: C_13  and  C_14 
REMARK    8  A    between atoms: C_14  and  C_15 
REMARK    9  A    between atoms: C_15  and  N_16 
REMARK   10  A    between atoms: N_16  and  C_17 
REMARK   11  A    between atoms: C_20  and  N_39 
REMARK   12  A    between atoms: N_25  and  C1*_26 
REMARK   13  A    between atoms: C2*_28  and  O2*_38 
REMARK   14  A    between atoms: C3*_30  and  O3*_37 
REMARK   15  A    between atoms: C4*_32  and  C5*_35 
REMARK   16  A    between atoms: C5*_35  and  O5*_36 
REMARK   17  A    between atoms: C2*_42  and  O2*_52 
REMARK   18  A    between atoms: C3*_44  and  O3*_51 
REMARK   19  A    between atoms: C4*_46  and  C5*_49 
REMARK   20  A    between atoms: C5*_49  and  O5*_50 
ROOT
ATOM      1  C   LIG d   1       4.299  -4.326  -6.801  0.00  0.00    -0.050 C 
ATOM      2  H   LIG d   1       4.345  -3.240  -6.713  0.00  0.00     0.027 H 
ATOM      3  H   LIG d   1       3.266  -4.656  -6.692  0.00  0.00     0.027 H 
ENDROOT
BRANCH   1   4
ATOM      4  C   LIG d   1       4.827  -4.749  -8.174  0.00  0.00    -0.037 C 
ATOM      5  H   LIG d   1       4.260  -5.606  -8.534  0.00  0.00     0.028 H 
ATOM      6  H   LIG d   1       5.881  -5.017  -8.091  0.00  0.00     0.028 H 
BRANCH   4   7
ATOM      7  C   LIG d   1       4.674  -3.586  -9.158  0.00  0.00     0.012 C 
ATOM      8  H   LIG d   1       3.619  -3.444  -9.391  0.00  0.00     0.046 H 
ATOM      9  H   LIG d   1       5.222  -3.810 -10.073  0.00  0.00     0.046 H 
BRANCH   7  10
ATOM     10  N   LIG d   1       5.209  -2.363  -8.554  0.00  0.00    -0.315 N 
ATOM     11  H   LIG d   1       4.695  -1.888  -7.883  0.00  0.00     0.149 HD
BRANCH  10  12
ATOM     12  C   LIG d   1       6.446  -1.887  -8.942  0.00  0.00     0.200 A 
ATOM     13  N   LIG d   1       6.661  -0.719  -9.618  0.00  0.00    -0.267 N 
ATOM     14  C   LIG d   1       8.019  -0.601  -9.815  0.00  0.00     0.169 A 
ATOM     15  C   LIG d   1       8.597  -1.739  -9.231  0.00  0.00     0.149 A 
ATOM     16  N   LIG d   1       8.806   0.298 -10.396  0.00  0.00    -0.216 NA
ATOM     17  C   LIG d   1       9.994  -1.876  -9.288  0.00  0.00     0.147 A 
ATOM     18  N   LIG d   1       7.588  -2.485  -8.715  0.00  0.00    -0.209 NA
ATOM     19  N   LIG d   1      10.701  -0.925  -9.890  0.00  0.00    -0.219 NA
ATOM     20  C   LIG d   1      10.111   0.128 -10.426  0.00  0.00     0.120 A 
ATOM     21  H   LIG d   1      10.722   0.881 -10.901  0.00  0.00     0.105 H 
BRANCH  13  22
ATOM     22  C1* LIG d   1       5.637   0.233 -10.055  0.00  0.00     0.168 C 
ATOM     23  H1* LIG d   1       5.861   0.595 -11.059  0.00  0.00     0.087 H 
ATOM     24  O4* LIG d   1       4.332  -0.383 -10.024  0.00  0.00    -0.346 OA
ATOM     25  C4* LIG d   1       3.394   0.715  -9.976  0.00  0.00     0.113 C 
ATOM     26  C3* LIG d   1       4.033   1.740  -9.012  0.00  0.00     0.114 C 
ATOM     27  H4* LIG d   1       3.272   1.151 -10.967  0.00  0.00     0.065 H 
ATOM     28  C2* LIG d   1       5.542   1.416  -9.066  0.00  0.00     0.129 C 
ATOM     29  H3* LIG d   1       3.848   2.756  -9.358  0.00  0.00     0.065 H 
ATOM     30  H2* LIG d   1       6.104   2.271  -9.439  0.00  0.00     0.067 H 
BRANCH  25  31
ATOM     31  C5* LIG d   1       2.044   0.243  -9.433  0.00  0.00     0.073 C 
ATOM     32 1H5* LIG d   1       1.556   1.063  -8.908  0.00  0.00     0.058 H 
ATOM     33 2H5* LIG d   1       1.414  -0.084 -10.261  0.00  0.00     0.058 H 
BRANCH  31  34
ATOM     34  O5* LIG d   1       2.247  -0.847  -8.531  0.00  0.00    -0.392 OA
ATOM     35  H5* LIG d   1       3.123  -1.251  -8.593  0.00  0.00     0.209 HD
ENDBRANCH  31  34
ENDBRANCH  25  31
BRANCH  26  36
ATOM     36  O3* LIG d   1       3.530   1.565  -7.686  0.00  0.00    -0.386 OA
ATOM     37  H3* LIG d   1       2.642   1.925  -7.550  0.00  0.00     0.210 HD
ENDBRANCH  26  36
BRANCH  28  38
ATOM     38  O2* LIG d   1       6.020   1.028  -7.776  0.00  0.00    -0.385 OA
ATOM     39  H2* LIG d   1       5.324   0.743  -7.168  0.00  0.00     0.210 HD
ENDBRANCH  28  38
ENDBRANCH  13  22
BRANCH  17  40
ATOM     40  N   LIG d   1      10.622  -2.978  -8.729  0.00  0.00    -0.341 N 
ATOM     41  H   LIG d   1      11.474  -3.281  -9.080  0.00  0.00     0.144 HD
ATOM     42  H   LIG d   1      10.208  -3.448  -7.988  0.00  0.00     0.144 HD
ENDBRANCH  17  40
ENDBRANCH  10  12
ENDBRANCH   7  10
ENDBRANCH   4   7
ENDBRANCH   1   4
BRANCH   1  43
ATOM     43  C   LIG d   1       5.157  -4.964  -5.707  0.00  0.00    -0.037 C 
ATOM     44  H   LIG d   1       4.835  -4.596  -4.733  0.00  0.00     0.028 H 
ATOM     45  H   LIG d   1       5.046  -6.047  -5.742  0.00  0.00     0.028 H 
BRANCH  43  46
ATOM     46  C   LIG d   1       6.626  -4.594  -5.932  0.00  0.00     0.012 C 
ATOM     47  H   LIG d   1       7.217  -5.504  -6.033  0.00  0.00     0.046 H 
ATOM     48  H   LIG d   1       6.716  -3.999  -6.841  0.00  0.00     0.046 H 
BRANCH  46  49
ATOM     49  N   LIG d   1       7.114  -3.818  -4.789  0.00  0.00    -0.315 N 
ATOM     50  H   LIG d   1       7.182  -4.232  -3.914  0.00  0.00     0.149 HD
BRANCH  49  51
ATOM     51  C   LIG d   1       7.478  -2.498  -4.957  0.00  0.00     0.200 A 
ATOM     52  N   LIG d   1       6.736  -1.420  -4.559  0.00  0.00    -0.267 N 
ATOM     53  C   LIG d   1       7.439  -0.287  -4.901  0.00  0.00     0.169 A 
ATOM     54  C   LIG d   1       8.616  -0.731  -5.523  0.00  0.00     0.149 A 
ATOM     55  N   LIG d   1       7.229   1.017  -4.770  0.00  0.00    -0.216 NA
ATOM     56  N   LIG d   1       8.584  -2.088  -5.528  0.00  0.00    -0.209 NA
ATOM     57  C   LIG d   1       9.527   0.234  -5.983  0.00  0.00     0.147 A 
ATOM     58  N   LIG d   1       9.233   1.518  -5.808  0.00  0.00    -0.219 NA
ATOM     59  C   LIG d   1       8.111   1.887  -5.216  0.00  0.00     0.120 A 
ATOM     60  H   LIG d   1       7.911   2.941  -5.094  0.00  0.00     0.105 H 
BRANCH  52  61
ATOM     61  C1* LIG d   1       5.433  -1.464  -3.889  0.00  0.00     0.168 C 
ATOM     62  H1* LIG d   1       5.329  -2.391  -3.324  0.00  0.00     0.087 H 
ATOM     63  O4* LIG d   1       5.280  -0.324  -3.016  0.00  0.00    -0.346 OA
ATOM     64  C4* LIG d   1       3.854  -0.190  -2.815  0.00  0.00     0.113 C 
ATOM     65  C3* LIG d   1       3.229  -0.475  -4.199  0.00  0.00     0.114 C 
ATOM     66  H4* LIG d   1       3.506  -0.921  -2.084  0.00  0.00     0.065 H 
ATOM     67  C2* LIG d   1       4.293  -1.332  -4.921  0.00  0.00     0.129 C 
ATOM     68  H3* LIG d   1       2.299  -1.032  -4.091  0.00  0.00     0.065 H 
ATOM     69  H2* LIG d   1       3.888  -2.312  -5.171  0.00  0.00     0.067 H 
BRANCH  64  70
ATOM     70  C5* LIG d   1       3.508   1.227  -2.355  0.00  0.00     0.073 C 
ATOM     71 1H5* LIG d   1       2.455   1.427  -2.557  0.00  0.00     0.058 H 
ATOM     72 2H5* LIG d   1       3.696   1.318  -1.286  0.00  0.00     0.058 H 
BRANCH  70  73
ATOM     73  O5* LIG d   1       4.316   2.169  -3.063  0.00  0.00    -0.392 OA
ATOM     74  H5* LIG d   1       4.645   2.896  -2.516  0.00  0.00     0.209 HD
ENDBRANCH  70  73
ENDBRANCH  64  70
BRANCH  65  75
ATOM     75  O3* LIG d   1       3.002   0.744  -4.908  0.00  0.00    -0.386 OA
ATOM     76  H3* LIG d   1       2.072   0.915  -5.111  0.00  0.00     0.210 HD
ENDBRANCH  65  75
BRANCH  67  77
ATOM     77  O2* LIG d   1       4.758  -0.670  -6.099  0.00  0.00    -0.385 OA
ATOM     78  H2* LIG d   1       5.572  -0.163  -5.972  0.00  0.00     0.210 HD
ENDBRANCH  67  77
ENDBRANCH  52  61
BRANCH  57  79
ATOM     79  N   LIG d   1      10.706  -0.145  -6.605  0.00  0.00    -0.341 N 
ATOM     80  H   LIG d   1      10.832  -1.063  -6.890  0.00  0.00     0.144 HD
ATOM     81  H   LIG d   1      11.407   0.509  -6.755  0.00  0.00     0.144 HD
ENDBRANCH  57  79
ENDBRANCH  49  51
ENDBRANCH  46  49
ENDBRANCH  43  46
ENDBRANCH   1  43
TORSDOF 20
ENDMDL
MODEL 8
REMARK VINA RESULT:      -6.5      3.696      5.243
REMARK  20 active torsions:
REMARK  status: ('A' for Active; 'I' for Inactive)
REMARK    1  A    between atoms: C_3  and  N_53 
REMARK    2  A    between atoms: N_7  and  C1*_40 
REMARK    3  A    between atoms: C_8  and  N_10 
REMARK    4  A    between atoms: N_10  and  C_11 
REMARK    5  A    between atoms: C_11  and  C_12 
REMARK    6  A    between atoms: C_12  and  C_13 
REMARK    7  A    between atoms: C_13  and  C_14 
REMARK    8  A    between atoms: C_14  and  C_15 
REMARK    9  A    between atoms: C_15  and  N_16 
REMARK   10  A    between atoms: N_16  and  C_17 
REMARK   11  A    between atoms: C_20  and  N_39 
REMARK   12  A    between atoms: N_25  and  C1*_26 
REMARK   13  A    between atoms: C2*_28  and  O2*_38 
REMARK   14  A    between atoms: C3*_30  and  O3*_37 
REMARK   15  A    between atoms: C4*_32  and  C5*_35 
REMARK   16  A    between atoms: C5*_35  and  O5*_36 
REMARK   17  A    between atoms: C2*_42  and  O2*_52 
REMARK   18  A    between atoms: C3*_44  and  O3*_51 
REMARK   19  A    between atoms: C4*_46  and  C5*_49 
REMARK   20  A    between atoms: C5*_49  and  O5*_50 
ROOT
ATOM      1  C   LIG d   1      10.146   1.142  -7.114  0.00  0.00    -0.050 C 
ATOM      2  H   LIG d   1      10.784   1.308  -7.982  0.00  0.00     0.027 H 
ATOM      3  H   LIG d   1      10.673   0.521  -6.389  0.00  0.00     0.027 H 
ENDROOT
BRANCH   1   4
ATOM      4  C   LIG d   1       9.795   2.487  -6.474  0.00  0.00    -0.037 C 
ATOM      5  H   LIG d   1       8.762   2.741  -6.707  0.00  0.00     0.028 H 
ATOM      6  H   LIG d   1      10.458   3.260  -6.865  0.00  0.00     0.028 H 
BRANCH   4   7
ATOM      7  C   LIG d   1       9.967   2.389  -4.956  0.00  0.00     0.012 C 
ATOM      8  H   LIG d   1      10.998   2.620  -4.692  0.00  0.00     0.046 H 
ATOM      9  H   LIG d   1       9.723   1.379  -4.628  0.00  0.00     0.046 H 
BRANCH   7  10
ATOM     10  N   LIG d   1       9.070   3.346  -4.302  0.00  0.00    -0.315 N 
ATOM     11  H   LIG d   1       8.110   3.257  -4.401  0.00  0.00     0.149 HD
BRANCH  10  12
ATOM     12  C   LIG d   1       9.594   4.375  -3.546  0.00  0.00     0.200 A 
ATOM     13  N   LIG d   1       9.801   5.651  -3.991  0.00  0.00    -0.267 N 
ATOM     14  C   LIG d   1      10.332   6.371  -2.945  0.00  0.00     0.169 A 
ATOM     15  C   LIG d   1      10.430   5.478  -1.866  0.00  0.00     0.149 A 
ATOM     16  N   LIG d   1      10.729   7.629  -2.780  0.00  0.00    -0.216 NA
ATOM     17  C   LIG d   1      10.947   5.958  -0.652  0.00  0.00     0.147 A 
ATOM     18  N   LIG d   1       9.964   4.277  -2.293  0.00  0.00    -0.209 NA
ATOM     19  N   LIG d   1      11.319   7.232  -0.580  0.00  0.00    -0.219 NA
ATOM     20  C   LIG d   1      11.208   8.035  -1.623  0.00  0.00     0.120 A 
ATOM     21  H   LIG d   1      11.517   9.065  -1.521  0.00  0.00     0.105 H 
BRANCH  13  22
ATOM     22  C1* LIG d   1       9.514   6.159  -5.335  0.00  0.00     0.168 C 
ATOM     23  H1* LIG d   1       8.715   5.579  -5.795  0.00  0.00     0.087 H 
ATOM     24  O4* LIG d   1       9.151   7.556  -5.277  0.00  0.00    -0.346 OA
ATOM     25  C4* LIG d   1       9.379   8.063  -6.611  0.00  0.00     0.113 C 
ATOM     26  C3* LIG d   1      10.695   7.396  -7.069  0.00  0.00     0.114 C 
ATOM     27  H4* LIG d   1       8.559   7.775  -7.269  0.00  0.00     0.065 H 
ATOM     28  C2* LIG d   1      10.786   6.115  -6.210  0.00  0.00     0.129 C 
ATOM     29  H3* LIG d   1      10.647   7.143  -8.128  0.00  0.00     0.065 H 
ATOM     30  H2* LIG d   1      10.782   5.228  -6.844  0.00  0.00     0.067 H 
BRANCH  25  31
ATOM     31  C5* LIG d   1       9.533   9.585  -6.586  0.00  0.00     0.073 C 
ATOM     32 1H5* LIG d   1       8.718  10.023  -6.012  0.00  0.00     0.058 H 
ATOM     33 2H5* LIG d   1      10.485   9.845  -6.123  0.00  0.00     0.058 H 
BRANCH  31  34
ATOM     34  O5* LIG d   1       9.499  10.089  -7.923  0.00  0.00    -0.392 OA
ATOM     35  H5* LIG d   1      10.370  10.300  -8.285  0.00  0.00     0.209 HD
ENDBRANCH  31  34
ENDBRANCH  25  31
BRANCH  26  36
ATOM     36  O3* LIG d   1      11.810   8.252  -6.811  0.00  0.00    -0.386 OA
ATOM     37  H3* LIG d   1      11.586   9.048  -6.308  0.00  0.00     0.210 HD
ENDBRANCH  26  36
BRANCH  28  38
ATOM     38  O2* LIG d   1      11.958   6.140  -5.393  0.00  0.00    -0.385 OA
ATOM     39  H2* LIG d   1      11.805   5.865  -4.479  0.00  0.00     0.210 HD
ENDBRANCH  28  38
ENDBRANCH  13  22
BRANCH  17  40
ATOM     40  N   LIG d   1      11.068   5.123   0.447  0.00  0.00    -0.341 N 
ATOM     41  H   LIG d   1      10.702   5.392   1.304  0.00  0.00     0.144 HD
ATOM     42  H   LIG d   1      11.519   4.268   0.360  0.00  0.00     0.144 HD
ENDBRANCH  17  40
ENDBRANCH  10  12
ENDBRANCH   7  10
ENDBRANCH   4   7
ENDBRANCH   1   4
BRANCH   1  43
ATOM     43  C   LIG d   1       8.862   0.436  -7.553  0.00  0.00    -0.037 C 
ATOM     44  H   LIG d   1       9.048  -0.116  -8.474  0.00  0.00     0.028 H 
ATOM     45  H   LIG d   1       8.541  -0.255  -6.774  0.00  0.00     0.028 H 
BRANCH  43  46
ATOM     46  C   LIG d   1       7.766   1.477  -7.794  0.00  0.00     0.012 C 
ATOM     47  H   LIG d   1       8.070   2.431  -7.364  0.00  0.00     0.046 H 
ATOM     48  H   LIG d   1       7.607   1.595  -8.866  0.00  0.00     0.046 H 
BRANCH  46  49
ATOM     49  N   LIG d   1       6.521   1.030  -7.162  0.00  0.00    -0.315 N 
ATOM     50  H   LIG d   1       6.422   1.077  -6.199  0.00  0.00     0.149 HD
BRANCH  49  51
ATOM     51  C   LIG d   1       5.490   0.544  -7.940  0.00  0.00     0.200 A 
ATOM     52  N   LIG d   1       4.428  -0.183  -7.473  0.00  0.00    -0.267 N 
ATOM     53  C   LIG d   1       3.623  -0.473  -8.551  0.00  0.00     0.169 A 
ATOM     54  C   LIG d   1       4.249   0.097  -9.671  0.00  0.00     0.149 A 
ATOM     55  N   LIG d   1       2.482  -1.132  -8.714  0.00  0.00    -0.216 NA
ATOM     56  N   LIG d   1       5.382   0.703  -9.235  0.00  0.00    -0.209 NA
ATOM     57  C   LIG d   1       3.633  -0.056 -10.924  0.00  0.00     0.147 A 
ATOM     58  N   LIG d   1       2.491  -0.733 -10.990  0.00  0.00    -0.219 NA
ATOM     59  C   LIG d   1       1.940  -1.251  -9.908  0.00  0.00     0.120 A 
ATOM     60  H   LIG d   1       1.011  -1.793 -10.006  0.00  0.00     0.105 H 
BRANCH  52  61
ATOM     61  C1* LIG d   1       4.192  -0.577  -6.082  0.00  0.00     0.168 C 
ATOM     62  H1* LIG d   1       4.018  -1.650  -6.016  0.00  0.00     0.087 H 
ATOM     63  O4* LIG d   1       5.314  -0.198  -5.256  0.00  0.00    -0.346 OA
ATOM     64  C4* LIG d   1       4.796  -0.160  -3.906  0.00  0.00     0.113 C 
ATOM     65  C3* LIG d   1       3.396   0.480  -4.036  0.00  0.00     0.114 C 
ATOM     66  H4* LIG d   1       4.716  -1.171  -3.505  0.00  0.00     0.065 H 
ATOM     67  C2* LIG d   1       2.991   0.200  -5.501  0.00  0.00     0.129 C 
ATOM     68  H3* LIG d   1       2.695   0.009  -3.349  0.00  0.00     0.065 H 
ATOM     69  H2* LIG d   1       2.088  -0.410  -5.536  0.00  0.00     0.067 H 
BRANCH  64  70
ATOM     70  C5* LIG d   1       5.693   0.697  -3.011  0.00  0.00     0.073 C 
ATOM     71 1H5* LIG d   1       5.073   1.314  -2.360  0.00  0.00     0.058 H 
ATOM     72 2H5* LIG d   1       6.325   0.049  -2.405  0.00  0.00     0.058 H 
BRANCH  70  73
ATOM     73  O5* LIG d   1       6.514   1.538  -3.824  0.00  0.00    -0.392 OA
ATOM     74  H5* LIG d   1       6.357   2.484  -3.697  0.00  0.00     0.209 HD
ENDBRANCH  70  73
ENDBRANCH  64  70
BRANCH  65  75
ATOM     75  O3* LIG d   1       3.463   1.887  -3.795  0.00  0.00    -0.386 OA
ATOM     76  H3* LIG d   1       3.968   2.128  -3.006  0.00  0.00     0.210 HD
ENDBRANCH  65  75
BRANCH  67  77
ATOM     77  O2* LIG d   1       2.794   1.424  -6.211  0.00  0.00    -0.385 OA
ATOM     78  H2* LIG d   1       2.060   1.401  -6.841  0.00  0.00     0.210 HD
ENDBRANCH  67  77
ENDBRANCH  52  61
BRANCH  57  79
ATOM     79  N   LIG d   1       4.204   0.485 -12.065  0.00  0.00    -0.341 N 
ATOM     80  H   LIG d   1       3.861   0.244 -12.940  0.00  0.00     0.144 HD
ATOM     81  H   LIG d   1       4.947   1.103 -11.989  0.00  0.00     0.144 HD
ENDBRANCH  57  79
ENDBRANCH  49  51
ENDBRANCH  46  49
ENDBRANCH  43  46
ENDBRANCH   1  43
TORSDOF 20
ENDMDL
MODEL 9
REMARK VINA RESULT:      -6.5      1.673      2.201
REMARK  20 active torsions:
REMARK  status: ('A' for Active; 'I' for Inactive)
REMARK    1  A    between atoms: C_3  and  N_53 
REMARK    2  A    between atoms: N_7  and  C1*_40 
REMARK    3  A    between atoms: C_8  and  N_10 
REMARK    4  A    between atoms: N_10  and  C_11 
REMARK    5  A    between atoms: C_11  and  C_12 
REMARK    6  A    between atoms: C_12  and  C_13 
REMARK    7  A    between atoms: C_13  and  C_14 
REMARK    8  A    between atoms: C_14  and  C_15 
REMARK    9  A    between atoms: C_15  and  N_16 
REMARK   10  A    between atoms: N_16  and  C_17 
REMARK   11  A    between atoms: C_20  and  N_39 
REMARK   12  A    between atoms: N_25  and  C1*_26 
REMARK   13  A    between atoms: C2*_28  and  O2*_38 
REMARK   14  A    between atoms: C3*_30  and  O3*_37 
REMARK   15  A    between atoms: C4*_32  and  C5*_35 
REMARK   16  A    between atoms: C5*_35  and  O5*_36 
REMARK   17  A    between atoms: C2*_42  and  O2*_52 
REMARK   18  A    between atoms: C3*_44  and  O3*_51 
REMARK   19  A    between atoms: C4*_46  and  C5*_49 
REMARK   20  A    between atoms: C5*_49  and  O5*_50 
ROOT
ATOM      1  C   LIG d   1       9.478   4.295  -5.834  0.00  0.00    -0.050 C 
ATOM      2  H   LIG d   1       9.443   5.044  -5.042  0.00  0.00     0.027 H 
ATOM      3  H   LIG d   1       8.519   4.268  -6.350  0.00  0.00     0.027 H 
ENDROOT
BRANCH   1   4
ATOM      4  C   LIG d   1      10.583   4.656  -6.830  0.00  0.00    -0.037 C 
ATOM      5  H   LIG d   1      10.248   5.476  -7.463  0.00  0.00     0.028 H 
ATOM      6  H   LIG d   1      10.813   3.788  -7.449  0.00  0.00     0.028 H 
BRANCH   4   7
ATOM      7  C   LIG d   1      11.838   5.082  -6.064  0.00  0.00     0.012 C 
ATOM      8  H   LIG d   1      12.703   5.027  -6.725  0.00  0.00     0.046 H 
ATOM      9  H   LIG d   1      11.987   4.419  -5.213  0.00  0.00     0.046 H 
BRANCH   7  10
ATOM     10  N   LIG d   1      11.674   6.459  -5.588  0.00  0.00    -0.315 N 
ATOM     11  H   LIG d   1      11.763   7.200  -6.207  0.00  0.00     0.149 HD
BRANCH  10  12
ATOM     12  C   LIG d   1      11.394   6.700  -4.258  0.00  0.00     0.200 A 
ATOM     13  N   LIG d   1      11.032   7.911  -3.738  0.00  0.00    -0.267 N 
ATOM     14  C   LIG d   1      10.840   7.739  -2.386  0.00  0.00     0.169 A 
ATOM     15  C   LIG d   1      11.100   6.384  -2.125  0.00  0.00     0.149 A 
ATOM     16  N   LIG d   1      10.490   8.534  -1.381  0.00  0.00    -0.216 NA
ATOM     17  C   LIG d   1      10.977   5.927  -0.802  0.00  0.00     0.147 A 
ATOM     18  N   LIG d   1      11.432   5.802  -3.305  0.00  0.00    -0.209 NA
ATOM     19  N   LIG d   1      10.620   6.797   0.138  0.00  0.00    -0.219 NA
ATOM     20  C   LIG d   1      10.386   8.063  -0.157  0.00  0.00     0.120 A 
ATOM     21  H   LIG d   1      10.094   8.735   0.636  0.00  0.00     0.105 H 
BRANCH  13  22
ATOM     22  C1* LIG d   1      10.878   9.164  -4.482  0.00  0.00     0.168 C 
ATOM     23  H1* LIG d   1      11.098  10.015  -3.837  0.00  0.00     0.087 H 
ATOM     24  O4* LIG d   1      11.745   9.173  -5.637  0.00  0.00    -0.346 OA
ATOM     25  C4* LIG d   1      11.178  10.157  -6.530  0.00  0.00     0.113 C 
ATOM     26  C3* LIG d   1       9.650   9.946  -6.434  0.00  0.00     0.114 C 
ATOM     27  H4* LIG d   1      11.443  11.162  -6.201  0.00  0.00     0.065 H 
ATOM     28  C2* LIG d   1       9.449   9.278  -5.056  0.00  0.00     0.129 C 
ATOM     29  H3* LIG d   1       9.129  10.902  -6.475  0.00  0.00     0.065 H 
ATOM     30  H2* LIG d   1       8.828   9.903  -4.415  0.00  0.00     0.067 H 
BRANCH  25  31
ATOM     31  C5* LIG d   1      11.660   9.922  -7.963  0.00  0.00     0.073 C 
ATOM     32 1H5* LIG d   1      12.738  10.070  -8.012  0.00  0.00     0.058 H 
ATOM     33 2H5* LIG d   1      11.419   8.901  -8.263  0.00  0.00     0.058 H 
BRANCH  31  34
ATOM     34  O5* LIG d   1      11.011  10.842  -8.841  0.00  0.00    -0.392 OA
ATOM     35  H5* LIG d   1      11.566  11.587  -9.110  0.00  0.00     0.209 HD
ENDBRANCH  31  34
ENDBRANCH  25  31
BRANCH  26  36
ATOM     36  O3* LIG d   1       9.195   9.085  -7.480  0.00  0.00    -0.386 OA
ATOM     37  H3* LIG d   1       8.298   9.279  -7.787  0.00  0.00     0.210 HD
ENDBRANCH  26  36
BRANCH  28  38
ATOM     38  O2* LIG d   1       8.865   7.982  -5.206  0.00  0.00    -0.385 OA
ATOM     39  H2* LIG d   1       8.790   7.689  -6.124  0.00  0.00     0.210 HD
ENDBRANCH  28  38
ENDBRANCH  13  22
BRANCH  17  40
ATOM     40  N   LIG d   1      11.220   4.601  -0.485  0.00  0.00    -0.341 N 
ATOM     41  H   LIG d   1      10.508   4.049  -0.125  0.00  0.00     0.144 HD
ATOM     42  H   LIG d   1      12.104   4.224  -0.621  0.00  0.00     0.144 HD
ENDBRANCH  17  40
ENDBRANCH  10  12
ENDBRANCH   7  10
ENDBRANCH   4   7
ENDBRANCH   1   4
BRANCH   1  43
ATOM     43  C   LIG d   1       9.770   2.923  -5.226  0.00  0.00    -0.037 C 
ATOM     44  H   LIG d   1       9.555   2.146  -5.960  0.00  0.00     0.028 H 
ATOM     45  H   LIG d   1      10.819   2.868  -4.936  0.00  0.00     0.028 H 
BRANCH  43  46
ATOM     46  C   LIG d   1       8.888   2.714  -3.992  0.00  0.00     0.012 C 
ATOM     47  H   LIG d   1       9.365   3.169  -3.124  0.00  0.00     0.046 H 
ATOM     48  H   LIG d   1       7.916   3.179  -4.158  0.00  0.00     0.046 H 
BRANCH  46  49
ATOM     49  N   LIG d   1       8.710   1.279  -3.756  0.00  0.00    -0.315 N 
ATOM     50  H   LIG d   1       9.481   0.714  -3.592  0.00  0.00     0.149 HD
BRANCH  49  51
ATOM     51  C   LIG d   1       7.443   0.731  -3.767  0.00  0.00     0.200 A 
ATOM     52  N   LIG d   1       7.096  -0.437  -4.389  0.00  0.00    -0.267 N 
ATOM     53  C   LIG d   1       5.754  -0.640  -4.166  0.00  0.00     0.169 A 
ATOM     54  C   LIG d   1       5.316   0.453  -3.401  0.00  0.00     0.149 A 
ATOM     55  N   LIG d   1       4.880  -1.579  -4.511  0.00  0.00    -0.216 NA
ATOM     56  N   LIG d   1       6.390   1.254  -3.189  0.00  0.00    -0.209 NA
ATOM     57  C   LIG d   1       3.962   0.502  -3.031  0.00  0.00     0.147 A 
ATOM     58  N   LIG d   1       3.161  -0.484  -3.422  0.00  0.00    -0.219 NA
ATOM     59  C   LIG d   1       3.620  -1.492  -4.141  0.00  0.00     0.120 A 
ATOM     60  H   LIG d   1       2.935  -2.273  -4.438  0.00  0.00     0.105 H 
BRANCH  52  61
ATOM     61  C1* LIG d   1       7.992  -1.313  -5.150  0.00  0.00     0.168 C 
ATOM     62  H1* LIG d   1       7.556  -1.550  -6.121  0.00  0.00     0.087 H 
ATOM     63  O4* LIG d   1       9.283  -0.687  -5.317  0.00  0.00    -0.346 OA
ATOM     64  C4* LIG d   1      10.195  -1.771  -5.605  0.00  0.00     0.113 C 
ATOM     65  C3* LIG d   1       9.760  -2.917  -4.665  0.00  0.00     0.114 C 
ATOM     66  H4* LIG d   1      10.099  -2.078  -6.647  0.00  0.00     0.065 H 
ATOM     67  C2* LIG d   1       8.277  -2.608  -4.358  0.00  0.00     0.129 C 
ATOM     68  H3* LIG d   1       9.853  -3.880  -5.166  0.00  0.00     0.065 H 
ATOM     69  H2* LIG d   1       7.639  -3.418  -4.709  0.00  0.00     0.067 H 
BRANCH  64  70
ATOM     70  C5* LIG d   1      11.636  -1.353  -5.305  0.00  0.00     0.073 C 
ATOM     71 1H5* LIG d   1      12.185  -2.206  -4.904  0.00  0.00     0.058 H 
ATOM     72 2H5* LIG d   1      12.113  -1.012  -6.223  0.00  0.00     0.058 H 
BRANCH  70  73
ATOM     73  O5* LIG d   1      11.636  -0.294  -4.346  0.00  0.00    -0.392 OA
ATOM     74  H5* LIG d   1      11.974   0.546  -4.686  0.00  0.00     0.209 HD
ENDBRANCH  70  73
ENDBRANCH  64  70
BRANCH  65  75
ATOM     75  O3* LIG d   1      10.533  -2.902  -3.464  0.00  0.00    -0.386 OA
ATOM     76  H3* LIG d   1      10.075  -3.269  -2.695  0.00  0.00     0.210 HD
ENDBRANCH  65  75
BRANCH  67  77
ATOM     77  O2* LIG d   1       8.087  -2.392  -2.959  0.00  0.00    -0.385 OA
ATOM     78  H2* LIG d   1       7.912  -1.470  -2.722  0.00  0.00     0.210 HD
ENDBRANCH  67  77
ENDBRANCH  52  61
BRANCH  57  79
ATOM     79  N   LIG d   1       3.472   1.556  -2.276  0.00  0.00    -0.341 N 
ATOM     80  H   LIG d   1       3.950   2.400  -2.253  0.00  0.00     0.144 HD
ATOM     81  H   LIG d   1       2.652   1.449  -1.769  0.00  0.00     0.144 HD
ENDBRANCH  57  79
ENDBRANCH  49  51
ENDBRANCH  46  49
ENDBRANCH  43  46
ENDBRANCH   1  43
TORSDOF 20
ENDMDL
