MODEL 1
REMARK VINA RESULT:      -4.9      0.000      0.000
REMARK  6 active torsions:
REMARK  status: ('A' for Active; 'I' for Inactive)
REMARK    1  A    between atoms: C_1  and  C_2 
REMARK    2  A    between atoms: C_6  and  C_13 
REMARK    3  A    between atoms: C_8  and  C_10 
REMARK    4  A    between atoms: C_10  and  C_12 
REMARK    5  A    between atoms: C_13  and  C_14 
REMARK    6  A    between atoms: C_13  and  C_15 
ROOT
ATOM      1  C   LIG d   1       3.358  -0.155  -2.621  0.00  0.00    -0.034 C 
ATOM      2  H   LIG d   1       2.358  -0.153  -2.189  0.00  0.00     0.030 H 
ATOM      3  C   LIG d   1       4.359  -0.813  -1.645  0.00  0.00    -0.050 C 
ATOM      4  C   LIG d   1       5.322  -1.602  -2.565  0.00  0.00    -0.049 C 
ATOM      5  C   LIG d   1       4.379  -2.147  -3.666  0.00  0.00    -0.029 C 
ATOM      6  H   LIG d   1       3.863  -3.042  -3.318  0.00  0.00     0.031 H 
ATOM      7  C   LIG d   1       3.374  -1.002  -3.906  0.00  0.00     0.023 C 
ATOM      8  H   LIG d   1       2.456  -1.357  -4.082  0.00  0.00     0.038 H 
ATOM      9  H   LIG d   1       3.838  -1.490  -0.967  0.00  0.00     0.027 H 
ATOM     10  H   LIG d   1       4.902  -0.054  -1.083  0.00  0.00     0.027 H 
ATOM     11  H   LIG d   1       5.794  -2.419  -2.021  0.00  0.00     0.027 H 
ATOM     12  H   LIG d   1       6.075  -0.939  -2.994  0.00  0.00     0.027 H 
ENDROOT
BRANCH   5  13
ATOM     13  C   LIG d   1       5.165  -2.445  -4.944  0.00  0.00    -0.043 C 
ATOM     14  H   LIG d   1       5.057  -1.613  -5.641  0.00  0.00     0.030 H 
BRANCH  13  15
ATOM     15  C   LIG d   1       6.645  -2.632  -4.602  0.00  0.00    -0.062 C 
ATOM     16  H   LIG d   1       6.831  -2.278  -3.588  0.00  0.00     0.023 H 
ATOM     17  H   LIG d   1       6.903  -3.688  -4.671  0.00  0.00     0.023 H 
ATOM     18  H   LIG d   1       7.255  -2.062  -5.304  0.00  0.00     0.023 H 
ENDBRANCH  13  15
BRANCH  13  19
ATOM     19  C   LIG d   1       4.627  -3.724  -5.589  0.00  0.00    -0.062 C 
ATOM     20  H   LIG d   1       5.355  -4.102  -6.309  0.00  0.00     0.023 H 
ATOM     21  H   LIG d   1       4.454  -4.475  -4.819  0.00  0.00     0.023 H 
ATOM     22  H   LIG d   1       3.690  -3.506  -6.102  0.00  0.00     0.023 H 
ENDBRANCH  13  19
ENDBRANCH   5  13
BRANCH   7  23
ATOM     23  C   LIG d   1       3.819  -0.159  -5.073  0.00  0.00     0.134 C 
ATOM     24  O   LIG d   1       4.944   0.280  -5.106  0.00  0.00    -0.297 OA
BRANCH  23  25
ATOM     25  C   LIG d   1       2.862   0.133  -6.200  0.00  0.00    -0.006 C 
ATOM     26  H   LIG d   1       2.743  -0.688  -6.758  0.00  0.00     0.031 H 
ATOM     27  H   LIG d   1       1.899   0.436  -5.789  0.00  0.00     0.031 H 
ATOM     28  H   LIG d   1       3.262   0.938  -6.817  0.00  0.00     0.031 H 
ENDBRANCH  23  25
ENDBRANCH   7  23
BRANCH   1  29
ATOM     29  C   LIG d   1       3.798   1.277  -2.932  0.00  0.00    -0.062 C 
ATOM     30  H   LIG d   1       4.679   1.523  -2.340  0.00  0.00     0.023 H 
ATOM     31  H   LIG d   1       4.037   1.362  -3.992  0.00  0.00     0.023 H 
ATOM     32  H   LIG d   1       2.990   1.966  -2.685  0.00  0.00     0.023 H 
ENDBRANCH   1  29
TORSDOF 6
ENDMDL
MODEL 2
REMARK VINA RESULT:      -4.7      1.674      2.771
REMARK  6 active torsions:
REMARK  status: ('A' for Active; 'I' for Inactive)
REMARK    1  A    between atoms: C_1  and  C_2 
REMARK    2  A    between atoms: C_6  and  C_13 
REMARK    3  A    between atoms: C_8  and  C_10 
REMARK    4  A    between atoms: C_10  and  C_12 
REMARK    5  A    between atoms: C_13  and  C_14 
REMARK    6  A    between atoms: C_13  and  C_15 
ROOT
ATOM      1  C   LIG d   1       4.180  -0.864  -2.027  0.00  0.00    -0.034 C 
ATOM      2  H   LIG d   1       4.065  -1.383  -1.076  0.00  0.00     0.030 H 
ATOM      3  C   LIG d   1       4.629   0.595  -1.786  0.00  0.00    -0.050 C 
ATOM      4  C   LIG d   1       5.616   0.882  -2.944  0.00  0.00    -0.049 C 
ATOM      5  C   LIG d   1       6.370  -0.463  -3.098  0.00  0.00    -0.029 C 
ATOM      6  H   LIG d   1       7.158  -0.547  -2.351  0.00  0.00     0.031 H 
ATOM      7  C   LIG d   1       5.284  -1.533  -2.863  0.00  0.00     0.023 C 
ATOM      8  H   LIG d   1       5.652  -2.317  -2.362  0.00  0.00     0.038 H 
ATOM      9  H   LIG d   1       5.134   0.682  -0.824  0.00  0.00     0.027 H 
ATOM     10  H   LIG d   1       3.777   1.272  -1.834  0.00  0.00     0.027 H 
ATOM     11  H   LIG d   1       6.306   1.682  -2.676  0.00  0.00     0.027 H 
ATOM     12  H   LIG d   1       5.077   1.130  -3.859  0.00  0.00     0.027 H 
ENDROOT
BRANCH   5  13
ATOM     13  C   LIG d   1       6.952  -0.592  -4.507  0.00  0.00    -0.043 C 
ATOM     14  H   LIG d   1       6.183  -0.962  -5.186  0.00  0.00     0.030 H 
BRANCH  13  15
ATOM     15  C   LIG d   1       7.437   0.778  -4.987  0.00  0.00    -0.062 C 
ATOM     16  H   LIG d   1       8.392   1.011  -4.516  0.00  0.00     0.023 H 
ATOM     17  H   LIG d   1       7.559   0.762  -6.069  0.00  0.00     0.023 H 
ATOM     18  H   LIG d   1       6.703   1.538  -4.716  0.00  0.00     0.023 H 
ENDBRANCH  13  15
BRANCH  13  19
ATOM     19  C   LIG d   1       8.129  -1.569  -4.487  0.00  0.00    -0.062 C 
ATOM     20  H   LIG d   1       7.806  -2.517  -4.053  0.00  0.00     0.023 H 
ATOM     21  H   LIG d   1       8.480  -1.736  -5.504  0.00  0.00     0.023 H 
ATOM     22  H   LIG d   1       8.937  -1.152  -3.886  0.00  0.00     0.023 H 
ENDBRANCH  13  19
ENDBRANCH   5  13
BRANCH   7  23
ATOM     23  C   LIG d   1       4.723  -1.999  -4.182  0.00  0.00     0.134 C 
ATOM     24  O   LIG d   1       4.216  -1.203  -4.936  0.00  0.00    -0.297 OA
BRANCH  23  25
ATOM     25  C   LIG d   1       4.795  -3.456  -4.559  0.00  0.00    -0.006 C 
ATOM     26  H   LIG d   1       4.406  -3.583  -5.472  0.00  0.00     0.031 H 
ATOM     27  H   LIG d   1       5.836  -3.780  -4.560  0.00  0.00     0.031 H 
ATOM     28  H   LIG d   1       4.231  -4.047  -3.838  0.00  0.00     0.031 H 
ENDBRANCH  23  25
ENDBRANCH   7  23
BRANCH   1  29
ATOM     29  C   LIG d   1       2.857  -0.881  -2.796  0.00  0.00    -0.062 C 
ATOM     30  H   LIG d   1       3.059  -0.896  -3.867  0.00  0.00     0.023 H 
ATOM     31  H   LIG d   1       2.288  -1.769  -2.521  0.00  0.00     0.023 H 
ATOM     32  H   LIG d   1       2.281   0.011  -2.547  0.00  0.00     0.023 H 
ENDBRANCH   1  29
TORSDOF 6
ENDMDL
MODEL 3
REMARK VINA RESULT:      -4.6      1.665      3.942
REMARK  6 active torsions:
REMARK  status: ('A' for Active; 'I' for Inactive)
REMARK    1  A    between atoms: C_1  and  C_2 
REMARK    2  A    between atoms: C_6  and  C_13 
REMARK    3  A    between atoms: C_8  and  C_10 
REMARK    4  A    between atoms: C_10  and  C_12 
REMARK    5  A    between atoms: C_13  and  C_14 
REMARK    6  A    between atoms: C_13  and  C_15 
ROOT
ATOM      1  C   LIG d   1       6.800  -2.322  -4.250  0.00  0.00    -0.034 C 
ATOM      2  H   LIG d   1       7.653  -2.863  -3.840  0.00  0.00     0.030 H 
ATOM      3  C   LIG d   1       5.537  -3.211  -4.213  0.00  0.00    -0.050 C 
ATOM      4  C   LIG d   1       4.393  -2.228  -3.864  0.00  0.00    -0.049 C 
ATOM      5  C   LIG d   1       5.061  -1.267  -2.849  0.00  0.00    -0.029 C 
ATOM      6  H   LIG d   1       5.078  -1.713  -1.855  0.00  0.00     0.031 H 
ATOM      7  C   LIG d   1       6.495  -1.086  -3.387  0.00  0.00     0.023 C 
ATOM      8  H   LIG d   1       7.157  -1.030  -2.639  0.00  0.00     0.038 H 
ATOM      9  H   LIG d   1       5.633  -3.974  -3.441  0.00  0.00     0.027 H 
ATOM     10  H   LIG d   1       5.362  -3.671  -5.185  0.00  0.00     0.027 H 
ATOM     11  H   LIG d   1       3.557  -2.755  -3.405  0.00  0.00     0.027 H 
ATOM     12  H   LIG d   1       4.066  -1.686  -4.752  0.00  0.00     0.027 H 
ENDROOT
BRANCH   5  13
ATOM     13  C   LIG d   1       4.327   0.076  -2.821  0.00  0.00    -0.043 C 
ATOM     14  H   LIG d   1       4.688   0.705  -3.635  0.00  0.00     0.030 H 
BRANCH  13  15
ATOM     15  C   LIG d   1       2.825  -0.160  -2.988  0.00  0.00    -0.062 C 
ATOM     16  H   LIG d   1       2.577  -0.190  -4.050  0.00  0.00     0.023 H 
ATOM     17  H   LIG d   1       2.551  -1.107  -2.525  0.00  0.00     0.023 H 
ATOM     18  H   LIG d   1       2.274   0.651  -2.509  0.00  0.00     0.023 H 
ENDBRANCH  13  15
BRANCH  13  19
ATOM     19  C   LIG d   1       4.587   0.772  -1.484  0.00  0.00    -0.062 C 
ATOM     20  H   LIG d   1       5.494   1.373  -1.558  0.00  0.00     0.023 H 
ATOM     21  H   LIG d   1       3.743   1.416  -1.239  0.00  0.00     0.023 H 
ATOM     22  H   LIG d   1       4.711   0.023  -0.702  0.00  0.00     0.023 H 
ENDBRANCH  13  19
ENDBRANCH   5  13
BRANCH   7  23
ATOM     23  C   LIG d   1       6.580   0.164  -4.225  0.00  0.00     0.134 C 
ATOM     24  O   LIG d   1       5.828   0.316  -5.159  0.00  0.00    -0.297 OA
BRANCH  23  25
ATOM     25  C   LIG d   1       7.600   1.222  -3.899  0.00  0.00    -0.006 C 
ATOM     26  H   LIG d   1       8.520   0.845  -4.010  0.00  0.00     0.031 H 
ATOM     27  H   LIG d   1       7.472   2.071  -4.572  0.00  0.00     0.031 H 
ATOM     28  H   LIG d   1       7.466   1.553  -2.868  0.00  0.00     0.031 H 
ENDBRANCH  23  25
ENDBRANCH   7  23
BRANCH   1  29
ATOM     29  C   LIG d   1       7.095  -1.895  -5.690  0.00  0.00    -0.062 C 
ATOM     30  H   LIG d   1       7.365  -2.770  -6.280  0.00  0.00     0.023 H 
ATOM     31  H   LIG d   1       6.208  -1.427  -6.119  0.00  0.00     0.023 H 
ATOM     32  H   LIG d   1       7.920  -1.183  -5.696  0.00  0.00     0.023 H 
ENDBRANCH   1  29
TORSDOF 6
ENDMDL
MODEL 4
REMARK VINA RESULT:      -4.4      1.789      2.395
REMARK  6 active torsions:
REMARK  status: ('A' for Active; 'I' for Inactive)
REMARK    1  A    between atoms: C_1  and  C_2 
REMARK    2  A    between atoms: C_6  and  C_13 
REMARK    3  A    between atoms: C_8  and  C_10 
REMARK    4  A    between atoms: C_10  and  C_12 
REMARK    5  A    between atoms: C_13  and  C_14 
REMARK    6  A    between atoms: C_13  and  C_15 
ROOT
ATOM      1  C   LIG d   1       3.851   0.703  -2.896  0.00  0.00    -0.034 C 
ATOM      2  H   LIG d   1       3.365   1.644  -3.152  0.00  0.00     0.030 H 
ATOM      3  C   LIG d   1       2.798  -0.420  -2.758  0.00  0.00    -0.050 C 
ATOM      4  C   LIG d   1       3.497  -1.668  -3.350  0.00  0.00    -0.049 C 
ATOM      5  C   LIG d   1       4.296  -1.085  -4.542  0.00  0.00    -0.029 C 
ATOM      6  H   LIG d   1       3.647  -0.949  -5.407  0.00  0.00     0.031 H 
ATOM      7  C   LIG d   1       4.804   0.278  -4.027  0.00  0.00     0.023 C 
ATOM      8  H   LIG d   1       4.788   0.967  -4.752  0.00  0.00     0.038 H 
ATOM      9  H   LIG d   1       1.905  -0.174  -3.333  0.00  0.00     0.027 H 
ATOM     10  H   LIG d   1       2.546  -0.584  -1.711  0.00  0.00     0.027 H 
ATOM     11  H   LIG d   1       2.763  -2.395  -3.696  0.00  0.00     0.027 H 
ATOM     12  H   LIG d   1       4.169  -2.118  -2.618  0.00  0.00     0.027 H 
ENDROOT
BRANCH   5  13
ATOM     13  C   LIG d   1       5.474  -1.996  -4.895  0.00  0.00    -0.043 C 
ATOM     14  H   LIG d   1       6.350  -1.697  -4.319  0.00  0.00     0.030 H 
BRANCH  13  15
ATOM     15  C   LIG d   1       5.115  -3.445  -4.561  0.00  0.00    -0.062 C 
ATOM     16  H   LIG d   1       4.339  -3.795  -5.244  0.00  0.00     0.023 H 
ATOM     17  H   LIG d   1       6.000  -4.072  -4.666  0.00  0.00     0.023 H 
ATOM     18  H   LIG d   1       4.749  -3.502  -3.535  0.00  0.00     0.023 H 
ENDBRANCH  13  15
BRANCH  13  19
ATOM     19  C   LIG d   1       5.781  -1.879  -6.389  0.00  0.00    -0.062 C 
ATOM     20  H   LIG d   1       6.509  -1.082  -6.548  0.00  0.00     0.023 H 
ATOM     21  H   LIG d   1       6.189  -2.822  -6.751  0.00  0.00     0.023 H 
ATOM     22  H   LIG d   1       4.865  -1.647  -6.932  0.00  0.00     0.023 H 
ENDBRANCH  13  19
ENDBRANCH   5  13
BRANCH   7  23
ATOM     23  C   LIG d   1       6.207   0.140  -3.496  0.00  0.00     0.134 C 
ATOM     24  O   LIG d   1       6.492  -0.791  -2.780  0.00  0.00    -0.297 OA
BRANCH  23  25
ATOM     25  C   LIG d   1       7.254   1.160  -3.858  0.00  0.00    -0.006 C 
ATOM     26  H   LIG d   1       7.254   1.894  -3.178  0.00  0.00     0.031 H 
ATOM     27  H   LIG d   1       8.235   0.684  -3.878  0.00  0.00     0.031 H 
ATOM     28  H   LIG d   1       7.032   1.576  -4.841  0.00  0.00     0.031 H 
ENDBRANCH  23  25
ENDBRANCH   7  23
BRANCH   1  29
ATOM     29  C   LIG d   1       4.627   0.852  -1.586  0.00  0.00    -0.062 C 
ATOM     30  H   LIG d   1       5.638   1.198  -1.800  0.00  0.00     0.023 H 
ATOM     31  H   LIG d   1       4.123   1.577  -0.946  0.00  0.00     0.023 H 
ATOM     32  H   LIG d   1       4.672  -0.111  -1.078  0.00  0.00     0.023 H 
ENDBRANCH   1  29
TORSDOF 6
ENDMDL
MODEL 5
REMARK VINA RESULT:      -4.3      1.257      3.750
REMARK  6 active torsions:
REMARK  status: ('A' for Active; 'I' for Inactive)
REMARK    1  A    between atoms: C_1  and  C_2 
REMARK    2  A    between atoms: C_6  and  C_13 
REMARK    3  A    between atoms: C_8  and  C_10 
REMARK    4  A    between atoms: C_10  and  C_12 
REMARK    5  A    between atoms: C_13  and  C_14 
REMARK    6  A    between atoms: C_13  and  C_15 
ROOT
ATOM      1  C   LIG d   1       3.937  -0.724  -6.545  0.00  0.00    -0.034 C 
ATOM      2  H   LIG d   1       3.638  -1.565  -7.170  0.00  0.00     0.030 H 
ATOM      3  C   LIG d   1       2.714   0.166  -6.230  0.00  0.00    -0.050 C 
ATOM      4  C   LIG d   1       2.943   0.619  -4.767  0.00  0.00    -0.049 C 
ATOM      5  C   LIG d   1       3.552  -0.642  -4.106  0.00  0.00    -0.029 C 
ATOM      6  H   LIG d   1       2.768  -1.351  -3.840  0.00  0.00     0.031 H 
ATOM      7  C   LIG d   1       4.471  -1.234  -5.195  0.00  0.00     0.023 C 
ATOM      8  H   LIG d   1       4.447  -2.234  -5.184  0.00  0.00     0.038 H 
ATOM      9  H   LIG d   1       1.793  -0.412  -6.310  0.00  0.00     0.027 H 
ATOM     10  H   LIG d   1       2.684   1.028  -6.896  0.00  0.00     0.027 H 
ATOM     11  H   LIG d   1       1.999   0.886  -4.292  0.00  0.00     0.027 H 
ATOM     12  H   LIG d   1       3.643   1.454  -4.727  0.00  0.00     0.027 H 
ENDROOT
BRANCH   5  13
ATOM     13  C   LIG d   1       4.368  -0.257  -2.870  0.00  0.00    -0.043 C 
ATOM     14  H   LIG d   1       5.404  -0.078  -3.159  0.00  0.00     0.030 H 
BRANCH  13  15
ATOM     15  C   LIG d   1       3.786   1.015  -2.250  0.00  0.00    -0.062 C 
ATOM     16  H   LIG d   1       2.719   1.071  -2.469  0.00  0.00     0.023 H 
ATOM     17  H   LIG d   1       3.935   0.995  -1.171  0.00  0.00     0.023 H 
ATOM     18  H   LIG d   1       4.290   1.887  -2.670  0.00  0.00     0.023 H 
ENDBRANCH  13  15
BRANCH  13  19
ATOM     19  C   LIG d   1       4.312  -1.393  -1.846  0.00  0.00    -0.062 C 
ATOM     20  H   LIG d   1       3.822  -2.260  -2.292  0.00  0.00     0.023 H 
ATOM     21  H   LIG d   1       5.325  -1.662  -1.547  0.00  0.00     0.023 H 
ATOM     22  H   LIG d   1       3.748  -1.068  -0.972  0.00  0.00     0.023 H 
ENDBRANCH  13  19
ENDBRANCH   5  13
BRANCH   7  23
ATOM     23  C   LIG d   1       5.887  -0.763  -4.989  0.00  0.00     0.134 C 
ATOM     24  O   LIG d   1       6.129   0.420  -4.939  0.00  0.00    -0.297 OA
BRANCH  23  25
ATOM     25  C   LIG d   1       7.001  -1.767  -4.844  0.00  0.00    -0.006 C 
ATOM     26  H   LIG d   1       7.878  -1.320  -5.023  0.00  0.00     0.031 H 
ATOM     27  H   LIG d   1       6.999  -2.168  -3.830  0.00  0.00     0.031 H 
ATOM     28  H   LIG d   1       6.855  -2.579  -5.556  0.00  0.00     0.031 H 
ENDBRANCH  23  25
ENDBRANCH   7  23
BRANCH   1  29
ATOM     29  C   LIG d   1       5.012   0.101  -7.255  0.00  0.00    -0.062 C 
ATOM     30  H   LIG d   1       4.545   0.938  -7.774  0.00  0.00     0.023 H 
ATOM     31  H   LIG d   1       5.724   0.481  -6.522  0.00  0.00     0.023 H 
ATOM     32  H   LIG d   1       5.535  -0.528  -7.976  0.00  0.00     0.023 H 
ENDBRANCH   1  29
TORSDOF 6
ENDMDL
MODEL 6
REMARK VINA RESULT:      -4.3      1.575      3.256
REMARK  6 active torsions:
REMARK  status: ('A' for Active; 'I' for Inactive)
REMARK    1  A    between atoms: C_1  and  C_2 
REMARK    2  A    between atoms: C_6  and  C_13 
REMARK    3  A    between atoms: C_8  and  C_10 
REMARK    4  A    between atoms: C_10  and  C_12 
REMARK    5  A    between atoms: C_13  and  C_14 
REMARK    6  A    between atoms: C_13  and  C_15 
ROOT
ATOM      1  C   LIG d   1       4.352  -0.935  -2.434  0.00  0.00    -0.034 C 
ATOM      2  H   LIG d   1       4.958  -0.570  -1.605  0.00  0.00     0.030 H 
ATOM      3  C   LIG d   1       3.199   0.051  -2.725  0.00  0.00    -0.050 C 
ATOM      4  C   LIG d   1       3.068   0.034  -4.268  0.00  0.00    -0.049 C 
ATOM      5  C   LIG d   1       4.541  -0.066  -4.738  0.00  0.00    -0.029 C 
ATOM      6  H   LIG d   1       5.016   0.914  -4.716  0.00  0.00     0.031 H 
ATOM      7  C   LIG d   1       5.202  -1.011  -3.714  0.00  0.00     0.023 C 
ATOM      8  H   LIG d   1       6.139  -0.724  -3.510  0.00  0.00     0.038 H 
ATOM      9  H   LIG d   1       3.457   1.050  -2.374  0.00  0.00     0.027 H 
ATOM     10  H   LIG d   1       2.275  -0.291  -2.259  0.00  0.00     0.027 H 
ATOM     11  H   LIG d   1       2.610   0.955  -4.627  0.00  0.00     0.027 H 
ATOM     12  H   LIG d   1       2.497  -0.834  -4.597  0.00  0.00     0.027 H 
ENDROOT
BRANCH   5  13
ATOM     13  C   LIG d   1       4.613  -0.666  -6.144  0.00  0.00    -0.043 C 
ATOM     14  H   LIG d   1       4.658  -1.753  -6.074  0.00  0.00     0.030 H 
BRANCH  13  15
ATOM     15  C   LIG d   1       3.371  -0.257  -6.938  0.00  0.00    -0.062 C 
ATOM     16  H   LIG d   1       2.501  -0.787  -6.550  0.00  0.00     0.023 H 
ATOM     17  H   LIG d   1       3.215   0.816  -6.843  0.00  0.00     0.023 H 
ATOM     18  H   LIG d   1       3.512  -0.512  -7.989  0.00  0.00     0.023 H 
ENDBRANCH  13  15
BRANCH  13  19
ATOM     19  C   LIG d   1       5.865  -0.148  -6.856  0.00  0.00    -0.062 C 
ATOM     20  H   LIG d   1       6.660   0.009  -6.126  0.00  0.00     0.023 H 
ATOM     21  H   LIG d   1       6.190  -0.879  -7.596  0.00  0.00     0.023 H 
ATOM     22  H   LIG d   1       5.637   0.795  -7.352  0.00  0.00     0.023 H 
ENDBRANCH  13  19
ENDBRANCH   5  13
BRANCH   7  23
ATOM     23  C   LIG d   1       5.213  -2.422  -4.243  0.00  0.00     0.134 C 
ATOM     24  O   LIG d   1       4.172  -2.973  -4.514  0.00  0.00    -0.297 OA
BRANCH  23  25
ATOM     25  C   LIG d   1       6.521  -3.144  -4.437  0.00  0.00    -0.006 C 
ATOM     26  H   LIG d   1       7.267  -2.479  -4.467  0.00  0.00     0.031 H 
ATOM     27  H   LIG d   1       6.681  -3.833  -3.607  0.00  0.00     0.031 H 
ATOM     28  H   LIG d   1       6.493  -3.702  -5.372  0.00  0.00     0.031 H 
ENDBRANCH  23  25
ENDBRANCH   7  23
BRANCH   1  29
ATOM     29  C   LIG d   1       3.785  -2.316  -2.098  0.00  0.00    -0.062 C 
ATOM     30  H   LIG d   1       3.520  -2.834  -3.020  0.00  0.00     0.023 H 
ATOM     31  H   LIG d   1       4.534  -2.895  -1.558  0.00  0.00     0.023 H 
ATOM     32  H   LIG d   1       2.897  -2.203  -1.477  0.00  0.00     0.023 H 
ENDBRANCH   1  29
TORSDOF 6
ENDMDL
MODEL 7
REMARK VINA RESULT:      -4.2      1.835      2.461
REMARK  6 active torsions:
REMARK  status: ('A' for Active; 'I' for Inactive)
REMARK    1  A    between atoms: C_1  and  C_2 
REMARK    2  A    between atoms: C_6  and  C_13 
REMARK    3  A    between atoms: C_8  and  C_10 
REMARK    4  A    between atoms: C_10  and  C_12 
REMARK    5  A    between atoms: C_13  and  C_14 
REMARK    6  A    between atoms: C_13  and  C_15 
ROOT
ATOM      1  C   LIG d   1       4.987   0.513  -2.031  0.00  0.00    -0.034 C 
ATOM      2  H   LIG d   1       5.301   0.719  -1.008  0.00  0.00     0.030 H 
ATOM      3  C   LIG d   1       5.905   1.254  -3.029  0.00  0.00    -0.050 C 
ATOM      4  C   LIG d   1       6.057   0.264  -4.210  0.00  0.00    -0.049 C 
ATOM      5  C   LIG d   1       6.130  -1.111  -3.501  0.00  0.00    -0.029 C 
ATOM      6  H   LIG d   1       7.136  -1.293  -3.123  0.00  0.00     0.031 H 
ATOM      7  C   LIG d   1       5.129  -0.989  -2.333  0.00  0.00     0.023 C 
ATOM      8  H   LIG d   1       5.464  -1.463  -1.519  0.00  0.00     0.038 H 
ATOM      9  H   LIG d   1       6.874   1.457  -2.574  0.00  0.00     0.027 H 
ATOM     10  H   LIG d   1       5.439   2.180  -3.365  0.00  0.00     0.027 H 
ATOM     11  H   LIG d   1       6.974   0.462  -4.765  0.00  0.00     0.027 H 
ATOM     12  H   LIG d   1       5.190   0.313  -4.869  0.00  0.00     0.027 H 
ENDROOT
BRANCH   5  13
ATOM     13  C   LIG d   1       5.705  -2.229  -4.455  0.00  0.00    -0.043 C 
ATOM     14  H   LIG d   1       4.741  -2.629  -4.140  0.00  0.00     0.030 H 
BRANCH  13  15
ATOM     15  C   LIG d   1       5.586  -1.670  -5.874  0.00  0.00    -0.062 C 
ATOM     16  H   LIG d   1       4.802  -0.913  -5.902  0.00  0.00     0.023 H 
ATOM     17  H   LIG d   1       6.534  -1.223  -6.170  0.00  0.00     0.023 H 
ATOM     18  H   LIG d   1       5.335  -2.479  -6.563  0.00  0.00     0.023 H 
ENDBRANCH  13  15
BRANCH  13  19
ATOM     19  C   LIG d   1       6.753  -3.345  -4.434  0.00  0.00    -0.062 C 
ATOM     20  H   LIG d   1       6.697  -3.912  -5.364  0.00  0.00     0.023 H 
ATOM     21  H   LIG d   1       7.746  -2.909  -4.332  0.00  0.00     0.023 H 
ATOM     22  H   LIG d   1       6.558  -4.010  -3.592  0.00  0.00     0.023 H 
ENDBRANCH  13  19
ENDBRANCH   5  13
BRANCH   7  23
ATOM     23  C   LIG d   1       3.794  -1.563  -2.735  0.00  0.00     0.134 C 
ATOM     24  O   LIG d   1       3.443  -2.634  -2.301  0.00  0.00    -0.297 OA
BRANCH  23  25
ATOM     25  C   LIG d   1       2.898  -0.799  -3.674  0.00  0.00    -0.006 C 
ATOM     26  H   LIG d   1       2.001  -1.241  -3.712  0.00  0.00     0.031 H 
ATOM     27  H   LIG d   1       2.783   0.224  -3.316  0.00  0.00     0.031 H 
ATOM     28  H   LIG d   1       3.340  -0.788  -4.671  0.00  0.00     0.031 H 
ENDBRANCH  23  25
ENDBRANCH   7  23
BRANCH   1  29
ATOM     29  C   LIG d   1       3.536   0.954  -2.232  0.00  0.00    -0.062 C 
ATOM     30  H   LIG d   1       3.509   2.012  -2.488  0.00  0.00     0.023 H 
ATOM     31  H   LIG d   1       3.088   0.373  -3.039  0.00  0.00     0.023 H 
ATOM     32  H   LIG d   1       2.975   0.788  -1.312  0.00  0.00     0.023 H 
ENDBRANCH   1  29
TORSDOF 6
ENDMDL
MODEL 8
REMARK VINA RESULT:      -4.2      1.145      2.563
REMARK  6 active torsions:
REMARK  status: ('A' for Active; 'I' for Inactive)
REMARK    1  A    between atoms: C_1  and  C_2 
REMARK    2  A    between atoms: C_6  and  C_13 
REMARK    3  A    between atoms: C_8  and  C_10 
REMARK    4  A    between atoms: C_10  and  C_12 
REMARK    5  A    between atoms: C_13  and  C_14 
REMARK    6  A    between atoms: C_13  and  C_15 
ROOT
ATOM      1  C   LIG d   1       3.614  -1.634  -2.555  0.00  0.00    -0.034 C 
ATOM      2  H   LIG d   1       2.724  -1.925  -1.998  0.00  0.00     0.030 H 
ATOM      3  C   LIG d   1       4.236  -2.869  -3.246  0.00  0.00    -0.050 C 
ATOM      4  C   LIG d   1       4.740  -2.327  -4.606  0.00  0.00    -0.049 C 
ATOM      5  C   LIG d   1       3.637  -1.315  -5.005  0.00  0.00    -0.029 C 
ATOM      6  H   LIG d   1       2.784  -1.832  -5.444  0.00  0.00     0.031 H 
ATOM      7  C   LIG d   1       3.237  -0.647  -3.673  0.00  0.00     0.023 C 
ATOM      8  H   LIG d   1       2.254  -0.466  -3.640  0.00  0.00     0.038 H 
ATOM      9  H   LIG d   1       3.480  -3.639  -3.398  0.00  0.00     0.027 H 
ATOM     10  H   LIG d   1       5.067  -3.259  -2.659  0.00  0.00     0.027 H 
ATOM     11  H   LIG d   1       4.810  -3.130  -5.340  0.00  0.00     0.027 H 
ATOM     12  H   LIG d   1       5.701  -1.826  -4.490  0.00  0.00     0.027 H 
ENDROOT
BRANCH   5  13
ATOM     13  C   LIG d   1       4.193  -0.274  -5.979  0.00  0.00    -0.043 C 
ATOM     14  H   LIG d   1       4.547   0.593  -5.422  0.00  0.00     0.030 H 
BRANCH  13  15
ATOM     15  C   LIG d   1       5.354  -0.882  -6.767  0.00  0.00    -0.062 C 
ATOM     16  H   LIG d   1       6.067  -1.334  -6.076  0.00  0.00     0.023 H 
ATOM     17  H   LIG d   1       4.974  -1.645  -7.446  0.00  0.00     0.023 H 
ATOM     18  H   LIG d   1       5.852  -0.100  -7.343  0.00  0.00     0.023 H 
ENDBRANCH  13  15
BRANCH  13  19
ATOM     19  C   LIG d   1       3.091   0.158  -6.949  0.00  0.00    -0.062 C 
ATOM     20  H   LIG d   1       2.162  -0.353  -6.694  0.00  0.00     0.023 H 
ATOM     21  H   LIG d   1       2.945   1.235  -6.878  0.00  0.00     0.023 H 
ATOM     22  H   LIG d   1       3.380  -0.104  -7.967  0.00  0.00     0.023 H 
ENDBRANCH  13  19
ENDBRANCH   5  13
BRANCH   7  23
ATOM     23  C   LIG d   1       3.991   0.646  -3.496  0.00  0.00     0.134 C 
ATOM     24  O   LIG d   1       5.181   0.684  -3.706  0.00  0.00    -0.297 OA
BRANCH  23  25
ATOM     25  C   LIG d   1       3.263   1.890  -3.059  0.00  0.00    -0.006 C 
ATOM     26  H   LIG d   1       2.979   2.410  -3.864  0.00  0.00     0.031 H 
ATOM     27  H   LIG d   1       2.382   1.611  -2.478  0.00  0.00     0.031 H 
ATOM     28  H   LIG d   1       3.923   2.502  -2.445  0.00  0.00     0.031 H 
ENDBRANCH  23  25
ENDBRANCH   7  23
BRANCH   1  29
ATOM     29  C   LIG d   1       4.637  -0.994  -1.613  0.00  0.00    -0.062 C 
ATOM     30  H   LIG d   1       5.639  -1.126  -2.021  0.00  0.00     0.023 H 
ATOM     31  H   LIG d   1       4.422   0.070  -1.512  0.00  0.00     0.023 H 
ATOM     32  H   LIG d   1       4.577  -1.471  -0.635  0.00  0.00     0.023 H 
ENDBRANCH   1  29
TORSDOF 6
ENDMDL
MODEL 9
REMARK VINA RESULT:      -4.0      1.555      3.548
REMARK  6 active torsions:
REMARK  status: ('A' for Active; 'I' for Inactive)
REMARK    1  A    between atoms: C_1  and  C_2 
REMARK    2  A    between atoms: C_6  and  C_13 
REMARK    3  A    between atoms: C_8  and  C_10 
REMARK    4  A    between atoms: C_10  and  C_12 
REMARK    5  A    between atoms: C_13  and  C_14 
REMARK    6  A    between atoms: C_13  and  C_15 
ROOT
ATOM      1  C   LIG d   1       6.889  -1.115  -5.532  0.00  0.00    -0.034 C 
ATOM      2  H   LIG d   1       7.540  -0.496  -6.150  0.00  0.00     0.030 H 
ATOM      3  C   LIG d   1       7.668  -1.652  -4.311  0.00  0.00    -0.050 C 
ATOM      4  C   LIG d   1       6.635  -1.618  -3.158  0.00  0.00    -0.049 C 
ATOM      5  C   LIG d   1       5.844  -0.316  -3.440  0.00  0.00    -0.029 C 
ATOM      6  H   LIG d   1       6.392   0.551  -3.072  0.00  0.00     0.031 H 
ATOM      7  C   LIG d   1       5.729  -0.269  -4.978  0.00  0.00     0.023 C 
ATOM      8  H   LIG d   1       5.808   0.668  -5.318  0.00  0.00     0.038 H 
ATOM      9  H   LIG d   1       8.514  -1.001  -4.084  0.00  0.00     0.027 H 
ATOM     10  H   LIG d   1       8.008  -2.671  -4.490  0.00  0.00     0.027 H 
ATOM     11  H   LIG d   1       7.135  -1.565  -2.192  0.00  0.00     0.027 H 
ATOM     12  H   LIG d   1       5.978  -2.487  -3.204  0.00  0.00     0.027 H 
ENDROOT
BRANCH   5  13
ATOM     13  C   LIG d   1       4.456  -0.384  -2.802  0.00  0.00    -0.043 C 
ATOM     14  H   LIG d   1       3.705  -0.539  -3.578  0.00  0.00     0.030 H 
BRANCH  13  15
ATOM     15  C   LIG d   1       4.407  -1.547  -1.808  0.00  0.00    -0.062 C 
ATOM     16  H   LIG d   1       3.552  -2.184  -2.035  0.00  0.00     0.023 H 
ATOM     17  H   LIG d   1       5.324  -2.130  -1.885  0.00  0.00     0.023 H 
ATOM     18  H   LIG d   1       4.310  -1.155  -0.795  0.00  0.00     0.023 H 
ENDBRANCH  13  15
BRANCH  13  19
ATOM     19  C   LIG d   1       4.166   0.926  -2.066  0.00  0.00    -0.062 C 
ATOM     20  H   LIG d   1       3.288   1.402  -2.505  0.00  0.00     0.023 H 
ATOM     21  H   LIG d   1       3.980   0.718  -1.013  0.00  0.00     0.023 H 
ATOM     22  H   LIG d   1       5.024   1.592  -2.160  0.00  0.00     0.023 H 
ENDBRANCH  13  19
ENDBRANCH   5  13
BRANCH   7  23
ATOM     23  C   LIG d   1       4.410  -0.853  -5.416  0.00  0.00     0.134 C 
ATOM     24  O   LIG d   1       4.131  -1.993  -5.132  0.00  0.00    -0.297 OA
BRANCH  23  25
ATOM     25  C   LIG d   1       3.440  -0.013  -6.206  0.00  0.00    -0.006 C 
ATOM     26  H   LIG d   1       3.828   0.186  -7.106  0.00  0.00     0.031 H 
ATOM     27  H   LIG d   1       2.503  -0.558  -6.327  0.00  0.00     0.031 H 
ATOM     28  H   LIG d   1       3.251   0.920  -5.676  0.00  0.00     0.031 H 
ENDBRANCH  23  25
ENDBRANCH   7  23
BRANCH   1  29
ATOM     29  C   LIG d   1       6.341  -2.282  -6.354  0.00  0.00    -0.062 C 
ATOM     30  H   LIG d   1       6.983  -2.452  -7.218  0.00  0.00     0.023 H 
ATOM     31  H   LIG d   1       6.315  -3.181  -5.738  0.00  0.00     0.023 H 
ATOM     32  H   LIG d   1       5.332  -2.046  -6.693  0.00  0.00     0.023 H 
ENDBRANCH   1  29
TORSDOF 6
ENDMDL
MODEL 10
REMARK VINA RESULT:      -3.9      2.063      3.446
REMARK  6 active torsions:
REMARK  status: ('A' for Active; 'I' for Inactive)
REMARK    1  A    between atoms: C_1  and  C_2 
REMARK    2  A    between atoms: C_6  and  C_13 
REMARK    3  A    between atoms: C_8  and  C_10 
REMARK    4  A    between atoms: C_10  and  C_12 
REMARK    5  A    between atoms: C_13  and  C_14 
REMARK    6  A    between atoms: C_13  and  C_15 
ROOT
ATOM      1  C   LIG d   1       3.086   0.249  -4.088  0.00  0.00    -0.034 C 
ATOM      2  H   LIG d   1       2.409   1.056  -4.367  0.00  0.00     0.030 H 
ATOM      3  C   LIG d   1       3.510  -0.547  -5.343  0.00  0.00    -0.050 C 
ATOM      4  C   LIG d   1       4.995  -0.901  -5.082  0.00  0.00    -0.049 C 
ATOM      5  C   LIG d   1       5.536   0.371  -4.383  0.00  0.00    -0.029 C 
ATOM      6  H   LIG d   1       5.773   1.139  -5.119  0.00  0.00     0.031 H 
ATOM      7  C   LIG d   1       4.374   0.829  -3.478  0.00  0.00     0.023 C 
ATOM      8  H   LIG d   1       4.309   1.827  -3.450  0.00  0.00     0.038 H 
ATOM      9  H   LIG d   1       3.417   0.072  -6.235  0.00  0.00     0.027 H 
ATOM     10  H   LIG d   1       2.913  -1.453  -5.443  0.00  0.00     0.027 H 
ATOM     11  H   LIG d   1       5.521  -1.080  -6.019  0.00  0.00     0.027 H 
ATOM     12  H   LIG d   1       5.075  -1.767  -4.424  0.00  0.00     0.027 H 
ENDROOT
BRANCH   5  13
ATOM     13  C   LIG d   1       6.769   0.036  -3.541  0.00  0.00    -0.043 C 
ATOM     14  H   LIG d   1       6.483  -0.044  -2.492  0.00  0.00     0.030 H 
BRANCH  13  15
ATOM     15  C   LIG d   1       7.361  -1.295  -4.010  0.00  0.00    -0.062 C 
ATOM     16  H   LIG d   1       8.445  -1.205  -4.087  0.00  0.00     0.023 H 
ATOM     17  H   LIG d   1       7.111  -2.077  -3.294  0.00  0.00     0.023 H 
ATOM     18  H   LIG d   1       6.947  -1.552  -4.987  0.00  0.00     0.023 H 
ENDBRANCH  13  15
BRANCH  13  19
ATOM     19  C   LIG d   1       7.814   1.142  -3.703  0.00  0.00    -0.062 C 
ATOM     20  H   LIG d   1       8.269   1.356  -2.734  0.00  0.00     0.023 H 
ATOM     21  H   LIG d   1       8.583   0.816  -4.402  0.00  0.00     0.023 H 
ATOM     22  H   LIG d   1       7.333   2.043  -4.084  0.00  0.00     0.023 H 
ENDBRANCH  13  19
ENDBRANCH   5  13
BRANCH   7  23
ATOM     23  C   LIG d   1       4.567   0.299  -2.080  0.00  0.00     0.134 C 
ATOM     24  O   LIG d   1       4.782   1.063  -1.169  0.00  0.00    -0.297 OA
BRANCH  23  25
ATOM     25  C   LIG d   1       4.489  -1.183  -1.819  0.00  0.00    -0.006 C 
ATOM     26  H   LIG d   1       3.726  -1.373  -1.202  0.00  0.00     0.031 H 
ATOM     27  H   LIG d   1       4.335  -1.711  -2.761  0.00  0.00     0.031 H 
ATOM     28  H   LIG d   1       5.419  -1.521  -1.362  0.00  0.00     0.031 H 
ENDBRANCH  23  25
ENDBRANCH   7  23
BRANCH   1  29
ATOM     29  C   LIG d   1       2.404  -0.684  -3.085  0.00  0.00    -0.062 C 
ATOM     30  H   LIG d   1       1.722  -0.109  -2.460  0.00  0.00     0.023 H 
ATOM     31  H   LIG d   1       1.846  -1.451  -3.623  0.00  0.00     0.023 H 
ATOM     32  H   LIG d   1       3.160  -1.158  -2.459  0.00  0.00     0.023 H 
ENDBRANCH   1  29
TORSDOF 6
ENDMDL
