MODEL 1
REMARK VINA RESULT:      -5.8      0.000      0.000
REMARK  10 active torsions:
REMARK  status: ('A' for Active; 'I' for Inactive)
REMARK    1  A    between atoms: C_1  and  C_2 
REMARK    2  A    between atoms: C_2  and  C_29 
REMARK    3  A    between atoms: C_3  and  C_10 
REMARK    4  A    between atoms: C_5  and  C_7 
REMARK       I    between atoms: C_10  and  N_12 
REMARK    5  A    between atoms: N_12  and  C_13 
REMARK    6  A    between atoms: C_19  and  O_20 
REMARK    7  A    between atoms: O_20  and  C_21 
REMARK    8  A    between atoms: C_24  and  C_25 
REMARK    9  A    between atoms: C_25  and  O_27 
REMARK   10  A    between atoms: O_27  and  C_28 
ROOT
ATOM      1  C   LIG d   1       4.481  -1.740  -8.017  0.00  0.00     0.077 A 
ATOM      2  C   LIG d   1       4.260  -0.899  -9.193  0.00  0.00     0.063 A 
ATOM      3  C   LIG d   1       4.987  -1.481 -10.248  0.00  0.00     0.052 A 
ATOM      4  C   LIG d   1       4.961  -0.885 -11.506  0.00  0.00    -0.037 A 
ATOM      5  C   LIG d   1       4.230   0.264 -11.711  0.00  0.00    -0.056 A 
ATOM      6  C   LIG d   1       3.513   0.844 -10.676  0.00  0.00    -0.019 A 
ATOM      7  C   LIG d   1       3.520   0.272  -9.418  0.00  0.00     0.131 A 
ATOM      8  N   LIG d   1       5.613  -2.605  -9.761  0.00  0.00    -0.347 N 
ATOM      9  H   LIG d   1       6.181  -3.196 -10.280  0.00  0.00     0.166 HD
ATOM     10  C   LIG d   1       5.317  -2.764  -8.414  0.00  0.00     0.147 A 
ATOM     11  H   LIG d   1       5.515  -1.324 -12.322  0.00  0.00     0.064 H 
ATOM     12  H   LIG d   1       4.216   0.721 -12.690  0.00  0.00     0.062 H 
ATOM     13  H   LIG d   1       2.945   1.746 -10.852  0.00  0.00     0.065 H 
ENDROOT
BRANCH   1  14
ATOM     14  N   LIG d   1       3.954  -1.543  -6.744  0.00  0.00    -0.283 N 
ATOM     15  C   LIG d   1       4.547  -0.681  -5.895  0.00  0.00     0.222 C 
ATOM     16  O   LIG d   1       5.497  -0.023  -6.265  0.00  0.00    -0.275 OA
ATOM     17  H   LIG d   1       3.160  -2.026  -6.468  0.00  0.00     0.155 HD
BRANCH  15  18
ATOM     18  C   LIG d   1       4.031  -0.533  -4.487  0.00  0.00     0.050 A 
ATOM     19  C   LIG d   1       4.665  -1.408  -3.405  0.00  0.00    -0.015 A 
ATOM     20  C   LIG d   1       4.969   0.090  -3.452  0.00  0.00     0.016 A 
ATOM     21  H   LIG d   1       5.961   0.393  -3.788  0.00  0.00     0.037 H 
ATOM     22  H   LIG d   1       2.966  -0.314  -4.399  0.00  0.00     0.041 H 
BRANCH  19  23
ATOM     23  C   LIG d   1       3.757  -1.911  -2.281  0.00  0.00    -0.059 C 
ATOM     24  H   LIG d   1       3.120  -1.096  -1.938  0.00  0.00     0.024 H 
ATOM     25  H   LIG d   1       3.136  -2.726  -2.653  0.00  0.00     0.024 H 
ATOM     26  H   LIG d   1       4.368  -2.268  -1.453  0.00  0.00     0.024 H 
ENDBRANCH  19  23
BRANCH  19  27
ATOM     27  C   LIG d   1       5.776  -2.368  -3.835  0.00  0.00    -0.059 C 
ATOM     28  H   LIG d   1       5.942  -3.107  -3.050  0.00  0.00     0.024 H 
ATOM     29  H   LIG d   1       5.483  -2.875  -4.755  0.00  0.00     0.024 H 
ATOM     30  H   LIG d   1       6.695  -1.807  -4.007  0.00  0.00     0.024 H 
ENDBRANCH  19  27
BRANCH  20  31
ATOM     31  C   LIG d   1       4.351   0.959  -2.386  0.00  0.00     0.046 C 
ATOM     32  O   LIG d   1       4.934   1.137  -1.330  0.00  0.00    -0.549 OA
ATOM     33  O   LIG d   1       3.268   1.484  -2.581  0.00  0.00    -0.549 OA
ENDBRANCH  20  31
ENDBRANCH  15  18
ENDBRANCH   1  14
BRANCH  10  34
ATOM     34  C   LIG d   1       5.793  -3.808  -7.583  0.00  0.00     0.357 C 
ATOM     35  O   LIG d   1       6.950  -4.174  -7.668  0.00  0.00    -0.243 OA
BRANCH  34  36
ATOM     36  O   LIG d   1       4.962  -4.398  -6.698  0.00  0.00    -0.463 OA
BRANCH  36  37
ATOM     37  C   LIG d   1       3.933  -5.234  -7.232  0.00  0.00     0.082 C 
ATOM     38  H   LIG d   1       3.950  -5.180  -8.321  0.00  0.00     0.066 H 
ATOM     39  H   LIG d   1       4.103  -6.264  -6.917  0.00  0.00     0.066 H 
ATOM     40  H   LIG d   1       2.963  -4.897  -6.866  0.00  0.00     0.066 H 
ENDBRANCH  36  37
ENDBRANCH  34  36
ENDBRANCH  10  34
BRANCH   7  41
ATOM     41  O   LIG d   1       2.816   0.841  -8.405  0.00  0.00    -0.494 OA
BRANCH  41  42
ATOM     42  C   LIG d   1       2.848   2.265  -8.313  0.00  0.00     0.079 C 
ATOM     43  H   LIG d   1       3.795   2.582  -7.875  0.00  0.00     0.066 H 
ATOM     44  H   LIG d   1       2.746   2.697  -9.309  0.00  0.00     0.066 H 
ATOM     45  H   LIG d   1       2.025   2.608  -7.685  0.00  0.00     0.066 H 
ENDBRANCH  41  42
ENDBRANCH   7  41
TORSDOF 10
ENDMDL
MODEL 2
REMARK VINA RESULT:      -5.6      1.101      3.900
REMARK  10 active torsions:
REMARK  status: ('A' for Active; 'I' for Inactive)
REMARK    1  A    between atoms: C_1  and  C_2 
REMARK    2  A    between atoms: C_2  and  C_29 
REMARK    3  A    between atoms: C_3  and  C_10 
REMARK    4  A    between atoms: C_5  and  C_7 
REMARK       I    between atoms: C_10  and  N_12 
REMARK    5  A    between atoms: N_12  and  C_13 
REMARK    6  A    between atoms: C_19  and  O_20 
REMARK    7  A    between atoms: O_20  and  C_21 
REMARK    8  A    between atoms: C_24  and  C_25 
REMARK    9  A    between atoms: C_25  and  O_27 
REMARK   10  A    between atoms: O_27  and  C_28 
ROOT
ATOM      1  C   LIG d   1       4.167  -1.399  -7.969  0.00  0.00     0.077 A 
ATOM      2  C   LIG d   1       4.940  -2.510  -8.525  0.00  0.00     0.063 A 
ATOM      3  C   LIG d   1       5.183  -2.197  -9.875  0.00  0.00     0.052 A 
ATOM      4  C   LIG d   1       5.907  -3.088 -10.662  0.00  0.00    -0.037 A 
ATOM      5  C   LIG d   1       6.379  -4.263 -10.121  0.00  0.00    -0.056 A 
ATOM      6  C   LIG d   1       6.142  -4.577  -8.791  0.00  0.00    -0.019 A 
ATOM      7  C   LIG d   1       5.427  -3.710  -7.987  0.00  0.00     0.131 A 
ATOM      8  N   LIG d   1       4.603  -0.978 -10.139  0.00  0.00    -0.347 N 
ATOM      9  H   LIG d   1       4.620  -0.526 -10.997  0.00  0.00     0.166 HD
ATOM     10  C   LIG d   1       3.983  -0.493  -8.995  0.00  0.00     0.147 A 
ATOM     11  H   LIG d   1       6.100  -2.857 -11.700  0.00  0.00     0.064 H 
ATOM     12  H   LIG d   1       6.940  -4.949 -10.739  0.00  0.00     0.062 H 
ATOM     13  H   LIG d   1       6.519  -5.503  -8.381  0.00  0.00     0.065 H 
ENDROOT
BRANCH   1  14
ATOM     14  N   LIG d   1       3.703  -1.281  -6.663  0.00  0.00    -0.283 N 
ATOM     15  C   LIG d   1       4.411  -0.579  -5.757  0.00  0.00     0.222 C 
ATOM     16  O   LIG d   1       5.415   0.011  -6.096  0.00  0.00    -0.275 OA
ATOM     17  H   LIG d   1       2.868  -1.704  -6.405  0.00  0.00     0.155 HD
BRANCH  15  18
ATOM     18  C   LIG d   1       3.955  -0.524  -4.321  0.00  0.00     0.050 A 
ATOM     19  C   LIG d   1       4.688  -1.411  -3.313  0.00  0.00    -0.015 A 
ATOM     20  C   LIG d   1       4.906   0.103  -3.301  0.00  0.00     0.016 A 
ATOM     21  H   LIG d   1       5.862   0.477  -3.667  0.00  0.00     0.037 H 
ATOM     22  H   LIG d   1       2.885  -0.371  -4.174  0.00  0.00     0.041 H 
BRANCH  19  23
ATOM     23  C   LIG d   1       3.863  -2.015  -2.174  0.00  0.00    -0.059 C 
ATOM     24  H   LIG d   1       2.863  -2.252  -2.536  0.00  0.00     0.024 H 
ATOM     25  H   LIG d   1       4.346  -2.926  -1.820  0.00  0.00     0.024 H 
ATOM     26  H   LIG d   1       3.794  -1.299  -1.356  0.00  0.00     0.024 H 
ENDBRANCH  19  23
BRANCH  19  27
ATOM     27  C   LIG d   1       5.828  -2.285  -3.837  0.00  0.00    -0.059 C 
ATOM     28  H   LIG d   1       5.670  -2.492  -4.896  0.00  0.00     0.024 H 
ATOM     29  H   LIG d   1       6.776  -1.762  -3.706  0.00  0.00     0.024 H 
ATOM     30  H   LIG d   1       5.851  -3.223  -3.283  0.00  0.00     0.024 H 
ENDBRANCH  19  27
BRANCH  20  31
ATOM     31  C   LIG d   1       4.293   0.886  -2.168  0.00  0.00     0.046 C 
ATOM     32  O   LIG d   1       3.150   1.301  -2.262  0.00  0.00    -0.549 OA
ATOM     33  O   LIG d   1       4.940   1.104  -1.158  0.00  0.00    -0.549 OA
ENDBRANCH  20  31
ENDBRANCH  15  18
ENDBRANCH   1  14
BRANCH  10  34
ATOM     34  C   LIG d   1       3.279   0.732  -8.896  0.00  0.00     0.357 C 
ATOM     35  O   LIG d   1       2.123   0.802  -9.270  0.00  0.00    -0.243 OA
BRANCH  34  36
ATOM     36  O   LIG d   1       3.890   1.822  -8.387  0.00  0.00    -0.463 OA
BRANCH  36  37
ATOM     37  C   LIG d   1       4.857   2.471  -9.217  0.00  0.00     0.082 C 
ATOM     38  H   LIG d   1       5.662   1.773  -9.449  0.00  0.00     0.066 H 
ATOM     39  H   LIG d   1       4.380   2.796 -10.142  0.00  0.00     0.066 H 
ATOM     40  H   LIG d   1       5.264   3.336  -8.694  0.00  0.00     0.066 H 
ENDBRANCH  36  37
ENDBRANCH  34  36
ENDBRANCH  10  34
BRANCH   7  41
ATOM     41  O   LIG d   1       5.196  -4.020  -6.685  0.00  0.00    -0.494 OA
BRANCH  41  42
ATOM     42  C   LIG d   1       4.111  -4.907  -6.412  0.00  0.00     0.079 C 
ATOM     43  H   LIG d   1       3.309  -4.360  -5.916  0.00  0.00     0.066 H 
ATOM     44  H   LIG d   1       3.740  -5.327  -7.347  0.00  0.00     0.066 H 
ATOM     45  H   LIG d   1       4.455  -5.713  -5.763  0.00  0.00     0.066 H 
ENDBRANCH  41  42
ENDBRANCH   7  41
TORSDOF 10
ENDMDL
MODEL 3
REMARK VINA RESULT:      -5.3      1.945      6.269
REMARK  10 active torsions:
REMARK  status: ('A' for Active; 'I' for Inactive)
REMARK    1  A    between atoms: C_1  and  C_2 
REMARK    2  A    between atoms: C_2  and  C_29 
REMARK    3  A    between atoms: C_3  and  C_10 
REMARK    4  A    between atoms: C_5  and  C_7 
REMARK       I    between atoms: C_10  and  N_12 
REMARK    5  A    between atoms: N_12  and  C_13 
REMARK    6  A    between atoms: C_19  and  O_20 
REMARK    7  A    between atoms: O_20  and  C_21 
REMARK    8  A    between atoms: C_24  and  C_25 
REMARK    9  A    between atoms: C_25  and  O_27 
REMARK   10  A    between atoms: O_27  and  C_28 
ROOT
ATOM      1  C   LIG d   1       5.160  -2.303  -5.407  0.00  0.00     0.077 A 
ATOM      2  C   LIG d   1       5.059  -1.447  -4.225  0.00  0.00     0.063 A 
ATOM      3  C   LIG d   1       4.488  -2.231  -3.206  0.00  0.00     0.052 A 
ATOM      4  C   LIG d   1       4.271  -1.667  -1.952  0.00  0.00    -0.037 A 
ATOM      5  C   LIG d   1       4.612  -0.354  -1.715  0.00  0.00    -0.056 A 
ATOM      6  C   LIG d   1       5.175   0.424  -2.715  0.00  0.00    -0.019 A 
ATOM      7  C   LIG d   1       5.402  -0.110  -3.969  0.00  0.00     0.131 A 
ATOM      8  N   LIG d   1       4.252  -3.485  -3.719  0.00  0.00    -0.347 N 
ATOM      9  H   LIG d   1       3.863  -4.224  -3.226  0.00  0.00     0.166 HD
ATOM     10  C   LIG d   1       4.650  -3.534  -5.048  0.00  0.00     0.147 A 
ATOM     11  H   LIG d   1       3.834  -2.261  -1.162  0.00  0.00     0.064 H 
ATOM     12  H   LIG d   1       4.440   0.075  -0.739  0.00  0.00     0.062 H 
ATOM     13  H   LIG d   1       5.437   1.453  -2.514  0.00  0.00     0.065 H 
ENDROOT
BRANCH   1  14
ATOM     14  N   LIG d   1       5.667  -1.944  -6.652  0.00  0.00    -0.283 N 
ATOM     15  C   LIG d   1       4.860  -1.375  -7.569  0.00  0.00     0.222 C 
ATOM     16  O   LIG d   1       3.712  -1.108  -7.285  0.00  0.00    -0.275 OA
ATOM     17  H   LIG d   1       6.601  -2.103  -6.860  0.00  0.00     0.155 HD
BRANCH  15  18
ATOM     18  C   LIG d   1       5.385  -1.066  -8.948  0.00  0.00     0.050 A 
ATOM     19  C   LIG d   1       5.233  -2.147 -10.020  0.00  0.00    -0.015 A 
ATOM     20  C   LIG d   1       4.362  -0.891 -10.071  0.00  0.00     0.016 A 
ATOM     21  H   LIG d   1       3.308  -0.998  -9.814  0.00  0.00     0.037 H 
ATOM     22  H   LIG d   1       6.281  -0.446  -8.981  0.00  0.00     0.041 H 
BRANCH  19  23
ATOM     23  C   LIG d   1       6.351  -2.275 -11.057  0.00  0.00    -0.059 C 
ATOM     24  H   LIG d   1       6.176  -1.567 -11.868  0.00  0.00     0.024 H 
ATOM     25  H   LIG d   1       7.310  -2.058 -10.587  0.00  0.00     0.024 H 
ATOM     26  H   LIG d   1       6.361  -3.288 -11.456  0.00  0.00     0.024 H 
ENDBRANCH  19  23
BRANCH  19  27
ATOM     27  C   LIG d   1       4.559  -3.458  -9.612  0.00  0.00    -0.059 C 
ATOM     28  H   LIG d   1       5.316  -4.233  -9.491  0.00  0.00     0.024 H 
ATOM     29  H   LIG d   1       4.030  -3.316  -8.669  0.00  0.00     0.024 H 
ATOM     30  H   LIG d   1       3.850  -3.758 -10.384  0.00  0.00     0.024 H 
ENDBRANCH  19  27
BRANCH  20  31
ATOM     31  C   LIG d   1       4.670   0.127 -11.140  0.00  0.00     0.046 C 
ATOM     32  O   LIG d   1       5.397   1.074 -10.889  0.00  0.00    -0.549 OA
ATOM     33  O   LIG d   1       4.191   0.004 -12.254  0.00  0.00    -0.549 OA
ENDBRANCH  20  31
ENDBRANCH  15  18
ENDBRANCH   1  14
BRANCH  10  34
ATOM     34  C   LIG d   1       4.551  -4.664  -5.896  0.00  0.00     0.357 C 
ATOM     35  O   LIG d   1       3.512  -5.294  -5.953  0.00  0.00    -0.243 OA
BRANCH  34  36
ATOM     36  O   LIG d   1       5.611  -5.043  -6.642  0.00  0.00    -0.463 OA
BRANCH  36  37
ATOM     37  C   LIG d   1       6.190  -6.316  -6.347  0.00  0.00     0.082 C 
ATOM     38  H   LIG d   1       7.149  -6.172  -5.849  0.00  0.00     0.066 H 
ATOM     39  H   LIG d   1       5.521  -6.876  -5.691  0.00  0.00     0.066 H 
ATOM     40  H   LIG d   1       6.340  -6.871  -7.272  0.00  0.00     0.066 H 
ENDBRANCH  36  37
ENDBRANCH  34  36
ENDBRANCH  10  34
BRANCH   7  41
ATOM     41  O   LIG d   1       5.953   0.654  -4.948  0.00  0.00    -0.494 OA
BRANCH  41  42
ATOM     42  C   LIG d   1       7.378   0.741  -4.978  0.00  0.00     0.079 C 
ATOM     43  H   LIG d   1       7.682   1.486  -5.713  0.00  0.00     0.066 H 
ATOM     44  H   LIG d   1       7.746   1.031  -3.994  0.00  0.00     0.066 H 
ATOM     45  H   LIG d   1       7.796  -0.229  -5.250  0.00  0.00     0.066 H 
ENDBRANCH  41  42
ENDBRANCH   7  41
TORSDOF 10
ENDMDL
MODEL 4
REMARK VINA RESULT:      -5.3      9.851     12.379
REMARK  10 active torsions:
REMARK  status: ('A' for Active; 'I' for Inactive)
REMARK    1  A    between atoms: C_1  and  C_2 
REMARK    2  A    between atoms: C_2  and  C_29 
REMARK    3  A    between atoms: C_3  and  C_10 
REMARK    4  A    between atoms: C_5  and  C_7 
REMARK       I    between atoms: C_10  and  N_12 
REMARK    5  A    between atoms: N_12  and  C_13 
REMARK    6  A    between atoms: C_19  and  O_20 
REMARK    7  A    between atoms: O_20  and  C_21 
REMARK    8  A    between atoms: C_24  and  C_25 
REMARK    9  A    between atoms: C_25  and  O_27 
REMARK   10  A    between atoms: O_27  and  C_28 
ROOT
ATOM      1  C   LIG d   1      10.620   6.518  -1.777  0.00  0.00     0.077 A 
ATOM      2  C   LIG d   1      10.193   5.807  -2.983  0.00  0.00     0.063 A 
ATOM      3  C   LIG d   1      10.290   4.433  -2.698  0.00  0.00     0.052 A 
ATOM      4  C   LIG d   1       9.944   3.506  -3.677  0.00  0.00    -0.037 A 
ATOM      5  C   LIG d   1       9.511   3.935  -4.912  0.00  0.00    -0.056 A 
ATOM      6  C   LIG d   1       9.414   5.287  -5.200  0.00  0.00    -0.019 A 
ATOM      7  C   LIG d   1       9.750   6.229  -4.246  0.00  0.00     0.131 A 
ATOM      8  N   LIG d   1      10.744   4.300  -1.406  0.00  0.00    -0.347 N 
ATOM      9  H   LIG d   1      10.900   3.456  -0.954  0.00  0.00     0.166 HD
ATOM     10  C   LIG d   1      10.950   5.554  -0.847  0.00  0.00     0.147 A 
ATOM     11  H   LIG d   1      10.014   2.449  -3.468  0.00  0.00     0.064 H 
ATOM     12  H   LIG d   1       9.244   3.208  -5.666  0.00  0.00     0.062 H 
ATOM     13  H   LIG d   1       9.073   5.608  -6.174  0.00  0.00     0.065 H 
ENDROOT
BRANCH   1  14
ATOM     14  N   LIG d   1      10.685   7.897  -1.605  0.00  0.00    -0.283 N 
ATOM     15  C   LIG d   1       9.622   8.566  -1.116  0.00  0.00     0.222 C 
ATOM     16  O   LIG d   1       8.635   7.958  -0.759  0.00  0.00    -0.275 OA
ATOM     17  H   LIG d   1      11.496   8.377  -1.836  0.00  0.00     0.155 HD
BRANCH  15  18
ATOM     18  C   LIG d   1       9.659  10.069  -1.012  0.00  0.00     0.050 A 
ATOM     19  C   LIG d   1      10.531  10.680   0.086  0.00  0.00    -0.015 A 
ATOM     20  C   LIG d   1      10.968  10.771  -1.377  0.00  0.00     0.016 A 
ATOM     21  H   LIG d   1      11.804  10.146  -1.693  0.00  0.00     0.037 H 
ATOM     22  H   LIG d   1       8.727  10.579  -1.259  0.00  0.00     0.041 H 
BRANCH  19  23
ATOM     23  C   LIG d   1      10.030  11.962   0.755  0.00  0.00    -0.059 C 
ATOM     24  H   LIG d   1      10.851  12.436   1.293  0.00  0.00     0.024 H 
ATOM     25  H   LIG d   1       9.652  12.645  -0.006  0.00  0.00     0.024 H 
ATOM     26  H   LIG d   1       9.231  11.717   1.454  0.00  0.00     0.024 H 
ENDBRANCH  19  23
BRANCH  19  27
ATOM     27  C   LIG d   1      11.300   9.720   0.994  0.00  0.00    -0.059 C 
ATOM     28  H   LIG d   1      11.706  10.269   1.844  0.00  0.00     0.024 H 
ATOM     29  H   LIG d   1      10.626   8.941   1.354  0.00  0.00     0.024 H 
ATOM     30  H   LIG d   1      12.116   9.263   0.433  0.00  0.00     0.024 H 
ENDBRANCH  19  27
BRANCH  20  31
ATOM     31  C   LIG d   1      10.872  12.116  -2.050  0.00  0.00     0.046 C 
ATOM     32  O   LIG d   1      11.833  12.866  -2.056  0.00  0.00    -0.549 OA
ATOM     33  O   LIG d   1       9.831  12.455  -2.589  0.00  0.00    -0.549 OA
ENDBRANCH  20  31
ENDBRANCH  15  18
ENDBRANCH   1  14
BRANCH  10  34
ATOM     34  C   LIG d   1      11.420   5.803   0.466  0.00  0.00     0.357 C 
ATOM     35  O   LIG d   1      12.521   6.294   0.636  0.00  0.00    -0.243 OA
BRANCH  34  36
ATOM     36  O   LIG d   1      10.648   5.495   1.529  0.00  0.00    -0.463 OA
BRANCH  36  37
ATOM     37  C   LIG d   1      10.990   6.102   2.778  0.00  0.00     0.082 C 
ATOM     38  H   LIG d   1      10.368   6.983   2.936  0.00  0.00     0.066 H 
ATOM     39  H   LIG d   1      10.821   5.389   3.586  0.00  0.00     0.066 H 
ATOM     40  H   LIG d   1      12.039   6.395   2.764  0.00  0.00     0.066 H 
ENDBRANCH  36  37
ENDBRANCH  34  36
ENDBRANCH  10  34
BRANCH   7  41
ATOM     41  O   LIG d   1       9.655   7.554  -4.530  0.00  0.00    -0.494 OA
BRANCH  41  42
ATOM     42  C   LIG d   1       9.265   7.906  -5.858  0.00  0.00     0.079 C 
ATOM     43  H   LIG d   1       8.723   7.075  -6.311  0.00  0.00     0.066 H 
ATOM     44  H   LIG d   1       8.622   8.786  -5.827  0.00  0.00     0.066 H 
ATOM     45  H   LIG d   1      10.153   8.126  -6.451  0.00  0.00     0.066 H 
ENDBRANCH  41  42
ENDBRANCH   7  41
TORSDOF 10
ENDMDL
MODEL 5
REMARK VINA RESULT:      -5.3      3.092      6.182
REMARK  10 active torsions:
REMARK  status: ('A' for Active; 'I' for Inactive)
REMARK    1  A    between atoms: C_1  and  C_2 
REMARK    2  A    between atoms: C_2  and  C_29 
REMARK    3  A    between atoms: C_3  and  C_10 
REMARK    4  A    between atoms: C_5  and  C_7 
REMARK       I    between atoms: C_10  and  N_12 
REMARK    5  A    between atoms: N_12  and  C_13 
REMARK    6  A    between atoms: C_19  and  O_20 
REMARK    7  A    between atoms: O_20  and  C_21 
REMARK    8  A    between atoms: C_24  and  C_25 
REMARK    9  A    between atoms: C_25  and  O_27 
REMARK   10  A    between atoms: O_27  and  C_28 
ROOT
ATOM      1  C   LIG d   1       5.299  -0.632  -5.894  0.00  0.00     0.077 A 
ATOM      2  C   LIG d   1       5.073  -0.455  -4.459  0.00  0.00     0.063 A 
ATOM      3  C   LIG d   1       4.216  -1.495  -4.054  0.00  0.00     0.052 A 
ATOM      4  C   LIG d   1       3.826  -1.578  -2.721  0.00  0.00    -0.037 A 
ATOM      5  C   LIG d   1       4.276  -0.648  -1.810  0.00  0.00    -0.056 A 
ATOM      6  C   LIG d   1       5.119   0.380  -2.203  0.00  0.00    -0.019 A 
ATOM      7  C   LIG d   1       5.523   0.485  -3.520  0.00  0.00     0.131 A 
ATOM      8  N   LIG d   1       3.931  -2.264  -5.159  0.00  0.00    -0.347 N 
ATOM      9  H   LIG d   1       3.362  -3.049  -5.160  0.00  0.00     0.166 HD
ATOM     10  C   LIG d   1       4.577  -1.745  -6.274  0.00  0.00     0.147 A 
ATOM     11  H   LIG d   1       3.169  -2.373  -2.399  0.00  0.00     0.064 H 
ATOM     12  H   LIG d   1       3.968  -0.719  -0.777  0.00  0.00     0.062 H 
ATOM     13  H   LIG d   1       5.463   1.102  -1.476  0.00  0.00     0.065 H 
ENDROOT
BRANCH   1  14
ATOM     14  N   LIG d   1       6.084   0.169  -6.716  0.00  0.00    -0.283 N 
ATOM     15  C   LIG d   1       7.379  -0.142  -6.924  0.00  0.00     0.222 C 
ATOM     16  O   LIG d   1       7.841  -1.160  -6.454  0.00  0.00    -0.275 OA
ATOM     17  H   LIG d   1       5.700   0.953  -7.141  0.00  0.00     0.155 HD
BRANCH  15  18
ATOM     18  C   LIG d   1       8.253   0.773  -7.742  0.00  0.00     0.050 A 
ATOM     19  C   LIG d   1       8.159   0.666  -9.265  0.00  0.00    -0.015 A 
ATOM     20  C   LIG d   1       7.565   1.878  -8.545  0.00  0.00     0.016 A 
ATOM     21  H   LIG d   1       6.478   1.944  -8.483  0.00  0.00     0.037 H 
ATOM     22  H   LIG d   1       9.230   0.996  -7.312  0.00  0.00     0.041 H 
BRANCH  19  23
ATOM     23  C   LIG d   1       9.443   0.881 -10.069  0.00  0.00    -0.059 C 
ATOM     24  H   LIG d   1       9.886  -0.085 -10.311  0.00  0.00     0.024 H 
ATOM     25  H   LIG d   1       9.209   1.413 -10.991  0.00  0.00     0.024 H 
ATOM     26  H   LIG d   1      10.147   1.466  -9.479  0.00  0.00     0.024 H 
ENDBRANCH  19  23
BRANCH  19  27
ATOM     27  C   LIG d   1       7.183  -0.361  -9.842  0.00  0.00    -0.059 C 
ATOM     28  H   LIG d   1       7.738  -1.226 -10.206  0.00  0.00     0.024 H 
ATOM     29  H   LIG d   1       6.486  -0.677  -9.065  0.00  0.00     0.024 H 
ATOM     30  H   LIG d   1       6.628   0.088 -10.666  0.00  0.00     0.024 H 
ENDBRANCH  19  27
BRANCH  20  31
ATOM     31  C   LIG d   1       8.289   3.193  -8.682  0.00  0.00     0.046 C 
ATOM     32  O   LIG d   1       7.980   3.970  -9.570  0.00  0.00    -0.549 OA
ATOM     33  O   LIG d   1       9.184   3.480  -7.905  0.00  0.00    -0.549 OA
ENDBRANCH  20  31
ENDBRANCH  15  18
ENDBRANCH   1  14
BRANCH  10  34
ATOM     34  C   LIG d   1       4.508  -2.274  -7.586  0.00  0.00     0.357 C 
ATOM     35  O   LIG d   1       5.452  -2.889  -8.045  0.00  0.00    -0.243 OA
BRANCH  34  36
ATOM     36  O   LIG d   1       3.394  -2.097  -8.327  0.00  0.00    -0.463 OA
BRANCH  36  37
ATOM     37  C   LIG d   1       3.062  -3.130  -9.257  0.00  0.00     0.082 C 
ATOM     38  H   LIG d   1       3.262  -2.783 -10.272  0.00  0.00     0.066 H 
ATOM     39  H   LIG d   1       3.667  -4.013  -9.050  0.00  0.00     0.066 H 
ATOM     40  H   LIG d   1       2.006  -3.381  -9.160  0.00  0.00     0.066 H 
ENDBRANCH  36  37
ENDBRANCH  34  36
ENDBRANCH  10  34
BRANCH   7  41
ATOM     41  O   LIG d   1       6.350   1.492  -3.903  0.00  0.00    -0.494 OA
BRANCH  41  42
ATOM     42  C   LIG d   1       7.745   1.318  -3.652  0.00  0.00     0.079 C 
ATOM     43  H   LIG d   1       7.904   0.383  -3.114  0.00  0.00     0.066 H 
ATOM     44  H   LIG d   1       8.284   1.288  -4.599  0.00  0.00     0.066 H 
ATOM     45  H   LIG d   1       8.113   2.150  -3.051  0.00  0.00     0.066 H 
ENDBRANCH  41  42
ENDBRANCH   7  41
TORSDOF 10
ENDMDL
MODEL 6
REMARK VINA RESULT:      -5.2      2.894      6.631
REMARK  10 active torsions:
REMARK  status: ('A' for Active; 'I' for Inactive)
REMARK    1  A    between atoms: C_1  and  C_2 
REMARK    2  A    between atoms: C_2  and  C_29 
REMARK    3  A    between atoms: C_3  and  C_10 
REMARK    4  A    between atoms: C_5  and  C_7 
REMARK       I    between atoms: C_10  and  N_12 
REMARK    5  A    between atoms: N_12  and  C_13 
REMARK    6  A    between atoms: C_19  and  O_20 
REMARK    7  A    between atoms: O_20  and  C_21 
REMARK    8  A    between atoms: C_24  and  C_25 
REMARK    9  A    between atoms: C_25  and  O_27 
REMARK   10  A    between atoms: O_27  and  C_28 
ROOT
ATOM      1  C   LIG d   1       4.443  -0.601  -6.255  0.00  0.00     0.077 A 
ATOM      2  C   LIG d   1       4.267  -1.083  -4.885  0.00  0.00     0.063 A 
ATOM      3  C   LIG d   1       3.046  -0.556  -4.425  0.00  0.00     0.052 A 
ATOM      4  C   LIG d   1       2.617  -0.853  -3.135  0.00  0.00    -0.037 A 
ATOM      5  C   LIG d   1       3.384  -1.655  -2.319  0.00  0.00    -0.056 A 
ATOM      6  C   LIG d   1       4.588  -2.177  -2.765  0.00  0.00    -0.019 A 
ATOM      7  C   LIG d   1       5.037  -1.898  -4.042  0.00  0.00     0.131 A 
ATOM      8  N   LIG d   1       2.502   0.198  -5.439  0.00  0.00    -0.347 N 
ATOM      9  H   LIG d   1       1.659   0.674  -5.388  0.00  0.00     0.166 HD
ATOM     10  C   LIG d   1       3.343   0.180  -6.544  0.00  0.00     0.147 A 
ATOM     11  H   LIG d   1       1.681  -0.455  -2.773  0.00  0.00     0.064 H 
ATOM     12  H   LIG d   1       3.043  -1.880  -1.319  0.00  0.00     0.062 H 
ATOM     13  H   LIG d   1       5.179  -2.803  -2.113  0.00  0.00     0.065 H 
ENDROOT
BRANCH   1  14
ATOM     14  N   LIG d   1       5.515  -0.873  -7.100  0.00  0.00    -0.283 N 
ATOM     15  C   LIG d   1       6.645  -0.146  -7.011  0.00  0.00     0.222 C 
ATOM     16  O   LIG d   1       6.757   0.698  -6.147  0.00  0.00    -0.275 OA
ATOM     17  H   LIG d   1       5.448  -1.587  -7.754  0.00  0.00     0.155 HD
BRANCH  15  18
ATOM     18  C   LIG d   1       7.772  -0.380  -7.984  0.00  0.00     0.050 A 
ATOM     19  C   LIG d   1       7.797   0.469  -9.255  0.00  0.00    -0.015 A 
ATOM     20  C   LIG d   1       8.812   0.729  -8.142  0.00  0.00     0.016 A 
ATOM     21  H   LIG d   1       8.683   1.631  -7.542  0.00  0.00     0.037 H 
ATOM     22  H   LIG d   1       8.119  -1.412  -8.059  0.00  0.00     0.041 H 
BRANCH  19  23
ATOM     23  C   LIG d   1       8.308  -0.192 -10.537  0.00  0.00    -0.059 C 
ATOM     24  H   LIG d   1       8.818  -1.123 -10.287  0.00  0.00     0.024 H 
ATOM     25  H   LIG d   1       7.466  -0.406 -11.196  0.00  0.00     0.024 H 
ATOM     26  H   LIG d   1       9.003   0.479 -11.040  0.00  0.00     0.024 H 
ENDBRANCH  19  23
BRANCH  19  27
ATOM     27  C   LIG d   1       6.677   1.493  -9.443  0.00  0.00    -0.059 C 
ATOM     28  H   LIG d   1       6.399   1.539 -10.496  0.00  0.00     0.024 H 
ATOM     29  H   LIG d   1       5.810   1.196  -8.851  0.00  0.00     0.024 H 
ATOM     30  H   LIG d   1       7.022   2.474  -9.115  0.00  0.00     0.024 H 
ENDBRANCH  19  27
BRANCH  20  31
ATOM     31  C   LIG d   1      10.240   0.314  -8.390  0.00  0.00     0.046 C 
ATOM     32  O   LIG d   1      10.614  -0.804  -8.079  0.00  0.00    -0.549 OA
ATOM     33  O   LIG d   1      11.022   1.097  -8.903  0.00  0.00    -0.549 OA
ENDBRANCH  20  31
ENDBRANCH  15  18
ENDBRANCH   1  14
BRANCH  10  34
ATOM     34  C   LIG d   1       3.108   0.851  -7.769  0.00  0.00     0.357 C 
ATOM     35  O   LIG d   1       2.888   2.048  -7.775  0.00  0.00    -0.243 OA
BRANCH  34  36
ATOM     36  O   LIG d   1       3.126   0.163  -8.930  0.00  0.00    -0.463 OA
BRANCH  36  37
ATOM     37  C   LIG d   1       2.037  -0.731  -9.172  0.00  0.00     0.082 C 
ATOM     38  H   LIG d   1       2.049  -1.044 -10.216  0.00  0.00     0.066 H 
ATOM     39  H   LIG d   1       2.137  -1.607  -8.530  0.00  0.00     0.066 H 
ATOM     40  H   LIG d   1       1.096  -0.226  -8.954  0.00  0.00     0.066 H 
ENDBRANCH  36  37
ENDBRANCH  34  36
ENDBRANCH  10  34
BRANCH   7  41
ATOM     41  O   LIG d   1       6.218  -2.410  -4.478  0.00  0.00    -0.494 OA
BRANCH  41  42
ATOM     42  C   LIG d   1       7.394  -2.029  -3.762  0.00  0.00     0.079 C 
ATOM     43  H   LIG d   1       7.112  -1.472  -2.868  0.00  0.00     0.066 H 
ATOM     44  H   LIG d   1       7.950  -2.921  -3.473  0.00  0.00     0.066 H 
ATOM     45  H   LIG d   1       8.019  -1.402  -4.398  0.00  0.00     0.066 H 
ENDBRANCH  41  42
ENDBRANCH   7  41
TORSDOF 10
ENDMDL
MODEL 7
REMARK VINA RESULT:      -5.2      2.209      6.973
REMARK  10 active torsions:
REMARK  status: ('A' for Active; 'I' for Inactive)
REMARK    1  A    between atoms: C_1  and  C_2 
REMARK    2  A    between atoms: C_2  and  C_29 
REMARK    3  A    between atoms: C_3  and  C_10 
REMARK    4  A    between atoms: C_5  and  C_7 
REMARK       I    between atoms: C_10  and  N_12 
REMARK    5  A    between atoms: N_12  and  C_13 
REMARK    6  A    between atoms: C_19  and  O_20 
REMARK    7  A    between atoms: O_20  and  C_21 
REMARK    8  A    between atoms: C_24  and  C_25 
REMARK    9  A    between atoms: C_25  and  O_27 
REMARK   10  A    between atoms: O_27  and  C_28 
ROOT
ATOM      1  C   LIG d   1       4.015  -0.877  -6.073  0.00  0.00     0.077 A 
ATOM      2  C   LIG d   1       4.184  -0.957  -4.622  0.00  0.00     0.063 A 
ATOM      3  C   LIG d   1       3.500   0.144  -4.074  0.00  0.00     0.052 A 
ATOM      4  C   LIG d   1       3.491   0.324  -2.694  0.00  0.00    -0.037 A 
ATOM      5  C   LIG d   1       4.148  -0.569  -1.876  0.00  0.00    -0.056 A 
ATOM      6  C   LIG d   1       4.824  -1.655  -2.409  0.00  0.00    -0.019 A 
ATOM      7  C   LIG d   1       4.847  -1.859  -3.776  0.00  0.00     0.131 A 
ATOM      8  N   LIG d   1       2.946   0.857  -5.111  0.00  0.00    -0.347 N 
ATOM      9  H   LIG d   1       2.419   1.665  -5.013  0.00  0.00     0.166 HD
ATOM     10  C   LIG d   1       3.257   0.250  -6.321  0.00  0.00     0.147 A 
ATOM     11  H   LIG d   1       2.970   1.166  -2.263  0.00  0.00     0.064 H 
ATOM     12  H   LIG d   1       4.136  -0.421  -0.805  0.00  0.00     0.062 H 
ATOM     13  H   LIG d   1       5.335  -2.346  -1.754  0.00  0.00     0.065 H 
ENDROOT
BRANCH   1  14
ATOM     14  N   LIG d   1       4.524  -1.761  -7.019  0.00  0.00    -0.283 N 
ATOM     15  C   LIG d   1       5.760  -1.572  -7.522  0.00  0.00     0.222 C 
ATOM     16  O   LIG d   1       6.456  -0.674  -7.098  0.00  0.00    -0.275 OA
ATOM     17  H   LIG d   1       3.990  -2.514  -7.316  0.00  0.00     0.155 HD
BRANCH  15  18
ATOM     18  C   LIG d   1       6.278  -2.476  -8.610  0.00  0.00     0.050 A 
ATOM     19  C   LIG d   1       6.080  -2.025 -10.058  0.00  0.00    -0.015 A 
ATOM     20  C   LIG d   1       7.473  -1.985  -9.428  0.00  0.00     0.016 A 
ATOM     21  H   LIG d   1       7.886  -1.007  -9.181  0.00  0.00     0.037 H 
ATOM     22  H   LIG d   1       6.215  -3.545  -8.401  0.00  0.00     0.041 H 
BRANCH  19  23
ATOM     23  C   LIG d   1       5.808  -3.109 -11.104  0.00  0.00    -0.059 C 
ATOM     24  H   LIG d   1       4.772  -3.437 -11.026  0.00  0.00     0.024 H 
ATOM     25  H   LIG d   1       5.986  -2.704 -12.101  0.00  0.00     0.024 H 
ATOM     26  H   LIG d   1       6.471  -3.955 -10.931  0.00  0.00     0.024 H 
ENDBRANCH  19  23
BRANCH  19  27
ATOM     27  C   LIG d   1       5.371  -0.691 -10.292  0.00  0.00    -0.059 C 
ATOM     28  H   LIG d   1       4.815  -0.412  -9.397  0.00  0.00     0.024 H 
ATOM     29  H   LIG d   1       6.111   0.079 -10.515  0.00  0.00     0.024 H 
ATOM     30  H   LIG d   1       4.683  -0.787 -11.132  0.00  0.00     0.024 H 
ENDBRANCH  19  27
BRANCH  20  31
ATOM     31  C   LIG d   1       8.474  -3.015  -9.886  0.00  0.00     0.046 C 
ATOM     32  O   LIG d   1       9.202  -2.779 -10.835  0.00  0.00    -0.549 OA
ATOM     33  O   LIG d   1       8.555  -4.085  -9.306  0.00  0.00    -0.549 OA
ENDBRANCH  20  31
ENDBRANCH  15  18
ENDBRANCH   1  14
BRANCH  10  34
ATOM     34  C   LIG d   1       2.859   0.710  -7.600  0.00  0.00     0.357 C 
ATOM     35  O   LIG d   1       2.436  -0.077  -8.425  0.00  0.00    -0.243 OA
BRANCH  34  36
ATOM     36  O   LIG d   1       2.951   2.022  -7.903  0.00  0.00    -0.463 OA
BRANCH  36  37
ATOM     37  C   LIG d   1       3.700   2.368  -9.071  0.00  0.00     0.082 C 
ATOM     38  H   LIG d   1       3.074   2.956  -9.742  0.00  0.00     0.066 H 
ATOM     39  H   LIG d   1       4.572   2.954  -8.781  0.00  0.00     0.066 H 
ATOM     40  H   LIG d   1       4.024   1.459  -9.577  0.00  0.00     0.066 H 
ENDBRANCH  36  37
ENDBRANCH  34  36
ENDBRANCH  10  34
BRANCH   7  41
ATOM     41  O   LIG d   1       5.510  -2.924  -4.296  0.00  0.00    -0.494 OA
BRANCH  41  42
ATOM     42  C   LIG d   1       6.937  -2.880  -4.262  0.00  0.00     0.079 C 
ATOM     43  H   LIG d   1       7.277  -2.884  -3.226  0.00  0.00     0.066 H 
ATOM     44  H   LIG d   1       7.341  -3.749  -4.780  0.00  0.00     0.066 H 
ATOM     45  H   LIG d   1       7.285  -1.971  -4.754  0.00  0.00     0.066 H 
ENDBRANCH  41  42
ENDBRANCH   7  41
TORSDOF 10
ENDMDL
MODEL 8
REMARK VINA RESULT:      -5.1      2.041      6.225
REMARK  10 active torsions:
REMARK  status: ('A' for Active; 'I' for Inactive)
REMARK    1  A    between atoms: C_1  and  C_2 
REMARK    2  A    between atoms: C_2  and  C_29 
REMARK    3  A    between atoms: C_3  and  C_10 
REMARK    4  A    between atoms: C_5  and  C_7 
REMARK       I    between atoms: C_10  and  N_12 
REMARK    5  A    between atoms: N_12  and  C_13 
REMARK    6  A    between atoms: C_19  and  O_20 
REMARK    7  A    between atoms: O_20  and  C_21 
REMARK    8  A    between atoms: C_24  and  C_25 
REMARK    9  A    between atoms: C_25  and  O_27 
REMARK   10  A    between atoms: O_27  and  C_28 
ROOT
ATOM      1  C   LIG d   1       4.691  -1.553  -5.009  0.00  0.00     0.077 A 
ATOM      2  C   LIG d   1       4.400  -0.514  -4.021  0.00  0.00     0.063 A 
ATOM      3  C   LIG d   1       5.247  -0.752  -2.923  0.00  0.00     0.052 A 
ATOM      4  C   LIG d   1       5.187   0.094  -1.819  0.00  0.00    -0.037 A 
ATOM      5  C   LIG d   1       4.305   1.152  -1.805  0.00  0.00    -0.056 A 
ATOM      6  C   LIG d   1       3.468   1.391  -2.884  0.00  0.00    -0.019 A 
ATOM      7  C   LIG d   1       3.508   0.568  -3.993  0.00  0.00     0.131 A 
ATOM      8  N   LIG d   1       6.010  -1.860  -3.209  0.00  0.00    -0.347 N 
ATOM      9  H   LIG d   1       6.679  -2.243  -2.621  0.00  0.00     0.166 HD
ATOM     10  C   LIG d   1       5.676  -2.352  -4.464  0.00  0.00     0.147 A 
ATOM     11  H   LIG d   1       5.833  -0.080  -0.971  0.00  0.00     0.064 H 
ATOM     12  H   LIG d   1       4.265   1.803  -0.944  0.00  0.00     0.062 H 
ATOM     13  H   LIG d   1       2.781   2.225  -2.858  0.00  0.00     0.065 H 
ENDROOT
BRANCH   1  14
ATOM     14  N   LIG d   1       4.089  -1.709  -6.253  0.00  0.00    -0.283 N 
ATOM     15  C   LIG d   1       4.603  -1.091  -7.334  0.00  0.00     0.222 C 
ATOM     16  O   LIG d   1       5.632  -0.456  -7.237  0.00  0.00    -0.275 OA
ATOM     17  H   LIG d   1       3.298  -2.264  -6.343  0.00  0.00     0.155 HD
BRANCH  15  18
ATOM     18  C   LIG d   1       3.901  -1.187  -8.664  0.00  0.00     0.050 A 
ATOM     19  C   LIG d   1       3.068   0.015  -9.112  0.00  0.00    -0.015 A 
ATOM     20  C   LIG d   1       4.402  -0.288  -9.795  0.00  0.00     0.016 A 
ATOM     21  H   LIG d   1       5.241   0.375  -9.578  0.00  0.00     0.037 H 
ATOM     22  H   LIG d   1       3.539  -2.180  -8.932  0.00  0.00     0.041 H 
BRANCH  19  23
ATOM     23  C   LIG d   1       1.789  -0.268  -9.903  0.00  0.00    -0.059 C 
ATOM     24  H   LIG d   1       1.411   0.662 -10.327  0.00  0.00     0.024 H 
ATOM     25  H   LIG d   1       2.007  -0.971 -10.708  0.00  0.00     0.024 H 
ATOM     26  H   LIG d   1       1.039  -0.696  -9.240  0.00  0.00     0.024 H 
ENDBRANCH  19  23
BRANCH  19  27
ATOM     27  C   LIG d   1       3.011   1.224  -8.177  0.00  0.00    -0.059 C 
ATOM     28  H   LIG d   1       3.861   1.197  -7.495  0.00  0.00     0.024 H 
ATOM     29  H   LIG d   1       3.046   2.141  -8.766  0.00  0.00     0.024 H 
ATOM     30  H   LIG d   1       2.084   1.196  -7.604  0.00  0.00     0.024 H 
ENDBRANCH  19  27
BRANCH  20  31
ATOM     31  C   LIG d   1       4.358  -0.842 -11.196  0.00  0.00     0.046 C 
ATOM     32  O   LIG d   1       4.357  -0.084 -12.152  0.00  0.00    -0.549 OA
ATOM     33  O   LIG d   1       4.322  -2.048 -11.374  0.00  0.00    -0.549 OA
ENDBRANCH  20  31
ENDBRANCH  15  18
ENDBRANCH   1  14
BRANCH  10  34
ATOM     34  C   LIG d   1       6.254  -3.487  -5.084  0.00  0.00     0.357 C 
ATOM     35  O   LIG d   1       5.547  -4.410  -5.443  0.00  0.00    -0.243 OA
BRANCH  34  36
ATOM     36  O   LIG d   1       7.588  -3.544  -5.277  0.00  0.00    -0.463 OA
BRANCH  36  37
ATOM     37  C   LIG d   1       8.322  -4.468  -4.469  0.00  0.00     0.082 C 
ATOM     38  H   LIG d   1       7.849  -5.450  -4.520  0.00  0.00     0.066 H 
ATOM     39  H   LIG d   1       9.346  -4.538  -4.837  0.00  0.00     0.066 H 
ATOM     40  H   LIG d   1       8.329  -4.121  -3.436  0.00  0.00     0.066 H 
ENDBRANCH  36  37
ENDBRANCH  34  36
ENDBRANCH  10  34
BRANCH   7  41
ATOM     41  O   LIG d   1       2.686   0.804  -5.049  0.00  0.00    -0.494 OA
BRANCH  41  42
ATOM     42  C   LIG d   1       1.415   0.154  -5.040  0.00  0.00     0.079 C 
ATOM     43  H   LIG d   1       0.636   0.880  -4.806  0.00  0.00     0.066 H 
ATOM     44  H   LIG d   1       1.222  -0.282  -6.020  0.00  0.00     0.066 H 
ATOM     45  H   LIG d   1       1.415  -0.634  -4.286  0.00  0.00     0.066 H 
ENDBRANCH  41  42
ENDBRANCH   7  41
TORSDOF 10
ENDMDL
MODEL 9
REMARK VINA RESULT:      -5.0      9.619     12.464
REMARK  10 active torsions:
REMARK  status: ('A' for Active; 'I' for Inactive)
REMARK    1  A    between atoms: C_1  and  C_2 
REMARK    2  A    between atoms: C_2  and  C_29 
REMARK    3  A    between atoms: C_3  and  C_10 
REMARK    4  A    between atoms: C_5  and  C_7 
REMARK       I    between atoms: C_10  and  N_12 
REMARK    5  A    between atoms: N_12  and  C_13 
REMARK    6  A    between atoms: C_19  and  O_20 
REMARK    7  A    between atoms: O_20  and  C_21 
REMARK    8  A    between atoms: C_24  and  C_25 
REMARK    9  A    between atoms: C_25  and  O_27 
REMARK   10  A    between atoms: O_27  and  C_28 
ROOT
ATOM      1  C   LIG d   1       9.926   6.609  -2.556  0.00  0.00     0.077 A 
ATOM      2  C   LIG d   1      10.380   6.947  -1.207  0.00  0.00     0.063 A 
ATOM      3  C   LIG d   1      10.752   5.738  -0.591  0.00  0.00     0.052 A 
ATOM      4  C   LIG d   1      11.229   5.756   0.716  0.00  0.00    -0.037 A 
ATOM      5  C   LIG d   1      11.333   6.948   1.398  0.00  0.00    -0.056 A 
ATOM      6  C   LIG d   1      10.968   8.143   0.797  0.00  0.00    -0.019 A 
ATOM      7  C   LIG d   1      10.492   8.154  -0.500  0.00  0.00     0.131 A 
ATOM      8  N   LIG d   1      10.545   4.721  -1.495  0.00  0.00    -0.347 N 
ATOM      9  H   LIG d   1      10.720   3.782  -1.327  0.00  0.00     0.166 HD
ATOM     10  C   LIG d   1      10.041   5.239  -2.681  0.00  0.00     0.147 A 
ATOM     11  H   LIG d   1      11.517   4.833   1.198  0.00  0.00     0.064 H 
ATOM     12  H   LIG d   1      11.704   6.953   2.412  0.00  0.00     0.062 H 
ATOM     13  H   LIG d   1      11.055   9.070   1.345  0.00  0.00     0.065 H 
ENDROOT
BRANCH   1  14
ATOM     14  N   LIG d   1       9.463   7.496  -3.523  0.00  0.00    -0.283 N 
ATOM     15  C   LIG d   1      10.324   8.041  -4.405  0.00  0.00     0.222 C 
ATOM     16  O   LIG d   1      11.489   7.704  -4.403  0.00  0.00    -0.275 OA
ATOM     17  H   LIG d   1       8.520   7.721  -3.563  0.00  0.00     0.155 HD
BRANCH  15  18
ATOM     18  C   LIG d   1       9.840   9.068  -5.396  0.00  0.00     0.050 A 
ATOM     19  C   LIG d   1      10.362  10.498  -5.245  0.00  0.00    -0.015 A 
ATOM     20  C   LIG d   1      10.856   9.620  -6.396  0.00  0.00     0.016 A 
ATOM     21  H   LIG d   1      11.877   9.241  -6.338  0.00  0.00     0.037 H 
ATOM     22  H   LIG d   1       8.813   8.940  -5.740  0.00  0.00     0.041 H 
BRANCH  19  23
ATOM     23  C   LIG d   1       9.403  11.640  -5.588  0.00  0.00    -0.059 C 
ATOM     24  H   LIG d   1       8.602  11.674  -4.850  0.00  0.00     0.024 H 
ATOM     25  H   LIG d   1       9.946  12.585  -5.578  0.00  0.00     0.024 H 
ATOM     26  H   LIG d   1       8.980  11.473  -6.577  0.00  0.00     0.024 H 
ENDBRANCH  19  23
BRANCH  19  27
ATOM     27  C   LIG d   1      11.337  10.776  -4.100  0.00  0.00    -0.059 C 
ATOM     28  H   LIG d   1      11.098  10.132  -3.253  0.00  0.00     0.024 H 
ATOM     29  H   LIG d   1      12.356  10.575  -4.433  0.00  0.00     0.024 H 
ATOM     30  H   LIG d   1      11.254  11.820  -3.798  0.00  0.00     0.024 H 
ENDBRANCH  19  27
BRANCH  20  31
ATOM     31  C   LIG d   1      10.362   9.947  -7.782  0.00  0.00     0.046 C 
ATOM     32  O   LIG d   1       9.370   9.393  -8.222  0.00  0.00    -0.549 OA
ATOM     33  O   LIG d   1      10.956  10.766  -8.463  0.00  0.00    -0.549 OA
ENDBRANCH  20  31
ENDBRANCH  15  18
ENDBRANCH   1  14
BRANCH  10  34
ATOM     34  C   LIG d   1       9.703   4.485  -3.831  0.00  0.00     0.357 C 
ATOM     35  O   LIG d   1       9.054   4.996  -4.724  0.00  0.00    -0.243 OA
BRANCH  34  36
ATOM     36  O   LIG d   1      10.101   3.200  -3.936  0.00  0.00    -0.463 OA
BRANCH  36  37
ATOM     37  C   LIG d   1       9.115   2.193  -3.694  0.00  0.00     0.082 C 
ATOM     38  H   LIG d   1       9.247   1.790  -2.689  0.00  0.00     0.066 H 
ATOM     39  H   LIG d   1       8.120   2.631  -3.782  0.00  0.00     0.066 H 
ATOM     40  H   LIG d   1       9.226   1.393  -4.425  0.00  0.00     0.066 H 
ENDBRANCH  36  37
ENDBRANCH  34  36
ENDBRANCH  10  34
BRANCH   7  41
ATOM     41  O   LIG d   1      10.134   9.325  -1.087  0.00  0.00    -0.494 OA
BRANCH  41  42
ATOM     42  C   LIG d   1       8.822   9.816  -0.809  0.00  0.00     0.079 C 
ATOM     43  H   LIG d   1       8.468  10.407  -1.654  0.00  0.00     0.066 H 
ATOM     44  H   LIG d   1       8.147   8.977  -0.644  0.00  0.00     0.066 H 
ATOM     45  H   LIG d   1       8.849  10.440   0.085  0.00  0.00     0.066 H 
ENDBRANCH  41  42
ENDBRANCH   7  41
TORSDOF 10
ENDMDL
MODEL 10
REMARK VINA RESULT:      -5.0      1.831      6.010
REMARK  10 active torsions:
REMARK  status: ('A' for Active; 'I' for Inactive)
REMARK    1  A    between atoms: C_1  and  C_2 
REMARK    2  A    between atoms: C_2  and  C_29 
REMARK    3  A    between atoms: C_3  and  C_10 
REMARK    4  A    between atoms: C_5  and  C_7 
REMARK       I    between atoms: C_10  and  N_12 
REMARK    5  A    between atoms: N_12  and  C_13 
REMARK    6  A    between atoms: C_19  and  O_20 
REMARK    7  A    between atoms: O_20  and  C_21 
REMARK    8  A    between atoms: C_24  and  C_25 
REMARK    9  A    between atoms: C_25  and  O_27 
REMARK   10  A    between atoms: O_27  and  C_28 
ROOT
ATOM      1  C   LIG d   1       4.705  -1.846  -5.807  0.00  0.00     0.077 A 
ATOM      2  C   LIG d   1       4.347  -1.324  -4.488  0.00  0.00     0.063 A 
ATOM      3  C   LIG d   1       5.274  -1.861  -3.576  0.00  0.00     0.052 A 
ATOM      4  C   LIG d   1       5.175  -1.530  -2.227  0.00  0.00    -0.037 A 
ATOM      5  C   LIG d   1       4.177  -0.686  -1.794  0.00  0.00    -0.056 A 
ATOM      6  C   LIG d   1       3.260  -0.154  -2.688  0.00  0.00    -0.019 A 
ATOM      7  C   LIG d   1       3.336  -0.464  -4.032  0.00  0.00     0.131 A 
ATOM      8  N   LIG d   1       6.146  -2.660  -4.279  0.00  0.00    -0.347 N 
ATOM      9  H   LIG d   1       6.886  -3.152  -3.892  0.00  0.00     0.166 HD
ATOM     10  C   LIG d   1       5.804  -2.660  -5.625  0.00  0.00     0.147 A 
ATOM     11  H   LIG d   1       5.881  -1.937  -1.519  0.00  0.00     0.064 H 
ATOM     12  H   LIG d   1       4.107  -0.435  -0.746  0.00  0.00     0.062 H 
ATOM     13  H   LIG d   1       2.482   0.507  -2.333  0.00  0.00     0.065 H 
ENDROOT
BRANCH   1  14
ATOM     14  N   LIG d   1       4.058  -1.580  -7.010  0.00  0.00    -0.283 N 
ATOM     15  C   LIG d   1       4.296  -0.425  -7.661  0.00  0.00     0.222 C 
ATOM     16  O   LIG d   1       5.128   0.350  -7.238  0.00  0.00    -0.275 OA
ATOM     17  H   LIG d   1       3.436  -2.226  -7.379  0.00  0.00     0.155 HD
BRANCH  15  18
ATOM     18  C   LIG d   1       3.531  -0.095  -8.917  0.00  0.00     0.050 A 
ATOM     19  C   LIG d   1       4.233  -0.332 -10.256  0.00  0.00    -0.015 A 
ATOM     20  C   LIG d   1       3.102  -1.260  -9.810  0.00  0.00     0.016 A 
ATOM     21  H   LIG d   1       3.372  -2.267  -9.490  0.00  0.00     0.037 H 
ATOM     22  H   LIG d   1       2.858   0.760  -8.845  0.00  0.00     0.041 H 
BRANCH  19  23
ATOM     23  C   LIG d   1       3.937   0.648 -11.392  0.00  0.00    -0.059 C 
ATOM     24  H   LIG d   1       2.966   1.114 -11.226  0.00  0.00     0.024 H 
ATOM     25  H   LIG d   1       4.708   1.418 -11.418  0.00  0.00     0.024 H 
ATOM     26  H   LIG d   1       3.925   0.112 -12.340  0.00  0.00     0.024 H 
ENDBRANCH  19  23
BRANCH  19  27
ATOM     27  C   LIG d   1       5.658  -0.887 -10.218  0.00  0.00    -0.059 C 
ATOM     28  H   LIG d   1       6.013  -1.047 -11.236  0.00  0.00     0.024 H 
ATOM     29  H   LIG d   1       6.312  -0.175  -9.713  0.00  0.00     0.024 H 
ATOM     30  H   LIG d   1       5.665  -1.833  -9.676  0.00  0.00     0.024 H 
ENDBRANCH  19  27
BRANCH  20  31
ATOM     31  C   LIG d   1       1.780  -1.139 -10.524  0.00  0.00     0.046 C 
ATOM     32  O   LIG d   1       0.907  -0.415 -10.075  0.00  0.00    -0.549 OA
ATOM     33  O   LIG d   1       1.583  -1.765 -11.552  0.00  0.00    -0.549 OA
ENDBRANCH  20  31
ENDBRANCH  15  18
ENDBRANCH   1  14
BRANCH  10  34
ATOM     34  C   LIG d   1       6.477  -3.377  -6.645  0.00  0.00     0.357 C 
ATOM     35  O   LIG d   1       7.693  -3.409  -6.665  0.00  0.00    -0.243 OA
BRANCH  34  36
ATOM     36  O   LIG d   1       5.769  -4.024  -7.595  0.00  0.00    -0.463 OA
BRANCH  36  37
ATOM     37  C   LIG d   1       5.203  -5.286  -7.235  0.00  0.00     0.082 C 
ATOM     38  H   LIG d   1       5.847  -5.778  -6.505  0.00  0.00     0.066 H 
ATOM     39  H   LIG d   1       4.215  -5.131  -6.801  0.00  0.00     0.066 H 
ATOM     40  H   LIG d   1       5.116  -5.912  -8.123  0.00  0.00     0.066 H 
ENDBRANCH  36  37
ENDBRANCH  34  36
ENDBRANCH  10  34
BRANCH   7  41
ATOM     41  O   LIG d   1       2.437   0.058  -4.906  0.00  0.00    -0.494 OA
BRANCH  41  42
ATOM     42  C   LIG d   1       2.437   1.477  -5.067  0.00  0.00     0.079 C 
ATOM     43  H   LIG d   1       1.443   1.868  -4.852  0.00  0.00     0.066 H 
ATOM     44  H   LIG d   1       3.159   1.921  -4.381  0.00  0.00     0.066 H 
ATOM     45  H   LIG d   1       2.711   1.726  -6.093  0.00  0.00     0.066 H 
ENDBRANCH  41  42
ENDBRANCH   7  41
TORSDOF 10
ENDMDL
