MODEL 1
REMARK VINA RESULT:      -6.5      0.000      0.000
REMARK  8 active torsions:
REMARK  status: ('A' for Active; 'I' for Inactive)
REMARK    1  A    between atoms: C_1  and  C_2 
REMARK    2  A    between atoms: C_9  and  C_19 
REMARK    3  A    between atoms: C_12  and  C_14 
REMARK    4  A    between atoms: C_14  and  C_15 
REMARK    5  A    between atoms: C_15  and  C_16 
REMARK       I    between atoms: C_16  and  N_18 
REMARK       I    between atoms: C_19  and  N_21 
REMARK    6  A    between atoms: N_21  and  C_22 
REMARK    7  A    between atoms: C_27  and  O_28 
REMARK    8  A    between atoms: O_28  and  C_29 
ROOT
ATOM      1  C   LIG d   1       4.090  -1.458  -9.398  0.00  0.00    -0.050 A 
ATOM      2  C   LIG d   1       2.946  -0.699  -9.564  0.00  0.00    -0.057 A 
ATOM      3  C   LIG d   1       2.346  -0.097  -8.478  0.00  0.00    -0.040 A 
ATOM      4  C   LIG d   1       2.888  -0.250  -7.204  0.00  0.00     0.043 A 
ATOM      5  C   LIG d   1       4.038  -1.017  -7.049  0.00  0.00     0.034 A 
ATOM      6  C   LIG d   1       4.634  -1.615  -8.137  0.00  0.00    -0.048 A 
ATOM      7  C   LIG d   1       4.362  -0.988  -5.580  0.00  0.00     0.105 A 
ATOM      8  C   LIG d   1       4.335  -2.406  -4.987  0.00  0.00     0.099 C 
ATOM      9  H   LIG d   1       3.378  -2.607  -4.507  0.00  0.00     0.046 H 
ATOM     10  C   LIG d   1       5.481  -2.362  -3.940  0.00  0.00     0.008 C 
ATOM     11  C   LIG d   1       6.511  -1.437  -4.637  0.00  0.00    -0.020 C 
ATOM     12  H   LIG d   1       7.105  -2.003  -5.354  0.00  0.00     0.085 H 
ATOM     13  C   LIG d   1       3.282  -0.135  -4.965  0.00  0.00     0.274 A 
ATOM     14  O   LIG d   1       3.165   0.151  -3.793  0.00  0.00    -0.269 OA
ATOM     15  N   LIG d   1       2.472   0.250  -5.969  0.00  0.00    -0.280 N 
ATOM     16  H   LIG d   1       2.520  -0.577 -10.550  0.00  0.00     0.062 H 
ATOM     17  H   LIG d   1       1.452   0.494  -8.615  0.00  0.00     0.064 H 
ATOM     18  H   LIG d   1       5.528  -2.207  -8.004  0.00  0.00     0.063 H 
ATOM     19  H   LIG d   1       5.898  -3.357  -3.776  0.00  0.00     0.033 H 
ATOM     20  H   LIG d   1       5.137  -1.926  -3.002  0.00  0.00     0.033 H 
ATOM     21  H   LIG d   1       1.689   0.811  -5.847  0.00  0.00     0.155 HD
ATOM     22  N   LIG d   1       5.690  -0.428  -5.333  0.00  0.00     0.244 N 
ATOM     23  H   LIG d   1       5.607   0.412  -4.748  0.00  0.00     0.203 HD
ATOM     24  H   LIG d   1       6.131  -0.180  -6.226  0.00  0.00     0.203 HD
ENDROOT
BRANCH   8  25
ATOM     25  C   LIG d   1       4.622  -3.435  -6.050  0.00  0.00     0.227 C 
ATOM     26  O   LIG d   1       5.733  -3.514  -6.533  0.00  0.00    -0.275 OA
ATOM     27  N   LIG d   1       3.646  -4.266  -6.466  0.00  0.00    -0.282 N 
ATOM     28  H   LIG d   1       2.739  -4.149  -6.142  0.00  0.00     0.155 HD
BRANCH  27  29
ATOM     29  C   LIG d   1       3.940  -5.299  -7.366  0.00  0.00     0.077 A 
ATOM     30  C   LIG d   1       4.373  -6.535  -6.892  0.00  0.00     0.141 A 
ATOM     31  C   LIG d   1       4.657  -7.554  -7.785  0.00  0.00    -0.017 A 
ATOM     32  C   LIG d   1       4.521  -7.341  -9.145  0.00  0.00    -0.040 A 
ATOM     33  H   LIG d   1       4.989  -8.515  -7.421  0.00  0.00     0.066 H 
ATOM     34  C   LIG d   1       4.097  -6.112  -9.617  0.00  0.00     0.043 A 
ATOM     35  H   LIG d   1       4.747  -8.136  -9.840  0.00  0.00     0.063 H 
ATOM     36  C   LIG d   1       3.807  -5.090  -8.730  0.00  0.00    -0.018 A 
ATOM     37 CL   LIG d   1       3.929  -5.851 -11.325  0.00  0.00    -0.084 Cl
ATOM     38  H   LIG d   1       3.475  -4.132  -9.101  0.00  0.00     0.065 H 
BRANCH  30  39
ATOM     39  O   LIG d   1       4.512  -6.741  -5.555  0.00  0.00    -0.493 OA
BRANCH  39  40
ATOM     40  C   LIG d   1       5.033  -8.008  -5.145  0.00  0.00     0.079 C 
ATOM     41  H   LIG d   1       5.734  -8.373  -5.896  0.00  0.00     0.066 H 
ATOM     42  H   LIG d   1       5.547  -7.898  -4.191  0.00  0.00     0.066 H 
ATOM     43  H   LIG d   1       4.214  -8.720  -5.037  0.00  0.00     0.066 H 
ENDBRANCH  39  40
ENDBRANCH  30  39
ENDBRANCH  27  29
ENDBRANCH   8  25
BRANCH  11  44
ATOM     44  C   LIG d   1       7.418  -0.771  -3.601  0.00  0.00    -0.001 C 
ATOM     45  H   LIG d   1       7.326  -1.292  -2.648  0.00  0.00     0.032 H 
ATOM     46  H   LIG d   1       8.453  -0.817  -3.941  0.00  0.00     0.032 H 
BRANCH  44  47
ATOM     47  C   LIG d   1       7.004   0.691  -3.425  0.00  0.00     0.029 C 
ATOM     48  H   LIG d   1       6.018   0.844  -3.863  0.00  0.00     0.036 H 
ATOM     49  H   LIG d   1       6.972   0.934  -2.363  0.00  0.00     0.036 H 
BRANCH  47  50
ATOM     50  C   LIG d   1       8.005   1.583  -4.114  0.00  0.00     0.211 C 
ATOM     51  O   LIG d   1       7.716   2.124  -5.160  0.00  0.00    -0.276 OA
ATOM     52  N   LIG d   1       9.222   1.778  -3.568  0.00  0.00    -0.329 N 
ATOM     53  H   LIG d   1       9.453   1.345  -2.732  0.00  0.00     0.145 HD
ATOM     54  H   LIG d   1       9.866   2.352  -4.012  0.00  0.00     0.145 HD
ENDBRANCH  47  50
ENDBRANCH  44  47
ENDBRANCH  11  44
BRANCH   1  55
ATOM     55  C   LIG d   1       4.742  -2.112 -10.590  0.00  0.00    -0.040 C 
ATOM     56  H   LIG d   1       5.016  -1.348 -11.318  0.00  0.00     0.028 H 
ATOM     57  H   LIG d   1       5.636  -2.645 -10.268  0.00  0.00     0.028 H 
ATOM     58  H   LIG d   1       4.044  -2.814 -11.046  0.00  0.00     0.028 H 
ENDBRANCH   1  55
TORSDOF 8
ENDMDL
MODEL 2
REMARK VINA RESULT:      -6.4      3.519      6.114
REMARK  8 active torsions:
REMARK  status: ('A' for Active; 'I' for Inactive)
REMARK    1  A    between atoms: C_1  and  C_2 
REMARK    2  A    between atoms: C_9  and  C_19 
REMARK    3  A    between atoms: C_12  and  C_14 
REMARK    4  A    between atoms: C_14  and  C_15 
REMARK    5  A    between atoms: C_15  and  C_16 
REMARK       I    between atoms: C_16  and  N_18 
REMARK       I    between atoms: C_19  and  N_21 
REMARK    6  A    between atoms: N_21  and  C_22 
REMARK    7  A    between atoms: C_27  and  O_28 
REMARK    8  A    between atoms: O_28  and  C_29 
ROOT
ATOM      1  C   LIG d   1       3.797   0.843  -8.892  0.00  0.00    -0.050 A 
ATOM      2  C   LIG d   1       3.366   0.007  -9.906  0.00  0.00    -0.057 A 
ATOM      3  C   LIG d   1       3.326  -1.358  -9.714  0.00  0.00    -0.040 A 
ATOM      4  C   LIG d   1       3.721  -1.906  -8.495  0.00  0.00     0.043 A 
ATOM      5  C   LIG d   1       4.154  -1.056  -7.483  0.00  0.00     0.034 A 
ATOM      6  C   LIG d   1       4.190   0.307  -7.679  0.00  0.00    -0.048 A 
ATOM      7  C   LIG d   1       4.505  -1.941  -6.318  0.00  0.00     0.105 A 
ATOM      8  C   LIG d   1       5.988  -1.789  -5.945  0.00  0.00     0.099 C 
ATOM      9  H   LIG d   1       6.583  -2.584  -6.394  0.00  0.00     0.046 H 
ATOM     10  C   LIG d   1       5.968  -1.920  -4.398  0.00  0.00     0.008 C 
ATOM     11  C   LIG d   1       4.626  -1.232  -4.040  0.00  0.00    -0.020 C 
ATOM     12  H   LIG d   1       4.752  -0.149  -4.008  0.00  0.00     0.085 H 
ATOM     13  C   LIG d   1       4.219  -3.341  -6.800  0.00  0.00     0.274 A 
ATOM     14  O   LIG d   1       4.362  -4.366  -6.169  0.00  0.00    -0.269 OA
ATOM     15  N   LIG d   1       3.771  -3.233  -8.064  0.00  0.00    -0.280 N 
ATOM     16  H   LIG d   1       3.058   0.425 -10.853  0.00  0.00     0.062 H 
ATOM     17  H   LIG d   1       2.989  -2.005 -10.511  0.00  0.00     0.064 H 
ATOM     18  H   LIG d   1       4.527   0.957  -6.885  0.00  0.00     0.063 H 
ATOM     19  H   LIG d   1       6.810  -1.390  -3.950  0.00  0.00     0.033 H 
ATOM     20  H   LIG d   1       5.963  -2.967  -4.094  0.00  0.00     0.033 H 
ATOM     21  H   LIG d   1       3.514  -3.991  -8.613  0.00  0.00     0.155 HD
ATOM     22  N   LIG d   1       3.712  -1.612  -5.134  0.00  0.00     0.244 N 
ATOM     23  H   LIG d   1       3.157  -2.428  -4.853  0.00  0.00     0.203 HD
ATOM     24  H   LIG d   1       3.085  -0.828  -5.347  0.00  0.00     0.203 HD
ENDROOT
BRANCH   8  25
ATOM     25  C   LIG d   1       6.508  -0.437  -6.360  0.00  0.00     0.227 C 
ATOM     26  O   LIG d   1       6.115   0.563  -5.796  0.00  0.00    -0.275 OA
ATOM     27  N   LIG d   1       7.408  -0.338  -7.358  0.00  0.00    -0.282 N 
ATOM     28  H   LIG d   1       7.660  -1.126  -7.864  0.00  0.00     0.155 HD
BRANCH  27  29
ATOM     29  C   LIG d   1       7.981   0.903  -7.665  0.00  0.00     0.077 A 
ATOM     30  C   LIG d   1       7.817   1.453  -8.934  0.00  0.00     0.141 A 
ATOM     31  C   LIG d   1       8.380   2.683  -9.230  0.00  0.00    -0.017 A 
ATOM     32  C   LIG d   1       9.112   3.358  -8.271  0.00  0.00    -0.040 A 
ATOM     33  H   LIG d   1       8.251   3.113 -10.212  0.00  0.00     0.066 H 
ATOM     34  C   LIG d   1       9.280   2.811  -7.011  0.00  0.00     0.043 A 
ATOM     35  H   LIG d   1       9.554   4.316  -8.505  0.00  0.00     0.063 H 
ATOM     36  C   LIG d   1       8.716   1.585  -6.707  0.00  0.00    -0.018 A 
ATOM     37 CL   LIG d   1      10.199   3.664  -5.812  0.00  0.00    -0.084 Cl
ATOM     38  H   LIG d   1       8.848   1.160  -5.723  0.00  0.00     0.065 H 
BRANCH  30  39
ATOM     39  O   LIG d   1       7.102   0.786  -9.878  0.00  0.00    -0.493 OA
BRANCH  39  40
ATOM     40  C   LIG d   1       7.840  -0.011 -10.808  0.00  0.00     0.079 C 
ATOM     41  H   LIG d   1       7.740   0.412 -11.808  0.00  0.00     0.066 H 
ATOM     42  H   LIG d   1       8.891  -0.023 -10.523  0.00  0.00     0.066 H 
ATOM     43  H   LIG d   1       7.450  -1.029 -10.804  0.00  0.00     0.066 H 
ENDBRANCH  39  40
ENDBRANCH  30  39
ENDBRANCH  27  29
ENDBRANCH   8  25
BRANCH  11  44
ATOM     44  C   LIG d   1       4.102  -1.746  -2.698  0.00  0.00    -0.001 C 
ATOM     45  H   LIG d   1       3.012  -1.776  -2.721  0.00  0.00     0.032 H 
ATOM     46  H   LIG d   1       4.489  -2.749  -2.517  0.00  0.00     0.032 H 
BRANCH  44  47
ATOM     47  C   LIG d   1       4.564  -0.811  -1.578  0.00  0.00     0.029 C 
ATOM     48  H   LIG d   1       3.917  -0.939  -0.710  0.00  0.00     0.036 H 
ATOM     49  H   LIG d   1       5.591  -1.052  -1.304  0.00  0.00     0.036 H 
BRANCH  47  50
ATOM     50  C   LIG d   1       4.492   0.617  -2.054  0.00  0.00     0.211 C 
ATOM     51  O   LIG d   1       5.507   1.271  -2.166  0.00  0.00    -0.276 OA
ATOM     52  N   LIG d   1       3.298   1.166  -2.355  0.00  0.00    -0.329 N 
ATOM     53  H   LIG d   1       2.487   0.644  -2.266  0.00  0.00     0.145 HD
ATOM     54  H   LIG d   1       3.252   2.086  -2.663  0.00  0.00     0.145 HD
ENDBRANCH  47  50
ENDBRANCH  44  47
ENDBRANCH  11  44
BRANCH   1  55
ATOM     55  C   LIG d   1       3.836   2.334  -9.108  0.00  0.00    -0.040 C 
ATOM     56  H   LIG d   1       3.102   2.814  -8.459  0.00  0.00     0.028 H 
ATOM     57  H   LIG d   1       4.831   2.710  -8.871  0.00  0.00     0.028 H 
ATOM     58  H   LIG d   1       3.601   2.557 -10.148  0.00  0.00     0.028 H 
ENDBRANCH   1  55
TORSDOF 8
ENDMDL
MODEL 3
REMARK VINA RESULT:      -6.4      2.120      2.772
REMARK  8 active torsions:
REMARK  status: ('A' for Active; 'I' for Inactive)
REMARK    1  A    between atoms: C_1  and  C_2 
REMARK    2  A    between atoms: C_9  and  C_19 
REMARK    3  A    between atoms: C_12  and  C_14 
REMARK    4  A    between atoms: C_14  and  C_15 
REMARK    5  A    between atoms: C_15  and  C_16 
REMARK       I    between atoms: C_16  and  N_18 
REMARK       I    between atoms: C_19  and  N_21 
REMARK    6  A    between atoms: N_21  and  C_22 
REMARK    7  A    between atoms: C_27  and  O_28 
REMARK    8  A    between atoms: O_28  and  C_29 
ROOT
ATOM      1  C   LIG d   1       5.749  -2.895  -9.315  0.00  0.00    -0.050 A 
ATOM      2  C   LIG d   1       4.886  -2.214 -10.154  0.00  0.00    -0.057 A 
ATOM      3  C   LIG d   1       4.022  -1.267  -9.644  0.00  0.00    -0.040 A 
ATOM      4  C   LIG d   1       4.011  -0.991  -8.279  0.00  0.00     0.043 A 
ATOM      5  C   LIG d   1       4.882  -1.685  -7.444  0.00  0.00     0.034 A 
ATOM      6  C   LIG d   1       5.745  -2.628  -7.959  0.00  0.00    -0.048 A 
ATOM      7  C   LIG d   1       4.627  -1.167  -6.055  0.00  0.00     0.105 A 
ATOM      8  C   LIG d   1       4.158  -2.300  -5.129  0.00  0.00     0.099 C 
ATOM      9  H   LIG d   1       3.071  -2.307  -5.046  0.00  0.00     0.046 H 
ATOM     10  C   LIG d   1       4.814  -1.929  -3.771  0.00  0.00     0.008 C 
ATOM     11  C   LIG d   1       6.161  -1.315  -4.229  0.00  0.00    -0.020 C 
ATOM     12  H   LIG d   1       6.887  -2.103  -4.434  0.00  0.00     0.085 H 
ATOM     13  C   LIG d   1       3.542  -0.134  -6.223  0.00  0.00     0.274 A 
ATOM     14  O   LIG d   1       3.038   0.534  -5.346  0.00  0.00    -0.269 OA
ATOM     15  N   LIG d   1       3.243  -0.094  -7.535  0.00  0.00    -0.280 N 
ATOM     16  H   LIG d   1       4.889  -2.423 -11.214  0.00  0.00     0.062 H 
ATOM     17  H   LIG d   1       3.350  -0.739 -10.306  0.00  0.00     0.064 H 
ATOM     18  H   LIG d   1       6.418  -3.158  -7.301  0.00  0.00     0.063 H 
ATOM     19  H   LIG d   1       4.977  -2.817  -3.161  0.00  0.00     0.033 H 
ATOM     20  H   LIG d   1       4.213  -1.194  -3.234  0.00  0.00     0.033 H 
ATOM     21  H   LIG d   1       2.570   0.490  -7.918  0.00  0.00     0.155 HD
ATOM     22  N   LIG d   1       5.833  -0.584  -5.468  0.00  0.00     0.244 N 
ATOM     23  H   LIG d   1       5.668   0.405  -5.251  0.00  0.00     0.203 HD
ATOM     24  H   LIG d   1       6.612  -0.663  -6.132  0.00  0.00     0.203 HD
ENDROOT
BRANCH   8  25
ATOM     25  C   LIG d   1       4.661  -3.633  -5.618  0.00  0.00     0.227 C 
ATOM     26  O   LIG d   1       5.845  -3.894  -5.558  0.00  0.00    -0.275 OA
ATOM     27  N   LIG d   1       3.797  -4.537  -6.123  0.00  0.00    -0.282 N 
ATOM     28  H   LIG d   1       2.865  -4.299  -6.248  0.00  0.00     0.155 HD
BRANCH  27  29
ATOM     29  C   LIG d   1       4.245  -5.819  -6.467  0.00  0.00     0.077 A 
ATOM     30  C   LIG d   1       4.165  -6.255  -7.787  0.00  0.00     0.141 A 
ATOM     31  C   LIG d   1       4.615  -7.521  -8.124  0.00  0.00    -0.017 A 
ATOM     32  C   LIG d   1       5.131  -8.354  -7.147  0.00  0.00    -0.040 A 
ATOM     33  H   LIG d   1       4.558  -7.860  -9.147  0.00  0.00     0.066 H 
ATOM     34  C   LIG d   1       5.205  -7.924  -5.835  0.00  0.00     0.043 A 
ATOM     35  H   LIG d   1       5.477  -9.342  -7.411  0.00  0.00     0.063 H 
ATOM     36  C   LIG d   1       4.763  -6.658  -5.493  0.00  0.00    -0.018 A 
ATOM     37 CL   LIG d   1       5.854  -8.974  -4.615  0.00  0.00    -0.084 Cl
ATOM     38  H   LIG d   1       4.822  -6.325  -4.467  0.00  0.00     0.065 H 
BRANCH  30  39
ATOM     39  O   LIG d   1       3.652  -5.437  -8.745  0.00  0.00    -0.493 OA
BRANCH  39  40
ATOM     40  C   LIG d   1       2.742  -6.023  -9.679  0.00  0.00     0.079 C 
ATOM     41  H   LIG d   1       1.983  -6.589  -9.140  0.00  0.00     0.066 H 
ATOM     42  H   LIG d   1       2.263  -5.237 -10.262  0.00  0.00     0.066 H 
ATOM     43  H   LIG d   1       3.287  -6.691 -10.347  0.00  0.00     0.066 H 
ENDBRANCH  39  40
ENDBRANCH  30  39
ENDBRANCH  27  29
ENDBRANCH   8  25
BRANCH  11  44
ATOM     44  C   LIG d   1       6.702  -0.358  -3.167  0.00  0.00    -0.001 C 
ATOM     45  H   LIG d   1       6.347  -0.667  -2.183  0.00  0.00     0.032 H 
ATOM     46  H   LIG d   1       7.792  -0.377  -3.181  0.00  0.00     0.032 H 
BRANCH  44  47
ATOM     47  C   LIG d   1       6.213   1.062  -3.462  0.00  0.00     0.029 C 
ATOM     48  H   LIG d   1       7.006   1.774  -3.234  0.00  0.00     0.036 H 
ATOM     49  H   LIG d   1       5.946   1.141  -4.516  0.00  0.00     0.036 H 
BRANCH  47  50
ATOM     50  C   LIG d   1       5.005   1.363  -2.613  0.00  0.00     0.211 C 
ATOM     51  O   LIG d   1       4.981   1.022  -1.450  0.00  0.00    -0.276 OA
ATOM     52  N   LIG d   1       3.951   2.012  -3.148  0.00  0.00    -0.329 N 
ATOM     53  H   LIG d   1       3.970   2.284  -4.078  0.00  0.00     0.145 HD
ATOM     54  H   LIG d   1       3.173   2.206  -2.602  0.00  0.00     0.145 HD
ENDBRANCH  47  50
ENDBRANCH  44  47
ENDBRANCH  11  44
BRANCH   1  55
ATOM     55  C   LIG d   1       6.692  -3.928  -9.879  0.00  0.00    -0.040 C 
ATOM     56  H   LIG d   1       6.207  -4.904  -9.872  0.00  0.00     0.028 H 
ATOM     57  H   LIG d   1       6.954  -3.660 -10.902  0.00  0.00     0.028 H 
ATOM     58  H   LIG d   1       7.594  -3.967  -9.270  0.00  0.00     0.028 H 
ENDBRANCH   1  55
TORSDOF 8
ENDMDL
MODEL 4
REMARK VINA RESULT:      -6.3      2.588      5.392
REMARK  8 active torsions:
REMARK  status: ('A' for Active; 'I' for Inactive)
REMARK    1  A    between atoms: C_1  and  C_2 
REMARK    2  A    between atoms: C_9  and  C_19 
REMARK    3  A    between atoms: C_12  and  C_14 
REMARK    4  A    between atoms: C_14  and  C_15 
REMARK    5  A    between atoms: C_15  and  C_16 
REMARK       I    between atoms: C_16  and  N_18 
REMARK       I    between atoms: C_19  and  N_21 
REMARK    6  A    between atoms: N_21  and  C_22 
REMARK    7  A    between atoms: C_27  and  O_28 
REMARK    8  A    between atoms: O_28  and  C_29 
ROOT
ATOM      1  C   LIG d   1       3.763  -4.705  -8.773  0.00  0.00    -0.050 A 
ATOM      2  C   LIG d   1       4.626  -5.771  -8.949  0.00  0.00    -0.057 A 
ATOM      3  C   LIG d   1       5.680  -5.966  -8.081  0.00  0.00    -0.040 A 
ATOM      4  C   LIG d   1       5.882  -5.088  -7.018  0.00  0.00     0.043 A 
ATOM      5  C   LIG d   1       5.009  -4.018  -6.852  0.00  0.00     0.034 A 
ATOM      6  C   LIG d   1       3.957  -3.829  -7.721  0.00  0.00    -0.048 A 
ATOM      7  C   LIG d   1       5.492  -3.272  -5.638  0.00  0.00     0.105 A 
ATOM      8  C   LIG d   1       5.874  -1.828  -6.002  0.00  0.00     0.099 C 
ATOM      9  H   LIG d   1       6.949  -1.741  -6.164  0.00  0.00     0.046 H 
ATOM     10  C   LIG d   1       5.437  -1.029  -4.745  0.00  0.00     0.008 C 
ATOM     11  C   LIG d   1       4.162  -1.796  -4.311  0.00  0.00    -0.020 C 
ATOM     12  H   LIG d   1       3.303  -1.465  -4.896  0.00  0.00     0.085 H 
ATOM     13  C   LIG d   1       6.702  -4.040  -5.171  0.00  0.00     0.274 A 
ATOM     14  O   LIG d   1       7.399  -3.780  -4.214  0.00  0.00    -0.269 OA
ATOM     15  N   LIG d   1       6.859  -5.071  -6.021  0.00  0.00    -0.280 N 
ATOM     16  H   LIG d   1       4.475  -6.456  -9.772  0.00  0.00     0.062 H 
ATOM     17  H   LIG d   1       6.350  -6.800  -8.225  0.00  0.00     0.064 H 
ATOM     18  H   LIG d   1       3.284  -2.996  -7.580  0.00  0.00     0.063 H 
ATOM     19  H   LIG d   1       5.202   0.005  -5.002  0.00  0.00     0.033 H 
ATOM     20  H   LIG d   1       6.201  -1.072  -3.969  0.00  0.00     0.033 H 
ATOM     21  H   LIG d   1       7.571  -5.728  -5.949  0.00  0.00     0.155 HD
ATOM     22  N   LIG d   1       4.465  -3.211  -4.599  0.00  0.00     0.244 N 
ATOM     23  H   LIG d   1       4.808  -3.670  -3.748  0.00  0.00     0.203 HD
ATOM     24  H   LIG d   1       3.616  -3.686  -4.926  0.00  0.00     0.203 HD
ENDROOT
BRANCH   8  25
ATOM     25  C   LIG d   1       5.116  -1.366  -7.220  0.00  0.00     0.227 C 
ATOM     26  O   LIG d   1       3.919  -1.176  -7.153  0.00  0.00    -0.275 OA
ATOM     27  N   LIG d   1       5.766  -1.162  -8.383  0.00  0.00    -0.282 N 
ATOM     28  H   LIG d   1       6.705  -1.392  -8.460  0.00  0.00     0.155 HD
BRANCH  27  29
ATOM     29  C   LIG d   1       5.086  -0.620  -9.481  0.00  0.00     0.077 A 
ATOM     30  C   LIG d   1       4.922   0.759  -9.589  0.00  0.00     0.141 A 
ATOM     31  C   LIG d   1       4.254   1.291 -10.679  0.00  0.00    -0.017 A 
ATOM     32  C   LIG d   1       3.742   0.453 -11.653  0.00  0.00    -0.040 A 
ATOM     33  H   LIG d   1       4.129   2.359 -10.767  0.00  0.00     0.066 H 
ATOM     34  C   LIG d   1       3.899  -0.917 -11.544  0.00  0.00     0.043 A 
ATOM     35  H   LIG d   1       3.217   0.869 -12.501  0.00  0.00     0.063 H 
ATOM     36  C   LIG d   1       4.570  -1.455 -10.460  0.00  0.00    -0.018 A 
ATOM     37 CL   LIG d   1       3.254  -1.963 -12.770  0.00  0.00    -0.084 Cl
ATOM     38  H   LIG d   1       4.691  -2.525 -10.378  0.00  0.00     0.065 H 
BRANCH  30  39
ATOM     39  O   LIG d   1       5.421   1.581  -8.628  0.00  0.00    -0.493 OA
BRANCH  39  40
ATOM     40  C   LIG d   1       6.711   2.149  -8.866  0.00  0.00     0.079 C 
ATOM     41  H   LIG d   1       7.277   1.499  -9.533  0.00  0.00     0.066 H 
ATOM     42  H   LIG d   1       6.597   3.130  -9.327  0.00  0.00     0.066 H 
ATOM     43  H   LIG d   1       7.243   2.251  -7.920  0.00  0.00     0.066 H 
ENDBRANCH  39  40
ENDBRANCH  30  39
ENDBRANCH  27  29
ENDBRANCH   8  25
BRANCH  11  44
ATOM     44  C   LIG d   1       3.898  -1.595  -2.818  0.00  0.00    -0.001 C 
ATOM     45  H   LIG d   1       3.425  -2.488  -2.409  0.00  0.00     0.032 H 
ATOM     46  H   LIG d   1       4.842  -1.415  -2.303  0.00  0.00     0.032 H 
BRANCH  44  47
ATOM     47  C   LIG d   1       2.972  -0.392  -2.621  0.00  0.00     0.029 C 
ATOM     48  H   LIG d   1       2.374  -0.244  -3.519  0.00  0.00     0.036 H 
ATOM     49  H   LIG d   1       2.314  -0.577  -1.772  0.00  0.00     0.036 H 
BRANCH  47  50
ATOM     50  C   LIG d   1       3.799   0.840  -2.357  0.00  0.00     0.211 C 
ATOM     51  O   LIG d   1       4.546   0.876  -1.403  0.00  0.00    -0.276 OA
ATOM     52  N   LIG d   1       3.707   1.902  -3.183  0.00  0.00    -0.329 N 
ATOM     53  H   LIG d   1       3.110   1.873  -3.945  0.00  0.00     0.145 HD
ATOM     54  H   LIG d   1       4.240   2.695  -3.013  0.00  0.00     0.145 HD
ENDBRANCH  47  50
ENDBRANCH  44  47
ENDBRANCH  11  44
BRANCH   1  55
ATOM     55  C   LIG d   1       2.612  -4.500  -9.725  0.00  0.00    -0.040 C 
ATOM     56  H   LIG d   1       2.872  -3.723 -10.445  0.00  0.00     0.028 H 
ATOM     57  H   LIG d   1       2.407  -5.431 -10.253  0.00  0.00     0.028 H 
ATOM     58  H   LIG d   1       1.728  -4.195  -9.167  0.00  0.00     0.028 H 
ENDBRANCH   1  55
TORSDOF 8
ENDMDL
MODEL 5
REMARK VINA RESULT:      -6.3      3.088      5.247
REMARK  8 active torsions:
REMARK  status: ('A' for Active; 'I' for Inactive)
REMARK    1  A    between atoms: C_1  and  C_2 
REMARK    2  A    between atoms: C_9  and  C_19 
REMARK    3  A    between atoms: C_12  and  C_14 
REMARK    4  A    between atoms: C_14  and  C_15 
REMARK    5  A    between atoms: C_15  and  C_16 
REMARK       I    between atoms: C_16  and  N_18 
REMARK       I    between atoms: C_19  and  N_21 
REMARK    6  A    between atoms: N_21  and  C_22 
REMARK    7  A    between atoms: C_27  and  O_28 
REMARK    8  A    between atoms: O_28  and  C_29 
ROOT
ATOM      1  C   LIG d   1       3.351  -0.315  -4.335  0.00  0.00    -0.050 A 
ATOM      2  C   LIG d   1       3.307  -0.803  -3.042  0.00  0.00    -0.057 A 
ATOM      3  C   LIG d   1       4.388  -1.479  -2.516  0.00  0.00    -0.040 A 
ATOM      4  C   LIG d   1       5.534  -1.676  -3.284  0.00  0.00     0.043 A 
ATOM      5  C   LIG d   1       5.566  -1.182  -4.584  0.00  0.00     0.034 A 
ATOM      6  C   LIG d   1       4.484  -0.506  -5.105  0.00  0.00    -0.048 A 
ATOM      7  C   LIG d   1       6.914  -1.553  -5.137  0.00  0.00     0.105 A 
ATOM      8  C   LIG d   1       6.768  -2.460  -6.370  0.00  0.00     0.099 C 
ATOM      9  H   LIG d   1       6.880  -3.509  -6.094  0.00  0.00     0.046 H 
ATOM     10  C   LIG d   1       7.939  -1.998  -7.278  0.00  0.00     0.008 C 
ATOM     11  C   LIG d   1       7.989  -0.478  -6.981  0.00  0.00    -0.020 C 
ATOM     12  H   LIG d   1       7.241   0.049  -7.573  0.00  0.00     0.085 H 
ATOM     13  C   LIG d   1       7.600  -2.290  -4.015  0.00  0.00     0.274 A 
ATOM     14  O   LIG d   1       8.716  -2.764  -4.036  0.00  0.00    -0.269 OA
ATOM     15  N   LIG d   1       6.736  -2.317  -2.983  0.00  0.00    -0.280 N 
ATOM     16  H   LIG d   1       2.422  -0.654  -2.441  0.00  0.00     0.062 H 
ATOM     17  H   LIG d   1       4.347  -1.858  -1.505  0.00  0.00     0.064 H 
ATOM     18  H   LIG d   1       4.522  -0.125  -6.115  0.00  0.00     0.063 H 
ATOM     19  H   LIG d   1       7.715  -2.183  -8.329  0.00  0.00     0.033 H 
ATOM     20  H   LIG d   1       8.872  -2.483  -6.989  0.00  0.00     0.033 H 
ATOM     21  H   LIG d   1       6.927  -2.736  -2.128  0.00  0.00     0.155 HD
ATOM     22  N   LIG d   1       7.674  -0.372  -5.543  0.00  0.00     0.244 N 
ATOM     23  H   LIG d   1       8.545  -0.319  -5.002  0.00  0.00     0.203 HD
ATOM     24  H   LIG d   1       7.115   0.472  -5.374  0.00  0.00     0.203 HD
ENDROOT
BRANCH   8  25
ATOM     25  C   LIG d   1       5.442  -2.229  -7.048  0.00  0.00     0.227 C 
ATOM     26  O   LIG d   1       4.450  -2.803  -6.652  0.00  0.00    -0.275 OA
ATOM     27  N   LIG d   1       5.359  -1.384  -8.096  0.00  0.00    -0.282 N 
ATOM     28  H   LIG d   1       6.164  -0.989  -8.465  0.00  0.00     0.155 HD
BRANCH  27  29
ATOM     29  C   LIG d   1       4.110  -1.077  -8.651  0.00  0.00     0.077 A 
ATOM     30  C   LIG d   1       3.670   0.243  -8.692  0.00  0.00     0.141 A 
ATOM     31  C   LIG d   1       2.437   0.543  -9.248  0.00  0.00    -0.017 A 
ATOM     32  C   LIG d   1       1.641  -0.470  -9.750  0.00  0.00    -0.040 A 
ATOM     33  H   LIG d   1       2.095   1.566  -9.284  0.00  0.00     0.066 H 
ATOM     34  C   LIG d   1       2.074  -1.783  -9.705  0.00  0.00     0.043 A 
ATOM     35  H   LIG d   1       0.678  -0.236 -10.179  0.00  0.00     0.063 H 
ATOM     36  C   LIG d   1       3.307  -2.089  -9.157  0.00  0.00    -0.018 A 
ATOM     37 CL   LIG d   1       1.070  -3.049 -10.338  0.00  0.00    -0.084 Cl
ATOM     38  H   LIG d   1       3.643  -3.114  -9.123  0.00  0.00     0.065 H 
BRANCH  30  39
ATOM     39  O   LIG d   1       4.452   1.237  -8.192  0.00  0.00    -0.493 OA
BRANCH  39  40
ATOM     40  C   LIG d   1       4.941   2.207  -9.122  0.00  0.00     0.079 C 
ATOM     41  H   LIG d   1       4.121   2.852  -9.439  0.00  0.00     0.066 H 
ATOM     42  H   LIG d   1       5.713   2.810  -8.645  0.00  0.00     0.066 H 
ATOM     43  H   LIG d   1       5.360   1.699  -9.990  0.00  0.00     0.066 H 
ENDBRANCH  39  40
ENDBRANCH  30  39
ENDBRANCH  27  29
ENDBRANCH   8  25
BRANCH  11  44
ATOM     44  C   LIG d   1       9.384   0.078  -7.268  0.00  0.00    -0.001 C 
ATOM     45  H   LIG d   1       9.527   0.164  -8.346  0.00  0.00     0.032 H 
ATOM     46  H   LIG d   1       9.486   1.062  -6.809  0.00  0.00     0.032 H 
BRANCH  44  47
ATOM     47  C   LIG d   1      10.440  -0.866  -6.689  0.00  0.00     0.029 C 
ATOM     48  H   LIG d   1      10.028  -1.872  -6.621  0.00  0.00     0.036 H 
ATOM     49  H   LIG d   1      11.315  -0.874  -7.339  0.00  0.00     0.036 H 
BRANCH  47  50
ATOM     50  C   LIG d   1      10.838  -0.391  -5.315  0.00  0.00     0.211 C 
ATOM     51  O   LIG d   1      10.654   0.764  -4.996  0.00  0.00    -0.276 OA
ATOM     52  N   LIG d   1      11.400  -1.251  -4.442  0.00  0.00    -0.329 N 
ATOM     53  H   LIG d   1      11.548  -2.174  -4.698  0.00  0.00     0.145 HD
ATOM     54  H   LIG d   1      11.656  -0.945  -3.558  0.00  0.00     0.145 HD
ENDBRANCH  47  50
ENDBRANCH  44  47
ENDBRANCH  11  44
BRANCH   1  55
ATOM     55  C   LIG d   1       2.167   0.425  -4.904  0.00  0.00    -0.040 C 
ATOM     56  H   LIG d   1       1.328  -0.263  -5.011  0.00  0.00     0.028 H 
ATOM     57  H   LIG d   1       1.888   1.236  -4.232  0.00  0.00     0.028 H 
ATOM     58  H   LIG d   1       2.428   0.833  -5.879  0.00  0.00     0.028 H 
ENDBRANCH   1  55
TORSDOF 8
ENDMDL
MODEL 6
REMARK VINA RESULT:      -6.2      1.833      2.253
REMARK  8 active torsions:
REMARK  status: ('A' for Active; 'I' for Inactive)
REMARK    1  A    between atoms: C_1  and  C_2 
REMARK    2  A    between atoms: C_9  and  C_19 
REMARK    3  A    between atoms: C_12  and  C_14 
REMARK    4  A    between atoms: C_14  and  C_15 
REMARK    5  A    between atoms: C_15  and  C_16 
REMARK       I    between atoms: C_16  and  N_18 
REMARK       I    between atoms: C_19  and  N_21 
REMARK    6  A    between atoms: N_21  and  C_22 
REMARK    7  A    between atoms: C_27  and  O_28 
REMARK    8  A    between atoms: O_28  and  C_29 
ROOT
ATOM      1  C   LIG d   1       5.049   0.039 -10.310  0.00  0.00    -0.050 A 
ATOM      2  C   LIG d   1       4.135   1.034 -10.607  0.00  0.00    -0.057 A 
ATOM      3  C   LIG d   1       3.341   1.569  -9.614  0.00  0.00    -0.040 A 
ATOM      4  C   LIG d   1       3.454   1.111  -8.303  0.00  0.00     0.043 A 
ATOM      5  C   LIG d   1       4.376   0.109  -8.017  0.00  0.00     0.034 A 
ATOM      6  C   LIG d   1       5.167  -0.421  -9.012  0.00  0.00    -0.048 A 
ATOM      7  C   LIG d   1       4.253  -0.159  -6.542  0.00  0.00     0.105 A 
ATOM      8  C   LIG d   1       3.837  -1.616  -6.285  0.00  0.00     0.099 C 
ATOM      9  H   LIG d   1       2.761  -1.688  -6.123  0.00  0.00     0.046 H 
ATOM     10  C   LIG d   1       4.616  -1.973  -4.990  0.00  0.00     0.008 C 
ATOM     11  C   LIG d   1       5.934  -1.182  -5.186  0.00  0.00    -0.020 C 
ATOM     12  H   LIG d   1       6.619  -1.739  -5.825  0.00  0.00     0.085 H 
ATOM     13  C   LIG d   1       3.184   0.791  -6.066  0.00  0.00     0.274 A 
ATOM     14  O   LIG d   1       2.773   0.908  -4.931  0.00  0.00    -0.269 OA
ATOM     15  N   LIG d   1       2.775   1.487  -7.143  0.00  0.00    -0.280 N 
ATOM     16  H   LIG d   1       4.042   1.394 -11.621  0.00  0.00     0.062 H 
ATOM     17  H   LIG d   1       2.629   2.346  -9.853  0.00  0.00     0.064 H 
ATOM     18  H   LIG d   1       5.881  -1.198  -8.777  0.00  0.00     0.063 H 
ATOM     19  H   LIG d   1       4.809  -3.045  -4.933  0.00  0.00     0.033 H 
ATOM     20  H   LIG d   1       4.082  -1.628  -4.104  0.00  0.00     0.033 H 
ATOM     21  H   LIG d   1       2.086   2.170  -7.116  0.00  0.00     0.155 HD
ATOM     22  N   LIG d   1       5.519   0.071  -5.846  0.00  0.00     0.244 N 
ATOM     23  H   LIG d   1       5.397   0.808  -5.142  0.00  0.00     0.203 HD
ATOM     24  H   LIG d   1       6.236   0.358  -6.522  0.00  0.00     0.203 HD
ENDROOT
BRANCH   8  25
ATOM     25  C   LIG d   1       4.263  -2.503  -7.426  0.00  0.00     0.227 C 
ATOM     26  O   LIG d   1       5.440  -2.735  -7.606  0.00  0.00    -0.275 OA
ATOM     27  N   LIG d   1       3.337  -3.037  -8.247  0.00  0.00    -0.282 N 
ATOM     28  H   LIG d   1       2.405  -2.787  -8.155  0.00  0.00     0.155 HD
BRANCH  27  29
ATOM     29  C   LIG d   1       3.721  -3.955  -9.233  0.00  0.00     0.077 A 
ATOM     30  C   LIG d   1       3.737  -5.319  -8.950  0.00  0.00     0.141 A 
ATOM     31  C   LIG d   1       4.112  -6.222  -9.930  0.00  0.00    -0.017 A 
ATOM     32  C   LIG d   1       4.480  -5.770 -11.184  0.00  0.00    -0.040 A 
ATOM     33  H   LIG d   1       4.121  -7.280  -9.715  0.00  0.00     0.066 H 
ATOM     34  C   LIG d   1       4.469  -4.415 -11.465  0.00  0.00     0.043 A 
ATOM     35  H   LIG d   1       4.776  -6.476 -11.947  0.00  0.00     0.063 H 
ATOM     36  C   LIG d   1       4.092  -3.507 -10.493  0.00  0.00    -0.018 A 
ATOM     37 CL   LIG d   1       4.932  -3.854 -13.042  0.00  0.00    -0.084 Cl
ATOM     38  H   LIG d   1       4.084  -2.451 -10.715  0.00  0.00     0.065 H 
BRANCH  30  39
ATOM     39  O   LIG d   1       3.381  -5.762  -7.715  0.00  0.00    -0.493 OA
BRANCH  39  40
ATOM     40  C   LIG d   1       4.427  -6.256  -6.876  0.00  0.00     0.079 C 
ATOM     41  H   LIG d   1       3.994  -6.799  -6.036  0.00  0.00     0.066 H 
ATOM     42  H   LIG d   1       5.067  -6.926  -7.449  0.00  0.00     0.066 H 
ATOM     43  H   LIG d   1       5.018  -5.420  -6.502  0.00  0.00     0.066 H 
ENDBRANCH  39  40
ENDBRANCH  30  39
ENDBRANCH  27  29
ENDBRANCH   8  25
BRANCH  11  44
ATOM     44  C   LIG d   1       6.588  -0.887  -3.835  0.00  0.00    -0.001 C 
ATOM     45  H   LIG d   1       7.229  -1.722  -3.551  0.00  0.00     0.032 H 
ATOM     46  H   LIG d   1       7.186   0.021  -3.911  0.00  0.00     0.032 H 
BRANCH  44  47
ATOM     47  C   LIG d   1       5.502  -0.695  -2.774  0.00  0.00     0.029 C 
ATOM     48  H   LIG d   1       4.595  -1.212  -3.086  0.00  0.00     0.036 H 
ATOM     49  H   LIG d   1       5.846  -1.105  -1.824  0.00  0.00     0.036 H 
BRANCH  47  50
ATOM     50  C   LIG d   1       5.213   0.775  -2.612  0.00  0.00     0.211 C 
ATOM     51  O   LIG d   1       5.990   1.597  -3.047  0.00  0.00    -0.276 OA
ATOM     52  N   LIG d   1       4.090   1.174  -1.981  0.00  0.00    -0.329 N 
ATOM     53  H   LIG d   1       3.469   0.517  -1.633  0.00  0.00     0.145 HD
ATOM     54  H   LIG d   1       3.904   2.121  -1.877  0.00  0.00     0.145 HD
ENDBRANCH  47  50
ENDBRANCH  44  47
ENDBRANCH  11  44
BRANCH   1  55
ATOM     55  C   LIG d   1       5.914  -0.540 -11.400  0.00  0.00    -0.040 C 
ATOM     56  H   LIG d   1       6.747  -1.082 -10.951  0.00  0.00     0.028 H 
ATOM     57  H   LIG d   1       5.322  -1.223 -12.009  0.00  0.00     0.028 H 
ATOM     58  H   LIG d   1       6.299   0.264 -12.025  0.00  0.00     0.028 H 
ENDBRANCH   1  55
TORSDOF 8
ENDMDL
MODEL 7
REMARK VINA RESULT:      -6.2      2.705      4.833
REMARK  8 active torsions:
REMARK  status: ('A' for Active; 'I' for Inactive)
REMARK    1  A    between atoms: C_1  and  C_2 
REMARK    2  A    between atoms: C_9  and  C_19 
REMARK    3  A    between atoms: C_12  and  C_14 
REMARK    4  A    between atoms: C_14  and  C_15 
REMARK    5  A    between atoms: C_15  and  C_16 
REMARK       I    between atoms: C_16  and  N_18 
REMARK       I    between atoms: C_19  and  N_21 
REMARK    6  A    between atoms: N_21  and  C_22 
REMARK    7  A    between atoms: C_27  and  O_28 
REMARK    8  A    between atoms: O_28  and  C_29 
ROOT
ATOM      1  C   LIG d   1       8.790  -5.391  -4.734  0.00  0.00    -0.050 A 
ATOM      2  C   LIG d   1      10.024  -4.770  -4.808  0.00  0.00    -0.057 A 
ATOM      3  C   LIG d   1      10.114  -3.394  -4.777  0.00  0.00    -0.040 A 
ATOM      4  C   LIG d   1       8.961  -2.619  -4.672  0.00  0.00     0.043 A 
ATOM      5  C   LIG d   1       7.726  -3.254  -4.601  0.00  0.00     0.034 A 
ATOM      6  C   LIG d   1       7.641  -4.629  -4.630  0.00  0.00    -0.048 A 
ATOM      7  C   LIG d   1       6.700  -2.159  -4.498  0.00  0.00     0.105 A 
ATOM      8  C   LIG d   1       5.727  -2.210  -5.687  0.00  0.00     0.099 C 
ATOM      9  H   LIG d   1       6.025  -1.503  -6.461  0.00  0.00     0.046 H 
ATOM     10  C   LIG d   1       4.377  -1.790  -5.044  0.00  0.00     0.008 C 
ATOM     11  C   LIG d   1       4.488  -2.423  -3.634  0.00  0.00    -0.020 C 
ATOM     12  H   LIG d   1       4.214  -3.477  -3.668  0.00  0.00     0.085 H 
ATOM     13  C   LIG d   1       7.499  -0.881  -4.520  0.00  0.00     0.274 A 
ATOM     14  O   LIG d   1       7.061   0.248  -4.456  0.00  0.00    -0.269 OA
ATOM     15  N   LIG d   1       8.794  -1.234  -4.623  0.00  0.00    -0.280 N 
ATOM     16  H   LIG d   1      10.922  -5.366  -4.889  0.00  0.00     0.062 H 
ATOM     17  H   LIG d   1      11.081  -2.916  -4.836  0.00  0.00     0.064 H 
ATOM     18  H   LIG d   1       6.677  -5.111  -4.572  0.00  0.00     0.063 H 
ATOM     19  H   LIG d   1       3.535  -2.210  -5.595  0.00  0.00     0.033 H 
ATOM     20  H   LIG d   1       4.296  -0.705  -4.980  0.00  0.00     0.033 H 
ATOM     21  H   LIG d   1       9.527  -0.598  -4.660  0.00  0.00     0.155 HD
ATOM     22  N   LIG d   1       5.911  -2.273  -3.272  0.00  0.00     0.244 N 
ATOM     23  H   LIG d   1       6.035  -1.429  -2.702  0.00  0.00     0.203 HD
ATOM     24  H   LIG d   1       6.219  -3.095  -2.739  0.00  0.00     0.203 HD
ENDROOT
BRANCH   8  25
ATOM     25  C   LIG d   1       5.640  -3.606  -6.246  0.00  0.00     0.227 C 
ATOM     26  O   LIG d   1       6.515  -4.021  -6.979  0.00  0.00    -0.275 OA
ATOM     27  N   LIG d   1       4.592  -4.395  -5.935  0.00  0.00    -0.282 N 
ATOM     28  H   LIG d   1       3.854  -4.037  -5.418  0.00  0.00     0.155 HD
BRANCH  27  29
ATOM     29  C   LIG d   1       4.570  -5.730  -6.357  0.00  0.00     0.077 A 
ATOM     30  C   LIG d   1       4.108  -6.052  -7.630  0.00  0.00     0.141 A 
ATOM     31  C   LIG d   1       4.093  -7.374  -8.045  0.00  0.00    -0.017 A 
ATOM     32  C   LIG d   1       4.526  -8.372  -7.191  0.00  0.00    -0.040 A 
ATOM     33  H   LIG d   1       3.740  -7.626  -9.033  0.00  0.00     0.066 H 
ATOM     34  C   LIG d   1       4.980  -8.054  -5.923  0.00  0.00     0.043 A 
ATOM     35  H   LIG d   1       4.510  -9.402  -7.514  0.00  0.00     0.063 H 
ATOM     36  C   LIG d   1       5.002  -6.735  -5.504  0.00  0.00    -0.018 A 
ATOM     37 CL   LIG d   1       5.522  -9.311  -4.857  0.00  0.00    -0.084 Cl
ATOM     38  H   LIG d   1       5.357  -6.490  -4.515  0.00  0.00     0.065 H 
BRANCH  30  39
ATOM     39  O   LIG d   1       3.677  -5.071  -8.467  0.00  0.00    -0.493 OA
BRANCH  39  40
ATOM     40  C   LIG d   1       4.383  -4.914  -9.700  0.00  0.00     0.079 C 
ATOM     41  H   LIG d   1       3.896  -4.148 -10.303  0.00  0.00     0.066 H 
ATOM     42  H   LIG d   1       5.411  -4.614  -9.495  0.00  0.00     0.066 H 
ATOM     43  H   LIG d   1       4.382  -5.859 -10.243  0.00  0.00     0.066 H 
ENDBRANCH  39  40
ENDBRANCH  30  39
ENDBRANCH  27  29
ENDBRANCH   8  25
BRANCH  11  44
ATOM     44  C   LIG d   1       3.599  -1.674  -2.640  0.00  0.00    -0.001 C 
ATOM     45  H   LIG d   1       2.752  -1.236  -3.168  0.00  0.00     0.032 H 
ATOM     46  H   LIG d   1       3.235  -2.368  -1.882  0.00  0.00     0.032 H 
BRANCH  44  47
ATOM     47  C   LIG d   1       4.409  -0.564  -1.967  0.00  0.00     0.029 C 
ATOM     48  H   LIG d   1       4.120  -0.488  -0.919  0.00  0.00     0.036 H 
ATOM     49  H   LIG d   1       5.472  -0.797  -2.035  0.00  0.00     0.036 H 
BRANCH  47  50
ATOM     50  C   LIG d   1       4.137   0.747  -2.660  0.00  0.00     0.211 C 
ATOM     51  O   LIG d   1       3.021   1.000  -3.061  0.00  0.00    -0.276 OA
ATOM     52  N   LIG d   1       5.135   1.636  -2.834  0.00  0.00    -0.329 N 
ATOM     53  H   LIG d   1       6.027   1.433  -2.514  0.00  0.00     0.145 HD
ATOM     54  H   LIG d   1       4.960   2.480  -3.281  0.00  0.00     0.145 HD
ENDBRANCH  47  50
ENDBRANCH  44  47
ENDBRANCH  11  44
BRANCH   1  55
ATOM     55  C   LIG d   1       8.699  -6.896  -4.766  0.00  0.00    -0.040 C 
ATOM     56  H   LIG d   1       8.872  -7.291  -3.765  0.00  0.00     0.028 H 
ATOM     57  H   LIG d   1       7.708  -7.192  -5.108  0.00  0.00     0.028 H 
ATOM     58  H   LIG d   1       9.452  -7.291  -5.447  0.00  0.00     0.028 H 
ENDBRANCH   1  55
TORSDOF 8
ENDMDL
MODEL 8
REMARK VINA RESULT:      -6.1      8.971     12.598
REMARK  8 active torsions:
REMARK  status: ('A' for Active; 'I' for Inactive)
REMARK    1  A    between atoms: C_1  and  C_2 
REMARK    2  A    between atoms: C_9  and  C_19 
REMARK    3  A    between atoms: C_12  and  C_14 
REMARK    4  A    between atoms: C_14  and  C_15 
REMARK    5  A    between atoms: C_15  and  C_16 
REMARK       I    between atoms: C_16  and  N_18 
REMARK       I    between atoms: C_19  and  N_21 
REMARK    6  A    between atoms: N_21  and  C_22 
REMARK    7  A    between atoms: C_27  and  O_28 
REMARK    8  A    between atoms: O_28  and  C_29 
ROOT
ATOM      1  C   LIG d   1      10.944  10.838  -5.605  0.00  0.00    -0.050 A 
ATOM      2  C   LIG d   1      10.050  11.889  -5.511  0.00  0.00    -0.057 A 
ATOM      3  C   LIG d   1       9.227  12.007  -4.410  0.00  0.00    -0.040 A 
ATOM      4  C   LIG d   1       9.293  11.068  -3.383  0.00  0.00     0.043 A 
ATOM      5  C   LIG d   1      10.195  10.015  -3.489  0.00  0.00     0.034 A 
ATOM      6  C   LIG d   1      11.015   9.902  -4.590  0.00  0.00    -0.048 A 
ATOM      7  C   LIG d   1      10.022   9.191  -2.243  0.00  0.00     0.105 A 
ATOM      8  C   LIG d   1       9.584   7.759  -2.592  0.00  0.00     0.099 C 
ATOM      9  H   LIG d   1       8.503   7.652  -2.501  0.00  0.00     0.046 H 
ATOM     10  C   LIG d   1      10.316   6.905  -1.521  0.00  0.00     0.008 C 
ATOM     11  C   LIG d   1      11.647   7.682  -1.354  0.00  0.00    -0.020 C 
ATOM     12  H   LIG d   1      12.348   7.406  -2.142  0.00  0.00     0.085 H 
ATOM     13  C   LIG d   1       8.945   9.899  -1.461  0.00  0.00     0.274 A 
ATOM     14  O   LIG d   1       8.497   9.569  -0.384  0.00  0.00    -0.269 OA
ATOM     15  N   LIG d   1       8.578  10.971  -2.188  0.00  0.00    -0.280 N 
ATOM     16  H   LIG d   1       9.994  12.620  -6.304  0.00  0.00     0.062 H 
ATOM     17  H   LIG d   1       8.530  12.830  -4.343  0.00  0.00     0.064 H 
ATOM     18  H   LIG d   1      11.714   9.081  -4.661  0.00  0.00     0.063 H 
ATOM     19  H   LIG d   1      10.498   5.894  -1.886  0.00  0.00     0.033 H 
ATOM     20  H   LIG d   1       9.756   6.885  -0.586  0.00  0.00     0.033 H 
ATOM     21  H   LIG d   1       7.895  11.603  -1.913  0.00  0.00     0.155 HD
ATOM     22  N   LIG d   1      11.265   9.101  -1.479  0.00  0.00     0.244 N 
ATOM     23  H   LIG d   1      11.126   9.505  -0.545  0.00  0.00     0.203 HD
ATOM     24  H   LIG d   1      12.007   9.617  -1.966  0.00  0.00     0.203 HD
ENDROOT
BRANCH   8  25
ATOM     25  C   LIG d   1      10.041   7.384  -3.978  0.00  0.00     0.227 C 
ATOM     26  O   LIG d   1      11.221   7.214  -4.202  0.00  0.00    -0.275 OA
ATOM     27  N   LIG d   1       9.139   7.238  -4.969  0.00  0.00    -0.282 N 
ATOM     28  H   LIG d   1       8.206   7.453  -4.811  0.00  0.00     0.155 HD
BRANCH  27  29
ATOM     29  C   LIG d   1       9.547   6.774  -6.226  0.00  0.00     0.077 A 
ATOM     30  C   LIG d   1       9.761   5.414  -6.433  0.00  0.00     0.141 A 
ATOM     31  C   LIG d   1      10.159   4.959  -7.679  0.00  0.00    -0.017 A 
ATOM     32  C   LIG d   1      10.355   5.858  -8.713  0.00  0.00    -0.040 A 
ATOM     33  H   LIG d   1      10.322   3.905  -7.843  0.00  0.00     0.066 H 
ATOM     34  C   LIG d   1      10.148   7.210  -8.507  0.00  0.00     0.043 A 
ATOM     35  H   LIG d   1      10.669   5.502  -9.683  0.00  0.00     0.063 H 
ATOM     36  C   LIG d   1       9.745   7.670  -7.266  0.00  0.00    -0.018 A 
ATOM     37 CL   LIG d   1      10.394   8.331  -9.809  0.00  0.00    -0.084 Cl
ATOM     38  H   LIG d   1       9.584   8.726  -7.109  0.00  0.00     0.065 H 
BRANCH  30  39
ATOM     39  O   LIG d   1       9.575   4.532  -5.414  0.00  0.00    -0.493 OA
BRANCH  39  40
ATOM     40  C   LIG d   1       9.388   3.160  -5.770  0.00  0.00     0.079 C 
ATOM     41  H   LIG d   1       9.048   3.095  -6.803  0.00  0.00     0.066 H 
ATOM     42  H   LIG d   1      10.332   2.626  -5.664  0.00  0.00     0.066 H 
ATOM     43  H   LIG d   1       8.641   2.714  -5.113  0.00  0.00     0.066 H 
ENDBRANCH  39  40
ENDBRANCH  30  39
ENDBRANCH  27  29
ENDBRANCH   8  25
BRANCH  11  44
ATOM     44  C   LIG d   1      12.257   7.407   0.021  0.00  0.00    -0.001 C 
ATOM     45  H   LIG d   1      12.641   6.387   0.052  0.00  0.00     0.032 H 
ATOM     46  H   LIG d   1      13.072   8.108   0.204  0.00  0.00     0.032 H 
BRANCH  44  47
ATOM     47  C   LIG d   1      11.185   7.581   1.099  0.00  0.00     0.029 C 
ATOM     48  H   LIG d   1      11.450   8.420   1.742  0.00  0.00     0.036 H 
ATOM     49  H   LIG d   1      10.222   7.775   0.626  0.00  0.00     0.036 H 
BRANCH  47  50
ATOM     50  C   LIG d   1      11.095   6.323   1.924  0.00  0.00     0.211 C 
ATOM     51  O   LIG d   1      11.157   6.385   3.134  0.00  0.00    -0.276 OA
ATOM     52  N   LIG d   1      10.946   5.129   1.317  0.00  0.00    -0.329 N 
ATOM     53  H   LIG d   1      10.897   5.079   0.350  0.00  0.00     0.145 HD
ATOM     54  H   LIG d   1      10.888   4.318   1.848  0.00  0.00     0.145 HD
ENDBRANCH  47  50
ENDBRANCH  44  47
ENDBRANCH  11  44
BRANCH   1  55
ATOM     55  C   LIG d   1      11.841  10.716  -6.811  0.00  0.00    -0.040 C 
ATOM     56  H   LIG d   1      11.920  11.685  -7.304  0.00  0.00     0.028 H 
ATOM     57  H   LIG d   1      12.831  10.387  -6.496  0.00  0.00     0.028 H 
ATOM     58  H   LIG d   1      11.419   9.990  -7.505  0.00  0.00     0.028 H 
ENDBRANCH   1  55
TORSDOF 8
ENDMDL
MODEL 9
REMARK VINA RESULT:      -6.1      9.143     12.528
REMARK  8 active torsions:
REMARK  status: ('A' for Active; 'I' for Inactive)
REMARK    1  A    between atoms: C_1  and  C_2 
REMARK    2  A    between atoms: C_9  and  C_19 
REMARK    3  A    between atoms: C_12  and  C_14 
REMARK    4  A    between atoms: C_14  and  C_15 
REMARK    5  A    between atoms: C_15  and  C_16 
REMARK       I    between atoms: C_16  and  N_18 
REMARK       I    between atoms: C_19  and  N_21 
REMARK    6  A    between atoms: N_21  and  C_22 
REMARK    7  A    between atoms: C_27  and  O_28 
REMARK    8  A    between atoms: O_28  and  C_29 
ROOT
ATOM      1  C   LIG d   1      10.685   9.870  -5.631  0.00  0.00    -0.050 A 
ATOM      2  C   LIG d   1       9.762  10.891  -5.767  0.00  0.00    -0.057 A 
ATOM      3  C   LIG d   1       9.038  11.324  -4.676  0.00  0.00    -0.040 A 
ATOM      4  C   LIG d   1       9.231  10.736  -3.428  0.00  0.00     0.043 A 
ATOM      5  C   LIG d   1      10.161   9.709  -3.304  0.00  0.00     0.034 A 
ATOM      6  C   LIG d   1      10.883   9.281  -4.396  0.00  0.00    -0.048 A 
ATOM      7  C   LIG d   1      10.131   9.294  -1.859  0.00  0.00     0.105 A 
ATOM      8  C   LIG d   1       9.721   7.819  -1.723  0.00  0.00     0.099 C 
ATOM      9  H   LIG d   1       8.657   7.732  -1.501  0.00  0.00     0.046 H 
ATOM     10  C   LIG d   1      10.578   7.332  -0.523  0.00  0.00     0.008 C 
ATOM     11  C   LIG d   1      11.887   8.137  -0.724  0.00  0.00    -0.020 C 
ATOM     12  H   LIG d   1      12.526   7.646  -1.458  0.00  0.00     0.085 H 
ATOM     13  C   LIG d   1       9.102  10.193  -1.222  0.00  0.00     0.274 A 
ATOM     14  O   LIG d   1       8.766  10.195  -0.057  0.00  0.00    -0.269 OA
ATOM     15  N   LIG d   1       8.630  10.994  -2.195  0.00  0.00    -0.280 N 
ATOM     16  H   LIG d   1       9.607  11.351  -6.732  0.00  0.00     0.062 H 
ATOM     17  H   LIG d   1       8.317  12.122  -4.790  0.00  0.00     0.064 H 
ATOM     18  H   LIG d   1      11.604   8.484  -4.287  0.00  0.00     0.063 H 
ATOM     19  H   LIG d   1      10.766   6.260  -0.588  0.00  0.00     0.033 H 
ATOM     20  H   LIG d   1      10.105   7.587   0.425  0.00  0.00     0.033 H 
ATOM     21  H   LIG d   1       7.950  11.672  -2.055  0.00  0.00     0.155 HD
ATOM     22  N   LIG d   1      11.441   9.451  -1.227  0.00  0.00     0.244 N 
ATOM     23  H   LIG d   1      11.370  10.113  -0.446  0.00  0.00     0.203 HD
ATOM     24  H   LIG d   1      12.115   9.804  -1.915  0.00  0.00     0.203 HD
ENDROOT
BRANCH   8  25
ATOM     25  C   LIG d   1      10.066   7.051  -2.973  0.00  0.00     0.227 C 
ATOM     26  O   LIG d   1      11.226   6.810  -3.235  0.00  0.00    -0.275 OA
ATOM     27  N   LIG d   1       9.088   6.633  -3.800  0.00  0.00    -0.282 N 
ATOM     28  H   LIG d   1       8.169   6.896  -3.635  0.00  0.00     0.155 HD
BRANCH  27  29
ATOM     29  C   LIG d   1       9.397   5.819  -4.897  0.00  0.00     0.077 A 
ATOM     30  C   LIG d   1       9.499   4.440  -4.736  0.00  0.00     0.141 A 
ATOM     31  C   LIG d   1       9.799   3.638  -5.825  0.00  0.00    -0.017 A 
ATOM     32  C   LIG d   1      10.008   4.209  -7.067  0.00  0.00    -0.040 A 
ATOM     33  H   LIG d   1       9.875   2.568  -5.703  0.00  0.00     0.066 H 
ATOM     34  C   LIG d   1       9.911   5.580  -7.228  0.00  0.00     0.043 A 
ATOM     35  H   LIG d   1      10.246   3.583  -7.915  0.00  0.00     0.063 H 
ATOM     36  C   LIG d   1       9.607   6.386  -6.145  0.00  0.00    -0.018 A 
ATOM     37 CL   LIG d   1      10.174   6.289  -8.790  0.00  0.00    -0.084 Cl
ATOM     38  H   LIG d   1       9.532   7.455  -6.273  0.00  0.00     0.065 H 
BRANCH  30  39
ATOM     39  O   LIG d   1       9.300   3.880  -3.513  0.00  0.00    -0.493 OA
BRANCH  39  40
ATOM     40  C   LIG d   1      10.398   3.167  -2.938  0.00  0.00     0.079 C 
ATOM     41  H   LIG d   1      10.077   2.689  -2.013  0.00  0.00     0.066 H 
ATOM     42  H   LIG d   1      10.744   2.407  -3.638  0.00  0.00     0.066 H 
ATOM     43  H   LIG d   1      11.210   3.863  -2.725  0.00  0.00     0.066 H 
ENDBRANCH  39  40
ENDBRANCH  30  39
ENDBRANCH  27  29
ENDBRANCH   8  25
BRANCH  11  44
ATOM     44  C   LIG d   1      12.628   8.293   0.605  0.00  0.00    -0.001 C 
ATOM     45  H   LIG d   1      13.066   7.337   0.892  0.00  0.00     0.032 H 
ATOM     46  H   LIG d   1      13.419   9.036   0.496  0.00  0.00     0.032 H 
BRANCH  44  47
ATOM     47  C   LIG d   1      11.646   8.749   1.686  0.00  0.00     0.029 C 
ATOM     48  H   LIG d   1      10.633   8.734   1.286  0.00  0.00     0.036 H 
ATOM     49  H   LIG d   1      11.710   8.076   2.541  0.00  0.00     0.036 H 
BRANCH  47  50
ATOM     50  C   LIG d   1      11.994  10.149   2.122  0.00  0.00     0.211 C 
ATOM     51  O   LIG d   1      11.818  11.081   1.367  0.00  0.00    -0.276 OA
ATOM     52  N   LIG d   1      12.503  10.364   3.352  0.00  0.00    -0.329 N 
ATOM     53  H   LIG d   1      12.644   9.619   3.956  0.00  0.00     0.145 HD
ATOM     54  H   LIG d   1      12.726  11.266   3.634  0.00  0.00     0.145 HD
ENDBRANCH  47  50
ENDBRANCH  44  47
ENDBRANCH  11  44
BRANCH   1  55
ATOM     55  C   LIG d   1      11.475   9.402  -6.827  0.00  0.00    -0.040 C 
ATOM     56  H   LIG d   1      12.330   8.816  -6.490  0.00  0.00     0.028 H 
ATOM     57  H   LIG d   1      10.840   8.786  -7.463  0.00  0.00     0.028 H 
ATOM     58  H   LIG d   1      11.826  10.265  -7.391  0.00  0.00     0.028 H 
ENDBRANCH   1  55
TORSDOF 8
ENDMDL
MODEL 10
REMARK VINA RESULT:      -6.1      7.940     11.121
REMARK  8 active torsions:
REMARK  status: ('A' for Active; 'I' for Inactive)
REMARK    1  A    between atoms: C_1  and  C_2 
REMARK    2  A    between atoms: C_9  and  C_19 
REMARK    3  A    between atoms: C_12  and  C_14 
REMARK    4  A    between atoms: C_14  and  C_15 
REMARK    5  A    between atoms: C_15  and  C_16 
REMARK       I    between atoms: C_16  and  N_18 
REMARK       I    between atoms: C_19  and  N_21 
REMARK    6  A    between atoms: N_21  and  C_22 
REMARK    7  A    between atoms: C_27  and  O_28 
REMARK    8  A    between atoms: O_28  and  C_29 
ROOT
ATOM      1  C   LIG d   1       9.497   2.411  -4.656  0.00  0.00    -0.050 A 
ATOM      2  C   LIG d   1      10.514   1.517  -4.374  0.00  0.00    -0.057 A 
ATOM      3  C   LIG d   1      11.606   1.916  -3.632  0.00  0.00    -0.040 A 
ATOM      4  C   LIG d   1      11.693   3.224  -3.160  0.00  0.00     0.043 A 
ATOM      5  C   LIG d   1      10.665   4.115  -3.452  0.00  0.00     0.034 A 
ATOM      6  C   LIG d   1       9.575   3.712  -4.192  0.00  0.00    -0.048 A 
ATOM      7  C   LIG d   1      11.053   5.421  -2.814  0.00  0.00     0.105 A 
ATOM      8  C   LIG d   1      11.192   6.526  -3.874  0.00  0.00     0.099 C 
ATOM      9  H   LIG d   1      12.235   6.655  -4.163  0.00  0.00     0.046 H 
ATOM     10  C   LIG d   1      10.665   7.783  -3.131  0.00  0.00     0.008 C 
ATOM     11  C   LIG d   1       9.538   7.181  -2.253  0.00  0.00    -0.020 C 
ATOM     12  H   LIG d   1       8.624   7.066  -2.835  0.00  0.00     0.085 H 
ATOM     13  C   LIG d   1      12.381   5.146  -2.155  0.00  0.00     0.274 A 
ATOM     14  O   LIG d   1      13.050   5.934  -1.522  0.00  0.00    -0.269 OA
ATOM     15  N   LIG d   1      12.679   3.858  -2.403  0.00  0.00    -0.280 N 
ATOM     16  H   LIG d   1      10.453   0.502  -4.737  0.00  0.00     0.062 H 
ATOM     17  H   LIG d   1      12.397   1.212  -3.416  0.00  0.00     0.064 H 
ATOM     18  H   LIG d   1       8.783   4.412  -4.411  0.00  0.00     0.063 H 
ATOM     19  H   LIG d   1      10.263   8.512  -3.835  0.00  0.00     0.033 H 
ATOM     20  H   LIG d   1      11.445   8.229  -2.514  0.00  0.00     0.033 H 
ATOM     21  H   LIG d   1      13.487   3.420  -2.091  0.00  0.00     0.155 HD
ATOM     22  N   LIG d   1      10.055   5.862  -1.840  0.00  0.00     0.244 N 
ATOM     23  H   LIG d   1      10.487   5.936  -0.912  0.00  0.00     0.203 HD
ATOM     24  H   LIG d   1       9.284   5.185  -1.806  0.00  0.00     0.203 HD
ENDROOT
BRANCH   8  25
ATOM     25  C   LIG d   1      10.341   6.220  -5.079  0.00  0.00     0.227 C 
ATOM     26  O   LIG d   1       9.132   6.292  -5.001  0.00  0.00    -0.275 OA
ATOM     27  N   LIG d   1      10.921   5.866  -6.243  0.00  0.00    -0.282 N 
ATOM     28  H   LIG d   1      11.880   5.728  -6.284  0.00  0.00     0.155 HD
BRANCH  27  29
ATOM     29  C   LIG d   1      10.139   5.699  -7.393  0.00  0.00     0.077 A 
ATOM     30  C   LIG d   1       9.819   6.798  -8.186  0.00  0.00     0.141 A 
ATOM     31  C   LIG d   1       9.051   6.626  -9.326  0.00  0.00    -0.017 A 
ATOM     32  C   LIG d   1       8.595   5.366  -9.668  0.00  0.00    -0.040 A 
ATOM     33  H   LIG d   1       8.805   7.475  -9.944  0.00  0.00     0.066 H 
ATOM     34  C   LIG d   1       8.908   4.274  -8.879  0.00  0.00     0.043 A 
ATOM     35  H   LIG d   1       7.992   5.234 -10.556  0.00  0.00     0.063 H 
ATOM     36  C   LIG d   1       9.679   4.438  -7.742  0.00  0.00    -0.018 A 
ATOM     37 CL   LIG d   1       8.332   2.696  -9.316  0.00  0.00    -0.084 Cl
ATOM     38  H   LIG d   1       9.922   3.584  -7.128  0.00  0.00     0.065 H 
BRANCH  30  39
ATOM     39  O   LIG d   1      10.264   8.036  -7.845  0.00  0.00    -0.493 OA
BRANCH  39  40
ATOM     40  C   LIG d   1       9.288   8.969  -7.375  0.00  0.00     0.079 C 
ATOM     41  H   LIG d   1       9.023   9.655  -8.180  0.00  0.00     0.066 H 
ATOM     42  H   LIG d   1       8.398   8.432  -7.049  0.00  0.00     0.066 H 
ATOM     43  H   LIG d   1       9.699   9.534  -6.537  0.00  0.00     0.066 H 
ENDBRANCH  39  40
ENDBRANCH  30  39
ENDBRANCH  27  29
ENDBRANCH   8  25
BRANCH  11  44
ATOM     44  C   LIG d   1       9.283   8.065  -1.031  0.00  0.00    -0.001 C 
ATOM     45  H   LIG d   1       8.623   8.887  -1.308  0.00  0.00     0.032 H 
ATOM     46  H   LIG d   1       8.814   7.472  -0.245  0.00  0.00     0.032 H 
BRANCH  44  47
ATOM     47  C   LIG d   1      10.612   8.627  -0.521  0.00  0.00     0.029 C 
ATOM     48  H   LIG d   1      11.388   8.453  -1.265  0.00  0.00     0.036 H 
ATOM     49  H   LIG d   1      10.509   9.699  -0.347  0.00  0.00     0.036 H 
BRANCH  47  50
ATOM     50  C   LIG d   1      10.985   7.942   0.768  0.00  0.00     0.211 C 
ATOM     51  O   LIG d   1      10.729   6.768   0.927  0.00  0.00    -0.276 OA
ATOM     52  N   LIG d   1      11.604   8.636   1.744  0.00  0.00    -0.329 N 
ATOM     53  H   LIG d   1      11.809   9.574   1.617  0.00  0.00     0.145 HD
ATOM     54  H   LIG d   1      11.846   8.194   2.574  0.00  0.00     0.145 HD
ENDBRANCH  47  50
ENDBRANCH  44  47
ENDBRANCH  11  44
BRANCH   1  55
ATOM     55  C   LIG d   1       8.306   1.969  -5.467  0.00  0.00    -0.040 C 
ATOM     56  H   LIG d   1       8.355   2.418  -6.460  0.00  0.00     0.028 H 
ATOM     57  H   LIG d   1       8.311   0.883  -5.559  0.00  0.00     0.028 H 
ATOM     58  H   LIG d   1       7.390   2.287  -4.971  0.00  0.00     0.028 H 
ENDBRANCH   1  55
TORSDOF 8
ENDMDL
