MODEL 1
REMARK VINA RESULT:      -7.0      0.000      0.000
REMARK  5 active torsions:
REMARK  status: ('A' for Active; 'I' for Inactive)
REMARK    1  A    between atoms: C_1  and  C_2 
REMARK    2  A    between atoms: C_5  and  C_23 
REMARK    3  A    between atoms: C_11  and  C_12 
REMARK    4  A    between atoms: C_23  and  N_24 
REMARK    5  A    between atoms: N_27  and  C_30 
ROOT
ATOM      1  C   LIG d   1       5.039  -0.754  -3.199  0.00  0.00    -0.036 A 
ATOM      2  C   LIG d   1       6.066  -1.626  -2.975  0.00  0.00    -0.065 A 
ATOM      3  C   LIG d   1       6.611  -2.351  -4.031  0.00  0.00    -0.096 A 
ATOM      4  C   LIG d   1       6.126  -2.192  -5.319  0.00  0.00     0.032 A 
ATOM      5  C   LIG d   1       5.082  -1.310  -5.564  0.00  0.00     0.147 A 
ATOM      6  C   LIG d   1       4.537  -0.587  -4.491  0.00  0.00     0.071 A 
ATOM      7  C   LIG d   1       3.464   0.251  -5.055  0.00  0.00     0.232 A 
ATOM      8  O   LIG d   1       2.738   1.032  -4.464  0.00  0.00    -0.283 OA
ATOM      9  C   LIG d   1       3.467  -0.064  -6.490  0.00  0.00     0.179 A 
ATOM     10  C   LIG d   1       2.640   0.470  -7.432  0.00  0.00     0.027 C 
ATOM     11  O   LIG d   1       4.437  -0.982  -6.705  0.00  0.00    -0.451 OA
ATOM     12  O   LIG d   1       7.628  -3.219  -3.798  0.00  0.00    -0.873 OA
ATOM     13  H   LIG d   1       6.455  -1.755  -1.976  0.00  0.00     0.061 H 
ATOM     14  H   LIG d   1       1.882   1.212  -7.142  0.00  0.00     0.069 H 
ENDROOT
BRANCH   4  15
ATOM     15  C   LIG d   1       6.728  -2.980  -6.454  0.00  0.00    -0.003 C 
ATOM     16  H   LIG d   1       7.248  -2.296  -7.140  0.00  0.00     0.087 H 
ATOM     17  H   LIG d   1       7.445  -3.712  -6.053  0.00  0.00     0.087 H 
BRANCH  15  18
ATOM     18  N   LIG d   1       5.663  -3.686  -7.179  0.00  0.00     0.240 N 
ATOM     19  C   LIG d   1       5.212  -4.869  -6.434  0.00  0.00    -0.018 C 
ATOM     20  C   LIG d   1       4.052  -5.529  -7.182  0.00  0.00     0.039 C 
ATOM     21  H   LIG d   1       6.043  -5.583  -6.340  0.00  0.00     0.083 H 
ATOM     22  H   LIG d   1       4.876  -4.564  -5.431  0.00  0.00     0.083 H 
ATOM     23  N   LIG d   1       4.493  -5.900  -8.534  0.00  0.00    -0.295 N 
ATOM     24  H   LIG d   1       3.209  -4.824  -7.252  0.00  0.00     0.048 H 
ATOM     25  H   LIG d   1       3.730  -6.431  -6.641  0.00  0.00     0.048 H 
ATOM     26  C   LIG d   1       4.944  -4.718  -9.281  0.00  0.00     0.039 C 
ATOM     27  C   LIG d   1       6.105  -4.058  -8.532  0.00  0.00    -0.018 C 
ATOM     28  H   LIG d   1       4.114  -4.002  -9.374  0.00  0.00     0.048 H 
ATOM     29  H   LIG d   1       5.281  -5.021 -10.283  0.00  0.00     0.048 H 
ATOM     30  H   LIG d   1       6.426  -3.155  -9.073  0.00  0.00     0.083 H 
ATOM     31  H   LIG d   1       6.946  -4.762  -8.463  0.00  0.00     0.083 H 
ATOM     32  H   LIG d   1       4.810  -3.000  -7.277  0.00  0.00     0.204 HD
BRANCH  23  33
ATOM     33  C   LIG d   1       3.428  -6.606  -9.260  0.00  0.00    -0.012 C 
ATOM     34  H   LIG d   1       3.794  -6.895 -10.257  0.00  0.00     0.039 H 
ATOM     35  H   LIG d   1       2.557  -5.943  -9.368  0.00  0.00     0.039 H 
ATOM     36  H   LIG d   1       3.137  -7.506  -8.699  0.00  0.00     0.039 H 
ENDBRANCH  23  33
ENDBRANCH  15  18
ENDBRANCH   4  15
BRANCH   1  37
ATOM     37  C   LIG d   1       4.447   0.027  -2.053  0.00  0.00    -0.039 C 
ATOM     38  H   LIG d   1       3.352   0.050  -2.153  0.00  0.00     0.028 H 
ATOM     39  H   LIG d   1       4.839   1.054  -2.068  0.00  0.00     0.028 H 
ATOM     40  H   LIG d   1       4.719  -0.456  -1.103  0.00  0.00     0.028 H 
ENDBRANCH   1  37
BRANCH  10  41
ATOM     41  C   LIG d   1       2.756   0.069  -8.784  0.00  0.00     0.133 A 
ATOM     42  O   LIG d   1       3.778   0.389  -9.608  0.00  0.00    -0.455 OA
ATOM     43  C   LIG d   1       3.576  -0.158 -10.825  0.00  0.00     0.136 A 
ATOM     44  C   LIG d   1       2.354  -0.856 -10.777  0.00  0.00     0.022 A 
ATOM     45  C   LIG d   1       4.303  -0.141 -12.007  0.00  0.00    -0.018 A 
ATOM     46  C   LIG d   1       1.852  -0.695  -9.461  0.00  0.00    -0.009 A 
ATOM     47  C   LIG d   1       1.887  -1.523 -11.916  0.00  0.00    -0.037 A 
ATOM     48  H   LIG d   1       0.931  -1.099  -9.070  0.00  0.00     0.066 H 
ATOM     49  C   LIG d   1       2.621  -1.491 -13.068  0.00  0.00     0.019 A 
ATOM     50  H   LIG d   1       0.951  -2.060 -11.884  0.00  0.00     0.064 H 
ATOM     51  C   LIG d   1       3.826  -0.804 -13.118  0.00  0.00    -0.044 A 
ATOM     52 BR   LIG d   1       1.990  -2.392 -14.607  0.00  0.00    -0.050 Br
ATOM     53  H   LIG d   1       4.396  -0.788 -14.036  0.00  0.00     0.063 H 
ATOM     54  H   LIG d   1       5.243   0.391 -12.056  0.00  0.00     0.066 H 
ENDBRANCH  10  41
TORSDOF 5
ENDMDL
MODEL 2
REMARK VINA RESULT:      -6.7      1.683      2.604
REMARK  5 active torsions:
REMARK  status: ('A' for Active; 'I' for Inactive)
REMARK    1  A    between atoms: C_1  and  C_2 
REMARK    2  A    between atoms: C_5  and  C_23 
REMARK    3  A    between atoms: C_11  and  C_12 
REMARK    4  A    between atoms: C_23  and  N_24 
REMARK    5  A    between atoms: N_27  and  C_30 
ROOT
ATOM      1  C   LIG d   1       4.957  -0.728  -3.198  0.00  0.00    -0.036 A 
ATOM      2  C   LIG d   1       6.004  -1.573  -2.962  0.00  0.00    -0.065 A 
ATOM      3  C   LIG d   1       6.587  -2.274  -4.014  0.00  0.00    -0.096 A 
ATOM      4  C   LIG d   1       6.121  -2.116  -5.310  0.00  0.00     0.032 A 
ATOM      5  C   LIG d   1       5.058  -1.260  -5.566  0.00  0.00     0.147 A 
ATOM      6  C   LIG d   1       4.474  -0.562  -4.497  0.00  0.00     0.071 A 
ATOM      7  C   LIG d   1       3.389   0.251  -5.074  0.00  0.00     0.232 A 
ATOM      8  O   LIG d   1       2.631   1.007  -4.489  0.00  0.00    -0.283 OA
ATOM      9  C   LIG d   1       3.426  -0.050  -6.511  0.00  0.00     0.179 A 
ATOM     10  C   LIG d   1       2.603   0.469  -7.463  0.00  0.00     0.027 C 
ATOM     11  O   LIG d   1       4.426  -0.940  -6.716  0.00  0.00    -0.451 OA
ATOM     12  O   LIG d   1       7.622  -3.116  -3.770  0.00  0.00    -0.873 OA
ATOM     13  H   LIG d   1       6.377  -1.701  -1.957  0.00  0.00     0.061 H 
ATOM     14  H   LIG d   1       1.820   1.188  -7.181  0.00  0.00     0.069 H 
ENDROOT
BRANCH   4  15
ATOM     15  C   LIG d   1       6.765  -2.877  -6.440  0.00  0.00    -0.003 C 
ATOM     16  H   LIG d   1       7.720  -3.303  -6.098  0.00  0.00     0.087 H 
ATOM     17  H   LIG d   1       6.097  -3.687  -6.765  0.00  0.00     0.087 H 
BRANCH  15  18
ATOM     18  N   LIG d   1       7.012  -1.966  -7.566  0.00  0.00     0.240 N 
ATOM     19  C   LIG d   1       6.906  -2.674  -8.849  0.00  0.00    -0.018 C 
ATOM     20  C   LIG d   1       7.091  -1.677  -9.996  0.00  0.00     0.039 C 
ATOM     21  H   LIG d   1       7.685  -3.449  -8.906  0.00  0.00     0.083 H 
ATOM     22  H   LIG d   1       5.914  -3.144  -8.928  0.00  0.00     0.083 H 
ATOM     23  N   LIG d   1       8.400  -1.022  -9.866  0.00  0.00    -0.295 N 
ATOM     24  H   LIG d   1       6.295  -0.917  -9.955  0.00  0.00     0.048 H 
ATOM     25  H   LIG d   1       7.041  -2.208 -10.958  0.00  0.00     0.048 H 
ATOM     26  C   LIG d   1       8.507  -0.314  -8.583  0.00  0.00     0.039 C 
ATOM     27  C   LIG d   1       8.322  -1.311  -7.436  0.00  0.00    -0.018 C 
ATOM     28  H   LIG d   1       7.728   0.460  -8.524  0.00  0.00     0.048 H 
ATOM     29  H   LIG d   1       9.498   0.156  -8.503  0.00  0.00     0.048 H 
ATOM     30  H   LIG d   1       8.372  -0.780  -6.474  0.00  0.00     0.083 H 
ATOM     31  H   LIG d   1       9.117  -2.070  -7.477  0.00  0.00     0.083 H 
ATOM     32  H   LIG d   1       6.239  -1.185  -7.544  0.00  0.00     0.204 HD
BRANCH  23  33
ATOM     33  C   LIG d   1       8.647  -0.111 -10.992  0.00  0.00    -0.012 C 
ATOM     34  H   LIG d   1       9.637  -0.321 -11.422  0.00  0.00     0.039 H 
ATOM     35  H   LIG d   1       8.616   0.929 -10.635  0.00  0.00     0.039 H 
ATOM     36  H   LIG d   1       7.873  -0.260 -11.759  0.00  0.00     0.039 H 
ENDBRANCH  23  33
ENDBRANCH  15  18
ENDBRANCH   4  15
BRANCH   1  37
ATOM     37  C   LIG d   1       4.323   0.026  -2.056  0.00  0.00    -0.039 C 
ATOM     38  H   LIG d   1       3.372  -0.454  -1.783  0.00  0.00     0.028 H 
ATOM     39  H   LIG d   1       4.135   1.065  -2.363  0.00  0.00     0.028 H 
ATOM     40  H   LIG d   1       5.001   0.017  -1.190  0.00  0.00     0.028 H 
ENDBRANCH   1  37
BRANCH  10  41
ATOM     41  C   LIG d   1       2.754   0.085  -8.817  0.00  0.00     0.133 A 
ATOM     42  O   LIG d   1       3.777   0.449  -9.621  0.00  0.00    -0.455 OA
ATOM     43  C   LIG d   1       3.613  -0.095 -10.845  0.00  0.00     0.136 A 
ATOM     44  C   LIG d   1       2.417  -0.838 -10.823  0.00  0.00     0.022 A 
ATOM     45  C   LIG d   1       4.358  -0.042 -12.016  0.00  0.00    -0.018 A 
ATOM     46  C   LIG d   1       1.889  -0.706  -9.514  0.00  0.00    -0.009 A 
ATOM     47  C   LIG d   1       1.992  -1.512 -11.974  0.00  0.00    -0.037 A 
ATOM     48  H   LIG d   1       0.977  -1.146  -9.140  0.00  0.00     0.066 H 
ATOM     49  C   LIG d   1       2.742  -1.444 -13.114  0.00  0.00     0.019 A 
ATOM     50  H   LIG d   1       1.076  -2.083 -11.961  0.00  0.00     0.064 H 
ATOM     51  C   LIG d   1       3.923  -0.713 -13.139  0.00  0.00    -0.044 A 
ATOM     52 BR   LIG d   1       2.169  -2.354 -14.669  0.00  0.00    -0.050 Br
ATOM     53  H   LIG d   1       4.505  -0.668 -14.048  0.00  0.00     0.063 H 
ATOM     54  H   LIG d   1       5.278   0.525 -12.046  0.00  0.00     0.066 H 
ENDBRANCH  10  41
TORSDOF 5
ENDMDL
MODEL 3
REMARK VINA RESULT:      -6.2      4.413      7.217
REMARK  5 active torsions:
REMARK  status: ('A' for Active; 'I' for Inactive)
REMARK    1  A    between atoms: C_1  and  C_2 
REMARK    2  A    between atoms: C_5  and  C_23 
REMARK    3  A    between atoms: C_11  and  C_12 
REMARK    4  A    between atoms: C_23  and  N_24 
REMARK    5  A    between atoms: N_27  and  C_30 
ROOT
ATOM      1  C   LIG d   1       3.794  -3.994  -8.569  0.00  0.00    -0.036 A 
ATOM      2  C   LIG d   1       3.598  -4.925  -7.589  0.00  0.00    -0.065 A 
ATOM      3  C   LIG d   1       4.191  -4.761  -6.340  0.00  0.00    -0.096 A 
ATOM      4  C   LIG d   1       4.979  -3.652  -6.075  0.00  0.00     0.032 A 
ATOM      5  C   LIG d   1       5.189  -2.697  -7.061  0.00  0.00     0.147 A 
ATOM      6  C   LIG d   1       4.589  -2.875  -8.318  0.00  0.00     0.071 A 
ATOM      7  C   LIG d   1       4.990  -1.717  -9.137  0.00  0.00     0.232 A 
ATOM      8  O   LIG d   1       4.686  -1.481 -10.295  0.00  0.00    -0.283 OA
ATOM      9  C   LIG d   1       5.837  -0.912  -8.248  0.00  0.00     0.179 A 
ATOM     10  C   LIG d   1       6.445   0.264  -8.566  0.00  0.00     0.027 C 
ATOM     11  O   LIG d   1       5.904  -1.551  -7.057  0.00  0.00    -0.451 OA
ATOM     12  O   LIG d   1       3.995  -5.693  -5.374  0.00  0.00    -0.873 OA
ATOM     13  H   LIG d   1       2.983  -5.791  -7.784  0.00  0.00     0.061 H 
ATOM     14  H   LIG d   1       6.322   0.695  -9.571  0.00  0.00     0.069 H 
ENDROOT
BRANCH   4  15
ATOM     15  C   LIG d   1       5.612  -3.485  -4.718  0.00  0.00    -0.003 C 
ATOM     16  H   LIG d   1       5.243  -4.271  -4.042  0.00  0.00     0.087 H 
ATOM     17  H   LIG d   1       6.705  -3.563  -4.809  0.00  0.00     0.087 H 
BRANCH  15  18
ATOM     18  N   LIG d   1       5.260  -2.167  -4.172  0.00  0.00     0.240 N 
ATOM     19  C   LIG d   1       6.399  -1.569  -3.463  0.00  0.00    -0.018 C 
ATOM     20  C   LIG d   1       6.019  -0.167  -2.979  0.00  0.00     0.039 C 
ATOM     21  H   LIG d   1       6.665  -2.196  -2.599  0.00  0.00     0.083 H 
ATOM     22  H   LIG d   1       7.260  -1.500  -4.146  0.00  0.00     0.083 H 
ATOM     23  N   LIG d   1       4.845  -0.258  -2.100  0.00  0.00    -0.295 N 
ATOM     24  H   LIG d   1       5.779   0.468  -3.846  0.00  0.00     0.048 H 
ATOM     25  H   LIG d   1       6.860   0.272  -2.424  0.00  0.00     0.048 H 
ATOM     26  C   LIG d   1       3.705  -0.857  -2.808  0.00  0.00     0.039 C 
ATOM     27  C   LIG d   1       4.086  -2.258  -3.291  0.00  0.00    -0.018 C 
ATOM     28  H   LIG d   1       3.438  -0.231  -3.672  0.00  0.00     0.048 H 
ATOM     29  H   LIG d   1       2.844  -0.926  -2.126  0.00  0.00     0.048 H 
ATOM     30  H   LIG d   1       3.244  -2.697  -3.847  0.00  0.00     0.083 H 
ATOM     31  H   LIG d   1       4.325  -2.893  -2.426  0.00  0.00     0.083 H 
ATOM     32  H   LIG d   1       5.001  -1.511  -5.015  0.00  0.00     0.204 HD
BRANCH  23  33
ATOM     33  C   LIG d   1       4.493   1.060  -1.554  0.00  0.00    -0.012 C 
ATOM     34  H   LIG d   1       4.100   1.697  -2.360  0.00  0.00     0.039 H 
ATOM     35  H   LIG d   1       5.389   1.527  -1.121  0.00  0.00     0.039 H 
ATOM     36  H   LIG d   1       3.727   0.940  -0.774  0.00  0.00     0.039 H 
ENDBRANCH  23  33
ENDBRANCH  15  18
ENDBRANCH   4  15
BRANCH   1  37
ATOM     37  C   LIG d   1       3.154  -4.176  -9.923  0.00  0.00    -0.039 C 
ATOM     38  H   LIG d   1       3.569  -5.073 -10.406  0.00  0.00     0.028 H 
ATOM     39  H   LIG d   1       3.360  -3.294 -10.547  0.00  0.00     0.028 H 
ATOM     40  H   LIG d   1       2.068  -4.293  -9.801  0.00  0.00     0.028 H 
ENDBRANCH   1  37
BRANCH  10  41
ATOM     41  C   LIG d   1       7.238   0.934  -7.603  0.00  0.00     0.133 A 
ATOM     42  O   LIG d   1       6.945   1.039  -6.288  0.00  0.00    -0.455 OA
ATOM     43  C   LIG d   1       7.912   1.737  -5.658  0.00  0.00     0.136 A 
ATOM     44  C   LIG d   1       8.868   2.106  -6.624  0.00  0.00     0.022 A 
ATOM     45  C   LIG d   1       8.098   2.121  -4.336  0.00  0.00    -0.018 A 
ATOM     46  C   LIG d   1       8.412   1.580  -7.859  0.00  0.00    -0.009 A 
ATOM     47  C   LIG d   1       9.990   2.853  -6.246  0.00  0.00    -0.037 A 
ATOM     48  H   LIG d   1       8.899   1.672  -8.817  0.00  0.00     0.066 H 
ATOM     49  C   LIG d   1      10.151   3.219  -4.939  0.00  0.00     0.019 A 
ATOM     50  H   LIG d   1      10.725   3.137  -6.983  0.00  0.00     0.064 H 
ATOM     51  C   LIG d   1       9.211   2.856  -3.984  0.00  0.00    -0.044 A 
ATOM     52 BR   LIG d   1      11.667   4.227  -4.428  0.00  0.00    -0.050 Br
ATOM     53  H   LIG d   1       9.352   3.153  -2.955  0.00  0.00     0.063 H 
ATOM     54  H   LIG d   1       7.373   1.844  -3.585  0.00  0.00     0.066 H 
ENDBRANCH  10  41
TORSDOF 5
ENDMDL
MODEL 4
REMARK VINA RESULT:      -6.1      3.659      7.811
REMARK  5 active torsions:
REMARK  status: ('A' for Active; 'I' for Inactive)
REMARK    1  A    between atoms: C_1  and  C_2 
REMARK    2  A    between atoms: C_5  and  C_23 
REMARK    3  A    between atoms: C_11  and  C_12 
REMARK    4  A    between atoms: C_23  and  N_24 
REMARK    5  A    between atoms: N_27  and  C_30 
ROOT
ATOM      1  C   LIG d   1       1.790  -2.258 -10.082  0.00  0.00    -0.036 A 
ATOM      2  C   LIG d   1       1.679  -0.898 -10.010  0.00  0.00    -0.065 A 
ATOM      3  C   LIG d   1       2.502  -0.174  -9.152  0.00  0.00    -0.096 A 
ATOM      4  C   LIG d   1       3.447  -0.820  -8.371  0.00  0.00     0.032 A 
ATOM      5  C   LIG d   1       3.572  -2.202  -8.432  0.00  0.00     0.147 A 
ATOM      6  C   LIG d   1       2.733  -2.922  -9.298  0.00  0.00     0.071 A 
ATOM      7  C   LIG d   1       3.098  -4.341  -9.144  0.00  0.00     0.232 A 
ATOM      8  O   LIG d   1       2.612  -5.303  -9.716  0.00  0.00    -0.283 OA
ATOM      9  C   LIG d   1       4.178  -4.339  -8.149  0.00  0.00     0.179 A 
ATOM     10  C   LIG d   1       4.840  -5.432  -7.678  0.00  0.00     0.027 C 
ATOM     11  O   LIG d   1       4.395  -3.054  -7.783  0.00  0.00    -0.451 OA
ATOM     12  O   LIG d   1       2.380   1.176  -9.083  0.00  0.00    -0.873 OA
ATOM     13  H   LIG d   1       0.948  -0.384 -10.617  0.00  0.00     0.061 H 
ATOM     14  H   LIG d   1       4.580  -6.435  -8.047  0.00  0.00     0.069 H 
ENDROOT
BRANCH   4  15
ATOM     15  C   LIG d   1       4.334  -0.023  -7.450  0.00  0.00    -0.003 C 
ATOM     16  H   LIG d   1       5.377  -0.092  -7.795  0.00  0.00     0.087 H 
ATOM     17  H   LIG d   1       4.016   1.030  -7.453  0.00  0.00     0.087 H 
BRANCH  15  18
ATOM     18  N   LIG d   1       4.234  -0.560  -6.086  0.00  0.00     0.240 N 
ATOM     19  C   LIG d   1       3.186   0.132  -5.323  0.00  0.00    -0.018 C 
ATOM     20  C   LIG d   1       3.059  -0.508  -3.938  0.00  0.00     0.039 C 
ATOM     21  H   LIG d   1       3.452   1.194  -5.214  0.00  0.00     0.083 H 
ATOM     22  H   LIG d   1       2.227   0.047  -5.856  0.00  0.00     0.083 H 
ATOM     23  N   LIG d   1       4.352  -0.427  -3.244  0.00  0.00    -0.295 N 
ATOM     24  H   LIG d   1       2.766  -1.563  -4.046  0.00  0.00     0.048 H 
ATOM     25  H   LIG d   1       2.295   0.026  -3.354  0.00  0.00     0.048 H 
ATOM     26  C   LIG d   1       5.400  -1.119  -4.007  0.00  0.00     0.039 C 
ATOM     27  C   LIG d   1       5.527  -0.479  -5.391  0.00  0.00    -0.018 C 
ATOM     28  H   LIG d   1       5.135  -2.181  -4.117  0.00  0.00     0.048 H 
ATOM     29  H   LIG d   1       6.359  -1.035  -3.475  0.00  0.00     0.048 H 
ATOM     30  H   LIG d   1       6.290  -1.014  -5.976  0.00  0.00     0.083 H 
ATOM     31  H   LIG d   1       5.820   0.575  -5.283  0.00  0.00     0.083 H 
ATOM     32  H   LIG d   1       3.955  -1.621  -6.161  0.00  0.00     0.204 HD
BRANCH  23  33
ATOM     33  C   LIG d   1       4.251  -0.965  -1.880  0.00  0.00    -0.012 C 
ATOM     34  H   LIG d   1       3.957  -2.023  -1.925  0.00  0.00     0.039 H 
ATOM     35  H   LIG d   1       3.495  -0.397  -1.318  0.00  0.00     0.039 H 
ATOM     36  H   LIG d   1       5.227  -0.875  -1.379  0.00  0.00     0.039 H 
ENDBRANCH  23  33
ENDBRANCH  15  18
ENDBRANCH   4  15
BRANCH   1  37
ATOM     37  C   LIG d   1       0.893  -3.041 -11.009  0.00  0.00    -0.039 C 
ATOM     38  H   LIG d   1       1.343  -3.073 -12.012  0.00  0.00     0.028 H 
ATOM     39  H   LIG d   1      -0.092  -2.555 -11.063  0.00  0.00     0.028 H 
ATOM     40  H   LIG d   1       0.777  -4.065 -10.626  0.00  0.00     0.028 H 
ENDBRANCH   1  37
BRANCH  10  41
ATOM     41  C   LIG d   1       5.865  -5.279  -6.714  0.00  0.00     0.133 A 
ATOM     42  O   LIG d   1       6.186  -4.122  -6.094  0.00  0.00    -0.455 OA
ATOM     43  C   LIG d   1       7.204  -4.330  -5.233  0.00  0.00     0.136 A 
ATOM     44  C   LIG d   1       7.557  -5.690  -5.316  0.00  0.00     0.022 A 
ATOM     45  C   LIG d   1       7.899  -3.498  -4.366  0.00  0.00    -0.018 A 
ATOM     46  C   LIG d   1       6.685  -6.273  -6.269  0.00  0.00    -0.009 A 
ATOM     47  C   LIG d   1       8.601  -6.189  -4.526  0.00  0.00    -0.037 A 
ATOM     48  H   LIG d   1       6.673  -7.305  -6.583  0.00  0.00     0.066 H 
ATOM     49  C   LIG d   1       9.270  -5.350  -3.680  0.00  0.00     0.019 A 
ATOM     50  H   LIG d   1       8.874  -7.231  -4.586  0.00  0.00     0.064 H 
ATOM     51  C   LIG d   1       8.924  -4.009  -3.597  0.00  0.00    -0.044 A 
ATOM     52 BR   LIG d   1      10.680  -6.024  -2.614  0.00  0.00    -0.050 Br
ATOM     53  H   LIG d   1       9.462  -3.358  -2.923  0.00  0.00     0.063 H 
ATOM     54  H   LIG d   1       7.637  -2.452  -4.293  0.00  0.00     0.066 H 
ENDBRANCH  10  41
TORSDOF 5
ENDMDL
MODEL 5
REMARK VINA RESULT:      -6.0     10.572     11.882
REMARK  5 active torsions:
REMARK  status: ('A' for Active; 'I' for Inactive)
REMARK    1  A    between atoms: C_1  and  C_2 
REMARK    2  A    between atoms: C_5  and  C_23 
REMARK    3  A    between atoms: C_11  and  C_12 
REMARK    4  A    between atoms: C_23  and  N_24 
REMARK    5  A    between atoms: N_27  and  C_30 
ROOT
ATOM      1  C   LIG d   1      10.680   9.700  -0.169  0.00  0.00    -0.036 A 
ATOM      2  C   LIG d   1      11.394   8.718   0.458  0.00  0.00    -0.065 A 
ATOM      3  C   LIG d   1      11.906   7.650  -0.272  0.00  0.00    -0.096 A 
ATOM      4  C   LIG d   1      11.707   7.574  -1.642  0.00  0.00     0.032 A 
ATOM      5  C   LIG d   1      10.984   8.563  -2.295  0.00  0.00     0.147 A 
ATOM      6  C   LIG d   1      10.468   9.633  -1.547  0.00  0.00     0.071 A 
ATOM      7  C   LIG d   1       9.761  10.505  -2.502  0.00  0.00     0.232 A 
ATOM      8  O   LIG d   1       9.170  11.546  -2.266  0.00  0.00    -0.283 OA
ATOM      9  C   LIG d   1       9.928   9.841  -3.801  0.00  0.00     0.179 A 
ATOM     10  C   LIG d   1       9.442  10.278  -4.996  0.00  0.00     0.027 C 
ATOM     11  O   LIG d   1      10.652   8.716  -3.595  0.00  0.00    -0.451 OA
ATOM     12  O   LIG d   1      12.609   6.677   0.361  0.00  0.00    -0.873 OA
ATOM     13  H   LIG d   1      11.558   8.770   1.525  0.00  0.00     0.061 H 
ATOM     14  H   LIG d   1       8.863  11.212  -5.047  0.00  0.00     0.069 H 
ENDROOT
BRANCH   4  15
ATOM     15  C   LIG d   1      12.271   6.414  -2.421  0.00  0.00    -0.003 C 
ATOM     16  H   LIG d   1      12.980   6.788  -3.175  0.00  0.00     0.087 H 
ATOM     17  H   LIG d   1      12.793   5.730  -1.736  0.00  0.00     0.087 H 
BRANCH  15  18
ATOM     18  N   LIG d   1      11.179   5.696  -3.091  0.00  0.00     0.240 N 
ATOM     19  C   LIG d   1      10.913   4.409  -2.434  0.00  0.00    -0.018 C 
ATOM     20  C   LIG d   1       9.719   3.730  -3.110  0.00  0.00     0.039 C 
ATOM     21  H   LIG d   1      11.800   3.763  -2.518  0.00  0.00     0.083 H 
ATOM     22  H   LIG d   1      10.684   4.580  -1.371  0.00  0.00     0.083 H 
ATOM     23  N   LIG d   1      10.013   3.538  -4.537  0.00  0.00    -0.295 N 
ATOM     24  H   LIG d   1       8.825   4.363  -3.002  0.00  0.00     0.048 H 
ATOM     25  H   LIG d   1       9.536   2.753  -2.639  0.00  0.00     0.048 H 
ATOM     26  C   LIG d   1      10.279   4.824  -5.195  0.00  0.00     0.039 C 
ATOM     27  C   LIG d   1      11.472   5.503  -4.518  0.00  0.00    -0.018 C 
ATOM     28  H   LIG d   1       9.393   5.471  -5.111  0.00  0.00     0.048 H 
ATOM     29  H   LIG d   1      10.508   4.654  -6.257  0.00  0.00     0.048 H 
ATOM     30  H   LIG d   1      11.656   6.481  -4.990  0.00  0.00     0.083 H 
ATOM     31  H   LIG d   1      12.365   4.871  -4.628  0.00  0.00     0.083 H 
ATOM     32  H   LIG d   1      10.272   6.312  -3.011  0.00  0.00     0.204 HD
BRANCH  23  33
ATOM     33  C   LIG d   1       8.920   2.820  -5.208  0.00  0.00    -0.012 C 
ATOM     34  H   LIG d   1       8.148   3.538  -5.521  0.00  0.00     0.039 H 
ATOM     35  H   LIG d   1       8.481   2.090  -4.511  0.00  0.00     0.039 H 
ATOM     36  H   LIG d   1       9.314   2.294  -6.090  0.00  0.00     0.039 H 
ENDBRANCH  23  33
ENDBRANCH  15  18
ENDBRANCH   4  15
BRANCH   1  37
ATOM     37  C   LIG d   1      10.122  10.854   0.625  0.00  0.00    -0.039 C 
ATOM     38  H   LIG d   1       9.326  11.345   0.047  0.00  0.00     0.028 H 
ATOM     39  H   LIG d   1      10.924  11.577   0.834  0.00  0.00     0.028 H 
ATOM     40  H   LIG d   1       9.710  10.479   1.573  0.00  0.00     0.028 H 
ENDBRANCH   1  37
BRANCH  10  41
ATOM     41  C   LIG d   1       9.681   9.531  -6.174  0.00  0.00     0.133 A 
ATOM     42  O   LIG d   1      10.440   9.937  -7.215  0.00  0.00    -0.455 OA
ATOM     43  C   LIG d   1      10.459   8.983  -8.169  0.00  0.00     0.136 A 
ATOM     44  C   LIG d   1       9.662   7.914  -7.715  0.00  0.00     0.022 A 
ATOM     45  C   LIG d   1      11.074   8.893  -9.410  0.00  0.00    -0.018 A 
ATOM     46  C   LIG d   1       9.177   8.291  -6.437  0.00  0.00    -0.009 A 
ATOM     47  C   LIG d   1       9.497   6.778  -8.516  0.00  0.00    -0.037 A 
ATOM     48  H   LIG d   1       8.533   7.709  -5.797  0.00  0.00     0.066 H 
ATOM     49  C   LIG d   1      10.112   6.713  -9.735  0.00  0.00     0.019 A 
ATOM     50  H   LIG d   1       8.888   5.957  -8.172  0.00  0.00     0.064 H 
ATOM     51  C   LIG d   1      10.900   7.765 -10.184  0.00  0.00    -0.044 A 
ATOM     52 BR   LIG d   1       9.890   5.178 -10.817  0.00  0.00    -0.050 Br
ATOM     53  H   LIG d   1      11.380   7.699 -11.150  0.00  0.00     0.063 H 
ATOM     54  H   LIG d   1      11.689   9.706  -9.770  0.00  0.00     0.066 H 
ENDBRANCH  10  41
TORSDOF 5
ENDMDL
MODEL 6
REMARK VINA RESULT:      -6.0     10.656     12.321
REMARK  5 active torsions:
REMARK  status: ('A' for Active; 'I' for Inactive)
REMARK    1  A    between atoms: C_1  and  C_2 
REMARK    2  A    between atoms: C_5  and  C_23 
REMARK    3  A    between atoms: C_11  and  C_12 
REMARK    4  A    between atoms: C_23  and  N_24 
REMARK    5  A    between atoms: N_27  and  C_30 
ROOT
ATOM      1  C   LIG d   1      11.063   9.565   0.699  0.00  0.00    -0.036 A 
ATOM      2  C   LIG d   1      11.265   8.469   1.490  0.00  0.00    -0.065 A 
ATOM      3  C   LIG d   1      11.207   7.191   0.942  0.00  0.00    -0.096 A 
ATOM      4  C   LIG d   1      10.954   7.014  -0.409  0.00  0.00     0.032 A 
ATOM      5  C   LIG d   1      10.747   8.118  -1.227  0.00  0.00     0.147 A 
ATOM      6  C   LIG d   1      10.802   9.402  -0.662  0.00  0.00     0.071 A 
ATOM      7  C   LIG d   1      10.547  10.350  -1.761  0.00  0.00     0.232 A 
ATOM      8  O   LIG d   1      10.506  11.568  -1.702  0.00  0.00    -0.283 OA
ATOM      9  C   LIG d   1      10.351   9.501  -2.943  0.00  0.00     0.179 A 
ATOM     10  C   LIG d   1      10.084   9.932  -4.207  0.00  0.00     0.027 C 
ATOM     11  O   LIG d   1      10.483   8.213  -2.548  0.00  0.00    -0.451 OA
ATOM     12  O   LIG d   1      11.404   6.108   1.736  0.00  0.00    -0.873 OA
ATOM     13  H   LIG d   1      11.466   8.595   2.543  0.00  0.00     0.061 H 
ATOM     14  H   LIG d   1       9.997  11.009  -4.416  0.00  0.00     0.069 H 
ENDROOT
BRANCH   4  15
ATOM     15  C   LIG d   1      10.900   5.625  -0.990  0.00  0.00    -0.003 C 
ATOM     16  H   LIG d   1      11.180   4.893  -0.218  0.00  0.00     0.087 H 
ATOM     17  H   LIG d   1       9.880   5.414  -1.343  0.00  0.00     0.087 H 
BRANCH  15  18
ATOM     18  N   LIG d   1      11.837   5.528  -2.118  0.00  0.00     0.240 N 
ATOM     19  C   LIG d   1      11.412   4.492  -3.068  0.00  0.00    -0.018 C 
ATOM     20  C   LIG d   1      12.367   4.477  -4.265  0.00  0.00     0.039 C 
ATOM     21  H   LIG d   1      11.428   3.510  -2.573  0.00  0.00     0.083 H 
ATOM     22  H   LIG d   1      10.391   4.710  -3.417  0.00  0.00     0.083 H 
ATOM     23  N   LIG d   1      13.735   4.224  -3.792  0.00  0.00    -0.295 N 
ATOM     24  H   LIG d   1      12.330   5.450  -4.778  0.00  0.00     0.048 H 
ATOM     25  H   LIG d   1      12.068   3.683  -4.965  0.00  0.00     0.048 H 
ATOM     26  C   LIG d   1      14.161   5.260  -2.842  0.00  0.00     0.039 C 
ATOM     27  C   LIG d   1      13.206   5.275  -1.646  0.00  0.00    -0.018 C 
ATOM     28  H   LIG d   1      14.144   6.243  -3.336  0.00  0.00     0.048 H 
ATOM     29  H   LIG d   1      15.181   5.043  -2.492  0.00  0.00     0.048 H 
ATOM     30  H   LIG d   1      13.504   6.070  -0.946  0.00  0.00     0.083 H 
ATOM     31  H   LIG d   1      13.243   4.303  -1.133  0.00  0.00     0.083 H 
ATOM     32  H   LIG d   1      11.832   6.494  -2.644  0.00  0.00     0.204 HD
BRANCH  23  33
ATOM     33  C   LIG d   1      14.672   4.128  -4.920  0.00  0.00    -0.012 C 
ATOM     34  H   LIG d   1      14.979   5.138  -5.229  0.00  0.00     0.039 H 
ATOM     35  H   LIG d   1      14.179   3.620  -5.762  0.00  0.00     0.039 H 
ATOM     36  H   LIG d   1      15.558   3.552  -4.612  0.00  0.00     0.039 H 
ENDBRANCH  23  33
ENDBRANCH  15  18
ENDBRANCH   4  15
BRANCH   1  37
ATOM     37  C   LIG d   1      11.120  10.948   1.296  0.00  0.00    -0.039 C 
ATOM     38  H   LIG d   1      10.599  11.655   0.633  0.00  0.00     0.028 H 
ATOM     39  H   LIG d   1      12.170  11.256   1.408  0.00  0.00     0.028 H 
ATOM     40  H   LIG d   1      10.633  10.942   2.281  0.00  0.00     0.028 H 
ENDBRANCH   1  37
BRANCH  10  41
ATOM     41  C   LIG d   1       9.918   8.995  -5.255  0.00  0.00     0.133 A 
ATOM     42  O   LIG d   1      10.102   7.661  -5.144  0.00  0.00    -0.455 OA
ATOM     43  C   LIG d   1       9.857   7.064  -6.330  0.00  0.00     0.136 A 
ATOM     44  C   LIG d   1       9.507   8.073  -7.248  0.00  0.00     0.022 A 
ATOM     45  C   LIG d   1       9.895   5.743  -6.753  0.00  0.00    -0.018 A 
ATOM     46  C   LIG d   1       9.554   9.297  -6.534  0.00  0.00    -0.009 A 
ATOM     47  C   LIG d   1       9.203   7.736  -8.572  0.00  0.00    -0.037 A 
ATOM     48  H   LIG d   1       9.343  10.279  -6.927  0.00  0.00     0.066 H 
ATOM     49  C   LIG d   1       9.249   6.428  -8.966  0.00  0.00     0.019 A 
ATOM     50  H   LIG d   1       8.934   8.506  -9.279  0.00  0.00     0.064 H 
ATOM     51  C   LIG d   1       9.592   5.431  -8.062  0.00  0.00    -0.044 A 
ATOM     52 BR   LIG d   1       8.838   5.973 -10.755  0.00  0.00    -0.050 Br
ATOM     53  H   LIG d   1       9.624   4.402  -8.388  0.00  0.00     0.063 H 
ATOM     54  H   LIG d   1      10.162   4.959  -6.059  0.00  0.00     0.066 H 
ENDBRANCH  10  41
TORSDOF 5
ENDMDL
MODEL 7
REMARK VINA RESULT:      -5.9      5.587      7.472
REMARK  5 active torsions:
REMARK  status: ('A' for Active; 'I' for Inactive)
REMARK    1  A    between atoms: C_1  and  C_2 
REMARK    2  A    between atoms: C_5  and  C_23 
REMARK    3  A    between atoms: C_11  and  C_12 
REMARK    4  A    between atoms: C_23  and  N_24 
REMARK    5  A    between atoms: N_27  and  C_30 
ROOT
ATOM      1  C   LIG d   1       4.196  -1.086  -3.091  0.00  0.00    -0.036 A 
ATOM      2  C   LIG d   1       3.956  -2.376  -3.470  0.00  0.00    -0.065 A 
ATOM      3  C   LIG d   1       4.918  -3.085  -4.185  0.00  0.00    -0.096 A 
ATOM      4  C   LIG d   1       6.129  -2.496  -4.512  0.00  0.00     0.032 A 
ATOM      5  C   LIG d   1       6.388  -1.185  -4.135  0.00  0.00     0.147 A 
ATOM      6  C   LIG d   1       5.409  -0.478  -3.418  0.00  0.00     0.071 A 
ATOM      7  C   LIG d   1       5.966   0.862  -3.165  0.00  0.00     0.232 A 
ATOM      8  O   LIG d   1       5.441   1.790  -2.572  0.00  0.00    -0.283 OA
ATOM      9  C   LIG d   1       7.297   0.832  -3.787  0.00  0.00     0.179 A 
ATOM     10  C   LIG d   1       8.196   1.855  -3.812  0.00  0.00     0.027 C 
ATOM     11  O   LIG d   1       7.467  -0.396  -4.330  0.00  0.00    -0.451 OA
ATOM     12  O   LIG d   1       4.668  -4.364  -4.562  0.00  0.00    -0.873 OA
ATOM     13  H   LIG d   1       3.017  -2.846  -3.217  0.00  0.00     0.061 H 
ATOM     14  H   LIG d   1       7.951   2.816  -3.336  0.00  0.00     0.069 H 
ENDROOT
BRANCH   4  15
ATOM     15  C   LIG d   1       7.162  -3.277  -5.282  0.00  0.00    -0.003 C 
ATOM     16  H   LIG d   1       6.877  -4.339  -5.306  0.00  0.00     0.087 H 
ATOM     17  H   LIG d   1       7.225  -2.891  -6.310  0.00  0.00     0.087 H 
BRANCH  15  18
ATOM     18  N   LIG d   1       8.470  -3.137  -4.627  0.00  0.00     0.240 N 
ATOM     19  C   LIG d   1       9.525  -2.862  -5.612  0.00  0.00    -0.018 C 
ATOM     20  C   LIG d   1      10.855  -2.645  -4.885  0.00  0.00     0.039 C 
ATOM     21  H   LIG d   1       9.618  -3.716  -6.299  0.00  0.00     0.083 H 
ATOM     22  H   LIG d   1       9.267  -1.958  -6.183  0.00  0.00     0.083 H 
ATOM     23  N   LIG d   1      11.177  -3.840  -4.092  0.00  0.00    -0.295 N 
ATOM     24  H   LIG d   1      10.771  -1.774  -4.217  0.00  0.00     0.048 H 
ATOM     25  H   LIG d   1      11.652  -2.467  -5.621  0.00  0.00     0.048 H 
ATOM     26  C   LIG d   1      10.122  -4.116  -3.107  0.00  0.00     0.039 C 
ATOM     27  C   LIG d   1       8.793  -4.333  -3.835  0.00  0.00    -0.018 C 
ATOM     28  H   LIG d   1      10.028  -3.262  -2.420  0.00  0.00     0.048 H 
ATOM     29  H   LIG d   1      10.378  -5.020  -2.536  0.00  0.00     0.048 H 
ATOM     30  H   LIG d   1       7.995  -4.510  -3.099  0.00  0.00     0.083 H 
ATOM     31  H   LIG d   1       8.876  -5.203  -4.501  0.00  0.00     0.083 H 
ATOM     32  H   LIG d   1       8.414  -2.280  -3.941  0.00  0.00     0.204 HD
BRANCH  23  33
ATOM     33  C   LIG d   1      12.485  -3.700  -3.437  0.00  0.00    -0.012 C 
ATOM     34  H   LIG d   1      13.262  -4.152  -4.071  0.00  0.00     0.039 H 
ATOM     35  H   LIG d   1      12.463  -4.211  -2.463  0.00  0.00     0.039 H 
ATOM     36  H   LIG d   1      12.707  -2.633  -3.288  0.00  0.00     0.039 H 
ENDBRANCH  23  33
ENDBRANCH  15  18
ENDBRANCH   4  15
BRANCH   1  37
ATOM     37  C   LIG d   1       3.151  -0.318  -2.321  0.00  0.00    -0.039 C 
ATOM     38  H   LIG d   1       2.160  -0.751  -2.518  0.00  0.00     0.028 H 
ATOM     39  H   LIG d   1       3.162   0.735  -2.639  0.00  0.00     0.028 H 
ATOM     40  H   LIG d   1       3.372  -0.378  -1.246  0.00  0.00     0.028 H 
ENDBRANCH   1  37
BRANCH  10  41
ATOM     41  C   LIG d   1       9.447   1.682  -4.452  0.00  0.00     0.133 A 
ATOM     42  O   LIG d   1      10.620   1.457  -3.822  0.00  0.00    -0.455 OA
ATOM     43  C   LIG d   1      11.612   1.337  -4.729  0.00  0.00     0.136 A 
ATOM     44  C   LIG d   1      11.042   1.505  -6.005  0.00  0.00     0.022 A 
ATOM     45  C   LIG d   1      12.976   1.103  -4.619  0.00  0.00    -0.018 A 
ATOM     46  C   LIG d   1       9.656   1.724  -5.799  0.00  0.00    -0.009 A 
ATOM     47  C   LIG d   1      11.851   1.435  -7.146  0.00  0.00    -0.037 A 
ATOM     48  H   LIG d   1       8.911   1.891  -6.561  0.00  0.00     0.066 H 
ATOM     49  C   LIG d   1      13.191   1.205  -7.012  0.00  0.00     0.019 A 
ATOM     50  H   LIG d   1      11.417   1.562  -8.126  0.00  0.00     0.064 H 
ATOM     51  C   LIG d   1      13.756   1.038  -5.755  0.00  0.00    -0.044 A 
ATOM     52 BR   LIG d   1      14.284   1.110  -8.553  0.00  0.00    -0.050 Br
ATOM     53  H   LIG d   1      14.817   0.856  -5.665  0.00  0.00     0.063 H 
ATOM     54  H   LIG d   1      13.427   0.972  -3.646  0.00  0.00     0.066 H 
ENDBRANCH  10  41
TORSDOF 5
ENDMDL
MODEL 8
REMARK VINA RESULT:      -5.8      3.309      6.738
REMARK  5 active torsions:
REMARK  status: ('A' for Active; 'I' for Inactive)
REMARK    1  A    between atoms: C_1  and  C_2 
REMARK    2  A    between atoms: C_5  and  C_23 
REMARK    3  A    between atoms: C_11  and  C_12 
REMARK    4  A    between atoms: C_23  and  N_24 
REMARK    5  A    between atoms: N_27  and  C_30 
ROOT
ATOM      1  C   LIG d   1       3.093   0.752  -8.919  0.00  0.00    -0.036 A 
ATOM      2  C   LIG d   1       2.912   0.578 -10.262  0.00  0.00    -0.065 A 
ATOM      3  C   LIG d   1       3.192  -0.651 -10.852  0.00  0.00    -0.096 A 
ATOM      4  C   LIG d   1       3.648  -1.712 -10.086  0.00  0.00     0.032 A 
ATOM      5  C   LIG d   1       3.838  -1.552  -8.720  0.00  0.00     0.147 A 
ATOM      6  C   LIG d   1       3.556  -0.306  -8.136  0.00  0.00     0.071 A 
ATOM      7  C   LIG d   1       3.849  -0.445  -6.699  0.00  0.00     0.232 A 
ATOM      8  O   LIG d   1       3.740   0.404  -5.830  0.00  0.00    -0.283 OA
ATOM      9  C   LIG d   1       4.303  -1.833  -6.547  0.00  0.00     0.179 A 
ATOM     10  C   LIG d   1       4.691  -2.430  -5.386  0.00  0.00     0.027 C 
ATOM     11  O   LIG d   1       4.268  -2.411  -7.771  0.00  0.00    -0.451 OA
ATOM     12  O   LIG d   1       3.015  -0.812 -12.188  0.00  0.00    -0.873 OA
ATOM     13  H   LIG d   1       2.553   1.398 -10.868  0.00  0.00     0.061 H 
ATOM     14  H   LIG d   1       4.681  -1.862  -4.444  0.00  0.00     0.069 H 
ENDROOT
BRANCH   4  15
ATOM     15  C   LIG d   1       3.943  -3.038 -10.738  0.00  0.00    -0.003 C 
ATOM     16  H   LIG d   1       3.895  -2.929 -11.831  0.00  0.00     0.087 H 
ATOM     17  H   LIG d   1       4.949  -3.375 -10.447  0.00  0.00     0.087 H 
BRANCH  15  18
ATOM     18  N   LIG d   1       2.950  -4.030 -10.301  0.00  0.00     0.240 N 
ATOM     19  C   LIG d   1       3.502  -5.390 -10.364  0.00  0.00    -0.018 C 
ATOM     20  C   LIG d   1       2.468  -6.383  -9.828  0.00  0.00     0.039 C 
ATOM     21  H   LIG d   1       3.746  -5.640 -11.407  0.00  0.00     0.083 H 
ATOM     22  H   LIG d   1       4.415  -5.444  -9.751  0.00  0.00     0.083 H 
ATOM     23  N   LIG d   1       1.237  -6.281 -10.623  0.00  0.00    -0.295 N 
ATOM     24  H   LIG d   1       2.245  -6.150  -8.775  0.00  0.00     0.048 H 
ATOM     25  H   LIG d   1       2.867  -7.405  -9.899  0.00  0.00     0.048 H 
ATOM     26  C   LIG d   1       0.685  -4.921 -10.562  0.00  0.00     0.039 C 
ATOM     27  C   LIG d   1       1.719  -3.929 -11.098  0.00  0.00    -0.018 C 
ATOM     28  H   LIG d   1       0.441  -4.669  -9.519  0.00  0.00     0.048 H 
ATOM     29  H   LIG d   1      -0.227  -4.866 -11.175  0.00  0.00     0.048 H 
ATOM     30  H   LIG d   1       1.320  -2.905 -11.026  0.00  0.00     0.083 H 
ATOM     31  H   LIG d   1       1.942  -4.161 -12.149  0.00  0.00     0.083 H 
ATOM     32  H   LIG d   1       2.696  -3.814  -9.254  0.00  0.00     0.204 HD
BRANCH  23  33
ATOM     33  C   LIG d   1       0.244  -7.273 -10.187  0.00  0.00    -0.012 C 
ATOM     34  H   LIG d   1      -0.713  -7.079 -10.693  0.00  0.00     0.039 H 
ATOM     35  H   LIG d   1       0.105  -7.197  -9.099  0.00  0.00     0.039 H 
ATOM     36  H   LIG d   1       0.598  -8.282 -10.443  0.00  0.00     0.039 H 
ENDBRANCH  23  33
ENDBRANCH  15  18
ENDBRANCH   4  15
BRANCH   1  37
ATOM     37  C   LIG d   1       2.793   2.086  -8.283  0.00  0.00    -0.039 C 
ATOM     38  H   LIG d   1       3.736   2.584  -8.014  0.00  0.00     0.028 H 
ATOM     39  H   LIG d   1       2.188   1.933  -7.378  0.00  0.00     0.028 H 
ATOM     40  H   LIG d   1       2.237   2.714  -8.994  0.00  0.00     0.028 H 
ENDBRANCH   1  37
BRANCH  10  41
ATOM     41  C   LIG d   1       5.108  -3.783  -5.390  0.00  0.00     0.133 A 
ATOM     42  O   LIG d   1       4.285  -4.852  -5.459  0.00  0.00    -0.455 OA
ATOM     43  C   LIG d   1       5.010  -5.990  -5.445  0.00  0.00     0.136 A 
ATOM     44  C   LIG d   1       6.367  -5.627  -5.352  0.00  0.00     0.022 A 
ATOM     45  C   LIG d   1       4.668  -7.335  -5.496  0.00  0.00    -0.018 A 
ATOM     46  C   LIG d   1       6.401  -4.210  -5.319  0.00  0.00    -0.009 A 
ATOM     47  C   LIG d   1       7.354  -6.620  -5.312  0.00  0.00    -0.037 A 
ATOM     48  H   LIG d   1       7.281  -3.589  -5.251  0.00  0.00     0.066 H 
ATOM     49  C   LIG d   1       6.992  -7.936  -5.363  0.00  0.00     0.019 A 
ATOM     50  H   LIG d   1       8.395  -6.345  -5.242  0.00  0.00     0.064 H 
ATOM     51  C   LIG d   1       5.655  -8.298  -5.455  0.00  0.00    -0.044 A 
ATOM     52 BR   LIG d   1       8.325  -9.277  -5.309  0.00  0.00    -0.050 Br
ATOM     53  H   LIG d   1       5.384  -9.343  -5.495  0.00  0.00     0.063 H 
ATOM     54  H   LIG d   1       3.630  -7.627  -5.568  0.00  0.00     0.066 H 
ENDBRANCH  10  41
TORSDOF 5
ENDMDL
MODEL 9
REMARK VINA RESULT:      -5.8      3.757      7.711
REMARK  5 active torsions:
REMARK  status: ('A' for Active; 'I' for Inactive)
REMARK    1  A    between atoms: C_1  and  C_2 
REMARK    2  A    between atoms: C_5  and  C_23 
REMARK    3  A    between atoms: C_11  and  C_12 
REMARK    4  A    between atoms: C_23  and  N_24 
REMARK    5  A    between atoms: N_27  and  C_30 
ROOT
ATOM      1  C   LIG d   1       2.857  -0.580  -9.644  0.00  0.00    -0.036 A 
ATOM      2  C   LIG d   1       2.741   0.437  -8.740  0.00  0.00    -0.065 A 
ATOM      3  C   LIG d   1       3.147   0.251  -7.422  0.00  0.00    -0.096 A 
ATOM      4  C   LIG d   1       3.681  -0.961  -7.014  0.00  0.00     0.032 A 
ATOM      5  C   LIG d   1       3.805  -2.005  -7.921  0.00  0.00     0.147 A 
ATOM      6  C   LIG d   1       3.388  -1.808  -9.247  0.00  0.00     0.071 A 
ATOM      7  C   LIG d   1       3.642  -3.074  -9.956  0.00  0.00     0.232 A 
ATOM      8  O   LIG d   1       3.423  -3.330 -11.128  0.00  0.00    -0.283 OA
ATOM      9  C   LIG d   1       4.219  -3.959  -8.936  0.00  0.00     0.179 A 
ATOM     10  C   LIG d   1       4.617  -5.248  -9.122  0.00  0.00     0.027 C 
ATOM     11  O   LIG d   1       4.280  -3.262  -7.777  0.00  0.00    -0.451 OA
ATOM     12  O   LIG d   1       3.023   1.266  -6.529  0.00  0.00    -0.873 OA
ATOM     13  H   LIG d   1       2.329   1.388  -9.048  0.00  0.00     0.061 H 
ATOM     14  H   LIG d   1       4.520  -5.717 -10.112  0.00  0.00     0.069 H 
ENDROOT
BRANCH   4  15
ATOM     15  C   LIG d   1       4.122  -1.147  -5.585  0.00  0.00    -0.003 C 
ATOM     16  H   LIG d   1       3.259  -1.020  -4.915  0.00  0.00     0.087 H 
ATOM     17  H   LIG d   1       4.538  -2.157  -5.457  0.00  0.00     0.087 H 
BRANCH  15  18
ATOM     18  N   LIG d   1       5.149  -0.150  -5.255  0.00  0.00     0.240 N 
ATOM     19  C   LIG d   1       6.427  -0.476  -5.902  0.00  0.00    -0.018 C 
ATOM     20  C   LIG d   1       7.445   0.626  -5.599  0.00  0.00     0.039 C 
ATOM     21  H   LIG d   1       6.799  -1.436  -5.516  0.00  0.00     0.083 H 
ATOM     22  H   LIG d   1       6.279  -0.550  -6.990  0.00  0.00     0.083 H 
ATOM     23  N   LIG d   1       7.611   0.750  -4.144  0.00  0.00    -0.295 N 
ATOM     24  H   LIG d   1       7.086   1.583  -6.009  0.00  0.00     0.048 H 
ATOM     25  H   LIG d   1       8.411   0.372  -6.058  0.00  0.00     0.048 H 
ATOM     26  C   LIG d   1       6.333   1.075  -3.496  0.00  0.00     0.039 C 
ATOM     27  C   LIG d   1       5.315  -0.027  -3.800  0.00  0.00    -0.018 C 
ATOM     28  H   LIG d   1       5.960   2.035  -3.882  0.00  0.00     0.048 H 
ATOM     29  H   LIG d   1       6.480   1.149  -2.409  0.00  0.00     0.048 H 
ATOM     30  H   LIG d   1       4.348   0.229  -3.341  0.00  0.00     0.083 H 
ATOM     31  H   LIG d   1       5.674  -0.982  -3.389  0.00  0.00     0.083 H 
ATOM     32  H   LIG d   1       4.811   0.823  -5.641  0.00  0.00     0.204 HD
BRANCH  23  33
ATOM     33  C   LIG d   1       8.638   1.747  -3.814  0.00  0.00    -0.012 C 
ATOM     34  H   LIG d   1       8.175   2.584  -3.270  0.00  0.00     0.039 H 
ATOM     35  H   LIG d   1       9.095   2.122  -4.741  0.00  0.00     0.039 H 
ATOM     36  H   LIG d   1       9.411   1.282  -3.185  0.00  0.00     0.039 H 
ENDBRANCH  23  33
ENDBRANCH  15  18
ENDBRANCH   4  15
BRANCH   1  37
ATOM     37  C   LIG d   1       2.411  -0.377 -11.070  0.00  0.00    -0.039 C 
ATOM     38  H   LIG d   1       2.852   0.550 -11.464  0.00  0.00     0.028 H 
ATOM     39  H   LIG d   1       1.314  -0.306 -11.105  0.00  0.00     0.028 H 
ATOM     40  H   LIG d   1       2.742  -1.230 -11.682  0.00  0.00     0.028 H 
ENDBRANCH   1  37
BRANCH  10  41
ATOM     41  C   LIG d   1       5.157  -5.985  -8.041  0.00  0.00     0.133 A 
ATOM     42  O   LIG d   1       6.385  -5.802  -7.507  0.00  0.00    -0.455 OA
ATOM     43  C   LIG d   1       6.578  -6.668  -6.491  0.00  0.00     0.136 A 
ATOM     44  C   LIG d   1       5.414  -7.453  -6.376  0.00  0.00     0.022 A 
ATOM     45  C   LIG d   1       7.640  -6.895  -5.626  0.00  0.00    -0.018 A 
ATOM     46  C   LIG d   1       4.523  -6.995  -7.379  0.00  0.00    -0.009 A 
ATOM     47  C   LIG d   1       5.339  -8.449  -5.396  0.00  0.00    -0.037 A 
ATOM     48  H   LIG d   1       3.532  -7.372  -7.580  0.00  0.00     0.066 H 
ATOM     49  C   LIG d   1       6.397  -8.654  -4.556  0.00  0.00     0.019 A 
ATOM     50  H   LIG d   1       4.449  -9.052  -5.304  0.00  0.00     0.064 H 
ATOM     51  C   LIG d   1       7.545  -7.882  -4.666  0.00  0.00    -0.044 A 
ATOM     52 BR   LIG d   1       6.295 -10.000  -3.231  0.00  0.00    -0.050 Br
ATOM     53  H   LIG d   1       8.374  -8.055  -3.995  0.00  0.00     0.063 H 
ATOM     54  H   LIG d   1       8.538  -6.300  -5.703  0.00  0.00     0.066 H 
ENDBRANCH  10  41
TORSDOF 5
ENDMDL
