MODEL 1
REMARK VINA RESULT:      -6.5      0.000      0.000
REMARK  8 active torsions:
REMARK  status: ('A' for Active; 'I' for Inactive)
REMARK    1  A    between atoms: C_1  and  O_2 
REMARK    2  A    between atoms: O_2  and  C_3 
REMARK    3  A    between atoms: C_6  and  C_9 
REMARK    4  A    between atoms: C_14  and  C_15 
REMARK    5  A    between atoms: C_18  and  O_22 
REMARK    6  A    between atoms: C_20  and  O_21 
REMARK    7  A    between atoms: O_22  and  C_23 
REMARK    8  A    between atoms: C_23  and  C_24 
ROOT
ATOM      1  C   LIG d   1       4.209  -4.208  -8.240  0.00  0.00     0.044 A 
ATOM      2  C   LIG d   1       5.351  -3.628  -8.788  0.00  0.00    -0.045 A 
ATOM      3  C   LIG d   1       6.451  -3.387  -7.991  0.00  0.00    -0.019 A 
ATOM      4  C   LIG d   1       6.423  -3.722  -6.643  0.00  0.00     0.124 A 
ATOM      5  C   LIG d   1       5.291  -4.301  -6.091  0.00  0.00     0.022 A 
ATOM      6  C   LIG d   1       4.180  -4.540  -6.882  0.00  0.00     0.130 A 
ATOM      7  H   LIG d   1       5.375  -3.366  -9.835  0.00  0.00     0.063 H 
ATOM      8  H   LIG d   1       7.336  -2.937  -8.417  0.00  0.00     0.065 H 
ATOM      9  H   LIG d   1       5.273  -4.560  -5.043  0.00  0.00     0.069 H 
ENDROOT
BRANCH   1  10
ATOM     10  C   LIG d   1       3.025  -4.468  -9.095  0.00  0.00     0.104 A 
ATOM     11  C   LIG d   1       2.356  -3.517  -9.906  0.00  0.00     0.027 A 
ATOM     12  C   LIG d   1       1.330  -4.160 -10.529  0.00  0.00     0.031 A 
ATOM     13  N   LIG d   1       1.345  -5.448 -10.128  0.00  0.00    -0.283 N 
ATOM     14  H   LIG d   1       0.628  -3.718 -11.221  0.00  0.00     0.083 H 
ATOM     15  H   LIG d   1       0.726  -6.139 -10.414  0.00  0.00     0.188 HD
ATOM     16  N   LIG d   1       2.406  -5.620  -9.231  0.00  0.00    -0.173 NA
BRANCH  11  17
ATOM     17  C   LIG d   1       2.712  -2.084 -10.054  0.00  0.00    -0.014 A 
ATOM     18  C   LIG d   1       2.457  -1.190  -9.015  0.00  0.00    -0.051 A 
ATOM     19  C   LIG d   1       2.788   0.141  -9.156  0.00  0.00    -0.019 A 
ATOM     20  H   LIG d   1       2.002  -1.541  -8.101  0.00  0.00     0.062 H 
ATOM     21  C   LIG d   1       3.375   0.591 -10.330  0.00  0.00     0.120 A 
ATOM     22  H   LIG d   1       2.591   0.834  -8.351  0.00  0.00     0.065 H 
ATOM     23  C   LIG d   1       3.624  -0.295 -11.369  0.00  0.00    -0.019 A 
ATOM     24  C   LIG d   1       3.300  -1.628 -11.233  0.00  0.00    -0.051 A 
ATOM     25  H   LIG d   1       4.076   0.060 -12.284  0.00  0.00     0.065 H 
ATOM     26  H   LIG d   1       3.499  -2.319 -12.039  0.00  0.00     0.062 H 
BRANCH  21  27
ATOM     27  O   LIG d   1       3.700   1.904 -10.466  0.00  0.00    -0.495 OA
BRANCH  27  28
ATOM     28  C   LIG d   1       4.158   2.583  -9.295  0.00  0.00     0.079 C 
ATOM     29  H   LIG d   1       5.022   3.199  -9.546  0.00  0.00     0.066 H 
ATOM     30  H   LIG d   1       3.362   3.216  -8.906  0.00  0.00     0.066 H 
ATOM     31  H   LIG d   1       4.442   1.851  -8.539  0.00  0.00     0.066 H 
ENDBRANCH  27  28
ENDBRANCH  21  27
ENDBRANCH  11  17
ENDBRANCH   1  10
BRANCH   6  32
ATOM     32  O   LIG d   1       3.067  -5.101  -6.341  0.00  0.00    -0.506 OA
ATOM     33  H   LIG d   1       2.842  -5.965  -6.713  0.00  0.00     0.292 HD
ENDBRANCH   6  32
BRANCH   4  34
ATOM     34  O   LIG d   1       7.510  -3.483  -5.864  0.00  0.00    -0.487 OA
BRANCH  34  35
ATOM     35  C   LIG d   1       7.812  -2.117  -5.571  0.00  0.00     0.116 C 
ATOM     36  H   LIG d   1       8.740  -2.063  -5.003  0.00  0.00     0.075 H 
ATOM     37  H   LIG d   1       7.924  -1.563  -6.503  0.00  0.00     0.075 H 
BRANCH  35  38
ATOM     38  C   LIG d   1       6.692  -1.518  -4.761  0.00  0.00     0.008 A 
ATOM     39  C   LIG d   1       5.861  -0.567  -5.327  0.00  0.00     0.049 A 
ATOM     40  C   LIG d   1       4.830  -0.019  -4.585  0.00  0.00    -0.025 A 
ATOM     41 CL   LIG d   1       6.110  -0.065  -6.971  0.00  0.00    -0.083 Cl
ATOM     42  C   LIG d   1       4.636  -0.415  -3.274  0.00  0.00     0.042 A 
ATOM     43  H   LIG d   1       4.179   0.720  -5.027  0.00  0.00     0.065 H 
ATOM     44  C   LIG d   1       5.471  -1.363  -2.707  0.00  0.00    -0.043 A 
ATOM     45 CL   LIG d   1       3.346   0.274  -2.340  0.00  0.00    -0.084 Cl
ATOM     46  C   LIG d   1       6.498  -1.913  -3.451  0.00  0.00    -0.053 A 
ATOM     47  H   LIG d   1       5.319  -1.673  -1.683  0.00  0.00     0.063 H 
ATOM     48  H   LIG d   1       7.149  -2.652  -3.008  0.00  0.00     0.062 H 
ENDBRANCH  35  38
ENDBRANCH  34  35
ENDBRANCH   4  34
TORSDOF 8
ENDMDL
MODEL 2
REMARK VINA RESULT:      -6.2      8.078     10.607
REMARK  8 active torsions:
REMARK  status: ('A' for Active; 'I' for Inactive)
REMARK    1  A    between atoms: C_1  and  O_2 
REMARK    2  A    between atoms: O_2  and  C_3 
REMARK    3  A    between atoms: C_6  and  C_9 
REMARK    4  A    between atoms: C_14  and  C_15 
REMARK    5  A    between atoms: C_18  and  O_22 
REMARK    6  A    between atoms: C_20  and  O_21 
REMARK    7  A    between atoms: O_22  and  C_23 
REMARK    8  A    between atoms: C_23  and  C_24 
ROOT
ATOM      1  C   LIG d   1       9.906   5.204  -2.852  0.00  0.00     0.044 A 
ATOM      2  C   LIG d   1       9.185   4.936  -4.014  0.00  0.00    -0.045 A 
ATOM      3  C   LIG d   1       9.148   3.654  -4.521  0.00  0.00    -0.019 A 
ATOM      4  C   LIG d   1       9.828   2.628  -3.877  0.00  0.00     0.124 A 
ATOM      5  C   LIG d   1      10.547   2.887  -2.720  0.00  0.00     0.022 A 
ATOM      6  C   LIG d   1      10.595   4.172  -2.207  0.00  0.00     0.130 A 
ATOM      7  H   LIG d   1       8.655   5.731  -4.517  0.00  0.00     0.063 H 
ATOM      8  H   LIG d   1       8.589   3.447  -5.422  0.00  0.00     0.065 H 
ATOM      9  H   LIG d   1      11.075   2.087  -2.222  0.00  0.00     0.069 H 
ENDROOT
BRANCH   1  10
ATOM     10  C   LIG d   1       9.947   6.582  -2.304  0.00  0.00     0.104 A 
ATOM     11  C   LIG d   1      10.162   7.769  -3.047  0.00  0.00     0.027 A 
ATOM     12  C   LIG d   1      10.120   8.813  -2.173  0.00  0.00     0.031 A 
ATOM     13  N   LIG d   1       9.895   8.310  -0.941  0.00  0.00    -0.283 N 
ATOM     14  H   LIG d   1      10.244   9.857  -2.421  0.00  0.00     0.083 H 
ATOM     15  H   LIG d   1       9.816   8.828  -0.123  0.00  0.00     0.188 HD
ATOM     16  N   LIG d   1       9.795   6.918  -1.043  0.00  0.00    -0.173 NA
BRANCH  11  17
ATOM     17  C   LIG d   1      10.388   7.861  -4.512  0.00  0.00    -0.014 A 
ATOM     18  C   LIG d   1      11.642   7.567  -5.044  0.00  0.00    -0.051 A 
ATOM     19  C   LIG d   1      11.848   7.653  -6.405  0.00  0.00    -0.019 A 
ATOM     20  H   LIG d   1      12.450   7.271  -4.392  0.00  0.00     0.062 H 
ATOM     21  C   LIG d   1      10.810   8.031  -7.244  0.00  0.00     0.120 A 
ATOM     22  H   LIG d   1      12.819   7.425  -6.819  0.00  0.00     0.065 H 
ATOM     23  C   LIG d   1       9.561   8.331  -6.715  0.00  0.00    -0.019 A 
ATOM     24  C   LIG d   1       9.347   8.242  -5.356  0.00  0.00    -0.051 A 
ATOM     25  H   LIG d   1       8.756   8.631  -7.370  0.00  0.00     0.065 H 
ATOM     26  H   LIG d   1       8.374   8.469  -4.945  0.00  0.00     0.062 H 
BRANCH  21  27
ATOM     27  O   LIG d   1      11.015   8.115  -8.585  0.00  0.00    -0.495 OA
BRANCH  27  28
ATOM     28  C   LIG d   1       9.889   7.872  -9.430  0.00  0.00     0.079 C 
ATOM     29  H   LIG d   1       9.699   6.800  -9.483  0.00  0.00     0.066 H 
ATOM     30  H   LIG d   1       9.013   8.376  -9.022  0.00  0.00     0.066 H 
ATOM     31  H   LIG d   1      10.095   8.254 -10.429  0.00  0.00     0.066 H 
ENDBRANCH  27  28
ENDBRANCH  21  27
ENDBRANCH  11  17
ENDBRANCH   1  10
BRANCH   6  32
ATOM     32  O   LIG d   1      11.304   4.429  -1.077  0.00  0.00    -0.506 OA
ATOM     33  H   LIG d   1      10.828   4.229  -0.260  0.00  0.00     0.292 HD
ENDBRANCH   6  32
BRANCH   4  34
ATOM     34  O   LIG d   1       9.787   1.367  -4.381  0.00  0.00    -0.487 OA
BRANCH  34  35
ATOM     35  C   LIG d   1       8.662   1.030  -5.195  0.00  0.00     0.116 C 
ATOM     36  H   LIG d   1       8.270   1.931  -5.665  0.00  0.00     0.075 H 
ATOM     37  H   LIG d   1       8.970   0.323  -5.966  0.00  0.00     0.075 H 
BRANCH  35  38
ATOM     38  C   LIG d   1       7.592   0.404  -4.338  0.00  0.00     0.008 A 
ATOM     39  C   LIG d   1       7.489  -0.974  -4.256  0.00  0.00     0.049 A 
ATOM     40  C   LIG d   1       6.510  -1.548  -3.467  0.00  0.00    -0.025 A 
ATOM     41 CL   LIG d   1       8.593  -1.981  -5.141  0.00  0.00    -0.083 Cl
ATOM     42  C   LIG d   1       5.627  -0.746  -2.767  0.00  0.00     0.042 A 
ATOM     43  H   LIG d   1       6.432  -2.623  -3.399  0.00  0.00     0.065 H 
ATOM     44  C   LIG d   1       5.728   0.632  -2.853  0.00  0.00    -0.043 A 
ATOM     45 CL   LIG d   1       4.395  -1.465  -1.780  0.00  0.00    -0.084 Cl
ATOM     46  C   LIG d   1       6.710   1.206  -3.639  0.00  0.00    -0.053 A 
ATOM     47  H   LIG d   1       5.039   1.259  -2.306  0.00  0.00     0.063 H 
ATOM     48  H   LIG d   1       6.788   2.281  -3.706  0.00  0.00     0.062 H 
ENDBRANCH  35  38
ENDBRANCH  34  35
ENDBRANCH   4  34
TORSDOF 8
ENDMDL
MODEL 3
REMARK VINA RESULT:      -6.2      6.215      8.872
REMARK  8 active torsions:
REMARK  status: ('A' for Active; 'I' for Inactive)
REMARK    1  A    between atoms: C_1  and  O_2 
REMARK    2  A    between atoms: O_2  and  C_3 
REMARK    3  A    between atoms: C_6  and  C_9 
REMARK    4  A    between atoms: C_14  and  C_15 
REMARK    5  A    between atoms: C_18  and  O_22 
REMARK    6  A    between atoms: C_20  and  O_21 
REMARK    7  A    between atoms: O_22  and  C_23 
REMARK    8  A    between atoms: C_23  and  C_24 
ROOT
ATOM      1  C   LIG d   1       9.819  -7.075  -2.817  0.00  0.00     0.044 A 
ATOM      2  C   LIG d   1       9.355  -6.647  -4.059  0.00  0.00    -0.045 A 
ATOM      3  C   LIG d   1       8.975  -5.333  -4.237  0.00  0.00    -0.019 A 
ATOM      4  C   LIG d   1       9.053  -4.435  -3.180  0.00  0.00     0.124 A 
ATOM      5  C   LIG d   1       9.514  -4.853  -1.941  0.00  0.00     0.022 A 
ATOM      6  C   LIG d   1       9.892  -6.172  -1.752  0.00  0.00     0.130 A 
ATOM      7  H   LIG d   1       9.293  -7.343  -4.883  0.00  0.00     0.063 H 
ATOM      8  H   LIG d   1       8.616  -5.001  -5.200  0.00  0.00     0.065 H 
ATOM      9  H   LIG d   1       9.574  -4.153  -1.121  0.00  0.00     0.069 H 
ENDROOT
BRANCH   1  10
ATOM     10  C   LIG d   1      10.228  -8.488  -2.624  0.00  0.00     0.104 A 
ATOM     11  C   LIG d   1       9.391  -9.624  -2.748  0.00  0.00     0.027 A 
ATOM     12  C   LIG d   1      10.153 -10.725  -2.497  0.00  0.00     0.031 A 
ATOM     13  N   LIG d   1      11.406 -10.305  -2.223  0.00  0.00    -0.283 N 
ATOM     14  H   LIG d   1       9.816 -11.751  -2.514  0.00  0.00     0.083 H 
ATOM     15  H   LIG d   1      12.161 -10.876  -2.008  0.00  0.00     0.188 HD
ATOM     16  N   LIG d   1      11.432  -8.908  -2.303  0.00  0.00    -0.173 NA
BRANCH  11  17
ATOM     17  C   LIG d   1       7.947  -9.618  -3.093  0.00  0.00    -0.014 A 
ATOM     18  C   LIG d   1       6.993  -9.865  -2.108  0.00  0.00    -0.051 A 
ATOM     19  C   LIG d   1       5.653  -9.859  -2.432  0.00  0.00    -0.019 A 
ATOM     20  H   LIG d   1       7.303 -10.060  -1.092  0.00  0.00     0.062 H 
ATOM     21  C   LIG d   1       5.253  -9.606  -3.736  0.00  0.00     0.120 A 
ATOM     22  H   LIG d   1       4.912 -10.050  -1.668  0.00  0.00     0.065 H 
ATOM     23  C   LIG d   1       6.201  -9.366  -4.721  0.00  0.00    -0.019 A 
ATOM     24  C   LIG d   1       7.543  -9.366  -4.403  0.00  0.00    -0.051 A 
ATOM     25  H   LIG d   1       5.888  -9.175  -5.737  0.00  0.00     0.065 H 
ATOM     26  H   LIG d   1       8.281  -9.174  -5.168  0.00  0.00     0.062 H 
BRANCH  21  27
ATOM     27  O   LIG d   1       3.931  -9.601  -4.053  0.00  0.00    -0.495 OA
BRANCH  27  28
ATOM     28  C   LIG d   1       3.108 -10.579  -3.414  0.00  0.00     0.079 C 
ATOM     29  H   LIG d   1       2.161 -10.662  -3.949  0.00  0.00     0.066 H 
ATOM     30  H   LIG d   1       3.615 -11.543  -3.422  0.00  0.00     0.066 H 
ATOM     31  H   LIG d   1       2.918 -10.277  -2.384  0.00  0.00     0.066 H 
ENDBRANCH  27  28
ENDBRANCH  21  27
ENDBRANCH  11  17
ENDBRANCH   1  10
BRANCH   6  32
ATOM     32  O   LIG d   1      10.338  -6.586  -0.537  0.00  0.00    -0.506 OA
ATOM     33  H   LIG d   1       9.984  -7.440  -0.258  0.00  0.00     0.292 HD
ENDBRANCH   6  32
BRANCH   4  34
ATOM     34  O   LIG d   1       8.678  -3.141  -3.361  0.00  0.00    -0.487 OA
BRANCH  34  35
ATOM     35  C   LIG d   1       7.581  -2.901  -4.245  0.00  0.00     0.116 C 
ATOM     36  H   LIG d   1       7.959  -2.566  -5.211  0.00  0.00     0.075 H 
ATOM     37  H   LIG d   1       7.013  -3.823  -4.377  0.00  0.00     0.075 H 
BRANCH  35  38
ATOM     38  C   LIG d   1       6.686  -1.840  -3.659  0.00  0.00     0.008 A 
ATOM     39  C   LIG d   1       6.999  -0.502  -3.827  0.00  0.00     0.049 A 
ATOM     40  C   LIG d   1       6.176   0.473  -3.293  0.00  0.00    -0.025 A 
ATOM     41 CL   LIG d   1       8.422  -0.048  -4.712  0.00  0.00    -0.083 Cl
ATOM     42  C   LIG d   1       5.046   0.110  -2.583  0.00  0.00     0.042 A 
ATOM     43  H   LIG d   1       6.417   1.517  -3.426  0.00  0.00     0.065 H 
ATOM     44  C   LIG d   1       4.736  -1.229  -2.412  0.00  0.00    -0.043 A 
ATOM     45 CL   LIG d   1       4.015   1.332  -1.908  0.00  0.00    -0.084 Cl
ATOM     46  C   LIG d   1       5.556  -2.202  -2.950  0.00  0.00    -0.053 A 
ATOM     47  H   LIG d   1       3.853  -1.512  -1.858  0.00  0.00     0.063 H 
ATOM     48  H   LIG d   1       5.315  -3.246  -2.816  0.00  0.00     0.062 H 
ENDBRANCH  35  38
ENDBRANCH  34  35
ENDBRANCH   4  34
TORSDOF 8
ENDMDL
MODEL 4
REMARK VINA RESULT:      -6.0      4.570      6.091
REMARK  8 active torsions:
REMARK  status: ('A' for Active; 'I' for Inactive)
REMARK    1  A    between atoms: C_1  and  O_2 
REMARK    2  A    between atoms: O_2  and  C_3 
REMARK    3  A    between atoms: C_6  and  C_9 
REMARK    4  A    between atoms: C_14  and  C_15 
REMARK    5  A    between atoms: C_18  and  O_22 
REMARK    6  A    between atoms: C_20  and  O_21 
REMARK    7  A    between atoms: O_22  and  C_23 
REMARK    8  A    between atoms: C_23  and  C_24 
ROOT
ATOM      1  C   LIG d   1       5.441  -2.430  -4.198  0.00  0.00     0.044 A 
ATOM      2  C   LIG d   1       4.830  -3.458  -4.913  0.00  0.00    -0.045 A 
ATOM      3  C   LIG d   1       5.590  -4.493  -5.417  0.00  0.00    -0.019 A 
ATOM      4  C   LIG d   1       6.964  -4.514  -5.213  0.00  0.00     0.124 A 
ATOM      5  C   LIG d   1       7.580  -3.495  -4.501  0.00  0.00     0.022 A 
ATOM      6  C   LIG d   1       6.825  -2.449  -3.997  0.00  0.00     0.130 A 
ATOM      7  H   LIG d   1       3.762  -3.445  -5.074  0.00  0.00     0.063 H 
ATOM      8  H   LIG d   1       5.116  -5.289  -5.971  0.00  0.00     0.065 H 
ATOM      9  H   LIG d   1       8.647  -3.514  -4.344  0.00  0.00     0.069 H 
ENDROOT
BRANCH   1  10
ATOM     10  C   LIG d   1       4.626  -1.316  -3.655  0.00  0.00     0.104 A 
ATOM     11  C   LIG d   1       3.983  -0.307  -4.413  0.00  0.00     0.027 A 
ATOM     12  C   LIG d   1       3.338   0.515  -3.538  0.00  0.00     0.031 A 
ATOM     13  N   LIG d   1       3.567   0.052  -2.292  0.00  0.00    -0.283 N 
ATOM     14  H   LIG d   1       2.749   1.383  -3.796  0.00  0.00     0.083 H 
ATOM     15  H   LIG d   1       3.228   0.442  -1.471  0.00  0.00     0.188 HD
ATOM     16  N   LIG d   1       4.375  -1.087  -2.385  0.00  0.00    -0.173 NA
BRANCH  11  17
ATOM     17  C   LIG d   1       4.002  -0.171  -5.891  0.00  0.00    -0.014 A 
ATOM     18  C   LIG d   1       2.811   0.011  -6.591  0.00  0.00    -0.051 A 
ATOM     19  C   LIG d   1       2.833   0.137  -7.964  0.00  0.00    -0.019 A 
ATOM     20  H   LIG d   1       1.873   0.055  -6.059  0.00  0.00     0.062 H 
ATOM     21  C   LIG d   1       4.038   0.082  -8.649  0.00  0.00     0.120 A 
ATOM     22  H   LIG d   1       1.910   0.279  -8.508  0.00  0.00     0.065 H 
ATOM     23  C   LIG d   1       5.226  -0.106  -7.955  0.00  0.00    -0.019 A 
ATOM     24  C   LIG d   1       5.212  -0.227  -6.582  0.00  0.00    -0.051 A 
ATOM     25  H   LIG d   1       6.162  -0.154  -8.492  0.00  0.00     0.065 H 
ATOM     26  H   LIG d   1       6.136  -0.368  -6.041  0.00  0.00     0.062 H 
BRANCH  21  27
ATOM     27  O   LIG d   1       4.056   0.206 -10.003  0.00  0.00    -0.495 OA
BRANCH  27  28
ATOM     28  C   LIG d   1       3.863   1.518 -10.536  0.00  0.00     0.079 C 
ATOM     29  H   LIG d   1       2.799   1.753 -10.544  0.00  0.00     0.066 H 
ATOM     30  H   LIG d   1       4.392   2.243  -9.918  0.00  0.00     0.066 H 
ATOM     31  H   LIG d   1       4.251   1.557 -11.553  0.00  0.00     0.066 H 
ENDBRANCH  27  28
ENDBRANCH  21  27
ENDBRANCH  11  17
ENDBRANCH   1  10
BRANCH   6  32
ATOM     32  O   LIG d   1       7.427  -1.447  -3.305  0.00  0.00    -0.506 OA
ATOM     33  H   LIG d   1       8.392  -1.482  -3.322  0.00  0.00     0.292 HD
ENDBRANCH   6  32
BRANCH   4  34
ATOM     34  O   LIG d   1       7.707  -5.536  -5.710  0.00  0.00    -0.487 OA
BRANCH  34  35
ATOM     35  C   LIG d   1       8.972  -5.782  -5.090  0.00  0.00     0.116 C 
ATOM     36  H   LIG d   1       9.686  -6.117  -5.842  0.00  0.00     0.075 H 
ATOM     37  H   LIG d   1       9.334  -4.863  -4.629  0.00  0.00     0.075 H 
BRANCH  35  38
ATOM     38  C   LIG d   1       8.816  -6.846  -4.036  0.00  0.00     0.008 A 
ATOM     39  C   LIG d   1       9.431  -6.697  -2.805  0.00  0.00     0.049 A 
ATOM     40  C   LIG d   1       9.284  -7.672  -1.835  0.00  0.00    -0.025 A 
ATOM     41 CL   LIG d   1      10.382  -5.282  -2.477  0.00  0.00    -0.083 Cl
ATOM     42  C   LIG d   1       8.531  -8.801  -2.099  0.00  0.00     0.042 A 
ATOM     43  H   LIG d   1       9.761  -7.554  -0.873  0.00  0.00     0.065 H 
ATOM     44  C   LIG d   1       7.919  -8.953  -3.332  0.00  0.00    -0.043 A 
ATOM     45 CL   LIG d   1       8.350 -10.028  -0.885  0.00  0.00    -0.084 Cl
ATOM     46  C   LIG d   1       8.062  -7.975  -4.299  0.00  0.00    -0.053 A 
ATOM     47  H   LIG d   1       7.330  -9.834  -3.538  0.00  0.00     0.063 H 
ATOM     48  H   LIG d   1       7.586  -8.094  -5.261  0.00  0.00     0.062 H 
ENDBRANCH  35  38
ENDBRANCH  34  35
ENDBRANCH   4  34
TORSDOF 8
ENDMDL
MODEL 5
REMARK VINA RESULT:      -6.0      3.517      7.186
REMARK  8 active torsions:
REMARK  status: ('A' for Active; 'I' for Inactive)
REMARK    1  A    between atoms: C_1  and  O_2 
REMARK    2  A    between atoms: O_2  and  C_3 
REMARK    3  A    between atoms: C_6  and  C_9 
REMARK    4  A    between atoms: C_14  and  C_15 
REMARK    5  A    between atoms: C_18  and  O_22 
REMARK    6  A    between atoms: C_20  and  O_21 
REMARK    7  A    between atoms: O_22  and  C_23 
REMARK    8  A    between atoms: C_23  and  C_24 
ROOT
ATOM      1  C   LIG d   1       8.238  -0.892  -6.947  0.00  0.00     0.044 A 
ATOM      2  C   LIG d   1       8.050   0.440  -6.582  0.00  0.00    -0.045 A 
ATOM      3  C   LIG d   1       7.368   1.295  -7.422  0.00  0.00    -0.019 A 
ATOM      4  C   LIG d   1       6.868   0.832  -8.633  0.00  0.00     0.124 A 
ATOM      5  C   LIG d   1       7.050  -0.492  -9.003  0.00  0.00     0.022 A 
ATOM      6  C   LIG d   1       7.738  -1.355  -8.168  0.00  0.00     0.130 A 
ATOM      7  H   LIG d   1       8.438   0.802  -5.642  0.00  0.00     0.063 H 
ATOM      8  H   LIG d   1       7.223   2.327  -7.139  0.00  0.00     0.065 H 
ATOM      9  H   LIG d   1       6.659  -0.848  -9.945  0.00  0.00     0.069 H 
ENDROOT
BRANCH   1  10
ATOM     10  C   LIG d   1       8.970  -1.813  -6.045  0.00  0.00     0.104 A 
ATOM     11  C   LIG d   1       8.457  -2.414  -4.869  0.00  0.00     0.027 A 
ATOM     12  C   LIG d   1       9.444  -3.190  -4.340  0.00  0.00     0.031 A 
ATOM     13  N   LIG d   1      10.527  -3.080  -5.138  0.00  0.00    -0.283 N 
ATOM     14  H   LIG d   1       9.373  -3.786  -3.442  0.00  0.00     0.083 H 
ATOM     15  H   LIG d   1      11.378  -3.526  -5.003  0.00  0.00     0.188 HD
ATOM     16  N   LIG d   1      10.214  -2.215  -6.192  0.00  0.00    -0.173 NA
BRANCH  11  17
ATOM     17  C   LIG d   1       7.091  -2.235  -4.316  0.00  0.00    -0.014 A 
ATOM     18  C   LIG d   1       6.835  -1.209  -3.408  0.00  0.00    -0.051 A 
ATOM     19  C   LIG d   1       5.565  -1.046  -2.895  0.00  0.00    -0.019 A 
ATOM     20  H   LIG d   1       7.629  -0.543  -3.107  0.00  0.00     0.062 H 
ATOM     21  C   LIG d   1       4.543  -1.901  -3.282  0.00  0.00     0.120 A 
ATOM     22  H   LIG d   1       5.365  -0.251  -2.192  0.00  0.00     0.065 H 
ATOM     23  C   LIG d   1       4.797  -2.928  -4.182  0.00  0.00    -0.019 A 
ATOM     24  C   LIG d   1       6.063  -3.093  -4.702  0.00  0.00    -0.051 A 
ATOM     25  H   LIG d   1       4.001  -3.595  -4.477  0.00  0.00     0.065 H 
ATOM     26  H   LIG d   1       6.260  -3.888  -5.406  0.00  0.00     0.062 H 
BRANCH  21  27
ATOM     27  O   LIG d   1       3.292  -1.738  -2.776  0.00  0.00    -0.495 OA
BRANCH  27  28
ATOM     28  C   LIG d   1       2.539  -0.623  -3.257  0.00  0.00     0.079 C 
ATOM     29  H   LIG d   1       3.185   0.022  -3.853  0.00  0.00     0.066 H 
ATOM     30  H   LIG d   1       1.714  -0.980  -3.874  0.00  0.00     0.066 H 
ATOM     31  H   LIG d   1       2.144  -0.060  -2.412  0.00  0.00     0.066 H 
ENDBRANCH  27  28
ENDBRANCH  21  27
ENDBRANCH  11  17
ENDBRANCH   1  10
BRANCH   6  32
ATOM     32  O   LIG d   1       7.923  -2.652  -8.532  0.00  0.00    -0.506 OA
ATOM     33  H   LIG d   1       8.816  -2.983  -8.368  0.00  0.00     0.292 HD
ENDBRANCH   6  32
BRANCH   4  34
ATOM     34  O   LIG d   1       6.196   1.679  -9.456  0.00  0.00    -0.487 OA
BRANCH  34  35
ATOM     35  C   LIG d   1       4.855   2.014  -9.090  0.00  0.00     0.116 C 
ATOM     36  H   LIG d   1       4.758   1.987  -8.005  0.00  0.00     0.075 H 
ATOM     37  H   LIG d   1       4.620   3.015  -9.452  0.00  0.00     0.075 H 
BRANCH  35  38
ATOM     38  C   LIG d   1       3.904   1.021  -9.705  0.00  0.00     0.008 A 
ATOM     39  C   LIG d   1       2.988   0.356  -8.909  0.00  0.00     0.049 A 
ATOM     40  C   LIG d   1       2.111  -0.553  -9.474  0.00  0.00    -0.025 A 
ATOM     41 CL   LIG d   1       2.935   0.667  -7.201  0.00  0.00    -0.083 Cl
ATOM     42  C   LIG d   1       2.157  -0.804 -10.833  0.00  0.00     0.042 A 
ATOM     43  H   LIG d   1       1.393  -1.068  -8.854  0.00  0.00     0.065 H 
ATOM     44  C   LIG d   1       3.078  -0.142 -11.628  0.00  0.00    -0.043 A 
ATOM     45 CL   LIG d   1       1.062  -1.948 -11.542  0.00  0.00    -0.084 Cl
ATOM     46  C   LIG d   1       3.950   0.769 -11.064  0.00  0.00    -0.053 A 
ATOM     47  H   LIG d   1       3.114  -0.338 -12.690  0.00  0.00     0.063 H 
ATOM     48  H   LIG d   1       4.667   1.285 -11.684  0.00  0.00     0.062 H 
ENDBRANCH  35  38
ENDBRANCH  34  35
ENDBRANCH   4  34
TORSDOF 8
ENDMDL
MODEL 6
REMARK VINA RESULT:      -5.9      3.640      7.809
REMARK  8 active torsions:
REMARK  status: ('A' for Active; 'I' for Inactive)
REMARK    1  A    between atoms: C_1  and  O_2 
REMARK    2  A    between atoms: O_2  and  C_3 
REMARK    3  A    between atoms: C_6  and  C_9 
REMARK    4  A    between atoms: C_14  and  C_15 
REMARK    5  A    between atoms: C_18  and  O_22 
REMARK    6  A    between atoms: C_20  and  O_21 
REMARK    7  A    between atoms: O_22  and  C_23 
REMARK    8  A    between atoms: C_23  and  C_24 
ROOT
ATOM      1  C   LIG d   1       4.582  -0.299  -5.647  0.00  0.00     0.044 A 
ATOM      2  C   LIG d   1       5.830  -0.257  -6.266  0.00  0.00    -0.045 A 
ATOM      3  C   LIG d   1       5.923   0.038  -7.609  0.00  0.00    -0.019 A 
ATOM      4  C   LIG d   1       4.775   0.295  -8.349  0.00  0.00     0.124 A 
ATOM      5  C   LIG d   1       3.530   0.255  -7.741  0.00  0.00     0.022 A 
ATOM      6  C   LIG d   1       3.427  -0.047  -6.394  0.00  0.00     0.130 A 
ATOM      7  H   LIG d   1       6.724  -0.456  -5.693  0.00  0.00     0.063 H 
ATOM      8  H   LIG d   1       6.891   0.071  -8.088  0.00  0.00     0.065 H 
ATOM      9  H   LIG d   1       2.640   0.455  -8.319  0.00  0.00     0.069 H 
ENDROOT
BRANCH   1  10
ATOM     10  C   LIG d   1       4.480  -0.617  -4.202  0.00  0.00     0.104 A 
ATOM     11  C   LIG d   1       4.948  -1.797  -3.572  0.00  0.00     0.027 A 
ATOM     12  C   LIG d   1       4.664  -1.692  -2.244  0.00  0.00     0.031 A 
ATOM     13  N   LIG d   1       4.043  -0.510  -2.046  0.00  0.00    -0.283 N 
ATOM     14  H   LIG d   1       4.894  -2.424  -1.483  0.00  0.00     0.083 H 
ATOM     15  H   LIG d   1       3.728  -0.171  -1.193  0.00  0.00     0.188 HD
ATOM     16  N   LIG d   1       3.934   0.143  -3.279  0.00  0.00    -0.173 NA
BRANCH  11  17
ATOM     17  C   LIG d   1       5.628  -2.937  -4.236  0.00  0.00    -0.014 A 
ATOM     18  C   LIG d   1       7.013  -3.067  -4.154  0.00  0.00    -0.051 A 
ATOM     19  C   LIG d   1       7.642  -4.127  -4.773  0.00  0.00    -0.019 A 
ATOM     20  H   LIG d   1       7.592  -2.338  -3.607  0.00  0.00     0.062 H 
ATOM     21  C   LIG d   1       6.898  -5.064  -5.474  0.00  0.00     0.120 A 
ATOM     22  H   LIG d   1       8.716  -4.228  -4.709  0.00  0.00     0.065 H 
ATOM     23  C   LIG d   1       5.518  -4.935  -5.562  0.00  0.00    -0.019 A 
ATOM     24  C   LIG d   1       4.882  -3.879  -4.943  0.00  0.00    -0.051 A 
ATOM     25  H   LIG d   1       4.942  -5.662  -6.114  0.00  0.00     0.065 H 
ATOM     26  H   LIG d   1       3.809  -3.781  -5.006  0.00  0.00     0.062 H 
BRANCH  21  27
ATOM     27  O   LIG d   1       7.520  -6.109  -6.083  0.00  0.00    -0.495 OA
BRANCH  27  28
ATOM     28  C   LIG d   1       8.563  -6.757  -5.351  0.00  0.00     0.079 C 
ATOM     29  H   LIG d   1       8.125  -7.463  -4.645  0.00  0.00     0.066 H 
ATOM     30  H   LIG d   1       9.215  -7.290  -6.041  0.00  0.00     0.066 H 
ATOM     31  H   LIG d   1       9.141  -6.011  -4.806  0.00  0.00     0.066 H 
ENDBRANCH  27  28
ENDBRANCH  21  27
ENDBRANCH  11  17
ENDBRANCH   1  10
BRANCH   6  32
ATOM     32  O   LIG d   1       2.207  -0.092  -5.797  0.00  0.00    -0.506 OA
ATOM     33  H   LIG d   1       2.189  -0.604  -4.978  0.00  0.00     0.292 HD
ENDBRANCH   6  32
BRANCH   4  34
ATOM     34  O   LIG d   1       4.874   0.586  -9.673  0.00  0.00    -0.487 OA
BRANCH  34  35
ATOM     35  C   LIG d   1       3.668   0.952 -10.348  0.00  0.00     0.116 C 
ATOM     36  H   LIG d   1       2.836   0.926  -9.646  0.00  0.00     0.075 H 
ATOM     37  H   LIG d   1       3.771   1.960 -10.753  0.00  0.00     0.075 H 
BRANCH  35  38
ATOM     38  C   LIG d   1       3.409  -0.017 -11.472  0.00  0.00     0.008 A 
ATOM     39  C   LIG d   1       2.260  -0.788 -11.468  0.00  0.00     0.049 A 
ATOM     40  C   LIG d   1       2.019  -1.675 -12.502  0.00  0.00    -0.025 A 
ATOM     41 CL   LIG d   1       1.118  -0.640 -10.168  0.00  0.00    -0.083 Cl
ATOM     42  C   LIG d   1       2.931  -1.798 -13.534  0.00  0.00     0.042 A 
ATOM     43  H   LIG d   1       1.121  -2.275 -12.502  0.00  0.00     0.065 H 
ATOM     44  C   LIG d   1       4.083  -1.029 -13.535  0.00  0.00    -0.043 A 
ATOM     45 CL   LIG d   1       2.633  -2.914 -14.829  0.00  0.00    -0.084 Cl
ATOM     46  C   LIG d   1       4.320  -0.139 -12.504  0.00  0.00    -0.053 A 
ATOM     47  H   LIG d   1       4.795  -1.124 -14.341  0.00  0.00     0.063 H 
ATOM     48  H   LIG d   1       5.218   0.460 -12.505  0.00  0.00     0.062 H 
ENDBRANCH  35  38
ENDBRANCH  34  35
ENDBRANCH   4  34
TORSDOF 8
ENDMDL
MODEL 7
REMARK VINA RESULT:      -5.9      3.960      7.692
REMARK  8 active torsions:
REMARK  status: ('A' for Active; 'I' for Inactive)
REMARK    1  A    between atoms: C_1  and  O_2 
REMARK    2  A    between atoms: O_2  and  C_3 
REMARK    3  A    between atoms: C_6  and  C_9 
REMARK    4  A    between atoms: C_14  and  C_15 
REMARK    5  A    between atoms: C_18  and  O_22 
REMARK    6  A    between atoms: C_20  and  O_21 
REMARK    7  A    between atoms: O_22  and  C_23 
REMARK    8  A    between atoms: C_23  and  C_24 
ROOT
ATOM      1  C   LIG d   1       3.885  -0.672  -5.622  0.00  0.00     0.044 A 
ATOM      2  C   LIG d   1       4.467  -1.371  -6.677  0.00  0.00    -0.045 A 
ATOM      3  C   LIG d   1       4.284  -0.939  -7.974  0.00  0.00    -0.019 A 
ATOM      4  C   LIG d   1       3.519   0.192  -8.232  0.00  0.00     0.124 A 
ATOM      5  C   LIG d   1       2.936   0.893  -7.188  0.00  0.00     0.022 A 
ATOM      6  C   LIG d   1       3.110   0.463  -5.883  0.00  0.00     0.130 A 
ATOM      7  H   LIG d   1       5.062  -2.250  -6.480  0.00  0.00     0.063 H 
ATOM      8  H   LIG d   1       4.736  -1.481  -8.792  0.00  0.00     0.065 H 
ATOM      9  H   LIG d   1       2.343   1.772  -7.392  0.00  0.00     0.069 H 
ENDROOT
BRANCH   1  10
ATOM     10  C   LIG d   1       4.080  -1.134  -4.227  0.00  0.00     0.104 A 
ATOM     11  C   LIG d   1       5.237  -0.930  -3.434  0.00  0.00     0.027 A 
ATOM     12  C   LIG d   1       5.008  -1.503  -2.220  0.00  0.00     0.031 A 
ATOM     13  N   LIG d   1       3.773  -2.047  -2.246  0.00  0.00    -0.283 N 
ATOM     14  H   LIG d   1       5.693  -1.521  -1.385  0.00  0.00     0.083 H 
ATOM     15  H   LIG d   1       3.347  -2.521  -1.514  0.00  0.00     0.188 HD
ATOM     16  N   LIG d   1       3.213  -1.810  -3.506  0.00  0.00    -0.173 NA
BRANCH  11  17
ATOM     17  C   LIG d   1       6.471  -0.217  -3.849  0.00  0.00    -0.014 A 
ATOM     18  C   LIG d   1       6.658   1.118  -3.495  0.00  0.00    -0.051 A 
ATOM     19  C   LIG d   1       7.806   1.777  -3.882  0.00  0.00    -0.019 A 
ATOM     20  H   LIG d   1       5.906   1.634  -2.918  0.00  0.00     0.062 H 
ATOM     21  C   LIG d   1       8.774   1.114  -4.622  0.00  0.00     0.120 A 
ATOM     22  H   LIG d   1       7.952   2.812  -3.608  0.00  0.00     0.065 H 
ATOM     23  C   LIG d   1       8.588  -0.214  -4.981  0.00  0.00    -0.019 A 
ATOM     24  C   LIG d   1       7.445  -0.881  -4.593  0.00  0.00    -0.051 A 
ATOM     25  H   LIG d   1       9.340  -0.727  -5.562  0.00  0.00     0.065 H 
ATOM     26  H   LIG d   1       7.302  -1.916  -4.868  0.00  0.00     0.062 H 
BRANCH  21  27
ATOM     27  O   LIG d   1       9.904   1.766  -5.002  0.00  0.00    -0.495 OA
BRANCH  27  28
ATOM     28  C   LIG d   1      10.777   2.210  -3.961  0.00  0.00     0.079 C 
ATOM     29  H   LIG d   1      10.208   2.785  -3.230  0.00  0.00     0.066 H 
ATOM     30  H   LIG d   1      11.228   1.347  -3.472  0.00  0.00     0.066 H 
ATOM     31  H   LIG d   1      11.560   2.837  -4.386  0.00  0.00     0.066 H 
ENDBRANCH  27  28
ENDBRANCH  21  27
ENDBRANCH  11  17
ENDBRANCH   1  10
BRANCH   6  32
ATOM     32  O   LIG d   1       2.535   1.146  -4.859  0.00  0.00    -0.506 OA
ATOM     33  H   LIG d   1       3.137   1.744  -4.398  0.00  0.00     0.292 HD
ENDBRANCH   6  32
BRANCH   4  34
ATOM     34  O   LIG d   1       3.343   0.613  -9.512  0.00  0.00    -0.487 OA
BRANCH  34  35
ATOM     35  C   LIG d   1       4.084  -0.068 -10.527  0.00  0.00     0.116 C 
ATOM     36  H   LIG d   1       4.696   0.649 -11.073  0.00  0.00     0.075 H 
ATOM     37  H   LIG d   1       4.727  -0.818 -10.066  0.00  0.00     0.075 H 
BRANCH  35  38
ATOM     38  C   LIG d   1       3.130  -0.741 -11.479  0.00  0.00     0.008 A 
ATOM     39  C   LIG d   1       3.567  -1.142 -12.729  0.00  0.00     0.049 A 
ATOM     40  C   LIG d   1       2.692  -1.764 -13.602  0.00  0.00    -0.025 A 
ATOM     41 CL   LIG d   1       5.216  -0.869 -13.201  0.00  0.00    -0.083 Cl
ATOM     42  C   LIG d   1       1.378  -1.976 -13.228  0.00  0.00     0.042 A 
ATOM     43  H   LIG d   1       3.034  -2.080 -14.576  0.00  0.00     0.065 H 
ATOM     44  C   LIG d   1       0.940  -1.571 -11.979  0.00  0.00    -0.043 A 
ATOM     45 CL   LIG d   1       0.278  -2.751 -14.324  0.00  0.00    -0.084 Cl
ATOM     46  C   LIG d   1       1.816  -0.954 -11.106  0.00  0.00    -0.053 A 
ATOM     47  H   LIG d   1      -0.087  -1.737 -11.687  0.00  0.00     0.063 H 
ATOM     48  H   LIG d   1       1.474  -0.638 -10.132  0.00  0.00     0.062 H 
ENDBRANCH  35  38
ENDBRANCH  34  35
ENDBRANCH   4  34
TORSDOF 8
ENDMDL
MODEL 8
REMARK VINA RESULT:      -5.8     11.657     14.633
REMARK  8 active torsions:
REMARK  status: ('A' for Active; 'I' for Inactive)
REMARK    1  A    between atoms: C_1  and  O_2 
REMARK    2  A    between atoms: O_2  and  C_3 
REMARK    3  A    between atoms: C_6  and  C_9 
REMARK    4  A    between atoms: C_14  and  C_15 
REMARK    5  A    between atoms: C_18  and  O_22 
REMARK    6  A    between atoms: C_20  and  O_21 
REMARK    7  A    between atoms: O_22  and  C_23 
REMARK    8  A    between atoms: C_23  and  C_24 
ROOT
ATOM      1  C   LIG d   1      10.370   8.517  -1.028  0.00  0.00     0.044 A 
ATOM      2  C   LIG d   1      11.428   9.356  -1.373  0.00  0.00    -0.045 A 
ATOM      3  C   LIG d   1      11.177  10.651  -1.775  0.00  0.00    -0.019 A 
ATOM      4  C   LIG d   1       9.871  11.123  -1.836  0.00  0.00     0.124 A 
ATOM      5  C   LIG d   1       8.813  10.294  -1.494  0.00  0.00     0.022 A 
ATOM      6  C   LIG d   1       9.056   8.991  -1.096  0.00  0.00     0.130 A 
ATOM      7  H   LIG d   1      12.443   8.993  -1.326  0.00  0.00     0.063 H 
ATOM      8  H   LIG d   1      11.997  11.301  -2.042  0.00  0.00     0.065 H 
ATOM      9  H   LIG d   1       7.800  10.664  -1.543  0.00  0.00     0.069 H 
ENDROOT
BRANCH   1  10
ATOM     10  C   LIG d   1      10.637   7.124  -0.596  0.00  0.00     0.104 A 
ATOM     11  C   LIG d   1      10.808   6.004  -1.447  0.00  0.00     0.027 A 
ATOM     12  C   LIG d   1      11.039   4.919  -0.656  0.00  0.00     0.031 A 
ATOM     13  N   LIG d   1      11.010   5.331   0.628  0.00  0.00    -0.283 N 
ATOM     14  H   LIG d   1      11.213   3.909  -0.996  0.00  0.00     0.083 H 
ATOM     15  H   LIG d   1      11.144   4.769   1.407  0.00  0.00     0.188 HD
ATOM     16  N   LIG d   1      10.754   6.707   0.646  0.00  0.00    -0.173 NA
BRANCH  11  17
ATOM     17  C   LIG d   1      10.750   6.012  -2.930  0.00  0.00    -0.014 A 
ATOM     18  C   LIG d   1       9.520   6.094  -3.581  0.00  0.00    -0.051 A 
ATOM     19  C   LIG d   1       9.471   6.100  -4.959  0.00  0.00    -0.019 A 
ATOM     20  H   LIG d   1       8.608   6.154  -3.006  0.00  0.00     0.062 H 
ATOM     21  C   LIG d   1      10.642   6.025  -5.698  0.00  0.00     0.120 A 
ATOM     22  H   LIG d   1       8.518   6.165  -5.464  0.00  0.00     0.065 H 
ATOM     23  C   LIG d   1      11.869   5.937  -5.053  0.00  0.00    -0.019 A 
ATOM     24  C   LIG d   1      11.926   5.935  -3.675  0.00  0.00    -0.051 A 
ATOM     25  H   LIG d   1      12.779   5.872  -5.631  0.00  0.00     0.065 H 
ATOM     26  H   LIG d   1      12.880   5.871  -3.173  0.00  0.00     0.062 H 
BRANCH  21  27
ATOM     27  O   LIG d   1      10.590   6.031  -7.056  0.00  0.00    -0.495 OA
BRANCH  27  28
ATOM     28  C   LIG d   1       9.908   7.125  -7.673  0.00  0.00     0.079 C 
ATOM     29  H   LIG d   1       9.043   7.401  -7.069  0.00  0.00     0.066 H 
ATOM     30  H   LIG d   1      10.583   7.977  -7.752  0.00  0.00     0.066 H 
ATOM     31  H   LIG d   1       9.577   6.831  -8.669  0.00  0.00     0.066 H 
ENDBRANCH  27  28
ENDBRANCH  21  27
ENDBRANCH  11  17
ENDBRANCH   1  10
BRANCH   6  32
ATOM     32  O   LIG d   1       8.020   8.175  -0.766  0.00  0.00    -0.506 OA
ATOM     33  H   LIG d   1       8.091   7.787   0.116  0.00  0.00     0.292 HD
ENDBRANCH   6  32
BRANCH   4  34
ATOM     34  O   LIG d   1       9.630  12.400  -2.232  0.00  0.00    -0.487 OA
BRANCH  34  35
ATOM     35  C   LIG d   1       8.605  12.595  -3.209  0.00  0.00     0.116 C 
ATOM     36  H   LIG d   1       8.033  11.675  -3.325  0.00  0.00     0.075 H 
ATOM     37  H   LIG d   1       7.941  13.396  -2.883  0.00  0.00     0.075 H 
BRANCH  35  38
ATOM     38  C   LIG d   1       9.231  12.967  -4.527  0.00  0.00     0.008 A 
ATOM     39  C   LIG d   1       9.553  11.980  -5.443  0.00  0.00     0.049 A 
ATOM     40  C   LIG d   1      10.125  12.322  -6.655  0.00  0.00    -0.025 A 
ATOM     41 CL   LIG d   1       9.235  10.314  -5.072  0.00  0.00    -0.083 Cl
ATOM     42  C   LIG d   1      10.383  13.648  -6.948  0.00  0.00     0.042 A 
ATOM     43  H   LIG d   1      10.373  11.553  -7.372  0.00  0.00     0.065 H 
ATOM     44  C   LIG d   1      10.065  14.634  -6.030  0.00  0.00    -0.043 A 
ATOM     45 CL   LIG d   1      11.105  14.078  -8.467  0.00  0.00    -0.084 Cl
ATOM     46  C   LIG d   1       9.490  14.293  -4.821  0.00  0.00    -0.053 A 
ATOM     47  H   LIG d   1      10.267  15.671  -6.259  0.00  0.00     0.063 H 
ATOM     48  H   LIG d   1       9.242  15.062  -4.104  0.00  0.00     0.062 H 
ENDBRANCH  35  38
ENDBRANCH  34  35
ENDBRANCH   4  34
TORSDOF 8
ENDMDL
MODEL 9
REMARK VINA RESULT:      -5.8     11.775     15.154
REMARK  8 active torsions:
REMARK  status: ('A' for Active; 'I' for Inactive)
REMARK    1  A    between atoms: C_1  and  O_2 
REMARK    2  A    between atoms: O_2  and  C_3 
REMARK    3  A    between atoms: C_6  and  C_9 
REMARK    4  A    between atoms: C_14  and  C_15 
REMARK    5  A    between atoms: C_18  and  O_22 
REMARK    6  A    between atoms: C_20  and  O_21 
REMARK    7  A    between atoms: O_22  and  C_23 
REMARK    8  A    between atoms: C_23  and  C_24 
ROOT
ATOM      1  C   LIG d   1      10.214  11.485  -2.917  0.00  0.00     0.044 A 
ATOM      2  C   LIG d   1      11.433  11.062  -3.444  0.00  0.00    -0.045 A 
ATOM      3  C   LIG d   1      11.480  10.484  -4.695  0.00  0.00    -0.019 A 
ATOM      4  C   LIG d   1      10.314  10.321  -5.433  0.00  0.00     0.124 A 
ATOM      5  C   LIG d   1       9.097  10.739  -4.917  0.00  0.00     0.022 A 
ATOM      6  C   LIG d   1       9.040  11.315  -3.659  0.00  0.00     0.130 A 
ATOM      7  H   LIG d   1      12.341  11.187  -2.872  0.00  0.00     0.063 H 
ATOM      8  H   LIG d   1      12.426  10.156  -5.102  0.00  0.00     0.065 H 
ATOM      9  H   LIG d   1       8.193  10.612  -5.493  0.00  0.00     0.069 H 
ENDROOT
BRANCH   1  10
ATOM     10  C   LIG d   1      10.161  12.107  -1.572  0.00  0.00     0.104 A 
ATOM     11  C   LIG d   1      10.224  11.422  -0.333  0.00  0.00     0.027 A 
ATOM     12  C   LIG d   1      10.149  12.357   0.655  0.00  0.00     0.031 A 
ATOM     13  N   LIG d   1      10.038  13.568   0.071  0.00  0.00    -0.283 N 
ATOM     14  H   LIG d   1      10.172  12.163   1.718  0.00  0.00     0.083 H 
ATOM     15  H   LIG d   1       9.968  14.417   0.536  0.00  0.00     0.188 HD
ATOM     16  N   LIG d   1      10.044  13.391  -1.317  0.00  0.00    -0.173 NA
BRANCH  11  17
ATOM     17  C   LIG d   1      10.353   9.955  -0.145  0.00  0.00    -0.014 A 
ATOM     18  C   LIG d   1       9.550   9.085  -0.880  0.00  0.00    -0.051 A 
ATOM     19  C   LIG d   1       9.672   7.723  -0.702  0.00  0.00    -0.019 A 
ATOM     20  H   LIG d   1       8.834   9.476  -1.587  0.00  0.00     0.062 H 
ATOM     21  C   LIG d   1      10.592   7.218   0.205  0.00  0.00     0.120 A 
ATOM     22  H   LIG d   1       9.050   7.047  -1.272  0.00  0.00     0.065 H 
ATOM     23  C   LIG d   1      11.389   8.084   0.943  0.00  0.00    -0.019 A 
ATOM     24  C   LIG d   1      11.276   9.447   0.767  0.00  0.00    -0.051 A 
ATOM     25  H   LIG d   1      12.101   7.689   1.653  0.00  0.00     0.065 H 
ATOM     26  H   LIG d   1      11.899  10.120   1.336  0.00  0.00     0.062 H 
BRANCH  21  27
ATOM     27  O   LIG d   1      10.711   5.875   0.378  0.00  0.00    -0.495 OA
BRANCH  27  28
ATOM     28  C   LIG d   1      11.731   5.213  -0.373  0.00  0.00     0.079 C 
ATOM     29  H   LIG d   1      12.619   5.845  -0.414  0.00  0.00     0.066 H 
ATOM     30  H   LIG d   1      11.980   4.267   0.107  0.00  0.00     0.066 H 
ATOM     31  H   LIG d   1      11.373   5.024  -1.384  0.00  0.00     0.066 H 
ENDBRANCH  27  28
ENDBRANCH  21  27
ENDBRANCH  11  17
ENDBRANCH   1  10
BRANCH   6  32
ATOM     32  O   LIG d   1       7.848  11.720  -3.148  0.00  0.00    -0.506 OA
ATOM     33  H   LIG d   1       7.404  11.053  -2.608  0.00  0.00     0.292 HD
ENDBRANCH   6  32
BRANCH   4  34
ATOM     34  O   LIG d   1      10.367   9.751  -6.665  0.00  0.00    -0.487 OA
BRANCH  34  35
ATOM     35  C   LIG d   1       9.270   8.914  -7.041  0.00  0.00     0.116 C 
ATOM     36  H   LIG d   1       8.354   9.288  -6.585  0.00  0.00     0.075 H 
ATOM     37  H   LIG d   1       9.164   8.922  -8.126  0.00  0.00     0.075 H 
BRANCH  35  38
ATOM     38  C   LIG d   1       9.528   7.507  -6.571  0.00  0.00     0.008 A 
ATOM     39  C   LIG d   1      10.085   6.580  -7.435  0.00  0.00     0.049 A 
ATOM     40  C   LIG d   1      10.325   5.288  -7.002  0.00  0.00    -0.025 A 
ATOM     41 CL   LIG d   1      10.485   7.039  -9.061  0.00  0.00    -0.083 Cl
ATOM     42  C   LIG d   1      10.001   4.921  -5.708  0.00  0.00     0.042 A 
ATOM     43  H   LIG d   1      10.763   4.565  -7.674  0.00  0.00     0.065 H 
ATOM     44  C   LIG d   1       9.440   5.848  -4.846  0.00  0.00    -0.043 A 
ATOM     45 CL   LIG d   1      10.298   3.300  -5.165  0.00  0.00    -0.084 Cl
ATOM     46  C   LIG d   1       9.204   7.139  -5.278  0.00  0.00    -0.053 A 
ATOM     47  H   LIG d   1       9.187   5.562  -3.836  0.00  0.00     0.063 H 
ATOM     48  H   LIG d   1       8.767   7.862  -4.606  0.00  0.00     0.062 H 
ENDBRANCH  35  38
ENDBRANCH  34  35
ENDBRANCH   4  34
TORSDOF 8
ENDMDL
