MODEL 1
REMARK VINA RESULT:      -5.4      0.000      0.000
REMARK  11 active torsions:
REMARK  status: ('A' for Active; 'I' for Inactive)
REMARK    1  A    between atoms: C_1  and  C_2 
REMARK    2  A    between atoms: C_2  and  C_4 
REMARK    3  A    between atoms: C_2  and  O_8 
REMARK    4  A    between atoms: C_4  and  O_6 
REMARK    5  A    between atoms: O_6  and  C_7 
REMARK    6  A    between atoms: O_8  and  C_9 
REMARK    7  A    between atoms: C_14  and  C_20 
REMARK    8  A    between atoms: C_23  and  O_28 
REMARK    9  A    between atoms: C_24  and  O_26 
REMARK   10  A    between atoms: O_26  and  C_27 
REMARK   11  A    between atoms: O_28  and  C_29 
ROOT
ATOM      1  C   LIG d   1       6.295  -1.383  -5.067  0.00  0.00     0.125 A 
ATOM      2  C   LIG d   1       7.231  -2.192  -4.426  0.00  0.00    -0.019 A 
ATOM      3  C   LIG d   1       7.156  -3.550  -4.529  0.00  0.00    -0.048 A 
ATOM      4  C   LIG d   1       6.132  -4.139  -5.285  0.00  0.00     0.018 A 
ATOM      5  C   LIG d   1       6.049  -5.551  -5.395  0.00  0.00    -0.036 A 
ATOM      6  C   LIG d   1       5.040  -6.099  -6.139  0.00  0.00     0.067 A 
ATOM      7  C   LIG d   1       4.078  -5.209  -6.796  0.00  0.00     0.345 A 
ATOM      8  O   LIG d   1       3.174  -5.680  -7.461  0.00  0.00    -0.244 OA
ATOM      9  O   LIG d   1       4.192  -3.877  -6.667  0.00  0.00    -0.422 OA
ATOM     10  C   LIG d   1       5.186  -3.327  -5.935  0.00  0.00     0.143 A 
ATOM     11  C   LIG d   1       5.279  -1.947  -5.820  0.00  0.00     0.023 A 
ATOM     12  H   LIG d   1       8.021  -1.741  -3.842  0.00  0.00     0.065 H 
ATOM     13  H   LIG d   1       7.885  -4.170  -4.029  0.00  0.00     0.063 H 
ATOM     14  H   LIG d   1       6.769  -6.184  -4.896  0.00  0.00     0.063 H 
ATOM     15  H   LIG d   1       4.558  -1.314  -6.315  0.00  0.00     0.069 H 
ENDROOT
BRANCH   6  16
ATOM     16  C   LIG d   1       4.919  -7.569  -6.278  0.00  0.00    -0.007 A 
ATOM     17  C   LIG d   1       4.783  -8.369  -5.144  0.00  0.00    -0.008 A 
ATOM     18  C   LIG d   1       4.666  -9.741  -5.279  0.00  0.00     0.162 A 
ATOM     19  H   LIG d   1       4.764  -7.918  -4.163  0.00  0.00     0.066 H 
ATOM     20  C   LIG d   1       4.697 -10.321  -6.545  0.00  0.00     0.162 A 
ATOM     21  C   LIG d   1       4.838  -9.525  -7.670  0.00  0.00    -0.016 A 
ATOM     22  C   LIG d   1       4.949  -8.156  -7.542  0.00  0.00    -0.050 A 
ATOM     23  H   LIG d   1       4.862  -9.978  -8.651  0.00  0.00     0.066 H 
ATOM     24  H   LIG d   1       5.060  -7.539  -8.422  0.00  0.00     0.062 H 
BRANCH  18  25
ATOM     25  O   LIG d   1       4.527 -10.523  -4.175  0.00  0.00    -0.491 OA
BRANCH  25  26
ATOM     26  C   LIG d   1       3.513 -10.152  -3.239  0.00  0.00     0.079 C 
ATOM     27  H   LIG d   1       2.746 -10.928  -3.209  0.00  0.00     0.066 H 
ATOM     28  H   LIG d   1       3.955 -10.038  -2.250  0.00  0.00     0.066 H 
ATOM     29  H   LIG d   1       3.062  -9.209  -3.547  0.00  0.00     0.066 H 
ENDBRANCH  25  26
ENDBRANCH  18  25
BRANCH  20  30
ATOM     30  O   LIG d   1       4.589 -11.670  -6.676  0.00  0.00    -0.491 OA
BRANCH  30  31
ATOM     31  C   LIG d   1       3.851 -12.156  -7.799  0.00  0.00     0.079 C 
ATOM     32  H   LIG d   1       3.537 -13.183  -7.609  0.00  0.00     0.066 H 
ATOM     33  H   LIG d   1       2.972 -11.531  -7.954  0.00  0.00     0.066 H 
ATOM     34  H   LIG d   1       4.481 -12.126  -8.688  0.00  0.00     0.066 H 
ENDBRANCH  30  31
ENDBRANCH  20  30
ENDBRANCH   6  16
BRANCH   1  35
ATOM     35  O   LIG d   1       6.381  -0.033  -4.956  0.00  0.00    -0.478 OA
BRANCH  35  36
ATOM     36  C   LIG d   1       6.626   0.496  -3.650  0.00  0.00     0.193 C 
ATOM     37  H   LIG d   1       7.053  -0.283  -3.017  0.00  0.00     0.085 H 
BRANCH  36  38
ATOM     38  C   LIG d   1       7.607   1.666  -3.750  0.00  0.00    -0.017 C 
ATOM     39  H   LIG d   1       7.056   2.606  -3.718  0.00  0.00     0.027 H 
ATOM     40  H   LIG d   1       8.306   1.626  -2.916  0.00  0.00     0.027 H 
ATOM     41  H   LIG d   1       8.157   1.599  -4.689  0.00  0.00     0.027 H 
ENDBRANCH  36  38
BRANCH  36  42
ATOM     42  C   LIG d   1       5.330   0.976  -3.051  0.00  0.00     0.348 C 
ATOM     43  O   LIG d   1       5.281   1.282  -1.883  0.00  0.00    -0.247 OA
BRANCH  42  44
ATOM     44  O   LIG d   1       4.229   1.065  -3.814  0.00  0.00    -0.465 OA
BRANCH  44  45
ATOM     45  C   LIG d   1       3.120   0.192  -3.475  0.00  0.00     0.082 C 
ATOM     46  H   LIG d   1       3.219  -0.138  -2.442  0.00  0.00     0.066 H 
ATOM     47  H   LIG d   1       2.182   0.735  -3.595  0.00  0.00     0.066 H 
ATOM     48  H   LIG d   1       3.124  -0.674  -4.136  0.00  0.00     0.066 H 
ENDBRANCH  44  45
ENDBRANCH  42  44
ENDBRANCH  36  42
ENDBRANCH  35  36
ENDBRANCH   1  35
TORSDOF 11
ENDMDL
MODEL 2
REMARK VINA RESULT:      -5.4      1.973      2.165
REMARK  11 active torsions:
REMARK  status: ('A' for Active; 'I' for Inactive)
REMARK    1  A    between atoms: C_1  and  C_2 
REMARK    2  A    between atoms: C_2  and  C_4 
REMARK    3  A    between atoms: C_2  and  O_8 
REMARK    4  A    between atoms: C_4  and  O_6 
REMARK    5  A    between atoms: O_6  and  C_7 
REMARK    6  A    between atoms: O_8  and  C_9 
REMARK    7  A    between atoms: C_14  and  C_20 
REMARK    8  A    between atoms: C_23  and  O_28 
REMARK    9  A    between atoms: C_24  and  O_26 
REMARK   10  A    between atoms: O_26  and  C_27 
REMARK   11  A    between atoms: O_28  and  C_29 
ROOT
ATOM      1  C   LIG d   1       5.900  -1.207  -4.045  0.00  0.00     0.125 A 
ATOM      2  C   LIG d   1       7.244  -1.569  -3.974  0.00  0.00    -0.019 A 
ATOM      3  C   LIG d   1       7.643  -2.820  -4.343  0.00  0.00    -0.048 A 
ATOM      4  C   LIG d   1       6.697  -3.751  -4.799  0.00  0.00     0.018 A 
ATOM      5  C   LIG d   1       7.106  -5.053  -5.184  0.00  0.00    -0.036 A 
ATOM      6  C   LIG d   1       6.162  -5.940  -5.624  0.00  0.00     0.067 A 
ATOM      7  C   LIG d   1       4.760  -5.516  -5.683  0.00  0.00     0.345 A 
ATOM      8  O   LIG d   1       3.908  -6.292  -6.072  0.00  0.00    -0.244 OA
ATOM      9  O   LIG d   1       4.414  -4.272  -5.309  0.00  0.00    -0.422 OA
ATOM     10  C   LIG d   1       5.340  -3.390  -4.874  0.00  0.00     0.143 A 
ATOM     11  C   LIG d   1       4.953  -2.111  -4.494  0.00  0.00     0.023 A 
ATOM     12  H   LIG d   1       7.975  -0.855  -3.622  0.00  0.00     0.065 H 
ATOM     13  H   LIG d   1       8.686  -3.093  -4.285  0.00  0.00     0.063 H 
ATOM     14  H   LIG d   1       8.146  -5.341  -5.126  0.00  0.00     0.063 H 
ATOM     15  H   LIG d   1       3.913  -1.824  -4.549  0.00  0.00     0.069 H 
ENDROOT
BRANCH   6  16
ATOM     16  C   LIG d   1       6.550  -7.310  -6.035  0.00  0.00    -0.007 A 
ATOM     17  C   LIG d   1       6.572  -8.341  -5.097  0.00  0.00    -0.008 A 
ATOM     18  C   LIG d   1       6.930  -9.619  -5.486  0.00  0.00     0.162 A 
ATOM     19  H   LIG d   1       6.306  -8.143  -4.069  0.00  0.00     0.066 H 
ATOM     20  C   LIG d   1       7.279  -9.872  -6.811  0.00  0.00     0.162 A 
ATOM     21  C   LIG d   1       7.261  -8.844  -7.741  0.00  0.00    -0.016 A 
ATOM     22  C   LIG d   1       6.900  -7.569  -7.360  0.00  0.00    -0.050 A 
ATOM     23  H   LIG d   1       7.533  -9.044  -8.768  0.00  0.00     0.066 H 
ATOM     24  H   LIG d   1       6.888  -6.771  -8.088  0.00  0.00     0.062 H 
BRANCH  18  25
ATOM     25  O   LIG d   1       6.948 -10.628  -4.574  0.00  0.00    -0.491 OA
BRANCH  25  26
ATOM     26  C   LIG d   1       6.491 -10.319  -3.255  0.00  0.00     0.079 C 
ATOM     27  H   LIG d   1       5.563  -9.749  -3.317  0.00  0.00     0.066 H 
ATOM     28  H   LIG d   1       6.314 -11.243  -2.706  0.00  0.00     0.066 H 
ATOM     29  H   LIG d   1       7.247  -9.728  -2.738  0.00  0.00     0.066 H 
ENDBRANCH  25  26
ENDBRANCH  18  25
BRANCH  20  30
ATOM     30  O   LIG d   1       7.637 -11.127  -7.191  0.00  0.00    -0.491 OA
BRANCH  30  31
ATOM     31  C   LIG d   1       7.754 -11.371  -8.594  0.00  0.00     0.079 C 
ATOM     32  H   LIG d   1       8.779 -11.180  -8.911  0.00  0.00     0.066 H 
ATOM     33  H   LIG d   1       7.497 -12.409  -8.804  0.00  0.00     0.066 H 
ATOM     34  H   LIG d   1       7.076 -10.712  -9.135  0.00  0.00     0.066 H 
ENDBRANCH  30  31
ENDBRANCH  20  30
ENDBRANCH   6  16
BRANCH   1  35
ATOM     35  O   LIG d   1       5.517   0.041  -3.673  0.00  0.00    -0.478 OA
BRANCH  35  36
ATOM     36  C   LIG d   1       4.296   0.154  -2.939  0.00  0.00     0.193 C 
ATOM     37  H   LIG d   1       3.866  -0.838  -2.794  0.00  0.00     0.085 H 
BRANCH  36  38
ATOM     38  C   LIG d   1       4.578   0.791  -1.576  0.00  0.00    -0.017 C 
ATOM     39  H   LIG d   1       4.695   1.868  -1.696  0.00  0.00     0.027 H 
ATOM     40  H   LIG d   1       3.747   0.588  -0.902  0.00  0.00     0.027 H 
ATOM     41  H   LIG d   1       5.494   0.370  -1.161  0.00  0.00     0.027 H 
ENDBRANCH  36  38
BRANCH  36  42
ATOM     42  C   LIG d   1       3.327   1.016  -3.705  0.00  0.00     0.348 C 
ATOM     43  O   LIG d   1       3.368   2.218  -3.593  0.00  0.00    -0.247 OA
BRANCH  42  44
ATOM     44  O   LIG d   1       2.417   0.448  -4.512  0.00  0.00    -0.465 OA
BRANCH  44  45
ATOM     45  C   LIG d   1       2.742   0.375  -5.925  0.00  0.00     0.082 C 
ATOM     46  H   LIG d   1       3.602  -0.281  -6.066  0.00  0.00     0.066 H 
ATOM     47  H   LIG d   1       1.888  -0.023  -6.474  0.00  0.00     0.066 H 
ATOM     48  H   LIG d   1       2.979   1.371  -6.296  0.00  0.00     0.066 H 
ENDBRANCH  44  45
ENDBRANCH  42  44
ENDBRANCH  36  42
ENDBRANCH  35  36
ENDBRANCH   1  35
TORSDOF 11
ENDMDL
MODEL 3
REMARK VINA RESULT:      -5.3      6.569      8.667
REMARK  11 active torsions:
REMARK  status: ('A' for Active; 'I' for Inactive)
REMARK    1  A    between atoms: C_1  and  C_2 
REMARK    2  A    between atoms: C_2  and  C_4 
REMARK    3  A    between atoms: C_2  and  O_8 
REMARK    4  A    between atoms: C_4  and  O_6 
REMARK    5  A    between atoms: O_6  and  C_7 
REMARK    6  A    between atoms: O_8  and  C_9 
REMARK    7  A    between atoms: C_14  and  C_20 
REMARK    8  A    between atoms: C_23  and  O_28 
REMARK    9  A    between atoms: C_24  and  O_26 
REMARK   10  A    between atoms: O_26  and  C_27 
REMARK   11  A    between atoms: O_28  and  C_29 
ROOT
ATOM      1  C   LIG d   1       3.692   0.100  -7.443  0.00  0.00     0.125 A 
ATOM      2  C   LIG d   1       3.338   1.199  -8.223  0.00  0.00    -0.019 A 
ATOM      3  C   LIG d   1       2.686   1.023  -9.408  0.00  0.00    -0.048 A 
ATOM      4  C   LIG d   1       2.367  -0.272  -9.847  0.00  0.00     0.018 A 
ATOM      5  C   LIG d   1       1.690  -0.460 -11.079  0.00  0.00    -0.036 A 
ATOM      6  C   LIG d   1       1.391  -1.733 -11.481  0.00  0.00     0.067 A 
ATOM      7  C   LIG d   1       1.783  -2.859 -10.628  0.00  0.00     0.345 A 
ATOM      8  O   LIG d   1       1.526  -3.998 -10.972  0.00  0.00    -0.244 OA
ATOM      9  O   LIG d   1       2.423  -2.637  -9.468  0.00  0.00    -0.422 OA
ATOM     10  C   LIG d   1       2.721  -1.383  -9.062  0.00  0.00     0.143 A 
ATOM     11  C   LIG d   1       3.384  -1.184  -7.858  0.00  0.00     0.023 A 
ATOM     12  H   LIG d   1       3.583   2.197  -7.889  0.00  0.00     0.065 H 
ATOM     13  H   LIG d   1       2.415   1.879 -10.008  0.00  0.00     0.063 H 
ATOM     14  H   LIG d   1       1.417   0.387 -11.690  0.00  0.00     0.063 H 
ATOM     15  H   LIG d   1       3.660  -2.031  -7.248  0.00  0.00     0.069 H 
ENDROOT
BRANCH   6  16
ATOM     16  C   LIG d   1       0.685  -1.972 -12.761  0.00  0.00    -0.007 A 
ATOM     17  C   LIG d   1      -0.702  -1.840 -12.830  0.00  0.00    -0.008 A 
ATOM     18  C   LIG d   1      -1.356  -2.059 -14.028  0.00  0.00     0.162 A 
ATOM     19  H   LIG d   1      -1.263  -1.563 -11.949  0.00  0.00     0.066 H 
ATOM     20  C   LIG d   1      -0.632  -2.422 -15.161  0.00  0.00     0.162 A 
ATOM     21  C   LIG d   1       0.746  -2.558 -15.090  0.00  0.00    -0.016 A 
ATOM     22  C   LIG d   1       1.405  -2.335 -13.899  0.00  0.00    -0.050 A 
ATOM     23  H   LIG d   1       1.305  -2.840 -15.971  0.00  0.00     0.066 H 
ATOM     24  H   LIG d   1       2.478  -2.443 -13.848  0.00  0.00     0.062 H 
BRANCH  18  25
ATOM     25  O   LIG d   1      -2.708  -1.927 -14.099  0.00  0.00    -0.491 OA
BRANCH  25  26
ATOM     26  C   LIG d   1      -3.319  -1.011 -13.187  0.00  0.00     0.079 C 
ATOM     27  H   LIG d   1      -3.179  -1.369 -12.166  0.00  0.00     0.066 H 
ATOM     28  H   LIG d   1      -2.860  -0.029 -13.295  0.00  0.00     0.066 H 
ATOM     29  H   LIG d   1      -4.385  -0.940 -13.403  0.00  0.00     0.066 H 
ENDBRANCH  25  26
ENDBRANCH  18  25
BRANCH  20  30
ATOM     30  O   LIG d   1      -1.277  -2.644 -16.337  0.00  0.00    -0.491 OA
BRANCH  30  31
ATOM     31  C   LIG d   1      -1.019  -1.727 -17.402  0.00  0.00     0.079 C 
ATOM     32  H   LIG d   1      -0.378  -2.204 -18.144  0.00  0.00     0.066 H 
ATOM     33  H   LIG d   1      -1.961  -1.437 -17.868  0.00  0.00     0.066 H 
ATOM     34  H   LIG d   1      -0.521  -0.841 -17.007  0.00  0.00     0.066 H 
ENDBRANCH  30  31
ENDBRANCH  20  30
ENDBRANCH   6  16
BRANCH   1  35
ATOM     35  O   LIG d   1       4.341   0.290  -6.266  0.00  0.00    -0.478 OA
BRANCH  35  36
ATOM     36  C   LIG d   1       4.045  -0.622  -5.206  0.00  0.00     0.193 C 
ATOM     37  H   LIG d   1       3.489  -1.472  -5.603  0.00  0.00     0.085 H 
BRANCH  36  38
ATOM     38  C   LIG d   1       5.350  -1.115  -4.577  0.00  0.00    -0.017 C 
ATOM     39  H   LIG d   1       5.168  -2.052  -4.050  0.00  0.00     0.027 H 
ATOM     40  H   LIG d   1       6.091  -1.276  -5.359  0.00  0.00     0.027 H 
ATOM     41  H   LIG d   1       5.719  -0.368  -3.875  0.00  0.00     0.027 H 
ENDBRANCH  36  38
BRANCH  36  42
ATOM     42  C   LIG d   1       3.215   0.076  -4.160  0.00  0.00     0.348 C 
ATOM     43  O   LIG d   1       2.228  -0.460  -3.715  0.00  0.00    -0.247 OA
BRANCH  42  44
ATOM     44  O   LIG d   1       3.572   1.293  -3.722  0.00  0.00    -0.465 OA
BRANCH  44  45
ATOM     45  C   LIG d   1       3.918   1.415  -2.318  0.00  0.00     0.082 C 
ATOM     46  H   LIG d   1       4.912   1.852  -2.224  0.00  0.00     0.066 H 
ATOM     47  H   LIG d   1       3.191   2.056  -1.819  0.00  0.00     0.066 H 
ATOM     48  H   LIG d   1       3.909   0.429  -1.855  0.00  0.00     0.066 H 
ENDBRANCH  44  45
ENDBRANCH  42  44
ENDBRANCH  36  42
ENDBRANCH  35  36
ENDBRANCH   1  35
TORSDOF 11
ENDMDL
MODEL 4
REMARK VINA RESULT:      -5.2     10.303     13.313
REMARK  11 active torsions:
REMARK  status: ('A' for Active; 'I' for Inactive)
REMARK    1  A    between atoms: C_1  and  C_2 
REMARK    2  A    between atoms: C_2  and  C_4 
REMARK    3  A    between atoms: C_2  and  O_8 
REMARK    4  A    between atoms: C_4  and  O_6 
REMARK    5  A    between atoms: O_6  and  C_7 
REMARK    6  A    between atoms: O_8  and  C_9 
REMARK    7  A    between atoms: C_14  and  C_20 
REMARK    8  A    between atoms: C_23  and  O_28 
REMARK    9  A    between atoms: C_24  and  O_26 
REMARK   10  A    between atoms: O_26  and  C_27 
REMARK   11  A    between atoms: O_28  and  C_29 
ROOT
ATOM      1  C   LIG d   1       9.996   6.639  -1.422  0.00  0.00     0.125 A 
ATOM      2  C   LIG d   1      10.339   5.332  -1.767  0.00  0.00    -0.019 A 
ATOM      3  C   LIG d   1      10.403   4.959  -3.077  0.00  0.00    -0.048 A 
ATOM      4  C   LIG d   1      10.121   5.892  -4.086  0.00  0.00     0.018 A 
ATOM      5  C   LIG d   1      10.185   5.508  -5.450  0.00  0.00    -0.036 A 
ATOM      6  C   LIG d   1       9.907   6.439  -6.413  0.00  0.00     0.067 A 
ATOM      7  C   LIG d   1       9.551   7.801  -6.004  0.00  0.00     0.345 A 
ATOM      8  O   LIG d   1       9.299   8.641  -6.848  0.00  0.00    -0.244 OA
ATOM      9  O   LIG d   1       9.502   8.124  -4.700  0.00  0.00    -0.422 OA
ATOM     10  C   LIG d   1       9.776   7.211  -3.743  0.00  0.00     0.143 A 
ATOM     11  C   LIG d   1       9.718   7.574  -2.404  0.00  0.00     0.023 A 
ATOM     12  H   LIG d   1      10.555   4.611  -0.992  0.00  0.00     0.065 H 
ATOM     13  H   LIG d   1      10.669   3.945  -3.336  0.00  0.00     0.063 H 
ATOM     14  H   LIG d   1      10.446   4.496  -5.724  0.00  0.00     0.063 H 
ATOM     15  H   LIG d   1       9.454   8.584  -2.129  0.00  0.00     0.069 H 
ENDROOT
BRANCH   6  16
ATOM     16  C   LIG d   1       9.962   6.077  -7.849  0.00  0.00    -0.007 A 
ATOM     17  C   LIG d   1       9.353   4.906  -8.299  0.00  0.00    -0.008 A 
ATOM     18  C   LIG d   1       9.404   4.575  -9.640  0.00  0.00     0.162 A 
ATOM     19  H   LIG d   1       8.839   4.261  -7.601  0.00  0.00     0.066 H 
ATOM     20  C   LIG d   1      10.072   5.404 -10.538  0.00  0.00     0.162 A 
ATOM     21  C   LIG d   1      10.682   6.565 -10.089  0.00  0.00    -0.016 A 
ATOM     22  C   LIG d   1      10.630   6.904  -8.752  0.00  0.00    -0.050 A 
ATOM     23  H   LIG d   1      11.200   7.206 -10.787  0.00  0.00     0.066 H 
ATOM     24  H   LIG d   1      11.107   7.809  -8.406  0.00  0.00     0.062 H 
BRANCH  18  25
ATOM     25  O   LIG d   1       8.806   3.436 -10.083  0.00  0.00    -0.491 OA
BRANCH  25  26
ATOM     26  C   LIG d   1       8.360   2.509  -9.090  0.00  0.00     0.079 C 
ATOM     27  H   LIG d   1       7.759   3.036  -8.347  0.00  0.00     0.066 H 
ATOM     28  H   LIG d   1       7.757   1.734  -9.562  0.00  0.00     0.066 H 
ATOM     29  H   LIG d   1       9.222   2.054  -8.604  0.00  0.00     0.066 H 
ENDBRANCH  25  26
ENDBRANCH  18  25
BRANCH  20  30
ATOM     30  O   LIG d   1      10.127   5.074 -11.855  0.00  0.00    -0.491 OA
BRANCH  30  31
ATOM     31  C   LIG d   1       9.306   5.829 -12.748  0.00  0.00     0.079 C 
ATOM     32  H   LIG d   1       9.338   6.882 -12.468  0.00  0.00     0.066 H 
ATOM     33  H   LIG d   1       9.675   5.713 -13.767  0.00  0.00     0.066 H 
ATOM     34  H   LIG d   1       8.279   5.469 -12.690  0.00  0.00     0.066 H 
ENDBRANCH  30  31
ENDBRANCH  20  30
ENDBRANCH   6  16
BRANCH   1  35
ATOM     35  O   LIG d   1       9.936   6.997  -0.114  0.00  0.00    -0.478 OA
BRANCH  35  36
ATOM     36  C   LIG d   1      11.177   7.101   0.588  0.00  0.00     0.193 C 
ATOM     37  H   LIG d   1      11.964   6.615   0.010  0.00  0.00     0.085 H 
BRANCH  36  38
ATOM     38  C   LIG d   1      11.529   8.578   0.785  0.00  0.00    -0.017 C 
ATOM     39  H   LIG d   1      11.567   8.803   1.851  0.00  0.00     0.027 H 
ATOM     40  H   LIG d   1      12.499   8.783   0.335  0.00  0.00     0.027 H 
ATOM     41  H   LIG d   1      10.769   9.198   0.310  0.00  0.00     0.027 H 
ENDBRANCH  36  38
BRANCH  36  42
ATOM     42  C   LIG d   1      11.053   6.430   1.931  0.00  0.00     0.348 C 
ATOM     43  O   LIG d   1      10.665   5.288   2.002  0.00  0.00    -0.247 OA
BRANCH  42  44
ATOM     44  O   LIG d   1      11.374   7.100   3.049  0.00  0.00    -0.465 OA
BRANCH  44  45
ATOM     45  C   LIG d   1      10.986   6.500   4.312  0.00  0.00     0.082 C 
ATOM     46  H   LIG d   1      10.180   7.082   4.759  0.00  0.00     0.066 H 
ATOM     47  H   LIG d   1      10.645   5.479   4.139  0.00  0.00     0.066 H 
ATOM     48  H   LIG d   1      11.842   6.487   4.986  0.00  0.00     0.066 H 
ENDBRANCH  44  45
ENDBRANCH  42  44
ENDBRANCH  36  42
ENDBRANCH  35  36
ENDBRANCH   1  35
TORSDOF 11
ENDMDL
MODEL 5
REMARK VINA RESULT:      -5.2      2.891      8.496
REMARK  11 active torsions:
REMARK  status: ('A' for Active; 'I' for Inactive)
REMARK    1  A    between atoms: C_1  and  C_2 
REMARK    2  A    between atoms: C_2  and  C_4 
REMARK    3  A    between atoms: C_2  and  O_8 
REMARK    4  A    between atoms: C_4  and  O_6 
REMARK    5  A    between atoms: O_6  and  C_7 
REMARK    6  A    between atoms: O_8  and  C_9 
REMARK    7  A    between atoms: C_14  and  C_20 
REMARK    8  A    between atoms: C_23  and  O_28 
REMARK    9  A    between atoms: C_24  and  O_26 
REMARK   10  A    between atoms: O_26  and  C_27 
REMARK   11  A    between atoms: O_28  and  C_29 
ROOT
ATOM      1  C   LIG d   1       7.564  -8.712  -4.539  0.00  0.00     0.125 A 
ATOM      2  C   LIG d   1       8.558  -7.734  -4.538  0.00  0.00    -0.019 A 
ATOM      3  C   LIG d   1       8.263  -6.450  -4.890  0.00  0.00    -0.048 A 
ATOM      4  C   LIG d   1       6.952  -6.107  -5.255  0.00  0.00     0.018 A 
ATOM      5  C   LIG d   1       6.640  -4.773  -5.623  0.00  0.00    -0.036 A 
ATOM      6  C   LIG d   1       5.353  -4.467  -5.974  0.00  0.00     0.067 A 
ATOM      7  C   LIG d   1       4.341  -5.528  -5.960  0.00  0.00     0.345 A 
ATOM      8  O   LIG d   1       3.193  -5.273  -6.271  0.00  0.00    -0.244 OA
ATOM      9  O   LIG d   1       4.679  -6.779  -5.606  0.00  0.00    -0.422 OA
ATOM     10  C   LIG d   1       5.946  -7.090  -5.257  0.00  0.00     0.143 A 
ATOM     11  C   LIG d   1       6.265  -8.392  -4.895  0.00  0.00     0.023 A 
ATOM     12  H   LIG d   1       9.568  -7.995  -4.258  0.00  0.00     0.065 H 
ATOM     13  H   LIG d   1       9.038  -5.697  -4.886  0.00  0.00     0.063 H 
ATOM     14  H   LIG d   1       7.406  -4.012  -5.628  0.00  0.00     0.063 H 
ATOM     15  H   LIG d   1       5.500  -9.154  -4.892  0.00  0.00     0.069 H 
ENDROOT
BRANCH   6  16
ATOM     16  C   LIG d   1       4.988  -3.085  -6.364  0.00  0.00    -0.007 A 
ATOM     17  C   LIG d   1       4.755  -2.121  -5.384  0.00  0.00    -0.008 A 
ATOM     18  C   LIG d   1       4.418  -0.831  -5.754  0.00  0.00     0.162 A 
ATOM     19  H   LIG d   1       4.842  -2.379  -4.339  0.00  0.00     0.066 H 
ATOM     20  C   LIG d   1       4.301  -0.501  -7.101  0.00  0.00     0.162 A 
ATOM     21  C   LIG d   1       4.527  -1.462  -8.074  0.00  0.00    -0.016 A 
ATOM     22  C   LIG d   1       4.869  -2.749  -7.712  0.00  0.00    -0.050 A 
ATOM     23  H   LIG d   1       4.435  -1.203  -9.119  0.00  0.00     0.066 H 
ATOM     24  H   LIG d   1       5.044  -3.495  -8.473  0.00  0.00     0.062 H 
BRANCH  18  25
ATOM     25  O   LIG d   1       4.196   0.113  -4.800  0.00  0.00    -0.491 OA
BRANCH  25  26
ATOM     26  C   LIG d   1       2.972   0.020  -4.067  0.00  0.00     0.079 C 
ATOM     27  H   LIG d   1       2.141  -0.097  -4.763  0.00  0.00     0.066 H 
ATOM     28  H   LIG d   1       3.013  -0.840  -3.400  0.00  0.00     0.066 H 
ATOM     29  H   LIG d   1       2.830   0.928  -3.481  0.00  0.00     0.066 H 
ENDBRANCH  25  26
ENDBRANCH  18  25
BRANCH  20  30
ATOM     30  O   LIG d   1       3.963   0.765  -7.463  0.00  0.00    -0.491 OA
BRANCH  30  31
ATOM     31  C   LIG d   1       3.014   0.907  -8.522  0.00  0.00     0.079 C 
ATOM     32  H   LIG d   1       2.017   0.673  -8.148  0.00  0.00     0.066 H 
ATOM     33  H   LIG d   1       3.032   1.931  -8.892  0.00  0.00     0.066 H 
ATOM     34  H   LIG d   1       3.268   0.222  -9.331  0.00  0.00     0.066 H 
ENDBRANCH  30  31
ENDBRANCH  20  30
ENDBRANCH   6  16
BRANCH   1  35
ATOM     35  O   LIG d   1       7.873  -9.986  -4.188  0.00  0.00    -0.478 OA
BRANCH  35  36
ATOM     36  C   LIG d   1       7.061 -10.596  -3.181  0.00  0.00     0.193 C 
ATOM     37  H   LIG d   1       6.028 -10.269  -3.300  0.00  0.00     0.085 H 
BRANCH  36  38
ATOM     38  C   LIG d   1       7.133 -12.118  -3.322  0.00  0.00    -0.017 C 
ATOM     39  H   LIG d   1       7.329 -12.565  -2.347  0.00  0.00     0.027 H 
ATOM     40  H   LIG d   1       6.185 -12.492  -3.710  0.00  0.00     0.027 H 
ATOM     41  H   LIG d   1       7.936 -12.381  -4.011  0.00  0.00     0.027 H 
ENDBRANCH  36  38
BRANCH  36  42
ATOM     42  C   LIG d   1       7.562 -10.193  -1.819  0.00  0.00     0.348 C 
ATOM     43  O   LIG d   1       6.829  -9.614  -1.053  0.00  0.00    -0.247 OA
BRANCH  42  44
ATOM     44  O   LIG d   1       8.822 -10.478  -1.456  0.00  0.00    -0.465 OA
BRANCH  44  45
ATOM     45  C   LIG d   1       9.723  -9.357  -1.263  0.00  0.00     0.082 C 
ATOM     46  H   LIG d   1      10.733  -9.647  -1.553  0.00  0.00     0.066 H 
ATOM     47  H   LIG d   1       9.396  -8.518  -1.877  0.00  0.00     0.066 H 
ATOM     48  H   LIG d   1       9.717  -9.062  -0.214  0.00  0.00     0.066 H 
ENDBRANCH  44  45
ENDBRANCH  42  44
ENDBRANCH  36  42
ENDBRANCH  35  36
ENDBRANCH   1  35
TORSDOF 11
ENDMDL
MODEL 6
REMARK VINA RESULT:      -5.2      5.485      7.835
REMARK  11 active torsions:
REMARK  status: ('A' for Active; 'I' for Inactive)
REMARK    1  A    between atoms: C_1  and  C_2 
REMARK    2  A    between atoms: C_2  and  C_4 
REMARK    3  A    between atoms: C_2  and  O_8 
REMARK    4  A    between atoms: C_4  and  O_6 
REMARK    5  A    between atoms: O_6  and  C_7 
REMARK    6  A    between atoms: O_8  and  C_9 
REMARK    7  A    between atoms: C_14  and  C_20 
REMARK    8  A    between atoms: C_23  and  O_28 
REMARK    9  A    between atoms: C_24  and  O_26 
REMARK   10  A    between atoms: O_26  and  C_27 
REMARK   11  A    between atoms: O_28  and  C_29 
ROOT
ATOM      1  C   LIG d   1       3.909  -0.534  -5.265  0.00  0.00     0.125 A 
ATOM      2  C   LIG d   1       2.941   0.319  -5.795  0.00  0.00    -0.019 A 
ATOM      3  C   LIG d   1       2.707   0.347  -7.138  0.00  0.00    -0.048 A 
ATOM      4  C   LIG d   1       3.442  -0.486  -7.995  0.00  0.00     0.018 A 
ATOM      5  C   LIG d   1       3.202  -0.460  -9.393  0.00  0.00    -0.036 A 
ATOM      6  C   LIG d   1       3.933  -1.284 -10.205  0.00  0.00     0.067 A 
ATOM      7  C   LIG d   1       4.940  -2.164  -9.604  0.00  0.00     0.345 A 
ATOM      8  O   LIG d   1       5.600  -2.902 -10.312  0.00  0.00    -0.244 OA
ATOM      9  O   LIG d   1       5.135  -2.158  -8.275  0.00  0.00    -0.422 OA
ATOM     10  C   LIG d   1       4.418  -1.349  -7.465  0.00  0.00     0.143 A 
ATOM     11  C   LIG d   1       4.642  -1.364  -6.095  0.00  0.00     0.023 A 
ATOM     12  H   LIG d   1       2.374   0.962  -5.138  0.00  0.00     0.065 H 
ATOM     13  H   LIG d   1       1.956   1.010  -7.541  0.00  0.00     0.063 H 
ATOM     14  H   LIG d   1       2.457   0.201  -9.810  0.00  0.00     0.063 H 
ATOM     15  H   LIG d   1       5.388  -2.024  -5.678  0.00  0.00     0.069 H 
ENDROOT
BRANCH   6  16
ATOM     16  C   LIG d   1       3.713  -1.286 -11.670  0.00  0.00    -0.007 A 
ATOM     17  C   LIG d   1       2.643  -1.995 -12.215  0.00  0.00    -0.008 A 
ATOM     18  C   LIG d   1       2.439  -1.990 -13.583  0.00  0.00     0.162 A 
ATOM     19  H   LIG d   1       1.972  -2.543 -11.570  0.00  0.00     0.066 H 
ATOM     20  C   LIG d   1       3.308  -1.287 -14.414  0.00  0.00     0.162 A 
ATOM     21  C   LIG d   1       4.374  -0.588 -13.872  0.00  0.00    -0.016 A 
ATOM     22  C   LIG d   1       4.580  -0.584 -12.507  0.00  0.00    -0.050 A 
ATOM     23  H   LIG d   1       5.047  -0.044 -14.519  0.00  0.00     0.066 H 
ATOM     24  H   LIG d   1       5.412  -0.039 -12.088  0.00  0.00     0.062 H 
BRANCH  18  25
ATOM     25  O   LIG d   1       1.393  -2.676 -14.117  0.00  0.00    -0.491 OA
BRANCH  25  26
ATOM     26  C   LIG d   1       0.114  -2.488 -13.507  0.00  0.00     0.079 C 
ATOM     27  H   LIG d   1      -0.154  -3.382 -12.944  0.00  0.00     0.066 H 
ATOM     28  H   LIG d   1       0.154  -1.632 -12.834  0.00  0.00     0.066 H 
ATOM     29  H   LIG d   1      -0.634  -2.307 -14.279  0.00  0.00     0.066 H 
ENDBRANCH  25  26
ENDBRANCH  18  25
BRANCH  20  30
ATOM     30  O   LIG d   1       3.110  -1.289 -15.759  0.00  0.00    -0.491 OA
BRANCH  30  31
ATOM     31  C   LIG d   1       3.633  -0.179 -16.493  0.00  0.00     0.079 C 
ATOM     32  H   LIG d   1       4.534  -0.488 -17.024  0.00  0.00     0.066 H 
ATOM     33  H   LIG d   1       2.889   0.164 -17.211  0.00  0.00     0.066 H 
ATOM     34  H   LIG d   1       3.876   0.630 -15.805  0.00  0.00     0.066 H 
ENDBRANCH  30  31
ENDBRANCH  20  30
ENDBRANCH   6  16
BRANCH   1  35
ATOM     35  O   LIG d   1       4.132  -0.551  -3.927  0.00  0.00    -0.478 OA
BRANCH  35  36
ATOM     36  C   LIG d   1       4.616   0.657  -3.334  0.00  0.00     0.193 C 
ATOM     37  H   LIG d   1       4.287   1.510  -3.928  0.00  0.00     0.085 H 
BRANCH  36  38
ATOM     38  C   LIG d   1       4.065   0.783  -1.912  0.00  0.00    -0.017 C 
ATOM     39  H   LIG d   1       4.121   1.823  -1.591  0.00  0.00     0.027 H 
ATOM     40  H   LIG d   1       3.028   0.452  -1.894  0.00  0.00     0.027 H 
ATOM     41  H   LIG d   1       4.656   0.163  -1.237  0.00  0.00     0.027 H 
ENDBRANCH  36  38
BRANCH  36  42
ATOM     42  C   LIG d   1       6.122   0.626  -3.289  0.00  0.00     0.348 C 
ATOM     43  O   LIG d   1       6.700  -0.424  -3.130  0.00  0.00    -0.247 OA
BRANCH  42  44
ATOM     44  O   LIG d   1       6.821   1.763  -3.426  0.00  0.00    -0.465 OA
BRANCH  44  45
ATOM     45  C   LIG d   1       7.950   1.737  -4.338  0.00  0.00     0.082 C 
ATOM     46  H   LIG d   1       7.766   1.005  -5.123  0.00  0.00     0.066 H 
ATOM     47  H   LIG d   1       8.078   2.724  -4.784  0.00  0.00     0.066 H 
ATOM     48  H   LIG d   1       8.853   1.467  -3.791  0.00  0.00     0.066 H 
ENDBRANCH  44  45
ENDBRANCH  42  44
ENDBRANCH  36  42
ENDBRANCH  35  36
ENDBRANCH   1  35
TORSDOF 11
ENDMDL
MODEL 7
REMARK VINA RESULT:      -5.2      7.564     15.651
REMARK  11 active torsions:
REMARK  status: ('A' for Active; 'I' for Inactive)
REMARK    1  A    between atoms: C_1  and  C_2 
REMARK    2  A    between atoms: C_2  and  C_4 
REMARK    3  A    between atoms: C_2  and  O_8 
REMARK    4  A    between atoms: C_4  and  O_6 
REMARK    5  A    between atoms: O_6  and  C_7 
REMARK    6  A    between atoms: O_8  and  C_9 
REMARK    7  A    between atoms: C_14  and  C_20 
REMARK    8  A    between atoms: C_23  and  O_28 
REMARK    9  A    between atoms: C_24  and  O_26 
REMARK   10  A    between atoms: O_26  and  C_27 
REMARK   11  A    between atoms: O_28  and  C_29 
ROOT
ATOM      1  C   LIG d   1       9.628   3.729  -4.274  0.00  0.00     0.125 A 
ATOM      2  C   LIG d   1       9.408   4.889  -5.015  0.00  0.00    -0.019 A 
ATOM      3  C   LIG d   1       9.515   6.114  -4.427  0.00  0.00    -0.048 A 
ATOM      4  C   LIG d   1       9.850   6.212  -3.067  0.00  0.00     0.018 A 
ATOM      5  C   LIG d   1       9.962   7.485  -2.450  0.00  0.00    -0.036 A 
ATOM      6  C   LIG d   1      10.290   7.550  -1.124  0.00  0.00     0.067 A 
ATOM      7  C   LIG d   1      10.513   6.304  -0.384  0.00  0.00     0.345 A 
ATOM      8  O   LIG d   1      10.805   6.344   0.797  0.00  0.00    -0.244 OA
ATOM      9  O   LIG d   1      10.397   5.119  -1.007  0.00  0.00    -0.422 OA
ATOM     10  C   LIG d   1      10.074   5.045  -2.317  0.00  0.00     0.143 A 
ATOM     11  C   LIG d   1       9.962   3.806  -2.933  0.00  0.00     0.023 A 
ATOM     12  H   LIG d   1       9.149   4.817  -6.061  0.00  0.00     0.065 H 
ATOM     13  H   LIG d   1       9.343   7.009  -5.007  0.00  0.00     0.063 H 
ATOM     14  H   LIG d   1       9.787   8.387  -3.018  0.00  0.00     0.063 H 
ATOM     15  H   LIG d   1      10.133   2.903  -2.365  0.00  0.00     0.069 H 
ENDROOT
BRANCH   6  16
ATOM     16  C   LIG d   1      10.416   8.860  -0.443  0.00  0.00    -0.007 A 
ATOM     17  C   LIG d   1      11.569   9.164   0.281  0.00  0.00    -0.008 A 
ATOM     18  C   LIG d   1      11.684  10.390   0.910  0.00  0.00     0.162 A 
ATOM     19  H   LIG d   1      12.372   8.444   0.346  0.00  0.00     0.066 H 
ATOM     20  C   LIG d   1      10.645  11.314   0.830  0.00  0.00     0.162 A 
ATOM     21  C   LIG d   1       9.498  11.009   0.115  0.00  0.00    -0.016 A 
ATOM     22  C   LIG d   1       9.379   9.789  -0.520  0.00  0.00    -0.050 A 
ATOM     23  H   LIG d   1       8.693  11.728   0.055  0.00  0.00     0.066 H 
ATOM     24  H   LIG d   1       8.483   9.555  -1.076  0.00  0.00     0.062 H 
BRANCH  18  25
ATOM     25  O   LIG d   1      12.809  10.690   1.612  0.00  0.00    -0.491 OA
BRANCH  25  26
ATOM     26  C   LIG d   1      12.910  10.160   2.936  0.00  0.00     0.079 C 
ATOM     27  H   LIG d   1      12.813   9.074   2.900  0.00  0.00     0.066 H 
ATOM     28  H   LIG d   1      13.877  10.426   3.361  0.00  0.00     0.066 H 
ATOM     29  H   LIG d   1      12.115  10.575   3.555  0.00  0.00     0.066 H 
ENDBRANCH  25  26
ENDBRANCH  18  25
BRANCH  20  30
ATOM     30  O   LIG d   1      10.756  12.516   1.455  0.00  0.00    -0.491 OA
BRANCH  30  31
ATOM     31  C   LIG d   1      10.479  13.681   0.675  0.00  0.00     0.079 C 
ATOM     32  H   LIG d   1       9.961  14.415   1.293  0.00  0.00     0.066 H 
ATOM     33  H   LIG d   1      11.414  14.107   0.314  0.00  0.00     0.066 H 
ATOM     34  H   LIG d   1       9.850  13.410  -0.172  0.00  0.00     0.066 H 
ENDBRANCH  30  31
ENDBRANCH  20  30
ENDBRANCH   6  16
BRANCH   1  35
ATOM     35  O   LIG d   1       9.518   2.516  -4.872  0.00  0.00    -0.478 OA
BRANCH  35  36
ATOM     36  C   LIG d   1       8.212   2.117  -5.295  0.00  0.00     0.193 C 
ATOM     37  H   LIG d   1       7.604   3.003  -5.483  0.00  0.00     0.085 H 
BRANCH  36  38
ATOM     38  C   LIG d   1       8.321   1.293  -6.580  0.00  0.00    -0.017 C 
ATOM     39  H   LIG d   1       7.701   0.401  -6.493  0.00  0.00     0.027 H 
ATOM     40  H   LIG d   1       7.981   1.891  -7.425  0.00  0.00     0.027 H 
ATOM     41  H   LIG d   1       9.359   1.001  -6.736  0.00  0.00     0.027 H 
ENDBRANCH  36  38
BRANCH  36  42
ATOM     42  C   LIG d   1       7.567   1.285  -4.218  0.00  0.00     0.348 C 
ATOM     43  O   LIG d   1       6.789   1.794  -3.445  0.00  0.00    -0.247 OA
BRANCH  42  44
ATOM     44  O   LIG d   1       7.855  -0.022  -4.115  0.00  0.00    -0.465 OA
BRANCH  44  45
ATOM     45  C   LIG d   1       6.893  -0.858  -3.421  0.00  0.00     0.082 C 
ATOM     46  H   LIG d   1       7.351  -1.269  -2.522  0.00  0.00     0.066 H 
ATOM     47  H   LIG d   1       6.024  -0.259  -3.145  0.00  0.00     0.066 H 
ATOM     48  H   LIG d   1       6.580  -1.671  -4.075  0.00  0.00     0.066 H 
ENDBRANCH  44  45
ENDBRANCH  42  44
ENDBRANCH  36  42
ENDBRANCH  35  36
ENDBRANCH   1  35
TORSDOF 11
ENDMDL
MODEL 8
REMARK VINA RESULT:      -5.1      5.342      7.757
REMARK  11 active torsions:
REMARK  status: ('A' for Active; 'I' for Inactive)
REMARK    1  A    between atoms: C_1  and  C_2 
REMARK    2  A    between atoms: C_2  and  C_4 
REMARK    3  A    between atoms: C_2  and  O_8 
REMARK    4  A    between atoms: C_4  and  O_6 
REMARK    5  A    between atoms: O_6  and  C_7 
REMARK    6  A    between atoms: O_8  and  C_9 
REMARK    7  A    between atoms: C_14  and  C_20 
REMARK    8  A    between atoms: C_23  and  O_28 
REMARK    9  A    between atoms: C_24  and  O_26 
REMARK   10  A    between atoms: O_26  and  C_27 
REMARK   11  A    between atoms: O_28  and  C_29 
ROOT
ATOM      1  C   LIG d   1       4.224  -0.980  -4.834  0.00  0.00     0.125 A 
ATOM      2  C   LIG d   1       4.730  -2.169  -5.358  0.00  0.00    -0.019 A 
ATOM      3  C   LIG d   1       4.627  -2.434  -6.692  0.00  0.00    -0.048 A 
ATOM      4  C   LIG d   1       4.009  -1.507  -7.545  0.00  0.00     0.018 A 
ATOM      5  C   LIG d   1       3.900  -1.778  -8.933  0.00  0.00    -0.036 A 
ATOM      6  C   LIG d   1       3.294  -0.855  -9.741  0.00  0.00     0.067 A 
ATOM      7  C   LIG d   1       2.777   0.381  -9.147  0.00  0.00     0.345 A 
ATOM      8  O   LIG d   1       2.234   1.212  -9.851  0.00  0.00    -0.244 OA
ATOM      9  O   LIG d   1       2.902   0.599  -7.827  0.00  0.00    -0.422 OA
ATOM     10  C   LIG d   1       3.499  -0.306  -7.021  0.00  0.00     0.143 A 
ATOM     11  C   LIG d   1       3.614  -0.053  -5.661  0.00  0.00     0.023 A 
ATOM     12  H   LIG d   1       5.205  -2.886  -4.704  0.00  0.00     0.065 H 
ATOM     13  H   LIG d   1       5.021  -3.357  -7.091  0.00  0.00     0.063 H 
ATOM     14  H   LIG d   1       4.285  -2.699  -9.344  0.00  0.00     0.063 H 
ATOM     15  H   LIG d   1       3.226   0.867  -5.248  0.00  0.00     0.069 H 
ENDROOT
BRANCH   6  16
ATOM     16  C   LIG d   1       3.159  -1.102 -11.196  0.00  0.00    -0.007 A 
ATOM     17  C   LIG d   1       4.165  -0.693 -12.071  0.00  0.00    -0.008 A 
ATOM     18  C   LIG d   1       4.037  -0.930 -13.427  0.00  0.00     0.162 A 
ATOM     19  H   LIG d   1       5.045  -0.196 -11.688  0.00  0.00     0.066 H 
ATOM     20  C   LIG d   1       2.899  -1.565 -13.919  0.00  0.00     0.162 A 
ATOM     21  C   LIG d   1       1.897  -1.966 -13.049  0.00  0.00    -0.016 A 
ATOM     22  C   LIG d   1       2.022  -1.737 -11.694  0.00  0.00    -0.050 A 
ATOM     23  H   LIG d   1       1.016  -2.458 -13.434  0.00  0.00     0.066 H 
ATOM     24  H   LIG d   1       1.239  -2.051 -11.020  0.00  0.00     0.062 H 
BRANCH  18  25
ATOM     25  O   LIG d   1       5.019  -0.536 -14.282  0.00  0.00    -0.491 OA
BRANCH  25  26
ATOM     26  C   LIG d   1       6.353  -0.946 -13.971  0.00  0.00     0.079 C 
ATOM     27  H   LIG d   1       6.395  -2.034 -13.914  0.00  0.00     0.066 H 
ATOM     28  H   LIG d   1       7.032  -0.595 -14.748  0.00  0.00     0.066 H 
ATOM     29  H   LIG d   1       6.649  -0.521 -13.012  0.00  0.00     0.066 H 
ENDBRANCH  25  26
ENDBRANCH  18  25
BRANCH  20  30
ATOM     30  O   LIG d   1       2.771  -1.790 -15.253  0.00  0.00    -0.491 OA
BRANCH  30  31
ATOM     31  C   LIG d   1       1.545  -2.375 -15.698  0.00  0.00     0.079 C 
ATOM     32  H   LIG d   1       0.955  -2.680 -14.834  0.00  0.00     0.066 H 
ATOM     33  H   LIG d   1       0.985  -1.645 -16.281  0.00  0.00     0.066 H 
ATOM     34  H   LIG d   1       1.761  -3.246 -16.316  0.00  0.00     0.066 H 
ENDBRANCH  30  31
ENDBRANCH  20  30
ENDBRANCH   6  16
BRANCH   1  35
ATOM     35  O   LIG d   1       4.333  -0.730  -3.505  0.00  0.00    -0.478 OA
BRANCH  35  36
ATOM     36  C   LIG d   1       4.845   0.549  -3.124  0.00  0.00     0.193 C 
ATOM     37  H   LIG d   1       4.335   1.328  -3.692  0.00  0.00     0.085 H 
BRANCH  36  38
ATOM     38  C   LIG d   1       4.609   0.769  -1.629  0.00  0.00    -0.017 C 
ATOM     39  H   LIG d   1       4.799  -0.159  -1.090  0.00  0.00     0.027 H 
ATOM     40  H   LIG d   1       5.282   1.544  -1.265  0.00  0.00     0.027 H 
ATOM     41  H   LIG d   1       3.577   1.079  -1.466  0.00  0.00     0.027 H 
ENDBRANCH  36  38
BRANCH  36  42
ATOM     42  C   LIG d   1       6.323   0.604  -3.413  0.00  0.00     0.348 C 
ATOM     43  O   LIG d   1       7.038  -0.312  -3.082  0.00  0.00    -0.247 OA
BRANCH  42  44
ATOM     44  O   LIG d   1       6.846   1.670  -4.038  0.00  0.00    -0.465 OA
BRANCH  44  45
ATOM     45  C   LIG d   1       8.242   1.969  -3.777  0.00  0.00     0.082 C 
ATOM     46  H   LIG d   1       8.379   3.049  -3.725  0.00  0.00     0.066 H 
ATOM     47  H   LIG d   1       8.539   1.520  -2.829  0.00  0.00     0.066 H 
ATOM     48  H   LIG d   1       8.857   1.563  -4.580  0.00  0.00     0.066 H 
ENDBRANCH  44  45
ENDBRANCH  42  44
ENDBRANCH  36  42
ENDBRANCH  35  36
ENDBRANCH   1  35
TORSDOF 11
ENDMDL
MODEL 9
REMARK VINA RESULT:      -5.1     11.258     14.300
REMARK  11 active torsions:
REMARK  status: ('A' for Active; 'I' for Inactive)
REMARK    1  A    between atoms: C_1  and  C_2 
REMARK    2  A    between atoms: C_2  and  C_4 
REMARK    3  A    between atoms: C_2  and  O_8 
REMARK    4  A    between atoms: C_4  and  O_6 
REMARK    5  A    between atoms: O_6  and  C_7 
REMARK    6  A    between atoms: O_8  and  C_9 
REMARK    7  A    between atoms: C_14  and  C_20 
REMARK    8  A    between atoms: C_23  and  O_28 
REMARK    9  A    between atoms: C_24  and  O_26 
REMARK   10  A    between atoms: O_26  and  C_27 
REMARK   11  A    between atoms: O_28  and  C_29 
ROOT
ATOM      1  C   LIG d   1       9.266   5.914 -10.044  0.00  0.00     0.125 A 
ATOM      2  C   LIG d   1       9.503   7.233  -9.658  0.00  0.00    -0.019 A 
ATOM      3  C   LIG d   1       9.753   7.535  -8.352  0.00  0.00    -0.048 A 
ATOM      4  C   LIG d   1       9.775   6.515  -7.389  0.00  0.00     0.018 A 
ATOM      5  C   LIG d   1      10.035   6.824  -6.029  0.00  0.00    -0.036 A 
ATOM      6  C   LIG d   1      10.050   5.810  -5.111  0.00  0.00     0.067 A 
ATOM      7  C   LIG d   1       9.797   4.438  -5.563  0.00  0.00     0.345 A 
ATOM      8  O   LIG d   1       9.806   3.524  -4.759  0.00  0.00    -0.244 OA
ATOM      9  O   LIG d   1       9.555   4.188  -6.861  0.00  0.00    -0.422 OA
ATOM     10  C   LIG d   1       9.538   5.184  -7.774  0.00  0.00     0.143 A 
ATOM     11  C   LIG d   1       9.286   4.895  -9.108  0.00  0.00     0.023 A 
ATOM     12  H   LIG d   1       9.486   8.020 -10.397  0.00  0.00     0.065 H 
ATOM     13  H   LIG d   1       9.935   8.559  -8.061  0.00  0.00     0.063 H 
ATOM     14  H   LIG d   1      10.214   7.845  -5.723  0.00  0.00     0.063 H 
ATOM     15  H   LIG d   1       9.104   3.875  -9.415  0.00  0.00     0.069 H 
ENDROOT
BRANCH   6  16
ATOM     16  C   LIG d   1      10.317   6.092  -3.681  0.00  0.00    -0.007 A 
ATOM     17  C   LIG d   1       9.376   6.780  -2.917  0.00  0.00    -0.008 A 
ATOM     18  C   LIG d   1       9.628   7.037  -1.581  0.00  0.00     0.162 A 
ATOM     19  H   LIG d   1       8.450   7.108  -3.366  0.00  0.00     0.066 H 
ATOM     20  C   LIG d   1      10.825   6.619  -1.006  0.00  0.00     0.162 A 
ATOM     21  C   LIG d   1      11.763   5.940  -1.768  0.00  0.00    -0.016 A 
ATOM     22  C   LIG d   1      11.514   5.676  -3.099  0.00  0.00    -0.050 A 
ATOM     23  H   LIG d   1      12.691   5.617  -1.318  0.00  0.00     0.066 H 
ATOM     24  H   LIG d   1      12.248   5.147  -3.690  0.00  0.00     0.062 H 
BRANCH  18  25
ATOM     25  O   LIG d   1       8.709   7.704  -0.832  0.00  0.00    -0.491 OA
BRANCH  25  26
ATOM     26  C   LIG d   1       8.742   9.132  -0.882  0.00  0.00     0.079 C 
ATOM     27  H   LIG d   1       9.416   9.451  -1.679  0.00  0.00     0.066 H 
ATOM     28  H   LIG d   1       7.740   9.512  -1.079  0.00  0.00     0.066 H 
ATOM     29  H   LIG d   1       9.098   9.521   0.071  0.00  0.00     0.066 H 
ENDBRANCH  25  26
ENDBRANCH  18  25
BRANCH  20  30
ATOM     30  O   LIG d   1      11.075   6.879   0.305  0.00  0.00    -0.491 OA
BRANCH  30  31
ATOM     31  C   LIG d   1      11.101   5.760   1.194  0.00  0.00     0.079 C 
ATOM     32  H   LIG d   1      11.454   4.879   0.658  0.00  0.00     0.066 H 
ATOM     33  H   LIG d   1      11.773   5.972   2.025  0.00  0.00     0.066 H 
ATOM     34  H   LIG d   1      10.097   5.576   1.576  0.00  0.00     0.066 H 
ENDBRANCH  30  31
ENDBRANCH  20  30
ENDBRANCH   6  16
BRANCH   1  35
ATOM     35  O   LIG d   1       9.017   5.628 -11.347  0.00  0.00    -0.478 OA
BRANCH  35  36
ATOM     36  C   LIG d   1       9.938   6.143 -12.313  0.00  0.00     0.193 C 
ATOM     37  H   LIG d   1      10.344   7.091 -11.957  0.00  0.00     0.085 H 
BRANCH  36  38
ATOM     38  C   LIG d   1      11.078   5.143 -12.514  0.00  0.00    -0.017 C 
ATOM     39  H   LIG d   1      11.131   4.860 -13.566  0.00  0.00     0.027 H 
ATOM     40  H   LIG d   1      12.020   5.601 -12.213  0.00  0.00     0.027 H 
ATOM     41  H   LIG d   1      10.895   4.257 -11.908  0.00  0.00     0.027 H 
ENDBRANCH  36  38
BRANCH  36  42
ATOM     42  C   LIG d   1       9.223   6.362 -13.621  0.00  0.00     0.348 C 
ATOM     43  O   LIG d   1       9.575   7.251 -14.360  0.00  0.00    -0.247 OA
BRANCH  42  44
ATOM     44  O   LIG d   1       8.197   5.570 -13.966  0.00  0.00    -0.465 OA
BRANCH  44  45
ATOM     45  C   LIG d   1       8.090   5.199 -15.366  0.00  0.00     0.082 C 
ATOM     46  H   LIG d   1       7.520   4.275 -15.455  0.00  0.00     0.066 H 
ATOM     47  H   LIG d   1       7.582   5.993 -15.914  0.00  0.00     0.066 H 
ATOM     48  H   LIG d   1       9.087   5.053 -15.780  0.00  0.00     0.066 H 
ENDBRANCH  44  45
ENDBRANCH  42  44
ENDBRANCH  36  42
ENDBRANCH  35  36
ENDBRANCH   1  35
TORSDOF 11
ENDMDL
