MODEL 1
REMARK VINA RESULT:      -7.2      0.000      0.000
REMARK  7 active torsions:
REMARK  status: ('A' for Active; 'I' for Inactive)
REMARK    1  A    between atoms: C_1  and  C_2 
REMARK    2  A    between atoms: C_7  and  C_34 
REMARK    3  A    between atoms: C_12  and  C_32 
REMARK    4  A    between atoms: C_12  and  C_33 
REMARK    5  A    between atoms: C_14  and  O_31 
REMARK    6  A    between atoms: C_17  and  C_30 
REMARK    7  A    between atoms: C_23  and  C_25 
ROOT
ATOM      1  C   LIG d   1       4.056  -0.719  -5.748  0.00  0.00     0.007 C 
ATOM      2  C   LIG d   1       4.372  -2.095  -6.025  0.00  0.00    -0.044 C 
ATOM      3  C   LIG d   1       4.668  -2.865  -4.780  0.00  0.00    -0.048 C 
ATOM      4  C   LIG d   1       5.666  -2.142  -3.868  0.00  0.00    -0.013 C 
ATOM      5  H   LIG d   1       5.768  -2.891  -2.976  0.00  0.00     0.032 H 
ATOM      6  C   LIG d   1       7.002  -2.102  -4.462  0.00  0.00     0.016 C 
ATOM      7  C   LIG d   1       7.217  -3.019  -5.604  0.00  0.00    -0.070 C 
ATOM      8  C   LIG d   1       7.917  -2.752  -6.699  0.00  0.00    -0.021 C 
ATOM      9  C   LIG d   1       8.590  -1.494  -6.851  0.00  0.00     0.166 C 
ATOM     10  O   LIG d   1       8.982  -1.108  -7.900  0.00  0.00    -0.292 OA
ATOM     11  C   LIG d   1       8.870  -0.555  -5.598  0.00  0.00     0.053 C 
ATOM     12  C   LIG d   1       7.668  -0.737  -4.664  0.00  0.00    -0.002 C 
ATOM     13  C   LIG d   1       7.264   0.279  -3.942  0.00  0.00     0.161 C 
ATOM     14  C   LIG d   1       6.085   0.215  -3.090  0.00  0.00     0.206 C 
ATOM     15  O   LIG d   1       5.793   1.053  -2.225  0.00  0.00    -0.288 OA
ATOM     16  C   LIG d   1       5.050  -0.946  -3.344  0.00  0.00     0.070 C 
ATOM     17  C   LIG d   1       3.865  -0.527  -4.208  0.00  0.00     0.115 A 
ATOM     18  C   LIG d   1       2.925   0.653  -3.992  0.00  0.00     0.090 A 
ATOM     19  H   LIG d   1       3.007   1.396  -3.224  0.00  0.00     0.063 H 
ATOM     20  O   LIG d   1       2.598  -0.653  -3.645  0.00  0.00    -0.363 OA
ATOM     21  C   LIG d   1       2.418   1.028  -5.449  0.00  0.00    -0.016 C 
ATOM     22  C   LIG d   1       2.746  -0.221  -6.305  0.00  0.00    -0.002 C 
ATOM     23  H   LIG d   1       1.995  -0.951  -6.111  0.00  0.00     0.036 H 
ATOM     24  H   LIG d   1       3.458  -2.592  -6.569  0.00  0.00     0.027 H 
ATOM     25  H   LIG d   1       5.184  -2.173  -6.720  0.00  0.00     0.027 H 
ATOM     26  H   LIG d   1       3.715  -3.072  -4.284  0.00  0.00     0.027 H 
ATOM     27  H   LIG d   1       5.070  -3.825  -5.025  0.00  0.00     0.027 H 
ATOM     28  H   LIG d   1       6.777  -4.023  -5.548  0.00  0.00     0.058 H 
ATOM     29  H   LIG d   1       8.042  -3.517  -7.480  0.00  0.00     0.065 H 
ATOM     30  H   LIG d   1       1.432   1.307  -5.404  0.00  0.00     0.030 H 
ATOM     31  H   LIG d   1       3.030   1.935  -5.751  0.00  0.00     0.030 H 
ENDROOT
BRANCH  22  32
ATOM     32  C   LIG d   1       2.794   0.140  -7.767  0.00  0.00    -0.006 A 
ATOM     33  C   LIG d   1       2.723  -0.710  -8.806  0.00  0.00     0.095 A 
ATOM     34  O   LIG d   1       2.799   0.001  -9.943  0.00  0.00    -0.471 OA
ATOM     35  H   LIG d   1       2.620  -1.783  -8.738  0.00  0.00     0.103 H 
ATOM     36  C   LIG d   1       2.928   1.305  -9.647  0.00  0.00     0.092 A 
ATOM     37  C   LIG d   1       2.930   1.440  -8.309  0.00  0.00    -0.021 A 
ATOM     38  H   LIG d   1       3.015   2.110 -10.363  0.00  0.00     0.103 H 
ATOM     39  H   LIG d   1       3.017   2.362  -7.754  0.00  0.00     0.065 H 
ENDBRANCH  22  32
BRANCH   1  40
ATOM     40  C   LIG d   1       5.158   0.202  -6.280  0.00  0.00    -0.056 C 
ATOM     41  H   LIG d   1       6.067   0.054  -5.697  0.00  0.00     0.024 H 
ATOM     42  H   LIG d   1       5.354  -0.031  -7.326  0.00  0.00     0.024 H 
ATOM     43  H   LIG d   1       4.836   1.240  -6.193  0.00  0.00     0.024 H 
ENDBRANCH   1  40
BRANCH  16  44
ATOM     44  C   LIG d   1       4.495  -1.193  -1.937  0.00  0.00    -0.049 C 
ATOM     45  H   LIG d   1       3.471  -0.825  -1.881  0.00  0.00     0.024 H 
ATOM     46  H   LIG d   1       4.511  -2.262  -1.722  0.00  0.00     0.024 H 
ATOM     47  H   LIG d   1       5.110  -0.668  -1.207  0.00  0.00     0.024 H 
ENDBRANCH  16  44
BRANCH   6  48
ATOM     48  C   LIG d   1       7.897  -2.710  -3.362  0.00  0.00    -0.052 C 
ATOM     49  H   LIG d   1       8.608  -3.402  -3.814  0.00  0.00     0.024 H 
ATOM     50  H   LIG d   1       8.439  -1.913  -2.854  0.00  0.00     0.024 H 
ATOM     51  H   LIG d   1       7.277  -3.244  -2.643  0.00  0.00     0.024 H 
ENDBRANCH   6  48
BRANCH  13  52
ATOM     52  O   LIG d   1       7.948   1.475  -3.812  0.00  0.00    -0.503 OA
ATOM     53  H   LIG d   1       7.970   1.819  -2.908  0.00  0.00     0.292 HD
ENDBRANCH  13  52
BRANCH  11  54
ATOM     54  C   LIG d   1      10.185  -0.968  -4.988  0.00  0.00    -0.049 C 
ATOM     55  H   LIG d   1      10.696  -1.657  -5.661  0.00  0.00     0.024 H 
ATOM     56  H   LIG d   1      10.806  -0.085  -4.832  0.00  0.00     0.024 H 
ATOM     57  H   LIG d   1      10.005  -1.459  -4.032  0.00  0.00     0.024 H 
ENDBRANCH  11  54
BRANCH  11  58
ATOM     58  C   LIG d   1       8.979   0.876  -6.103  0.00  0.00    -0.049 C 
ATOM     59  H   LIG d   1       8.225   1.493  -5.613  0.00  0.00     0.024 H 
ATOM     60  H   LIG d   1       9.971   1.267  -5.877  0.00  0.00     0.024 H 
ATOM     61  H   LIG d   1       8.819   0.895  -7.181  0.00  0.00     0.024 H 
ENDBRANCH  11  58
TORSDOF 7
ENDMDL
MODEL 2
REMARK VINA RESULT:      -6.7      1.893      5.797
REMARK  7 active torsions:
REMARK  status: ('A' for Active; 'I' for Inactive)
REMARK    1  A    between atoms: C_1  and  C_2 
REMARK    2  A    between atoms: C_7  and  C_34 
REMARK    3  A    between atoms: C_12  and  C_32 
REMARK    4  A    between atoms: C_12  and  C_33 
REMARK    5  A    between atoms: C_14  and  O_31 
REMARK    6  A    between atoms: C_17  and  C_30 
REMARK    7  A    between atoms: C_23  and  C_25 
ROOT
ATOM      1  C   LIG d   1       7.820  -0.391  -5.081  0.00  0.00     0.007 C 
ATOM      2  C   LIG d   1       7.740  -0.319  -3.646  0.00  0.00    -0.044 C 
ATOM      3  C   LIG d   1       7.364  -1.629  -3.038  0.00  0.00    -0.048 C 
ATOM      4  C   LIG d   1       6.150  -2.266  -3.723  0.00  0.00    -0.013 C 
ATOM      5  H   LIG d   1       6.015  -3.254  -3.112  0.00  0.00     0.032 H 
ATOM      6  C   LIG d   1       4.928  -1.507  -3.459  0.00  0.00     0.016 C 
ATOM      7  C   LIG d   1       5.016  -0.523  -2.357  0.00  0.00    -0.070 C 
ATOM      8  C   LIG d   1       4.463   0.683  -2.340  0.00  0.00    -0.021 C 
ATOM      9  C   LIG d   1       3.656   1.136  -3.437  0.00  0.00     0.166 C 
ATOM     10  O   LIG d   1       3.381   2.277  -3.592  0.00  0.00    -0.292 OA
ATOM     11  C   LIG d   1       3.064   0.111  -4.499  0.00  0.00     0.053 C 
ATOM     12  C   LIG d   1       4.121  -0.987  -4.654  0.00  0.00    -0.002 C 
ATOM     13  C   LIG d   1       4.269  -1.568  -5.820  0.00  0.00     0.161 C 
ATOM     14  C   LIG d   1       5.300  -2.563  -6.074  0.00  0.00     0.206 C 
ATOM     15  O   LIG d   1       5.340  -3.300  -7.070  0.00  0.00    -0.288 OA
ATOM     16  C   LIG d   1       6.510  -2.650  -5.068  0.00  0.00     0.070 C 
ATOM     17  C   LIG d   1       7.746  -1.887  -5.534  0.00  0.00     0.115 A 
ATOM     18  C   LIG d   1       8.473  -2.014  -6.866  0.00  0.00     0.090 A 
ATOM     19  H   LIG d   1       8.174  -2.625  -7.695  0.00  0.00     0.063 H 
ATOM     20  O   LIG d   1       8.916  -2.621  -5.697  0.00  0.00    -0.363 OA
ATOM     21  C   LIG d   1       9.141  -0.592  -7.091  0.00  0.00    -0.016 C 
ATOM     22  C   LIG d   1       9.121   0.069  -5.690  0.00  0.00    -0.002 C 
ATOM     23  H   LIG d   1       9.925  -0.343  -5.128  0.00  0.00     0.036 H 
ATOM     24  H   LIG d   1       8.786   0.009  -3.224  0.00  0.00     0.027 H 
ATOM     25  H   LIG d   1       7.063   0.451  -3.336  0.00  0.00     0.027 H 
ATOM     26  H   LIG d   1       8.250  -2.273  -3.063  0.00  0.00     0.027 H 
ATOM     27  H   LIG d   1       7.139  -1.504  -2.000  0.00  0.00     0.027 H 
ATOM     28  H   LIG d   1       5.575  -0.808  -1.456  0.00  0.00     0.058 H 
ATOM     29  H   LIG d   1       4.564   1.329  -1.455  0.00  0.00     0.065 H 
ATOM     30  H   LIG d   1      10.061  -0.714  -7.527  0.00  0.00     0.030 H 
ATOM     31  H   LIG d   1       8.466  -0.061  -7.833  0.00  0.00     0.030 H 
ENDROOT
BRANCH  22  32
ATOM     32  C   LIG d   1       9.249   1.566  -5.813  0.00  0.00    -0.006 A 
ATOM     33  C   LIG d   1       9.280   2.277  -6.954  0.00  0.00     0.095 A 
ATOM     34  O   LIG d   1       9.400   3.577  -6.641  0.00  0.00    -0.471 OA
ATOM     35  H   LIG d   1       9.217   1.871  -7.953  0.00  0.00     0.103 H 
ATOM     36  C   LIG d   1       9.456   3.713  -5.305  0.00  0.00     0.092 A 
ATOM     37  C   LIG d   1       9.365   2.491  -4.750  0.00  0.00    -0.021 A 
ATOM     38  H   LIG d   1       9.555   4.645  -4.769  0.00  0.00     0.103 H 
ATOM     39  H   LIG d   1       9.378   2.261  -3.696  0.00  0.00     0.065 H 
ENDBRANCH  22  32
BRANCH   1  40
ATOM     40  C   LIG d   1       6.699   0.429  -5.724  0.00  0.00    -0.056 C 
ATOM     41  H   LIG d   1       5.821  -0.202  -5.863  0.00  0.00     0.024 H 
ATOM     42  H   LIG d   1       6.445   1.269  -5.077  0.00  0.00     0.024 H 
ATOM     43  H   LIG d   1       7.033   0.804  -6.692  0.00  0.00     0.024 H 
ENDBRANCH   1  40
BRANCH  16  44
ATOM     44  C   LIG d   1       6.871  -4.138  -5.128  0.00  0.00    -0.049 C 
ATOM     45  H   LIG d   1       7.777  -4.316  -4.549  0.00  0.00     0.024 H 
ATOM     46  H   LIG d   1       6.053  -4.728  -4.716  0.00  0.00     0.024 H 
ATOM     47  H   LIG d   1       7.041  -4.428  -6.165  0.00  0.00     0.024 H 
ENDBRANCH  16  44
BRANCH   6  48
ATOM     48  C   LIG d   1       3.965  -2.570  -2.891  0.00  0.00    -0.052 C 
ATOM     49  H   LIG d   1       4.458  -3.111  -2.083  0.00  0.00     0.024 H 
ATOM     50  H   LIG d   1       3.069  -2.082  -2.508  0.00  0.00     0.024 H 
ATOM     51  H   LIG d   1       3.689  -3.269  -3.680  0.00  0.00     0.024 H 
ENDBRANCH   6  48
BRANCH  13  52
ATOM     52  O   LIG d   1       3.417  -1.400  -6.898  0.00  0.00    -0.503 OA
ATOM     53  H   LIG d   1       3.104  -2.229  -7.285  0.00  0.00     0.292 HD
ENDBRANCH  13  52
BRANCH  11  54
ATOM     54  C   LIG d   1       1.739  -0.386  -3.980  0.00  0.00    -0.049 C 
ATOM     55  H   LIG d   1       1.377  -1.191  -4.620  0.00  0.00     0.024 H 
ATOM     56  H   LIG d   1       1.864  -0.760  -2.963  0.00  0.00     0.024 H 
ATOM     57  H   LIG d   1       1.018   0.431  -3.981  0.00  0.00     0.024 H 
ENDBRANCH  11  54
BRANCH  11  58
ATOM     58  C   LIG d   1       2.840   0.866  -5.801  0.00  0.00    -0.049 C 
ATOM     59  H   LIG d   1       3.219   1.884  -5.701  0.00  0.00     0.024 H 
ATOM     60  H   LIG d   1       3.368   0.361  -6.610  0.00  0.00     0.024 H 
ATOM     61  H   LIG d   1       1.774   0.897  -6.026  0.00  0.00     0.024 H 
ENDBRANCH  11  58
TORSDOF 7
ENDMDL
MODEL 3
REMARK VINA RESULT:      -6.7      2.011      4.702
REMARK  7 active torsions:
REMARK  status: ('A' for Active; 'I' for Inactive)
REMARK    1  A    between atoms: C_1  and  C_2 
REMARK    2  A    between atoms: C_7  and  C_34 
REMARK    3  A    between atoms: C_12  and  C_32 
REMARK    4  A    between atoms: C_12  and  C_33 
REMARK    5  A    between atoms: C_14  and  O_31 
REMARK    6  A    between atoms: C_17  and  C_30 
REMARK    7  A    between atoms: C_23  and  C_25 
ROOT
ATOM      1  C   LIG d   1       6.308  -0.579  -7.610  0.00  0.00     0.007 C 
ATOM      2  C   LIG d   1       7.326   0.155  -6.906  0.00  0.00    -0.044 C 
ATOM      3  C   LIG d   1       8.309  -0.748  -6.237  0.00  0.00    -0.048 C 
ATOM      4  C   LIG d   1       7.627  -1.853  -5.422  0.00  0.00    -0.013 C 
ATOM      5  H   LIG d   1       8.543  -2.433  -4.983  0.00  0.00     0.032 H 
ATOM      6  C   LIG d   1       6.946  -1.308  -4.248  0.00  0.00     0.016 C 
ATOM      7  C   LIG d   1       7.313   0.079  -3.887  0.00  0.00    -0.070 C 
ATOM      8  C   LIG d   1       6.485   1.015  -3.442  0.00  0.00    -0.021 C 
ATOM      9  C   LIG d   1       5.095   0.725  -3.227  0.00  0.00     0.166 C 
ATOM     10  O   LIG d   1       4.282   1.577  -3.105  0.00  0.00    -0.292 OA
ATOM     11  C   LIG d   1       4.578  -0.775  -3.117  0.00  0.00     0.053 C 
ATOM     12  C   LIG d   1       5.449  -1.589  -4.079  0.00  0.00    -0.002 C 
ATOM     13  C   LIG d   1       4.923  -2.618  -4.699  0.00  0.00     0.161 C 
ATOM     14  C   LIG d   1       5.655  -3.396  -5.687  0.00  0.00     0.206 C 
ATOM     15  O   LIG d   1       5.295  -4.496  -6.127  0.00  0.00    -0.288 OA
ATOM     16  C   LIG d   1       6.950  -2.758  -6.320  0.00  0.00     0.070 C 
ATOM     17  C   LIG d   1       6.702  -2.092  -7.670  0.00  0.00     0.115 A 
ATOM     18  C   LIG d   1       6.050  -2.701  -8.905  0.00  0.00     0.090 A 
ATOM     19  H   LIG d   1       5.614  -3.678  -8.974  0.00  0.00     0.063 H 
ATOM     20  O   LIG d   1       7.426  -2.577  -8.756  0.00  0.00    -0.363 OA
ATOM     21  C   LIG d   1       5.419  -1.462  -9.672  0.00  0.00    -0.016 C 
ATOM     22  C   LIG d   1       6.133  -0.229  -9.066  0.00  0.00    -0.002 C 
ATOM     23  H   LIG d   1       7.095  -0.160  -9.517  0.00  0.00     0.036 H 
ATOM     24  H   LIG d   1       7.899   0.837  -7.672  0.00  0.00     0.027 H 
ATOM     25  H   LIG d   1       6.894   0.834  -6.200  0.00  0.00     0.027 H 
ATOM     26  H   LIG d   1       8.976  -1.144  -7.010  0.00  0.00     0.027 H 
ATOM     27  H   LIG d   1       8.941  -0.187  -5.582  0.00  0.00     0.027 H 
ATOM     28  H   LIG d   1       8.367   0.372  -3.975  0.00  0.00     0.058 H 
ATOM     29  H   LIG d   1       6.864   2.012  -3.172  0.00  0.00     0.065 H 
ATOM     30  H   LIG d   1       5.521  -1.601 -10.683  0.00  0.00     0.030 H 
ATOM     31  H   LIG d   1       4.312  -1.491  -9.421  0.00  0.00     0.030 H 
ENDROOT
BRANCH  22  32
ATOM     32  C   LIG d   1       5.323   1.019  -9.308  0.00  0.00    -0.006 A 
ATOM     33  C   LIG d   1       5.698   2.282  -9.037  0.00  0.00     0.095 A 
ATOM     34  O   LIG d   1       4.701   3.107  -9.398  0.00  0.00    -0.471 OA
ATOM     35  H   LIG d   1       6.641   2.583  -8.606  0.00  0.00     0.103 H 
ATOM     36  C   LIG d   1       3.680   2.386  -9.892  0.00  0.00     0.092 A 
ATOM     37  C   LIG d   1       4.022   1.085  -9.856  0.00  0.00    -0.021 A 
ATOM     38  H   LIG d   1       2.745   2.783 -10.257  0.00  0.00     0.103 H 
ATOM     39  H   LIG d   1       3.418   0.252 -10.183  0.00  0.00     0.065 H 
ENDBRANCH  22  32
BRANCH   1  40
ATOM     40  C   LIG d   1       4.948  -0.397  -6.929  0.00  0.00    -0.056 C 
ATOM     41  H   LIG d   1       4.764   0.665  -6.765  0.00  0.00     0.024 H 
ATOM     42  H   LIG d   1       4.165  -0.809  -7.566  0.00  0.00     0.024 H 
ATOM     43  H   LIG d   1       4.949  -0.918  -5.972  0.00  0.00     0.024 H 
ENDBRANCH   1  40
BRANCH  16  44
ATOM     44  C   LIG d   1       7.813  -3.993  -6.599  0.00  0.00    -0.049 C 
ATOM     45  H   LIG d   1       7.178  -4.810  -6.942  0.00  0.00     0.024 H 
ATOM     46  H   LIG d   1       8.550  -3.757  -7.366  0.00  0.00     0.024 H 
ATOM     47  H   LIG d   1       8.325  -4.292  -5.684  0.00  0.00     0.024 H 
ENDBRANCH  16  44
BRANCH   6  48
ATOM     48  C   LIG d   1       7.535  -2.131  -3.083  0.00  0.00    -0.052 C 
ATOM     49  H   LIG d   1       6.933  -3.026  -2.930  0.00  0.00     0.024 H 
ATOM     50  H   LIG d   1       8.559  -2.419  -3.323  0.00  0.00     0.024 H 
ATOM     51  H   LIG d   1       7.530  -1.530  -2.175  0.00  0.00     0.024 H 
ENDBRANCH   6  48
BRANCH  13  52
ATOM     52  O   LIG d   1       3.676  -3.151  -4.421  0.00  0.00    -0.503 OA
ATOM     53  H   LIG d   1       3.213  -2.709  -3.696  0.00  0.00     0.292 HD
ENDBRANCH  13  52
BRANCH  11  54
ATOM     54  C   LIG d   1       4.694  -1.204  -1.677  0.00  0.00    -0.049 C 
ATOM     55  H   LIG d   1       4.382  -2.245  -1.582  0.00  0.00     0.024 H 
ATOM     56  H   LIG d   1       5.729  -1.104  -1.350  0.00  0.00     0.024 H 
ATOM     57  H   LIG d   1       4.055  -0.576  -1.057  0.00  0.00     0.024 H 
ENDBRANCH  11  54
BRANCH  11  58
ATOM     58  C   LIG d   1       3.113  -0.793  -3.529  0.00  0.00    -0.049 C 
ATOM     59  H   LIG d   1       2.653  -1.722  -3.192  0.00  0.00     0.024 H 
ATOM     60  H   LIG d   1       2.597   0.053  -3.076  0.00  0.00     0.024 H 
ATOM     61  H   LIG d   1       3.039  -0.725  -4.614  0.00  0.00     0.024 H 
ENDBRANCH  11  58
TORSDOF 7
ENDMDL
MODEL 4
REMARK VINA RESULT:      -6.5      1.832      5.892
REMARK  7 active torsions:
REMARK  status: ('A' for Active; 'I' for Inactive)
REMARK    1  A    between atoms: C_1  and  C_2 
REMARK    2  A    between atoms: C_7  and  C_34 
REMARK    3  A    between atoms: C_12  and  C_32 
REMARK    4  A    between atoms: C_12  and  C_33 
REMARK    5  A    between atoms: C_14  and  O_31 
REMARK    6  A    between atoms: C_17  and  C_30 
REMARK    7  A    between atoms: C_23  and  C_25 
ROOT
ATOM      1  C   LIG d   1       5.750  -1.608  -5.626  0.00  0.00     0.007 C 
ATOM      2  C   LIG d   1       4.412  -2.089  -5.847  0.00  0.00    -0.044 C 
ATOM      3  C   LIG d   1       4.356  -3.111  -6.934  0.00  0.00    -0.048 C 
ATOM      4  C   LIG d   1       5.101  -2.663  -8.198  0.00  0.00    -0.013 C 
ATOM      5  H   LIG d   1       4.937  -3.574  -8.913  0.00  0.00     0.032 H 
ATOM      6  C   LIG d   1       4.413  -1.555  -8.859  0.00  0.00     0.016 C 
ATOM      7  C   LIG d   1       3.023  -1.313  -8.415  0.00  0.00    -0.070 C 
ATOM      8  C   LIG d   1       2.451  -0.128  -8.246  0.00  0.00    -0.021 C 
ATOM      9  C   LIG d   1       3.169   1.081  -8.538  0.00  0.00     0.166 C 
ATOM     10  O   LIG d   1       2.810   2.140  -8.147  0.00  0.00    -0.292 OA
ATOM     11  C   LIG d   1       4.483   1.061  -9.433  0.00  0.00     0.053 C 
ATOM     12  C   LIG d   1       5.192  -0.257  -9.102  0.00  0.00    -0.002 C 
ATOM     13  C   LIG d   1       6.502  -0.299  -9.128  0.00  0.00     0.161 C 
ATOM     14  C   LIG d   1       7.256  -1.486  -8.752  0.00  0.00     0.206 C 
ATOM     15  O   LIG d   1       8.463  -1.656  -8.973  0.00  0.00    -0.288 OA
ATOM     16  C   LIG d   1       6.515  -2.599  -7.917  0.00  0.00     0.070 C 
ATOM     17  C   LIG d   1       6.764  -2.500  -6.415  0.00  0.00     0.115 A 
ATOM     18  C   LIG d   1       8.104  -2.445  -5.693  0.00  0.00     0.090 A 
ATOM     19  H   LIG d   1       9.071  -2.406  -6.155  0.00  0.00     0.063 H 
ATOM     20  O   LIG d   1       7.344  -3.603  -5.797  0.00  0.00    -0.363 OA
ATOM     21  C   LIG d   1       7.800  -1.650  -4.353  0.00  0.00    -0.016 C 
ATOM     22  C   LIG d   1       6.259  -1.711  -4.210  0.00  0.00    -0.002 C 
ATOM     23  H   LIG d   1       6.009  -2.672  -3.827  0.00  0.00     0.036 H 
ATOM     24  H   LIG d   1       4.013  -2.571  -4.853  0.00  0.00     0.027 H 
ATOM     25  H   LIG d   1       3.740  -1.280  -6.052  0.00  0.00     0.027 H 
ATOM     26  H   LIG d   1       4.742  -4.051  -6.527  0.00  0.00     0.027 H 
ATOM     27  H   LIG d   1       3.339  -3.316  -7.197  0.00  0.00     0.027 H 
ATOM     28  H   LIG d   1       2.387  -2.185  -8.216  0.00  0.00     0.058 H 
ATOM     29  H   LIG d   1       1.397  -0.056  -7.940  0.00  0.00     0.065 H 
ATOM     30  H   LIG d   1       8.348  -2.055  -3.587  0.00  0.00     0.030 H 
ATOM     31  H   LIG d   1       8.178  -0.596  -4.542  0.00  0.00     0.030 H 
ENDROOT
BRANCH  22  32
ATOM     32  C   LIG d   1       5.772  -0.614  -3.298  0.00  0.00    -0.006 A 
ATOM     33  C   LIG d   1       6.311   0.610  -3.157  0.00  0.00     0.095 A 
ATOM     34  O   LIG d   1       5.587   1.291  -2.253  0.00  0.00    -0.471 OA
ATOM     35  H   LIG d   1       7.177   0.983  -3.682  0.00  0.00     0.103 H 
ATOM     36  C   LIG d   1       4.589   0.513  -1.802  0.00  0.00     0.092 A 
ATOM     37  C   LIG d   1       4.663  -0.678  -2.423  0.00  0.00    -0.021 A 
ATOM     38  H   LIG d   1       3.850   0.797  -1.066  0.00  0.00     0.103 H 
ATOM     39  H   LIG d   1       4.003  -1.520  -2.280  0.00  0.00     0.065 H 
ENDBRANCH  22  32
BRANCH   1  40
ATOM     40  C   LIG d   1       5.870  -0.141  -6.049  0.00  0.00    -0.056 C 
ATOM     41  H   LIG d   1       6.561   0.374  -5.381  0.00  0.00     0.024 H 
ATOM     42  H   LIG d   1       6.244  -0.087  -7.071  0.00  0.00     0.024 H 
ATOM     43  H   LIG d   1       4.891   0.334  -5.994  0.00  0.00     0.024 H 
ENDBRANCH   1  40
BRANCH  16  44
ATOM     44  C   LIG d   1       7.220  -3.876  -8.389  0.00  0.00    -0.049 C 
ATOM     45  H   LIG d   1       8.275  -3.829  -8.119  0.00  0.00     0.024 H 
ATOM     46  H   LIG d   1       6.760  -4.742  -7.915  0.00  0.00     0.024 H 
ATOM     47  H   LIG d   1       7.127  -3.962  -9.472  0.00  0.00     0.024 H 
ENDBRANCH  16  44
BRANCH   6  48
ATOM     48  C   LIG d   1       4.227  -2.064 -10.303  0.00  0.00    -0.052 C 
ATOM     49  H   LIG d   1       3.396  -1.534 -10.770  0.00  0.00     0.024 H 
ATOM     50  H   LIG d   1       5.138  -1.884 -10.873  0.00  0.00     0.024 H 
ATOM     51  H   LIG d   1       4.013  -3.132 -10.287  0.00  0.00     0.024 H 
ENDBRANCH   6  48
BRANCH  13  52
ATOM     52  O   LIG d   1       7.313   0.714  -9.610  0.00  0.00    -0.503 OA
ATOM     53  H   LIG d   1       7.494   0.654 -10.558  0.00  0.00     0.292 HD
ENDBRANCH  13  52
BRANCH  11  54
ATOM     54  C   LIG d   1       4.068   1.185 -10.876  0.00  0.00    -0.049 C 
ATOM     55  H   LIG d   1       4.666   1.957 -11.361  0.00  0.00     0.024 H 
ATOM     56  H   LIG d   1       4.225   0.232 -11.383  0.00  0.00     0.024 H 
ATOM     57  H   LIG d   1       3.014   1.455 -10.930  0.00  0.00     0.024 H 
ENDBRANCH  11  54
BRANCH  11  58
ATOM     58  C   LIG d   1       5.327   2.267  -9.048  0.00  0.00    -0.049 C 
ATOM     59  H   LIG d   1       6.299   2.202  -9.539  0.00  0.00     0.024 H 
ATOM     60  H   LIG d   1       4.822   3.180  -9.363  0.00  0.00     0.024 H 
ATOM     61  H   LIG d   1       5.467   2.284  -7.968  0.00  0.00     0.024 H 
ENDBRANCH  11  58
TORSDOF 7
ENDMDL
MODEL 5
REMARK VINA RESULT:      -6.0      2.014      5.860
REMARK  7 active torsions:
REMARK  status: ('A' for Active; 'I' for Inactive)
REMARK    1  A    between atoms: C_1  and  C_2 
REMARK    2  A    between atoms: C_7  and  C_34 
REMARK    3  A    between atoms: C_12  and  C_32 
REMARK    4  A    between atoms: C_12  and  C_33 
REMARK    5  A    between atoms: C_14  and  O_31 
REMARK    6  A    between atoms: C_17  and  C_30 
REMARK    7  A    between atoms: C_23  and  C_25 
ROOT
ATOM      1  C   LIG d   1       6.402  -1.157  -5.791  0.00  0.00     0.007 C 
ATOM      2  C   LIG d   1       6.012  -2.388  -6.426  0.00  0.00    -0.044 C 
ATOM      3  C   LIG d   1       6.877  -2.713  -7.599  0.00  0.00    -0.048 C 
ATOM      4  C   LIG d   1       7.050  -1.521  -8.547  0.00  0.00    -0.013 C 
ATOM      5  H   LIG d   1       7.735  -1.971  -9.382  0.00  0.00     0.032 H 
ATOM      6  C   LIG d   1       5.801  -1.202  -9.237  0.00  0.00     0.016 C 
ATOM      7  C   LIG d   1       4.751  -2.242  -9.167  0.00  0.00    -0.070 C 
ATOM      8  C   LIG d   1       3.449  -2.030  -9.025  0.00  0.00    -0.021 C 
ATOM      9  C   LIG d   1       2.925  -0.695  -8.964  0.00  0.00     0.166 C 
ATOM     10  O   LIG d   1       1.835  -0.460  -8.566  0.00  0.00    -0.292 OA
ATOM     11  C   LIG d   1       3.785   0.548  -9.460  0.00  0.00     0.053 C 
ATOM     12  C   LIG d   1       5.239   0.218  -9.104  0.00  0.00    -0.002 C 
ATOM     13  C   LIG d   1       6.050   1.194  -8.774  0.00  0.00     0.161 C 
ATOM     14  C   LIG d   1       7.422   0.961  -8.347  0.00  0.00     0.206 C 
ATOM     15  O   LIG d   1       8.289   1.840  -8.246  0.00  0.00    -0.288 OA
ATOM     16  C   LIG d   1       7.816  -0.493  -7.884  0.00  0.00     0.070 C 
ATOM     17  C   LIG d   1       7.775  -0.683  -6.370  0.00  0.00     0.115 A 
ATOM     18  C   LIG d   1       8.473   0.156  -5.306  0.00  0.00     0.090 A 
ATOM     19  H   LIG d   1       9.048   1.045  -5.477  0.00  0.00     0.063 H 
ATOM     20  O   LIG d   1       8.960  -1.068  -5.750  0.00  0.00    -0.363 OA
ATOM     21  C   LIG d   1       7.558   0.002  -4.018  0.00  0.00    -0.016 C 
ATOM     22  C   LIG d   1       6.684  -1.242  -4.312  0.00  0.00    -0.002 C 
ATOM     23  H   LIG d   1       7.280  -2.105  -4.128  0.00  0.00     0.036 H 
ATOM     24  H   LIG d   1       6.091  -3.260  -5.644  0.00  0.00     0.027 H 
ATOM     25  H   LIG d   1       4.980  -2.364  -6.712  0.00  0.00     0.027 H 
ATOM     26  H   LIG d   1       7.830  -3.089  -7.214  0.00  0.00     0.027 H 
ATOM     27  H   LIG d   1       6.459  -3.527  -8.153  0.00  0.00     0.027 H 
ATOM     28  H   LIG d   1       5.060  -3.292  -9.255  0.00  0.00     0.058 H 
ATOM     29  H   LIG d   1       2.745  -2.875  -9.014  0.00  0.00     0.065 H 
ATOM     30  H   LIG d   1       8.153  -0.042  -3.184  0.00  0.00     0.030 H 
ATOM     31  H   LIG d   1       6.951   0.960  -3.971  0.00  0.00     0.030 H 
ENDROOT
BRANCH  22  32
ATOM     32  C   LIG d   1       5.449  -1.234  -3.447  0.00  0.00    -0.006 A 
ATOM     33  C   LIG d   1       5.052  -0.245  -2.627  0.00  0.00     0.095 A 
ATOM     34  O   LIG d   1       3.905  -0.619  -2.036  0.00  0.00    -0.471 OA
ATOM     35  H   LIG d   1       5.567   0.691  -2.471  0.00  0.00     0.103 H 
ATOM     36  C   LIG d   1       3.562  -1.846  -2.462  0.00  0.00     0.092 A 
ATOM     37  C   LIG d   1       4.491  -2.267  -3.339  0.00  0.00    -0.021 A 
ATOM     38  H   LIG d   1       2.688  -2.400  -2.153  0.00  0.00     0.103 H 
ATOM     39  H   LIG d   1       4.502  -3.212  -3.860  0.00  0.00     0.065 H 
ENDBRANCH  22  32
BRANCH   1  40
ATOM     40  C   LIG d   1       5.327  -0.085  -5.990  0.00  0.00    -0.056 C 
ATOM     41  H   LIG d   1       4.490  -0.509  -6.546  0.00  0.00     0.024 H 
ATOM     42  H   LIG d   1       4.978   0.265  -5.019  0.00  0.00     0.024 H 
ATOM     43  H   LIG d   1       5.747   0.751  -6.549  0.00  0.00     0.024 H 
ENDBRANCH   1  40
BRANCH  16  44
ATOM     44  C   LIG d   1       9.292  -0.570  -8.290  0.00  0.00    -0.049 C 
ATOM     45  H   LIG d   1       9.377  -0.463  -9.371  0.00  0.00     0.024 H 
ATOM     46  H   LIG d   1       9.846   0.231  -7.800  0.00  0.00     0.024 H 
ATOM     47  H   LIG d   1       9.702  -1.533  -7.987  0.00  0.00     0.024 H 
ENDBRANCH  16  44
BRANCH   6  48
ATOM     48  C   LIG d   1       6.203  -1.222 -10.727  0.00  0.00    -0.052 C 
ATOM     49  H   LIG d   1       7.278  -1.382 -10.810  0.00  0.00     0.024 H 
ATOM     50  H   LIG d   1       5.676  -2.030 -11.234  0.00  0.00     0.024 H 
ATOM     51  H   LIG d   1       5.940  -0.271 -11.188  0.00  0.00     0.024 H 
ENDBRANCH   6  48
BRANCH  13  52
ATOM     52  O   LIG d   1       5.752   2.540  -8.892  0.00  0.00    -0.503 OA
ATOM     53  H   LIG d   1       6.531   3.109  -8.967  0.00  0.00     0.292 HD
ENDBRANCH  13  52
BRANCH  11  54
ATOM     54  C   LIG d   1       3.543   0.725 -10.937  0.00  0.00    -0.049 C 
ATOM     55  H   LIG d   1       4.037   1.635 -11.279  0.00  0.00     0.024 H 
ATOM     56  H   LIG d   1       3.947  -0.133 -11.477  0.00  0.00     0.024 H 
ATOM     57  H   LIG d   1       2.472   0.800 -11.124  0.00  0.00     0.024 H 
ENDBRANCH  11  54
BRANCH  11  58
ATOM     58  C   LIG d   1       3.289   1.781  -8.720  0.00  0.00    -0.049 C 
ATOM     59  H   LIG d   1       3.889   2.645  -9.010  0.00  0.00     0.024 H 
ATOM     60  H   LIG d   1       2.245   1.964  -8.974  0.00  0.00     0.024 H 
ATOM     61  H   LIG d   1       3.379   1.622  -7.645  0.00  0.00     0.024 H 
ENDBRANCH  11  58
TORSDOF 7
ENDMDL
MODEL 6
REMARK VINA RESULT:      -6.0      9.246     11.780
REMARK  7 active torsions:
REMARK  status: ('A' for Active; 'I' for Inactive)
REMARK    1  A    between atoms: C_1  and  C_2 
REMARK    2  A    between atoms: C_7  and  C_34 
REMARK    3  A    between atoms: C_12  and  C_32 
REMARK    4  A    between atoms: C_12  and  C_33 
REMARK    5  A    between atoms: C_14  and  O_31 
REMARK    6  A    between atoms: C_17  and  C_30 
REMARK    7  A    between atoms: C_23  and  C_25 
ROOT
ATOM      1  C   LIG d   1      11.004   7.772  -4.284  0.00  0.00     0.007 C 
ATOM      2  C   LIG d   1      12.351   8.257  -4.132  0.00  0.00    -0.044 C 
ATOM      3  C   LIG d   1      12.858   8.078  -2.740  0.00  0.00    -0.048 C 
ATOM      4  C   LIG d   1      11.866   8.582  -1.685  0.00  0.00    -0.013 C 
ATOM      5  H   LIG d   1      12.439   8.365  -0.688  0.00  0.00     0.032 H 
ATOM      6  C   LIG d   1      11.741  10.038  -1.722  0.00  0.00     0.016 C 
ATOM      7  C   LIG d   1      12.794  10.748  -2.482  0.00  0.00    -0.070 C 
ATOM      8  C   LIG d   1      12.615  11.808  -3.259  0.00  0.00    -0.021 C 
ATOM      9  C   LIG d   1      11.318  12.408  -3.398  0.00  0.00     0.166 C 
ATOM     10  O   LIG d   1      11.059  13.161  -4.273  0.00  0.00    -0.292 OA
ATOM     11  C   LIG d   1      10.158  12.105  -2.353  0.00  0.00     0.053 C 
ATOM     12  C   LIG d   1      10.349  10.644  -1.929  0.00  0.00    -0.002 C 
ATOM     13  C   LIG d   1       9.293   9.923  -1.639  0.00  0.00     0.161 C 
ATOM     14  C   LIG d   1       9.379   8.509  -1.305  0.00  0.00     0.206 C 
ATOM     15  O   LIG d   1       8.459   7.844  -0.807  0.00  0.00    -0.288 OA
ATOM     16  C   LIG d   1      10.697   7.735  -1.690  0.00  0.00     0.070 C 
ATOM     17  C   LIG d   1      10.591   6.970  -3.006  0.00  0.00     0.115 A 
ATOM     18  C   LIG d   1       9.533   5.950  -3.409  0.00  0.00     0.090 A 
ATOM     19  H   LIG d   1       8.670   5.673  -2.837  0.00  0.00     0.063 H 
ATOM     20  O   LIG d   1      10.796   5.594  -2.954  0.00  0.00    -0.363 OA
ATOM     21  C   LIG d   1       9.474   6.046  -4.993  0.00  0.00    -0.016 C 
ATOM     22  C   LIG d   1      10.789   6.764  -5.385  0.00  0.00    -0.002 C 
ATOM     23  H   LIG d   1      11.573   6.045  -5.347  0.00  0.00     0.036 H 
ATOM     24  H   LIG d   1      13.051   7.668  -4.869  0.00  0.00     0.027 H 
ATOM     25  H   LIG d   1      12.428   9.281  -4.435  0.00  0.00     0.027 H 
ATOM     26  H   LIG d   1      13.111   7.020  -2.612  0.00  0.00     0.027 H 
ATOM     27  H   LIG d   1      13.782   8.603  -2.612  0.00  0.00     0.027 H 
ATOM     28  H   LIG d   1      13.826  10.385  -2.395  0.00  0.00     0.058 H 
ATOM     29  H   LIG d   1      13.473  12.283  -3.760  0.00  0.00     0.065 H 
ATOM     30  H   LIG d   1       9.330   5.109  -5.384  0.00  0.00     0.030 H 
ATOM     31  H   LIG d   1       8.553   6.670  -5.218  0.00  0.00     0.030 H 
ENDROOT
BRANCH  22  32
ATOM     32  C   LIG d   1      10.668   7.370  -6.760  0.00  0.00    -0.006 A 
ATOM     33  C   LIG d   1      11.676   7.805  -7.536  0.00  0.00     0.095 A 
ATOM     34  O   LIG d   1      11.157   8.272  -8.683  0.00  0.00    -0.471 OA
ATOM     35  H   LIG d   1      12.725   7.780  -7.281  0.00  0.00     0.103 H 
ATOM     36  C   LIG d   1       9.819   8.151  -8.652  0.00  0.00     0.092 A 
ATOM     37  C   LIG d   1       9.470   7.596  -7.478  0.00  0.00    -0.021 A 
ATOM     38  H   LIG d   1       9.139   8.448  -9.437  0.00  0.00     0.103 H 
ATOM     39  H   LIG d   1       8.469   7.367  -7.147  0.00  0.00     0.065 H 
ENDBRANCH  22  32
BRANCH   1  40
ATOM     40  C   LIG d   1      10.040   8.935  -4.533  0.00  0.00    -0.056 C 
ATOM     41  H   LIG d   1       9.820   9.433  -3.588  0.00  0.00     0.024 H 
ATOM     42  H   LIG d   1      10.497   9.645  -5.221  0.00  0.00     0.024 H 
ATOM     43  H   LIG d   1       9.115   8.552  -4.965  0.00  0.00     0.024 H 
ENDBRANCH   1  40
BRANCH  16  44
ATOM     44  C   LIG d   1      10.785   6.681  -0.582  0.00  0.00    -0.049 C 
ATOM     45  H   LIG d   1       9.826   6.612  -0.069  0.00  0.00     0.024 H 
ATOM     46  H   LIG d   1      11.036   5.714  -1.018  0.00  0.00     0.024 H 
ATOM     47  H   LIG d   1      11.558   6.968   0.131  0.00  0.00     0.024 H 
ENDBRANCH  16  44
BRANCH   6  48
ATOM     48  C   LIG d   1      12.032  10.456  -0.265  0.00  0.00    -0.052 C 
ATOM     49  H   LIG d   1      11.093  10.669   0.246  0.00  0.00     0.024 H 
ATOM     50  H   LIG d   1      12.549   9.645   0.249  0.00  0.00     0.024 H 
ATOM     51  H   LIG d   1      12.659  11.347  -0.261  0.00  0.00     0.024 H 
ENDBRANCH   6  48
BRANCH  13  52
ATOM     52  O   LIG d   1       8.010  10.423  -1.506  0.00  0.00    -0.503 OA
ATOM     53  H   LIG d   1       7.734  10.559  -0.589  0.00  0.00     0.292 HD
ENDBRANCH  13  52
BRANCH  11  54
ATOM     54  C   LIG d   1      10.282  13.090  -1.218  0.00  0.00    -0.049 C 
ATOM     55  H   LIG d   1      10.884  13.940  -1.540  0.00  0.00     0.024 H 
ATOM     56  H   LIG d   1       9.289  13.437  -0.929  0.00  0.00     0.024 H 
ATOM     57  H   LIG d   1      10.760  12.607  -0.367  0.00  0.00     0.024 H 
ENDBRANCH  11  54
BRANCH  11  58
ATOM     58  C   LIG d   1       8.828  12.318  -3.059  0.00  0.00    -0.049 C 
ATOM     59  H   LIG d   1       8.971  12.236  -4.137  0.00  0.00     0.024 H 
ATOM     60  H   LIG d   1       8.115  11.561  -2.730  0.00  0.00     0.024 H 
ATOM     61  H   LIG d   1       8.442  13.308  -2.818  0.00  0.00     0.024 H 
ENDBRANCH  11  58
TORSDOF 7
ENDMDL
MODEL 7
REMARK VINA RESULT:      -5.7      2.185      6.588
REMARK  7 active torsions:
REMARK  status: ('A' for Active; 'I' for Inactive)
REMARK    1  A    between atoms: C_1  and  C_2 
REMARK    2  A    between atoms: C_7  and  C_34 
REMARK    3  A    between atoms: C_12  and  C_32 
REMARK    4  A    between atoms: C_12  and  C_33 
REMARK    5  A    between atoms: C_14  and  O_31 
REMARK    6  A    between atoms: C_17  and  C_30 
REMARK    7  A    between atoms: C_23  and  C_25 
ROOT
ATOM      1  C   LIG d   1       8.606  -2.869  -5.053  0.00  0.00     0.007 C 
ATOM      2  C   LIG d   1       7.630  -3.534  -5.874  0.00  0.00    -0.044 C 
ATOM      3  C   LIG d   1       7.258  -2.724  -7.072  0.00  0.00    -0.048 C 
ATOM      4  C   LIG d   1       6.921  -1.272  -6.715  0.00  0.00    -0.013 C 
ATOM      5  H   LIG d   1       6.656  -0.819  -7.760  0.00  0.00     0.032 H 
ATOM      6  C   LIG d   1       5.676  -1.183  -5.954  0.00  0.00     0.016 C 
ATOM      7  C   LIG d   1       4.832  -2.399  -5.970  0.00  0.00    -0.070 C 
ATOM      8  C   LIG d   1       4.142  -2.884  -4.947  0.00  0.00    -0.021 C 
ATOM      9  C   LIG d   1       4.128  -2.205  -3.682  0.00  0.00     0.166 C 
ATOM     10  O   LIG d   1       3.767  -2.731  -2.685  0.00  0.00    -0.292 OA
ATOM     11  C   LIG d   1       4.578  -0.684  -3.562  0.00  0.00     0.053 C 
ATOM     12  C   LIG d   1       5.708  -0.502  -4.582  0.00  0.00    -0.002 C 
ATOM     13  C   LIG d   1       6.678   0.338  -4.313  0.00  0.00     0.161 C 
ATOM     14  C   LIG d   1       7.828   0.513  -5.188  0.00  0.00     0.206 C 
ATOM     15  O   LIG d   1       8.645   1.440  -5.103  0.00  0.00    -0.288 OA
ATOM     16  C   LIG d   1       8.119  -0.605  -6.261  0.00  0.00     0.070 C 
ATOM     17  C   LIG d   1       9.165  -1.621  -5.813  0.00  0.00     0.115 A 
ATOM     18  C   LIG d   1      10.572  -1.345  -5.299  0.00  0.00     0.090 A 
ATOM     19  H   LIG d   1      11.004  -0.380  -5.121  0.00  0.00     0.063 H 
ATOM     20  O   LIG d   1      10.304  -1.743  -6.603  0.00  0.00    -0.363 OA
ATOM     21  C   LIG d   1      10.898  -2.579  -4.354  0.00  0.00    -0.016 C 
ATOM     22  C   LIG d   1       9.858  -3.655  -4.752  0.00  0.00    -0.002 C 
ATOM     23  H   LIG d   1      10.196  -4.113  -5.652  0.00  0.00     0.036 H 
ATOM     24  H   LIG d   1       8.073  -4.561  -6.234  0.00  0.00     0.027 H 
ATOM     25  H   LIG d   1       6.759  -3.793  -5.306  0.00  0.00     0.027 H 
ATOM     26  H   LIG d   1       8.077  -2.804  -7.794  0.00  0.00     0.027 H 
ATOM     27  H   LIG d   1       6.410  -3.156  -7.562  0.00  0.00     0.027 H 
ATOM     28  H   LIG d   1       4.748  -2.954  -6.913  0.00  0.00     0.058 H 
ATOM     29  H   LIG d   1       3.519  -3.783  -5.071  0.00  0.00     0.065 H 
ATOM     30  H   LIG d   1      11.885  -2.835  -4.458  0.00  0.00     0.030 H 
ATOM     31  H   LIG d   1      10.741  -2.192  -3.298  0.00  0.00     0.030 H 
ENDROOT
BRANCH  22  32
ATOM     32  C   LIG d   1       9.699  -4.668  -3.647  0.00  0.00    -0.006 A 
ATOM     33  C   LIG d   1       9.244  -5.927  -3.774  0.00  0.00     0.095 A 
ATOM     34  O   LIG d   1       9.256  -6.506  -2.562  0.00  0.00    -0.471 OA
ATOM     35  H   LIG d   1       8.926  -6.395  -4.694  0.00  0.00     0.103 H 
ATOM     36  C   LIG d   1       9.706  -5.628  -1.651  0.00  0.00     0.092 A 
ATOM     37  C   LIG d   1       9.994  -4.474  -2.278  0.00  0.00    -0.021 A 
ATOM     38  H   LIG d   1       9.819  -5.817  -0.593  0.00  0.00     0.103 H 
ATOM     39  H   LIG d   1      10.377  -3.572  -1.825  0.00  0.00     0.065 H 
ENDBRANCH  22  32
BRANCH   1  40
ATOM     40  C   LIG d   1       7.991  -2.459  -3.712  0.00  0.00    -0.056 C 
ATOM     41  H   LIG d   1       7.963  -1.371  -3.643  0.00  0.00     0.024 H 
ATOM     42  H   LIG d   1       6.977  -2.854  -3.641  0.00  0.00     0.024 H 
ATOM     43  H   LIG d   1       8.595  -2.860  -2.898  0.00  0.00     0.024 H 
ENDBRANCH   1  40
BRANCH  16  44
ATOM     44  C   LIG d   1       8.756   0.200  -7.398  0.00  0.00    -0.049 C 
ATOM     45  H   LIG d   1       8.667   1.265  -7.183  0.00  0.00     0.024 H 
ATOM     46  H   LIG d   1       9.809  -0.067  -7.488  0.00  0.00     0.024 H 
ATOM     47  H   LIG d   1       8.243  -0.025  -8.333  0.00  0.00     0.024 H 
ENDBRANCH  16  44
BRANCH   6  48
ATOM     48  C   LIG d   1       4.836  -0.174  -6.766  0.00  0.00    -0.052 C 
ATOM     49  H   LIG d   1       5.058   0.838  -6.428  0.00  0.00     0.024 H 
ATOM     50  H   LIG d   1       5.081  -0.266  -7.824  0.00  0.00     0.024 H 
ATOM     51  H   LIG d   1       3.777  -0.383  -6.619  0.00  0.00     0.024 H 
ENDBRANCH   6  48
BRANCH  13  52
ATOM     52  O   LIG d   1       6.681   1.224  -3.250  0.00  0.00    -0.503 OA
ATOM     53  H   LIG d   1       7.082   2.080  -3.453  0.00  0.00     0.292 HD
ENDBRANCH  13  52
BRANCH  11  54
ATOM     54  C   LIG d   1       3.373   0.183  -3.825  0.00  0.00    -0.049 C 
ATOM     55  H   LIG d   1       2.934   0.491  -2.876  0.00  0.00     0.024 H 
ATOM     56  H   LIG d   1       3.677   1.066  -4.388  0.00  0.00     0.024 H 
ATOM     57  H   LIG d   1       2.639  -0.380  -4.401  0.00  0.00     0.024 H 
ENDBRANCH  11  54
BRANCH  11  58
ATOM     58  C   LIG d   1       5.061  -0.452  -2.138  0.00  0.00    -0.049 C 
ATOM     59  H   LIG d   1       6.003  -0.979  -1.983  0.00  0.00     0.024 H 
ATOM     60  H   LIG d   1       5.211   0.615  -1.974  0.00  0.00     0.024 H 
ATOM     61  H   LIG d   1       4.316  -0.826  -1.436  0.00  0.00     0.024 H 
ENDBRANCH  11  58
TORSDOF 7
ENDMDL
MODEL 8
REMARK VINA RESULT:      -5.6      9.048     11.664
REMARK  7 active torsions:
REMARK  status: ('A' for Active; 'I' for Inactive)
REMARK    1  A    between atoms: C_1  and  C_2 
REMARK    2  A    between atoms: C_7  and  C_34 
REMARK    3  A    between atoms: C_12  and  C_32 
REMARK    4  A    between atoms: C_12  and  C_33 
REMARK    5  A    between atoms: C_14  and  O_31 
REMARK    6  A    between atoms: C_17  and  C_30 
REMARK    7  A    between atoms: C_23  and  C_25 
ROOT
ATOM      1  C   LIG d   1      10.968   9.212  -1.208  0.00  0.00     0.007 C 
ATOM      2  C   LIG d   1       9.652   8.878  -1.683  0.00  0.00    -0.044 C 
ATOM      3  C   LIG d   1       9.152   7.598  -1.098  0.00  0.00    -0.048 C 
ATOM      4  C   LIG d   1      10.182   6.467  -1.197  0.00  0.00    -0.013 C 
ATOM      5  H   LIG d   1       9.611   5.573  -0.704  0.00  0.00     0.032 H 
ATOM      6  C   LIG d   1      10.384   6.048  -2.584  0.00  0.00     0.016 C 
ATOM      7  C   LIG d   1       9.361   6.517  -3.546  0.00  0.00    -0.070 C 
ATOM      8  C   LIG d   1       9.586   6.927  -4.787  0.00  0.00    -0.021 C 
ATOM      9  C   LIG d   1      10.912   6.907  -5.338  0.00  0.00     0.166 C 
ATOM     10  O   LIG d   1      11.200   7.508  -6.316  0.00  0.00    -0.292 OA
ATOM     11  C   LIG d   1      12.066   6.043  -4.668  0.00  0.00     0.053 C 
ATOM     12  C   LIG d   1      11.804   6.094  -3.159  0.00  0.00    -0.002 C 
ATOM     13  C   LIG d   1      12.823   6.075  -2.334  0.00  0.00     0.161 C 
ATOM     14  C   LIG d   1      12.666   6.200  -0.893  0.00  0.00     0.206 C 
ATOM     15  O   LIG d   1      13.555   5.961  -0.063  0.00  0.00    -0.288 OA
ATOM     16  C   LIG d   1      11.305   6.771  -0.342  0.00  0.00     0.070 C 
ATOM     17  C   LIG d   1      11.353   8.263  -0.026  0.00  0.00     0.115 A 
ATOM     18  C   LIG d   1      12.351   8.996   0.862  0.00  0.00     0.090 A 
ATOM     19  H   LIG d   1      13.205   8.563   1.346  0.00  0.00     0.063 H 
ATOM     20  O   LIG d   1      11.076   8.639   1.285  0.00  0.00    -0.363 OA
ATOM     21  C   LIG d   1      12.396  10.470   0.276  0.00  0.00    -0.016 C 
ATOM     22  C   LIG d   1      11.116  10.580  -0.590  0.00  0.00    -0.002 C 
ATOM     23  H   LIG d   1      10.296  10.747   0.067  0.00  0.00     0.036 H 
ATOM     24  H   LIG d   1       8.912   9.742  -1.390  0.00  0.00     0.027 H 
ATOM     25  H   LIG d   1       9.625   8.841  -2.753  0.00  0.00     0.027 H 
ATOM     26  H   LIG d   1       8.845   7.802  -0.067  0.00  0.00     0.027 H 
ATOM     27  H   LIG d   1       8.259   7.286  -1.599  0.00  0.00     0.027 H 
ATOM     28  H   LIG d   1       8.313   6.519  -3.222  0.00  0.00     0.058 H 
ATOM     29  H   LIG d   1       8.749   7.229  -5.434  0.00  0.00     0.065 H 
ATOM     30  H   LIG d   1      12.486  11.139   1.047  0.00  0.00     0.030 H 
ATOM     31  H   LIG d   1      13.346  10.513  -0.344  0.00  0.00     0.030 H 
ENDROOT
BRANCH  22  32
ATOM     32  C   LIG d   1      11.253  11.698  -1.592  0.00  0.00    -0.006 A 
ATOM     33  C   LIG d   1      12.374  12.382  -1.880  0.00  0.00     0.095 A 
ATOM     34  O   LIG d   1      12.083  13.292  -2.825  0.00  0.00    -0.471 OA
ATOM     35  H   LIG d   1      13.343  12.226  -1.431  0.00  0.00     0.103 H 
ATOM     36  C   LIG d   1      10.781  13.207  -3.143  0.00  0.00     0.092 A 
ATOM     37  C   LIG d   1      10.225  12.230  -2.404  0.00  0.00    -0.021 A 
ATOM     38  H   LIG d   1      10.267  13.818  -3.871  0.00  0.00     0.103 H 
ATOM     39  H   LIG d   1       9.194  11.914  -2.426  0.00  0.00     0.065 H 
ENDBRANCH  22  32
BRANCH   1  40
ATOM     40  C   LIG d   1      11.990   9.110  -2.344  0.00  0.00    -0.056 C 
ATOM     41  H   LIG d   1      12.170   8.061  -2.577  0.00  0.00     0.024 H 
ATOM     42  H   LIG d   1      11.604   9.618  -3.227  0.00  0.00     0.024 H 
ATOM     43  H   LIG d   1      12.924   9.579  -2.034  0.00  0.00     0.024 H 
ENDBRANCH   1  40
BRANCH  16  44
ATOM     44  C   LIG d   1      11.174   6.047   1.002  0.00  0.00    -0.049 C 
ATOM     45  H   LIG d   1      10.127   6.031   1.306  0.00  0.00     0.024 H 
ATOM     46  H   LIG d   1      11.540   5.025   0.903  0.00  0.00     0.024 H 
ATOM     47  H   LIG d   1      11.762   6.572   1.755  0.00  0.00     0.024 H 
ENDBRANCH  16  44
BRANCH   6  48
ATOM     48  C   LIG d   1      10.133   4.526  -2.535  0.00  0.00    -0.052 C 
ATOM     49  H   LIG d   1       9.416   4.302  -1.744  0.00  0.00     0.024 H 
ATOM     50  H   LIG d   1       9.733   4.193  -3.492  0.00  0.00     0.024 H 
ATOM     51  H   LIG d   1      11.070   4.010  -2.333  0.00  0.00     0.024 H 
ENDBRANCH   6  48
BRANCH  13  52
ATOM     52  O   LIG d   1      14.133   5.828  -2.707  0.00  0.00    -0.503 OA
ATOM     53  H   LIG d   1      14.395   4.901  -2.627  0.00  0.00     0.292 HD
ENDBRANCH  13  52
BRANCH  11  54
ATOM     54  C   LIG d   1      12.009   4.654  -5.250  0.00  0.00    -0.049 C 
ATOM     55  H   LIG d   1      11.044   4.502  -5.735  0.00  0.00     0.024 H 
ATOM     56  H   LIG d   1      12.807   4.534  -5.984  0.00  0.00     0.024 H 
ATOM     57  H   LIG d   1      12.135   3.920  -4.454  0.00  0.00     0.024 H 
ENDBRANCH  11  54
BRANCH  11  58
ATOM     58  C   LIG d   1      13.398   6.684  -5.030  0.00  0.00    -0.049 C 
ATOM     59  H   LIG d   1      13.909   6.066  -5.770  0.00  0.00     0.024 H 
ATOM     60  H   LIG d   1      13.223   7.677  -5.445  0.00  0.00     0.024 H 
ATOM     61  H   LIG d   1      14.017   6.767  -4.137  0.00  0.00     0.024 H 
ENDBRANCH  11  58
TORSDOF 7
ENDMDL
MODEL 9
REMARK VINA RESULT:      -5.6      2.015      5.521
REMARK  7 active torsions:
REMARK  status: ('A' for Active; 'I' for Inactive)
REMARK    1  A    between atoms: C_1  and  C_2 
REMARK    2  A    between atoms: C_7  and  C_34 
REMARK    3  A    between atoms: C_12  and  C_32 
REMARK    4  A    between atoms: C_12  and  C_33 
REMARK    5  A    between atoms: C_14  and  O_31 
REMARK    6  A    between atoms: C_17  and  C_30 
REMARK    7  A    between atoms: C_23  and  C_25 
ROOT
ATOM      1  C   LIG d   1       7.531  -0.485  -7.307  0.00  0.00     0.007 C 
ATOM      2  C   LIG d   1       8.229  -1.229  -6.292  0.00  0.00    -0.044 C 
ATOM      3  C   LIG d   1       7.805  -2.660  -6.254  0.00  0.00    -0.048 C 
ATOM      4  C   LIG d   1       6.281  -2.819  -6.239  0.00  0.00    -0.013 C 
ATOM      5  H   LIG d   1       6.157  -3.982  -6.202  0.00  0.00     0.032 H 
ATOM      6  C   LIG d   1       5.707  -2.353  -4.978  0.00  0.00     0.016 C 
ATOM      7  C   LIG d   1       6.672  -2.154  -3.874  0.00  0.00    -0.070 C 
ATOM      8  C   LIG d   1       6.649  -1.171  -2.984  0.00  0.00    -0.021 C 
ATOM      9  C   LIG d   1       5.600  -0.191  -2.999  0.00  0.00     0.166 C 
ATOM     10  O   LIG d   1       5.686   0.838  -2.419  0.00  0.00    -0.292 OA
ATOM     11  C   LIG d   1       4.243  -0.453  -3.785  0.00  0.00     0.053 C 
ATOM     12  C   LIG d   1       4.630  -1.264  -5.027  0.00  0.00    -0.002 C 
ATOM     13  C   LIG d   1       3.952  -1.091  -6.136  0.00  0.00     0.161 C 
ATOM     14  C   LIG d   1       4.302  -1.760  -7.380  0.00  0.00     0.206 C 
ATOM     15  O   LIG d   1       3.575  -1.814  -8.382  0.00  0.00    -0.288 OA
ATOM     16  C   LIG d   1       5.746  -2.381  -7.506  0.00  0.00     0.070 C 
ATOM     17  C   LIG d   1       6.738  -1.473  -8.225  0.00  0.00     0.115 A 
ATOM     18  C   LIG d   1       6.585  -0.823  -9.595  0.00  0.00     0.090 A 
ATOM     19  H   LIG d   1       5.718  -0.869 -10.224  0.00  0.00     0.063 H 
ATOM     20  O   LIG d   1       7.332  -1.975  -9.379  0.00  0.00    -0.363 OA
ATOM     21  C   LIG d   1       7.474   0.489  -9.514  0.00  0.00    -0.016 C 
ATOM     22  C   LIG d   1       8.400   0.253  -8.295  0.00  0.00    -0.002 C 
ATOM     23  H   LIG d   1       9.185  -0.394  -8.607  0.00  0.00     0.036 H 
ATOM     24  H   LIG d   1       9.382  -1.181  -6.512  0.00  0.00     0.027 H 
ATOM     25  H   LIG d   1       8.112  -0.773  -5.330  0.00  0.00     0.027 H 
ATOM     26  H   LIG d   1       8.276  -3.169  -7.101  0.00  0.00     0.027 H 
ATOM     27  H   LIG d   1       8.203  -3.141  -5.384  0.00  0.00     0.027 H 
ATOM     28  H   LIG d   1       7.481  -2.887  -3.759  0.00  0.00     0.058 H 
ATOM     29  H   LIG d   1       7.400  -1.129  -2.180  0.00  0.00     0.065 H 
ATOM     30  H   LIG d   1       7.936   0.642 -10.417  0.00  0.00     0.030 H 
ATOM     31  H   LIG d   1       6.737   1.336  -9.344  0.00  0.00     0.030 H 
ENDROOT
BRANCH  22  32
ATOM     32  C   LIG d   1       8.939   1.564  -7.782  0.00  0.00    -0.006 A 
ATOM     33  C   LIG d   1       8.656   2.788  -8.259  0.00  0.00     0.095 A 
ATOM     34  O   LIG d   1       9.333   3.693  -7.532  0.00  0.00    -0.471 OA
ATOM     35  H   LIG d   1       7.995   3.008  -9.084  0.00  0.00     0.103 H 
ATOM     36  C   LIG d   1      10.059   3.062  -6.595  0.00  0.00     0.092 A 
ATOM     37  C   LIG d   1       9.846   1.739  -6.711  0.00  0.00    -0.021 A 
ATOM     38  H   LIG d   1      10.703   3.537  -5.869  0.00  0.00     0.103 H 
ATOM     39  H   LIG d   1      10.283   0.961  -6.104  0.00  0.00     0.065 H 
ENDBRANCH  22  32
BRANCH   1  40
ATOM     40  C   LIG d   1       6.590   0.541  -6.669  0.00  0.00    -0.056 C 
ATOM     41  H   LIG d   1       5.691   0.037  -6.314  0.00  0.00     0.024 H 
ATOM     42  H   LIG d   1       7.093   1.023  -5.831  0.00  0.00     0.024 H 
ATOM     43  H   LIG d   1       6.317   1.292  -7.410  0.00  0.00     0.024 H 
ENDBRANCH   1  40
BRANCH  16  44
ATOM     44  C   LIG d   1       5.501  -3.576  -8.434  0.00  0.00    -0.049 C 
ATOM     45  H   LIG d   1       4.830  -3.278  -9.240  0.00  0.00     0.024 H 
ATOM     46  H   LIG d   1       6.449  -3.911  -8.854  0.00  0.00     0.024 H 
ATOM     47  H   LIG d   1       5.048  -4.389  -7.867  0.00  0.00     0.024 H 
ENDBRANCH  16  44
BRANCH   6  48
ATOM     48  C   LIG d   1       4.881  -3.564  -4.494  0.00  0.00    -0.052 C 
ATOM     49  H   LIG d   1       3.949  -3.616  -5.057  0.00  0.00     0.024 H 
ATOM     50  H   LIG d   1       5.452  -4.479  -4.653  0.00  0.00     0.024 H 
ATOM     51  H   LIG d   1       4.660  -3.453  -3.434  0.00  0.00     0.024 H 
ENDBRANCH   6  48
BRANCH  13  52
ATOM     52  O   LIG d   1       2.782  -0.359  -6.239  0.00  0.00    -0.503 OA
ATOM     53  H   LIG d   1       2.348  -0.431  -7.099  0.00  0.00     0.292 HD
ENDBRANCH  13  52
BRANCH  11  54
ATOM     54  C   LIG d   1       3.297  -1.172  -2.858  0.00  0.00    -0.049 C 
ATOM     55  H   LIG d   1       2.277  -1.070  -3.229  0.00  0.00     0.024 H 
ATOM     56  H   LIG d   1       3.563  -2.229  -2.814  0.00  0.00     0.024 H 
ATOM     57  H   LIG d   1       3.365  -0.739  -1.860  0.00  0.00     0.024 H 
ENDBRANCH  11  54
BRANCH  11  58
ATOM     58  C   LIG d   1       3.651   0.898  -4.156  0.00  0.00    -0.049 C 
ATOM     59  H   LIG d   1       3.735   1.049  -5.232  0.00  0.00     0.024 H 
ATOM     60  H   LIG d   1       2.599   0.927  -3.867  0.00  0.00     0.024 H 
ATOM     61  H   LIG d   1       4.192   1.689  -3.635  0.00  0.00     0.024 H 
ENDBRANCH  11  58
TORSDOF 7
ENDMDL
MODEL 10
REMARK VINA RESULT:      -5.4      2.575      5.874
REMARK  7 active torsions:
REMARK  status: ('A' for Active; 'I' for Inactive)
REMARK    1  A    between atoms: C_1  and  C_2 
REMARK    2  A    between atoms: C_7  and  C_34 
REMARK    3  A    between atoms: C_12  and  C_32 
REMARK    4  A    between atoms: C_12  and  C_33 
REMARK    5  A    between atoms: C_14  and  O_31 
REMARK    6  A    between atoms: C_17  and  C_30 
REMARK    7  A    between atoms: C_23  and  C_25 
ROOT
ATOM      1  C   LIG d   1       4.582  -0.653  -6.464  0.00  0.00     0.007 C 
ATOM      2  C   LIG d   1       5.971  -0.564  -6.827  0.00  0.00    -0.044 C 
ATOM      3  C   LIG d   1       6.155  -0.108  -8.236  0.00  0.00    -0.048 C 
ATOM      4  C   LIG d   1       5.277  -0.887  -9.223  0.00  0.00    -0.013 C 
ATOM      5  H   LIG d   1       5.566  -0.398 -10.245  0.00  0.00     0.032 H 
ATOM      6  C   LIG d   1       5.716  -2.276  -9.348  0.00  0.00     0.016 C 
ATOM      7  C   LIG d   1       7.061  -2.569  -8.805  0.00  0.00    -0.070 C 
ATOM      8  C   LIG d   1       7.416  -3.665  -8.147  0.00  0.00    -0.021 C 
ATOM      9  C   LIG d   1       6.477  -4.730  -7.933  0.00  0.00     0.166 C 
ATOM     10  O   LIG d   1       6.657  -5.581  -7.131  0.00  0.00    -0.292 OA
ATOM     11  C   LIG d   1       5.143  -4.833  -8.793  0.00  0.00     0.053 C 
ATOM     12  C   LIG d   1       4.704  -3.389  -9.056  0.00  0.00    -0.002 C 
ATOM     13  C   LIG d   1       3.423  -3.117  -9.134  0.00  0.00     0.161 C 
ATOM     14  C   LIG d   1       2.918  -1.763  -9.302  0.00  0.00     0.206 C 
ATOM     15  O   LIG d   1       1.752  -1.477  -9.608  0.00  0.00    -0.288 OA
ATOM     16  C   LIG d   1       3.891  -0.565  -8.981  0.00  0.00     0.070 C 
ATOM     17  C   LIG d   1       3.707   0.009  -7.579  0.00  0.00     0.115 A 
ATOM     18  C   LIG d   1       2.418   0.506  -6.937  0.00  0.00     0.090 A 
ATOM     19  H   LIG d   1       1.437   0.463  -7.368  0.00  0.00     0.063 H 
ATOM     20  O   LIG d   1       3.369   1.356  -7.488  0.00  0.00    -0.363 OA
ATOM     21  C   LIG d   1       2.642   0.290  -5.380  0.00  0.00    -0.016 C 
ATOM     22  C   LIG d   1       4.174   0.115  -5.231  0.00  0.00    -0.002 C 
ATOM     23  H   LIG d   1       4.614   1.084  -5.273  0.00  0.00     0.036 H 
ATOM     24  H   LIG d   1       6.502   0.200  -6.109  0.00  0.00     0.027 H 
ATOM     25  H   LIG d   1       6.474  -1.495  -6.661  0.00  0.00     0.027 H 
ATOM     26  H   LIG d   1       5.968   0.970  -8.264  0.00  0.00     0.027 H 
ATOM     27  H   LIG d   1       7.177  -0.222  -8.532  0.00  0.00     0.027 H 
ATOM     28  H   LIG d   1       7.854  -1.828  -8.966  0.00  0.00     0.058 H 
ATOM     29  H   LIG d   1       8.454  -3.800  -7.809  0.00  0.00     0.065 H 
ATOM     30  H   LIG d   1       2.217   1.068  -4.865  0.00  0.00     0.030 H 
ATOM     31  H   LIG d   1       2.069  -0.657  -5.128  0.00  0.00     0.030 H 
ENDROOT
BRANCH  22  32
ATOM     32  C   LIG d   1       4.501  -0.581  -3.935  0.00  0.00    -0.006 A 
ATOM     33  C   LIG d   1       5.726  -0.908  -3.488  0.00  0.00     0.095 A 
ATOM     34  O   LIG d   1       5.595  -1.512  -2.295  0.00  0.00    -0.471 OA
ATOM     35  H   LIG d   1       6.657  -0.717  -4.000  0.00  0.00     0.103 H 
ATOM     36  C   LIG d   1       4.293  -1.585  -1.971  0.00  0.00     0.092 A 
ATOM     37  C   LIG d   1       3.576  -1.019  -2.959  0.00  0.00    -0.021 A 
ATOM     38  H   LIG d   1       3.890  -2.023  -1.070  0.00  0.00     0.103 H 
ATOM     39  H   LIG d   1       2.503  -0.919  -2.999  0.00  0.00     0.065 H 
ENDBRANCH  22  32
BRANCH   1  40
ATOM     40  C   LIG d   1       4.175  -2.113  -6.248  0.00  0.00    -0.056 C 
ATOM     41  H   LIG d   1       3.185  -2.151  -5.793  0.00  0.00     0.024 H 
ATOM     42  H   LIG d   1       4.156  -2.631  -7.206  0.00  0.00     0.024 H 
ATOM     43  H   LIG d   1       4.896  -2.596  -5.588  0.00  0.00     0.024 H 
ENDBRANCH   1  40
BRANCH  16  44
ATOM     44  C   LIG d   1       3.406   0.513  -9.957  0.00  0.00    -0.049 C 
ATOM     45  H   LIG d   1       4.243   0.857 -10.563  0.00  0.00     0.024 H 
ATOM     46  H   LIG d   1       2.633   0.096 -10.604  0.00  0.00     0.024 H 
ATOM     47  H   LIG d   1       2.995   1.352  -9.396  0.00  0.00     0.024 H 
ENDBRANCH  16  44
BRANCH   6  48
ATOM     48  C   LIG d   1       5.917  -2.448 -10.868  0.00  0.00    -0.052 C 
ATOM     49  H   LIG d   1       5.312  -3.283 -11.222  0.00  0.00     0.024 H 
ATOM     50  H   LIG d   1       5.612  -1.536 -11.381  0.00  0.00     0.024 H 
ATOM     51  H   LIG d   1       6.968  -2.648 -11.075  0.00  0.00     0.024 H 
ENDBRANCH   6  48
BRANCH  13  52
ATOM     52  O   LIG d   1       2.418  -4.068  -9.178  0.00  0.00    -0.503 OA
ATOM     53  H   LIG d   1       1.572  -3.761  -8.825  0.00  0.00     0.292 HD
ENDBRANCH  13  52
BRANCH  11  54
ATOM     54  C   LIG d   1       5.453  -5.614 -10.045  0.00  0.00    -0.049 C 
ATOM     55  H   LIG d   1       5.379  -4.956 -10.911  0.00  0.00     0.024 H 
ATOM     56  H   LIG d   1       6.465  -6.016  -9.981  0.00  0.00     0.024 H 
ATOM     57  H   LIG d   1       4.742  -6.433 -10.148  0.00  0.00     0.024 H 
ENDBRANCH  11  54
BRANCH  11  58
ATOM     58  C   LIG d   1       4.116  -5.594  -7.970  0.00  0.00    -0.049 C 
ATOM     59  H   LIG d   1       3.850  -6.519  -8.484  0.00  0.00     0.024 H 
ATOM     60  H   LIG d   1       4.536  -5.831  -6.991  0.00  0.00     0.024 H 
ATOM     61  H   LIG d   1       3.224  -4.981  -7.842  0.00  0.00     0.024 H 
ENDBRANCH  11  58
TORSDOF 7
ENDMDL
