MODEL 1
REMARK VINA RESULT:      -7.1      0.000      0.000
REMARK  6 active torsions:
REMARK  status: ('A' for Active; 'I' for Inactive)
REMARK    1  A    between atoms: C_1  and  O_2 
REMARK    2  A    between atoms: O_2  and  C_3 
REMARK    3  A    between atoms: C_6  and  C_9 
REMARK    4  A    between atoms: C_9  and  N_10 
REMARK    5  A    between atoms: C_19  and  C_21 
REMARK    6  A    between atoms: C_23  and  C_26 
ROOT
ATOM      1  N   LIG d   1      10.305   5.047  -4.107  0.00  0.00    -0.279 N 
ATOM      2  C   LIG d   1      10.418   6.513  -4.189  0.00  0.00     0.066 C 
ATOM      3  C   LIG d   1      10.714   6.886  -5.620  0.00  0.00     0.159 A 
ATOM      4  C   LIG d   1      10.526   6.042  -6.661  0.00  0.00     0.148 A 
ATOM      5  N   LIG d   1      10.896   6.705  -7.788  0.00  0.00    -0.247 N 
ATOM      6  H   LIG d   1      10.876   6.360  -8.693  0.00  0.00     0.310 HD
ATOM      7  C   LIG d   1      11.299   7.940  -7.404  0.00  0.00     0.243 A 
ATOM      8  N   LIG d   1      11.184   8.036  -6.104  0.00  0.00    -0.246 N 
ATOM      9  C   LIG d   1       9.998   4.639  -6.509  0.00  0.00     0.037 C 
ATOM     10  C   LIG d   1       9.370   4.522  -5.113  0.00  0.00     0.098 C 
ATOM     11  H   LIG d   1       8.443   5.095  -5.082  0.00  0.00     0.057 H 
ATOM     12  H   LIG d   1       9.480   6.972  -3.877  0.00  0.00     0.051 H 
ATOM     13  H   LIG d   1      11.227   6.855  -3.546  0.00  0.00     0.051 H 
ATOM     14  H   LIG d   1      11.655   8.718  -8.063  0.00  0.00     0.158 H 
ATOM     15  H   LIG d   1       9.242   4.445  -7.270  0.00  0.00     0.037 H 
ATOM     16  H   LIG d   1      10.814   3.924  -6.608  0.00  0.00     0.037 H 
ATOM     17  H   LIG d   1      11.406   8.819  -5.577  0.00  0.00     0.310 HD
ENDROOT
BRANCH   1  18
ATOM     18  C   LIG d   1       9.915   4.624  -2.755  0.00  0.00     0.025 C 
ATOM     19  H   LIG d   1      10.207   3.585  -2.602  0.00  0.00     0.048 H 
ATOM     20  H   LIG d   1       8.835   4.718  -2.642  0.00  0.00     0.048 H 
BRANCH  18  21
ATOM     21  C   LIG d   1      10.606   5.495  -1.738  0.00  0.00    -0.033 A 
ATOM     22  C   LIG d   1      11.915   5.230  -1.378  0.00  0.00    -0.054 A 
ATOM     23  C   LIG d   1      12.550   6.027  -0.446  0.00  0.00    -0.020 A 
ATOM     24  H   LIG d   1      12.440   4.400  -1.825  0.00  0.00     0.062 H 
ATOM     25  C   LIG d   1      11.876   7.095   0.128  0.00  0.00     0.120 A 
ATOM     26  H   LIG d   1      13.572   5.821  -0.165  0.00  0.00     0.065 H 
ATOM     27  C   LIG d   1      10.560   7.356  -0.231  0.00  0.00    -0.020 A 
ATOM     28  C   LIG d   1       9.931   6.558  -1.168  0.00  0.00    -0.054 A 
ATOM     29  H   LIG d   1      10.032   8.183   0.217  0.00  0.00     0.065 H 
ATOM     30  H   LIG d   1       8.910   6.764  -1.452  0.00  0.00     0.062 H 
BRANCH  25  31
ATOM     31  O   LIG d   1      12.499   7.881   1.045  0.00  0.00    -0.495 OA
BRANCH  31  32
ATOM     32  C   LIG d   1      11.787   9.032   1.504  0.00  0.00     0.079 C 
ATOM     33  H   LIG d   1      11.335   8.818   2.472  0.00  0.00     0.066 H 
ATOM     34  H   LIG d   1      12.477   9.870   1.603  0.00  0.00     0.066 H 
ATOM     35  H   LIG d   1      11.006   9.286   0.787  0.00  0.00     0.066 H 
ENDBRANCH  31  32
ENDBRANCH  25  31
ENDBRANCH  18  21
ENDBRANCH   1  18
BRANCH  10  36
ATOM     36  C   LIG d   1       9.075   3.074  -4.815  0.00  0.00     0.245 A 
ATOM     37  O   LIG d   1       9.920   2.051  -4.991  0.00  0.00    -0.336 OA
ATOM     38  N   LIG d   1       9.225   0.882  -4.582  0.00  0.00    -0.056 NA
ATOM     39  C   LIG d   1       8.033   1.272  -4.204  0.00  0.00     0.202 A 
ATOM     40  N   LIG d   1       7.951   2.607  -4.350  0.00  0.00    -0.190 NA
BRANCH  39  41
ATOM     41  C   LIG d   1       6.953   0.389  -3.699  0.00  0.00     0.022 A 
ATOM     42  C   LIG d   1       5.880   0.932  -2.993  0.00  0.00    -0.050 A 
ATOM     43  C   LIG d   1       4.874   0.108  -2.531  0.00  0.00    -0.043 A 
ATOM     44  H   LIG d   1       5.834   1.995  -2.811  0.00  0.00     0.062 H 
ATOM     45  C   LIG d   1       4.935  -1.257  -2.757  0.00  0.00     0.041 A 
ATOM     46  H   LIG d   1       4.040   0.527  -1.987  0.00  0.00     0.063 H 
ATOM     47  C   LIG d   1       6.001  -1.801  -3.454  0.00  0.00    -0.043 A 
ATOM     48 CL   LIG d   1       3.670  -2.290  -2.167  0.00  0.00    -0.084 Cl
ATOM     49  C   LIG d   1       7.008  -0.985  -3.925  0.00  0.00    -0.050 A 
ATOM     50  H   LIG d   1       6.044  -2.866  -3.629  0.00  0.00     0.063 H 
ATOM     51  H   LIG d   1       7.839  -1.409  -4.469  0.00  0.00     0.062 H 
ENDBRANCH  39  41
ENDBRANCH  10  36
TORSDOF 6
ENDMDL
MODEL 2
REMARK VINA RESULT:      -7.1      7.248     10.357
REMARK  6 active torsions:
REMARK  status: ('A' for Active; 'I' for Inactive)
REMARK    1  A    between atoms: C_1  and  O_2 
REMARK    2  A    between atoms: O_2  and  C_3 
REMARK    3  A    between atoms: C_6  and  C_9 
REMARK    4  A    between atoms: C_9  and  N_10 
REMARK    5  A    between atoms: C_19  and  C_21 
REMARK    6  A    between atoms: C_23  and  C_26 
ROOT
ATOM      1  N   LIG d   1       3.669  -0.410 -11.229  0.00  0.00    -0.279 N 
ATOM      2  C   LIG d   1       3.544  -0.653 -12.677  0.00  0.00     0.066 C 
ATOM      3  C   LIG d   1       2.433  -1.650 -12.896  0.00  0.00     0.159 A 
ATOM      4  C   LIG d   1       1.508  -1.948 -11.955  0.00  0.00     0.148 A 
ATOM      5  N   LIG d   1       0.674  -2.877 -12.493  0.00  0.00    -0.247 N 
ATOM      6  H   LIG d   1      -0.089  -3.287 -12.058  0.00  0.00     0.310 HD
ATOM      7  C   LIG d   1       1.113  -3.120 -13.750  0.00  0.00     0.243 A 
ATOM      8  N   LIG d   1       2.167  -2.379 -13.980  0.00  0.00    -0.246 N 
ATOM      9  C   LIG d   1       1.478  -1.316 -10.587  0.00  0.00     0.037 C 
ATOM     10  C   LIG d   1       2.373  -0.069 -10.627  0.00  0.00     0.098 C 
ATOM     11  H   LIG d   1       1.889   0.707 -11.221  0.00  0.00     0.057 H 
ATOM     12  H   LIG d   1       3.306   0.280 -13.187  0.00  0.00     0.051 H 
ATOM     13  H   LIG d   1       4.480  -1.055 -13.064  0.00  0.00     0.051 H 
ATOM     14  H   LIG d   1       0.666  -3.812 -14.449  0.00  0.00     0.158 H 
ATOM     15  H   LIG d   1       0.458  -1.030 -10.335  0.00  0.00     0.037 H 
ATOM     16  H   LIG d   1       1.859  -2.020  -9.848  0.00  0.00     0.037 H 
ATOM     17  H   LIG d   1       2.673  -2.362 -14.807  0.00  0.00     0.310 HD
ENDROOT
BRANCH   1  18
ATOM     18  C   LIG d   1       4.668   0.631 -10.955  0.00  0.00     0.025 C 
ATOM     19  H   LIG d   1       4.167   1.527 -10.587  0.00  0.00     0.048 H 
ATOM     20  H   LIG d   1       5.208   0.868 -11.872  0.00  0.00     0.048 H 
BRANCH  18  21
ATOM     21  C   LIG d   1       5.638   0.134  -9.915  0.00  0.00    -0.033 A 
ATOM     22  C   LIG d   1       6.217   1.025  -9.030  0.00  0.00    -0.054 A 
ATOM     23  C   LIG d   1       7.107   0.572  -8.075  0.00  0.00    -0.020 A 
ATOM     24  H   LIG d   1       5.973   2.075  -9.084  0.00  0.00     0.062 H 
ATOM     25  C   LIG d   1       7.420  -0.778  -8.003  0.00  0.00     0.120 A 
ATOM     26  H   LIG d   1       7.558   1.267  -7.383  0.00  0.00     0.065 H 
ATOM     27  C   LIG d   1       6.842  -1.669  -8.897  0.00  0.00    -0.020 A 
ATOM     28  C   LIG d   1       5.948  -1.212  -9.846  0.00  0.00    -0.054 A 
ATOM     29  H   LIG d   1       7.086  -2.719  -8.847  0.00  0.00     0.065 H 
ATOM     30  H   LIG d   1       5.495  -1.906 -10.538  0.00  0.00     0.062 H 
BRANCH  25  31
ATOM     31  O   LIG d   1       8.294  -1.226  -7.065  0.00  0.00    -0.495 OA
BRANCH  31  32
ATOM     32  C   LIG d   1       8.306  -0.543  -5.810  0.00  0.00     0.079 C 
ATOM     33  H   LIG d   1       7.419  -0.817  -5.239  0.00  0.00     0.066 H 
ATOM     34  H   LIG d   1       9.199  -0.824  -5.252  0.00  0.00     0.066 H 
ATOM     35  H   LIG d   1       8.309   0.534  -5.983  0.00  0.00     0.066 H 
ENDBRANCH  31  32
ENDBRANCH  25  31
ENDBRANCH  18  21
ENDBRANCH   1  18
BRANCH  10  36
ATOM     36  C   LIG d   1       2.590   0.438  -9.224  0.00  0.00     0.245 A 
ATOM     37  O   LIG d   1       2.506   1.715  -8.831  0.00  0.00    -0.336 OA
ATOM     38  N   LIG d   1       2.782   1.726  -7.439  0.00  0.00    -0.056 NA
ATOM     39  C   LIG d   1       3.015   0.482  -7.097  0.00  0.00     0.202 A 
ATOM     40  N   LIG d   1       2.896  -0.293  -8.190  0.00  0.00    -0.190 NA
BRANCH  39  41
ATOM     41  C   LIG d   1       3.355   0.008  -5.733  0.00  0.00     0.022 A 
ATOM     42  C   LIG d   1       4.506  -0.749  -5.523  0.00  0.00    -0.050 A 
ATOM     43  C   LIG d   1       4.822  -1.183  -4.251  0.00  0.00    -0.043 A 
ATOM     44  H   LIG d   1       5.152  -0.993  -6.353  0.00  0.00     0.062 H 
ATOM     45  C   LIG d   1       3.990  -0.877  -3.187  0.00  0.00     0.041 A 
ATOM     46  H   LIG d   1       5.716  -1.766  -4.087  0.00  0.00     0.063 H 
ATOM     47  C   LIG d   1       2.843  -0.129  -3.392  0.00  0.00    -0.043 A 
ATOM     48 CL   LIG d   1       4.388  -1.431  -1.591  0.00  0.00    -0.084 Cl
ATOM     49  C   LIG d   1       2.522   0.314  -4.658  0.00  0.00    -0.050 A 
ATOM     50  H   LIG d   1       2.198   0.108  -2.559  0.00  0.00     0.063 H 
ATOM     51  H   LIG d   1       1.628   0.898  -4.817  0.00  0.00     0.062 H 
ENDBRANCH  39  41
ENDBRANCH  10  36
TORSDOF 6
ENDMDL
MODEL 3
REMARK VINA RESULT:      -7.0      7.758     11.245
REMARK  6 active torsions:
REMARK  status: ('A' for Active; 'I' for Inactive)
REMARK    1  A    between atoms: C_1  and  O_2 
REMARK    2  A    between atoms: O_2  and  C_3 
REMARK    3  A    between atoms: C_6  and  C_9 
REMARK    4  A    between atoms: C_9  and  N_10 
REMARK    5  A    between atoms: C_19  and  C_21 
REMARK    6  A    between atoms: C_23  and  C_26 
ROOT
ATOM      1  N   LIG d   1       4.809  -1.636  -5.606  0.00  0.00    -0.279 N 
ATOM      2  C   LIG d   1       5.395  -0.334  -5.241  0.00  0.00     0.066 C 
ATOM      3  C   LIG d   1       5.059  -0.052  -3.798  0.00  0.00     0.159 A 
ATOM      4  C   LIG d   1       4.631  -1.003  -2.936  0.00  0.00     0.148 A 
ATOM      5  N   LIG d   1       4.425  -0.396  -1.738  0.00  0.00    -0.247 N 
ATOM      6  H   LIG d   1       4.115  -0.819  -0.922  0.00  0.00     0.310 HD
ATOM      7  C   LIG d   1       4.735   0.912  -1.900  0.00  0.00     0.243 A 
ATOM      8  N   LIG d   1       5.114   1.106  -3.138  0.00  0.00    -0.246 N 
ATOM      9  C   LIG d   1       4.446  -2.449  -3.318  0.00  0.00     0.037 C 
ATOM     10  C   LIG d   1       5.182  -2.682  -4.645  0.00  0.00     0.098 C 
ATOM     11  H   LIG d   1       6.259  -2.652  -4.473  0.00  0.00     0.057 H 
ATOM     12  H   LIG d   1       6.476  -0.369  -5.366  0.00  0.00     0.051 H 
ATOM     13  H   LIG d   1       4.976   0.447  -5.875  0.00  0.00     0.051 H 
ATOM     14  H   LIG d   1       4.680   1.671  -1.134  0.00  0.00     0.158 H 
ATOM     15  H   LIG d   1       4.867  -3.091  -2.545  0.00  0.00     0.037 H 
ATOM     16  H   LIG d   1       3.385  -2.666  -3.441  0.00  0.00     0.037 H 
ATOM     17  H   LIG d   1       5.391   1.955  -3.515  0.00  0.00     0.310 HD
ENDROOT
BRANCH   1  18
ATOM     18  C   LIG d   1       5.187  -2.017  -6.973  0.00  0.00     0.025 C 
ATOM     19  H   LIG d   1       5.392  -3.088  -7.008  0.00  0.00     0.048 H 
ATOM     20  H   LIG d   1       6.079  -1.466  -7.271  0.00  0.00     0.048 H 
BRANCH  18  21
ATOM     21  C   LIG d   1       4.057  -1.692  -7.916  0.00  0.00    -0.033 A 
ATOM     22  C   LIG d   1       3.650  -2.624  -8.852  0.00  0.00    -0.054 A 
ATOM     23  C   LIG d   1       2.614  -2.328  -9.717  0.00  0.00    -0.020 A 
ATOM     24  H   LIG d   1       4.140  -3.584  -8.907  0.00  0.00     0.062 H 
ATOM     25  C   LIG d   1       1.982  -1.095  -9.646  0.00  0.00     0.120 A 
ATOM     26  H   LIG d   1       2.295  -3.057 -10.448  0.00  0.00     0.065 H 
ATOM     27  C   LIG d   1       2.397  -0.159  -8.709  0.00  0.00    -0.020 A 
ATOM     28  C   LIG d   1       3.430  -0.462  -7.843  0.00  0.00    -0.054 A 
ATOM     29  H   LIG d   1       1.910   0.803  -8.654  0.00  0.00     0.065 H 
ATOM     30  H   LIG d   1       3.749   0.264  -7.110  0.00  0.00     0.062 H 
BRANCH  25  31
ATOM     31  O   LIG d   1       0.963  -0.802 -10.496  0.00  0.00    -0.495 OA
BRANCH  31  32
ATOM     32  C   LIG d   1       1.050  -1.332 -11.820  0.00  0.00     0.079 C 
ATOM     33  H   LIG d   1       1.385  -2.367 -11.776  0.00  0.00     0.066 H 
ATOM     34  H   LIG d   1       0.069  -1.287 -12.294  0.00  0.00     0.066 H 
ATOM     35  H   LIG d   1       1.761  -0.744 -12.401  0.00  0.00     0.066 H 
ENDBRANCH  31  32
ENDBRANCH  25  31
ENDBRANCH  18  21
ENDBRANCH   1  18
BRANCH  10  36
ATOM     36  C   LIG d   1       4.802  -4.032  -5.199  0.00  0.00     0.245 A 
ATOM     37  O   LIG d   1       3.645  -4.331  -5.802  0.00  0.00    -0.336 OA
ATOM     38  N   LIG d   1       3.723  -5.703  -6.160  0.00  0.00    -0.056 NA
ATOM     39  C   LIG d   1       4.892  -6.128  -5.751  0.00  0.00     0.202 A 
ATOM     40  N   LIG d   1       5.541  -5.103  -5.167  0.00  0.00    -0.190 NA
BRANCH  39  41
ATOM     41  C   LIG d   1       5.415  -7.508  -5.904  0.00  0.00     0.022 A 
ATOM     42  C   LIG d   1       4.819  -8.384  -6.810  0.00  0.00    -0.050 A 
ATOM     43  C   LIG d   1       5.313  -9.665  -6.954  0.00  0.00    -0.043 A 
ATOM     44  H   LIG d   1       3.976  -8.060  -7.401  0.00  0.00     0.062 H 
ATOM     45  C   LIG d   1       6.391 -10.083  -6.191  0.00  0.00     0.041 A 
ATOM     46  H   LIG d   1       4.856 -10.343  -7.659  0.00  0.00     0.063 H 
ATOM     47  C   LIG d   1       6.982  -9.218  -5.287  0.00  0.00    -0.043 A 
ATOM     48 CL   LIG d   1       7.003 -11.698  -6.371  0.00  0.00    -0.084 Cl
ATOM     49  C   LIG d   1       6.500  -7.934  -5.140  0.00  0.00    -0.050 A 
ATOM     50  H   LIG d   1       7.823  -9.549  -4.695  0.00  0.00     0.063 H 
ATOM     51  H   LIG d   1       6.962  -7.259  -4.435  0.00  0.00     0.062 H 
ENDBRANCH  39  41
ENDBRANCH  10  36
TORSDOF 6
ENDMDL
MODEL 4
REMARK VINA RESULT:      -7.0      2.334      3.283
REMARK  6 active torsions:
REMARK  status: ('A' for Active; 'I' for Inactive)
REMARK    1  A    between atoms: C_1  and  O_2 
REMARK    2  A    between atoms: O_2  and  C_3 
REMARK    3  A    between atoms: C_6  and  C_9 
REMARK    4  A    between atoms: C_9  and  N_10 
REMARK    5  A    between atoms: C_19  and  C_21 
REMARK    6  A    between atoms: C_23  and  C_26 
ROOT
ATOM      1  N   LIG d   1      11.348   3.982  -3.557  0.00  0.00    -0.279 N 
ATOM      2  C   LIG d   1      12.670   4.630  -3.534  0.00  0.00     0.066 C 
ATOM      3  C   LIG d   1      13.715   3.567  -3.304  0.00  0.00     0.159 A 
ATOM      4  C   LIG d   1      13.478   2.245  -3.471  0.00  0.00     0.148 A 
ATOM      5  N   LIG d   1      14.631   1.590  -3.176  0.00  0.00    -0.247 N 
ATOM      6  H   LIG d   1      14.773   0.631  -3.202  0.00  0.00     0.310 HD
ATOM      7  C   LIG d   1      15.544   2.531  -2.836  0.00  0.00     0.243 A 
ATOM      8  N   LIG d   1      14.983   3.711  -2.918  0.00  0.00    -0.246 N 
ATOM      9  C   LIG d   1      12.148   1.687  -3.910  0.00  0.00     0.037 C 
ATOM     10  C   LIG d   1      11.321   2.845  -4.488  0.00  0.00     0.098 C 
ATOM     11  H   LIG d   1      11.742   3.150  -5.446  0.00  0.00     0.057 H 
ATOM     12  H   LIG d   1      12.854   5.124  -4.488  0.00  0.00     0.051 H 
ATOM     13  H   LIG d   1      12.707   5.361  -2.728  0.00  0.00     0.051 H 
ATOM     14  H   LIG d   1      16.567   2.339  -2.547  0.00  0.00     0.158 H 
ATOM     15  H   LIG d   1      12.302   0.927  -4.675  0.00  0.00     0.037 H 
ATOM     16  H   LIG d   1      11.630   1.253  -3.056  0.00  0.00     0.037 H 
ATOM     17  H   LIG d   1      15.421   4.555  -2.728  0.00  0.00     0.310 HD
ENDROOT
BRANCH   1  18
ATOM     18  C   LIG d   1      10.292   4.952  -3.880  0.00  0.00     0.025 C 
ATOM     19  H   LIG d   1       9.328   4.443  -3.908  0.00  0.00     0.048 H 
ATOM     20  H   LIG d   1      10.496   5.399  -4.853  0.00  0.00     0.048 H 
BRANCH  18  21
ATOM     21  C   LIG d   1      10.261   6.028  -2.827  0.00  0.00    -0.033 A 
ATOM     22  C   LIG d   1      10.355   5.689  -1.489  0.00  0.00    -0.054 A 
ATOM     23  C   LIG d   1      10.326   6.674  -0.522  0.00  0.00    -0.020 A 
ATOM     24  H   LIG d   1      10.451   4.653  -1.202  0.00  0.00     0.062 H 
ATOM     25  C   LIG d   1      10.204   8.006  -0.892  0.00  0.00     0.120 A 
ATOM     26  H   LIG d   1      10.401   6.410   0.522  0.00  0.00     0.065 H 
ATOM     27  C   LIG d   1      10.104   8.344  -2.235  0.00  0.00    -0.020 A 
ATOM     28  C   LIG d   1      10.139   7.354  -3.199  0.00  0.00    -0.054 A 
ATOM     29  H   LIG d   1      10.004   9.378  -2.526  0.00  0.00     0.065 H 
ATOM     30  H   LIG d   1      10.066   7.617  -4.243  0.00  0.00     0.062 H 
BRANCH  25  31
ATOM     31  O   LIG d   1      10.175   8.977   0.058  0.00  0.00    -0.495 OA
BRANCH  31  32
ATOM     32  C   LIG d   1       9.599  10.231  -0.313  0.00  0.00     0.079 C 
ATOM     33  H   LIG d   1      10.079  10.598  -1.220  0.00  0.00     0.066 H 
ATOM     34  H   LIG d   1       8.532  10.101  -0.495  0.00  0.00     0.066 H 
ATOM     35  H   LIG d   1       9.745  10.950   0.492  0.00  0.00     0.066 H 
ENDBRANCH  31  32
ENDBRANCH  25  31
ENDBRANCH  18  21
ENDBRANCH   1  18
BRANCH  10  36
ATOM     36  C   LIG d   1       9.897   2.393  -4.687  0.00  0.00     0.245 A 
ATOM     37  O   LIG d   1       9.084   2.783  -5.677  0.00  0.00    -0.336 OA
ATOM     38  N   LIG d   1       7.851   2.109  -5.472  0.00  0.00    -0.056 NA
ATOM     39  C   LIG d   1       8.000   1.382  -4.392  0.00  0.00     0.202 A 
ATOM     40  N   LIG d   1       9.249   1.562  -3.923  0.00  0.00    -0.190 NA
BRANCH  39  41
ATOM     41  C   LIG d   1       6.967   0.507  -3.787  0.00  0.00     0.022 A 
ATOM     42  C   LIG d   1       5.895   1.067  -3.095  0.00  0.00    -0.050 A 
ATOM     43  C   LIG d   1       4.931   0.249  -2.539  0.00  0.00    -0.043 A 
ATOM     44  H   LIG d   1       5.816   2.139  -2.996  0.00  0.00     0.062 H 
ATOM     45  C   LIG d   1       5.036  -1.127  -2.660  0.00  0.00     0.041 A 
ATOM     46  H   LIG d   1       4.098   0.682  -2.007  0.00  0.00     0.063 H 
ATOM     47  C   LIG d   1       6.101  -1.688  -3.343  0.00  0.00    -0.043 A 
ATOM     48 CL   LIG d   1       3.825  -2.151  -1.953  0.00  0.00    -0.084 Cl
ATOM     49  C   LIG d   1       7.066  -0.879  -3.906  0.00  0.00    -0.050 A 
ATOM     50  H   LIG d   1       6.178  -2.761  -3.434  0.00  0.00     0.063 H 
ATOM     51  H   LIG d   1       7.896  -1.317  -4.439  0.00  0.00     0.062 H 
ENDBRANCH  39  41
ENDBRANCH  10  36
TORSDOF 6
ENDMDL
MODEL 5
REMARK VINA RESULT:      -6.9      4.718     10.088
REMARK  6 active torsions:
REMARK  status: ('A' for Active; 'I' for Inactive)
REMARK    1  A    between atoms: C_1  and  O_2 
REMARK    2  A    between atoms: O_2  and  C_3 
REMARK    3  A    between atoms: C_6  and  C_9 
REMARK    4  A    between atoms: C_9  and  N_10 
REMARK    5  A    between atoms: C_19  and  C_21 
REMARK    6  A    between atoms: C_23  and  C_26 
ROOT
ATOM      1  N   LIG d   1       5.315  -2.111  -5.276  0.00  0.00    -0.279 N 
ATOM      2  C   LIG d   1       4.711  -3.448  -5.412  0.00  0.00     0.066 C 
ATOM      3  C   LIG d   1       5.819  -4.471  -5.397  0.00  0.00     0.159 A 
ATOM      4  C   LIG d   1       7.071  -4.203  -4.961  0.00  0.00     0.148 A 
ATOM      5  N   LIG d   1       7.795  -5.346  -5.094  0.00  0.00    -0.247 N 
ATOM      6  H   LIG d   1       8.730  -5.466  -4.866  0.00  0.00     0.310 HD
ATOM      7  C   LIG d   1       6.963  -6.283  -5.607  0.00  0.00     0.243 A 
ATOM      8  N   LIG d   1       5.782  -5.747  -5.783  0.00  0.00    -0.246 N 
ATOM      9  C   LIG d   1       7.500  -2.857  -4.438  0.00  0.00     0.037 C 
ATOM     10  C   LIG d   1       6.232  -2.048  -4.129  0.00  0.00     0.098 C 
ATOM     11  H   LIG d   1       5.741  -2.463  -3.249  0.00  0.00     0.057 H 
ATOM     12  H   LIG d   1       4.032  -3.630  -4.579  0.00  0.00     0.051 H 
ATOM     13  H   LIG d   1       4.166  -3.510  -6.352  0.00  0.00     0.051 H 
ATOM     14  H   LIG d   1       7.230  -7.305  -5.833  0.00  0.00     0.158 H 
ATOM     15  H   LIG d   1       8.086  -2.984  -3.529  0.00  0.00     0.037 H 
ATOM     16  H   LIG d   1       8.093  -2.340  -5.192  0.00  0.00     0.037 H 
ATOM     17  H   LIG d   1       5.005  -6.205  -6.138  0.00  0.00     0.310 HD
ENDROOT
BRANCH   1  18
ATOM     18  C   LIG d   1       4.280  -1.073  -5.181  0.00  0.00     0.025 C 
ATOM     19  H   LIG d   1       4.548  -0.364  -4.398  0.00  0.00     0.048 H 
ATOM     20  H   LIG d   1       3.323  -1.536  -4.940  0.00  0.00     0.048 H 
BRANCH  18  21
ATOM     21  C   LIG d   1       4.172  -0.350  -6.498  0.00  0.00    -0.033 A 
ATOM     22  C   LIG d   1       2.968   0.217  -6.877  0.00  0.00    -0.054 A 
ATOM     23  C   LIG d   1       2.867   0.881  -8.084  0.00  0.00    -0.020 A 
ATOM     24  H   LIG d   1       2.109   0.142  -6.229  0.00  0.00     0.062 H 
ATOM     25  C   LIG d   1       3.972   0.980  -8.917  0.00  0.00     0.120 A 
ATOM     26  H   LIG d   1       1.928   1.325  -8.379  0.00  0.00     0.065 H 
ATOM     27  C   LIG d   1       5.177   0.404  -8.537  0.00  0.00    -0.020 A 
ATOM     28  C   LIG d   1       5.275  -0.254  -7.326  0.00  0.00    -0.054 A 
ATOM     29  H   LIG d   1       6.037   0.476  -9.184  0.00  0.00     0.065 H 
ATOM     30  H   LIG d   1       6.213  -0.696  -7.028  0.00  0.00     0.062 H 
BRANCH  25  31
ATOM     31  O   LIG d   1       3.874   1.632 -10.105  0.00  0.00    -0.495 OA
BRANCH  31  32
ATOM     32  C   LIG d   1       4.034   0.850 -11.290  0.00  0.00     0.079 C 
ATOM     33  H   LIG d   1       4.879   1.229 -11.864  0.00  0.00     0.066 H 
ATOM     34  H   LIG d   1       4.218  -0.189 -11.017  0.00  0.00     0.066 H 
ATOM     35  H   LIG d   1       3.128   0.913 -11.891  0.00  0.00     0.066 H 
ENDBRANCH  31  32
ENDBRANCH  25  31
ENDBRANCH  18  21
ENDBRANCH   1  18
BRANCH  10  36
ATOM     36  C   LIG d   1       6.605  -0.612  -3.864  0.00  0.00     0.245 A 
ATOM     37  O   LIG d   1       6.020   0.197  -2.972  0.00  0.00    -0.336 OA
ATOM     38  N   LIG d   1       6.691   1.445  -3.061  0.00  0.00    -0.056 NA
ATOM     39  C   LIG d   1       7.608   1.308  -3.987  0.00  0.00     0.202 A 
ATOM     40  N   LIG d   1       7.548   0.053  -4.469  0.00  0.00    -0.190 NA
BRANCH  39  41
ATOM     41  C   LIG d   1       8.555   2.361  -4.429  0.00  0.00     0.022 A 
ATOM     42  C   LIG d   1       9.235   3.130  -3.487  0.00  0.00    -0.050 A 
ATOM     43  C   LIG d   1      10.121   4.103  -3.903  0.00  0.00    -0.043 A 
ATOM     44  H   LIG d   1       9.074   2.961  -2.433  0.00  0.00     0.062 H 
ATOM     45  C   LIG d   1      10.325   4.324  -5.255  0.00  0.00     0.041 A 
ATOM     46  H   LIG d   1      10.652   4.697  -3.174  0.00  0.00     0.063 H 
ATOM     47  C   LIG d   1       9.647   3.566  -6.195  0.00  0.00    -0.043 A 
ATOM     48 CL   LIG d   1      11.434   5.555  -5.773  0.00  0.00    -0.084 Cl
ATOM     49  C   LIG d   1       8.765   2.587  -5.789  0.00  0.00    -0.050 A 
ATOM     50  H   LIG d   1       9.810   3.741  -7.248  0.00  0.00     0.063 H 
ATOM     51  H   LIG d   1       8.237   1.995  -6.522  0.00  0.00     0.062 H 
ENDBRANCH  39  41
ENDBRANCH  10  36
TORSDOF 6
ENDMDL
MODEL 6
REMARK VINA RESULT:      -6.6      8.380     12.863
REMARK  6 active torsions:
REMARK  status: ('A' for Active; 'I' for Inactive)
REMARK    1  A    between atoms: C_1  and  O_2 
REMARK    2  A    between atoms: O_2  and  C_3 
REMARK    3  A    between atoms: C_6  and  C_9 
REMARK    4  A    between atoms: C_9  and  N_10 
REMARK    5  A    between atoms: C_19  and  C_21 
REMARK    6  A    between atoms: C_23  and  C_26 
ROOT
ATOM      1  N   LIG d   1       7.510  -7.380  -6.449  0.00  0.00    -0.279 N 
ATOM      2  C   LIG d   1       8.656  -7.968  -7.165  0.00  0.00     0.066 C 
ATOM      3  C   LIG d   1       8.290  -8.090  -8.624  0.00  0.00     0.159 A 
ATOM      4  C   LIG d   1       7.253  -7.429  -9.187  0.00  0.00     0.148 A 
ATOM      5  N   LIG d   1       7.220  -7.777 -10.500  0.00  0.00    -0.247 N 
ATOM      6  H   LIG d   1       6.586  -7.466 -11.164  0.00  0.00     0.310 HD
ATOM      7  C   LIG d   1       8.241  -8.642 -10.704  0.00  0.00     0.243 A 
ATOM      8  N   LIG d   1       8.875  -8.821  -9.573  0.00  0.00    -0.246 N 
ATOM      9  C   LIG d   1       6.350  -6.494  -8.424  0.00  0.00     0.037 C 
ATOM     10  C   LIG d   1       7.044  -6.147  -7.100  0.00  0.00     0.098 C 
ATOM     11  H   LIG d   1       7.896  -5.495  -7.296  0.00  0.00     0.057 H 
ATOM     12  H   LIG d   1       9.527  -7.322  -7.059  0.00  0.00     0.051 H 
ATOM     13  H   LIG d   1       8.876  -8.954  -6.758  0.00  0.00     0.051 H 
ATOM     14  H   LIG d   1       8.492  -9.108 -11.646  0.00  0.00     0.158 H 
ATOM     15  H   LIG d   1       6.187  -5.585  -9.004  0.00  0.00     0.037 H 
ATOM     16  H   LIG d   1       5.397  -6.982  -8.225  0.00  0.00     0.037 H 
ATOM     17  H   LIG d   1       9.647  -9.394  -9.446  0.00  0.00     0.310 HD
ENDROOT
BRANCH   1  18
ATOM     18  C   LIG d   1       7.839  -7.139  -5.038  0.00  0.00     0.025 C 
ATOM     19  H   LIG d   1       7.405  -6.191  -4.721  0.00  0.00     0.048 H 
ATOM     20  H   LIG d   1       8.922  -7.101  -4.919  0.00  0.00     0.048 H 
BRANCH  18  21
ATOM     21  C   LIG d   1       7.279  -8.255  -4.195  0.00  0.00    -0.033 A 
ATOM     22  C   LIG d   1       7.939  -8.649  -3.045  0.00  0.00    -0.054 A 
ATOM     23  C   LIG d   1       7.427  -9.671  -2.270  0.00  0.00    -0.020 A 
ATOM     24  H   LIG d   1       8.853  -8.156  -2.752  0.00  0.00     0.062 H 
ATOM     25  C   LIG d   1       6.251 -10.304  -2.645  0.00  0.00     0.120 A 
ATOM     26  H   LIG d   1       7.941  -9.978  -1.371  0.00  0.00     0.065 H 
ATOM     27  C   LIG d   1       5.594  -9.911  -3.803  0.00  0.00    -0.020 A 
ATOM     28  C   LIG d   1       6.107  -8.884  -4.572  0.00  0.00    -0.054 A 
ATOM     29  H   LIG d   1       4.681 -10.404  -4.100  0.00  0.00     0.065 H 
ATOM     30  H   LIG d   1       5.593  -8.574  -5.470  0.00  0.00     0.062 H 
BRANCH  25  31
ATOM     31  O   LIG d   1       5.746 -11.310  -1.885  0.00  0.00    -0.495 OA
BRANCH  31  32
ATOM     32  C   LIG d   1       6.561 -11.784  -0.811  0.00  0.00     0.079 C 
ATOM     33  H   LIG d   1       6.900 -10.940  -0.212  0.00  0.00     0.066 H 
ATOM     34  H   LIG d   1       5.981 -12.463  -0.187  0.00  0.00     0.066 H 
ATOM     35  H   LIG d   1       7.424 -12.312  -1.217  0.00  0.00     0.066 H 
ENDBRANCH  31  32
ENDBRANCH  25  31
ENDBRANCH  18  21
ENDBRANCH   1  18
BRANCH  10  36
ATOM     36  C   LIG d   1       6.070  -5.439  -6.193  0.00  0.00     0.245 A 
ATOM     37  O   LIG d   1       4.835  -5.858  -5.892  0.00  0.00    -0.336 OA
ATOM     38  N   LIG d   1       4.286  -4.890  -5.011  0.00  0.00    -0.056 NA
ATOM     39  C   LIG d   1       5.205  -3.970  -4.851  0.00  0.00     0.202 A 
ATOM     40  N   LIG d   1       6.287  -4.313  -5.574  0.00  0.00    -0.190 NA
BRANCH  39  41
ATOM     41  C   LIG d   1       5.076  -2.752  -4.013  0.00  0.00     0.022 A 
ATOM     42  C   LIG d   1       6.005  -1.720  -4.133  0.00  0.00    -0.050 A 
ATOM     43  C   LIG d   1       5.877  -0.586  -3.356  0.00  0.00    -0.043 A 
ATOM     44  H   LIG d   1       6.820  -1.805  -4.836  0.00  0.00     0.062 H 
ATOM     45  C   LIG d   1       4.835  -0.479  -2.450  0.00  0.00     0.041 A 
ATOM     46  H   LIG d   1       6.593   0.217  -3.452  0.00  0.00     0.063 H 
ATOM     47  C   LIG d   1       3.913  -1.505  -2.324  0.00  0.00    -0.043 A 
ATOM     48 CL   LIG d   1       4.683   0.946  -1.470  0.00  0.00    -0.084 Cl
ATOM     49  C   LIG d   1       4.029  -2.639  -3.100  0.00  0.00    -0.050 A 
ATOM     50  H   LIG d   1       3.102  -1.416  -1.617  0.00  0.00     0.063 H 
ATOM     51  H   LIG d   1       3.309  -3.438  -3.002  0.00  0.00     0.062 H 
ENDBRANCH  39  41
ENDBRANCH  10  36
TORSDOF 6
ENDMDL
MODEL 7
REMARK VINA RESULT:      -6.6      8.304     12.820
REMARK  6 active torsions:
REMARK  status: ('A' for Active; 'I' for Inactive)
REMARK    1  A    between atoms: C_1  and  O_2 
REMARK    2  A    between atoms: O_2  and  C_3 
REMARK    3  A    between atoms: C_6  and  C_9 
REMARK    4  A    between atoms: C_9  and  N_10 
REMARK    5  A    between atoms: C_19  and  C_21 
REMARK    6  A    between atoms: C_23  and  C_26 
ROOT
ATOM      1  N   LIG d   1       3.643  -2.508 -11.217  0.00  0.00    -0.279 N 
ATOM      2  C   LIG d   1       4.409  -3.097 -12.330  0.00  0.00     0.066 C 
ATOM      3  C   LIG d   1       4.578  -2.044 -13.397  0.00  0.00     0.159 A 
ATOM      4  C   LIG d   1       4.382  -0.724 -13.175  0.00  0.00     0.148 A 
ATOM      5  N   LIG d   1       4.618  -0.080 -14.348  0.00  0.00    -0.247 N 
ATOM      6  H   LIG d   1       4.557   0.875 -14.505  0.00  0.00     0.310 HD
ATOM      7  C   LIG d   1       4.955  -1.026 -15.256  0.00  0.00     0.243 A 
ATOM      8  N   LIG d   1       4.928  -2.199 -14.674  0.00  0.00    -0.246 N 
ATOM      9  C   LIG d   1       3.978  -0.156 -11.839  0.00  0.00     0.037 C 
ATOM     10  C   LIG d   1       4.228  -1.235 -10.775  0.00  0.00     0.098 C 
ATOM     11  H   LIG d   1       5.301  -1.359 -10.629  0.00  0.00     0.057 H 
ATOM     12  H   LIG d   1       5.387  -3.418 -11.973  0.00  0.00     0.051 H 
ATOM     13  H   LIG d   1       3.867  -3.949 -12.737  0.00  0.00     0.051 H 
ATOM     14  H   LIG d   1       5.205  -0.844 -16.291  0.00  0.00     0.158 H 
ATOM     15  H   LIG d   1       4.578   0.726 -11.617  0.00  0.00     0.037 H 
ATOM     16  H   LIG d   1       2.921   0.109 -11.855  0.00  0.00     0.037 H 
ATOM     17  H   LIG d   1       5.130  -3.044 -15.104  0.00  0.00     0.310 HD
ENDROOT
BRANCH   1  18
ATOM     18  C   LIG d   1       3.530  -3.453 -10.098  0.00  0.00     0.025 C 
ATOM     19  H   LIG d   1       3.510  -2.901  -9.158  0.00  0.00     0.048 H 
ATOM     20  H   LIG d   1       4.387  -4.127 -10.105  0.00  0.00     0.048 H 
BRANCH  18  21
ATOM     21  C   LIG d   1       2.261  -4.251 -10.241  0.00  0.00    -0.033 A 
ATOM     22  C   LIG d   1       1.074  -3.611 -10.548  0.00  0.00    -0.054 A 
ATOM     23  C   LIG d   1      -0.092  -4.341 -10.679  0.00  0.00    -0.020 A 
ATOM     24  H   LIG d   1       1.059  -2.541 -10.687  0.00  0.00     0.062 H 
ATOM     25  C   LIG d   1      -0.072  -5.717 -10.503  0.00  0.00     0.120 A 
ATOM     26  H   LIG d   1      -1.018  -3.841 -10.921  0.00  0.00     0.065 H 
ATOM     27  C   LIG d   1       1.119  -6.356 -10.188  0.00  0.00    -0.020 A 
ATOM     28  C   LIG d   1       2.283  -5.622 -10.064  0.00  0.00    -0.054 A 
ATOM     29  H   LIG d   1       1.137  -7.426 -10.046  0.00  0.00     0.065 H 
ATOM     30  H   LIG d   1       3.211  -6.120  -9.825  0.00  0.00     0.062 H 
BRANCH  25  31
ATOM     31  O   LIG d   1      -1.217  -6.436 -10.631  0.00  0.00    -0.495 OA
BRANCH  31  32
ATOM     32  C   LIG d   1      -1.613  -7.232  -9.512  0.00  0.00     0.079 C 
ATOM     33  H   LIG d   1      -1.461  -8.285  -9.743  0.00  0.00     0.066 H 
ATOM     34  H   LIG d   1      -1.012  -6.960  -8.643  0.00  0.00     0.066 H 
ATOM     35  H   LIG d   1      -2.666  -7.055  -9.295  0.00  0.00     0.066 H 
ENDBRANCH  31  32
ENDBRANCH  25  31
ENDBRANCH  18  21
ENDBRANCH   1  18
BRANCH  10  36
ATOM     36  C   LIG d   1       3.591  -0.815  -9.475  0.00  0.00     0.245 A 
ATOM     37  O   LIG d   1       2.310  -0.462  -9.310  0.00  0.00    -0.336 OA
ATOM     38  N   LIG d   1       2.154  -0.149  -7.933  0.00  0.00    -0.056 NA
ATOM     39  C   LIG d   1       3.329  -0.323  -7.378  0.00  0.00     0.202 A 
ATOM     40  N   LIG d   1       4.196  -0.728  -8.325  0.00  0.00    -0.190 NA
BRANCH  39  41
ATOM     41  C   LIG d   1       3.650  -0.109  -5.946  0.00  0.00     0.022 A 
ATOM     42  C   LIG d   1       2.691   0.426  -5.088  0.00  0.00    -0.050 A 
ATOM     43  C   LIG d   1       2.991   0.617  -3.754  0.00  0.00    -0.043 A 
ATOM     44  H   LIG d   1       1.713   0.687  -5.464  0.00  0.00     0.062 H 
ATOM     45  C   LIG d   1       4.248   0.290  -3.272  0.00  0.00     0.041 A 
ATOM     46  H   LIG d   1       2.248   1.027  -3.087  0.00  0.00     0.063 H 
ATOM     47  C   LIG d   1       5.205  -0.238  -4.122  0.00  0.00    -0.043 A 
ATOM     48 CL   LIG d   1       4.623   0.539  -1.595  0.00  0.00    -0.084 Cl
ATOM     49  C   LIG d   1       4.912  -0.438  -5.455  0.00  0.00    -0.050 A 
ATOM     50  H   LIG d   1       6.183  -0.492  -3.741  0.00  0.00     0.063 H 
ATOM     51  H   LIG d   1       5.659  -0.850  -6.117  0.00  0.00     0.062 H 
ENDBRANCH  39  41
ENDBRANCH  10  36
TORSDOF 6
ENDMDL
MODEL 8
REMARK VINA RESULT:      -6.6      6.769      9.633
REMARK  6 active torsions:
REMARK  status: ('A' for Active; 'I' for Inactive)
REMARK    1  A    between atoms: C_1  and  O_2 
REMARK    2  A    between atoms: O_2  and  C_3 
REMARK    3  A    between atoms: C_6  and  C_9 
REMARK    4  A    between atoms: C_9  and  N_10 
REMARK    5  A    between atoms: C_19  and  C_21 
REMARK    6  A    between atoms: C_23  and  C_26 
ROOT
ATOM      1  N   LIG d   1       5.269  -0.184  -6.155  0.00  0.00    -0.279 N 
ATOM      2  C   LIG d   1       5.880  -0.781  -4.955  0.00  0.00     0.066 C 
ATOM      3  C   LIG d   1       5.027  -0.428  -3.763  0.00  0.00     0.159 A 
ATOM      4  C   LIG d   1       3.757   0.027  -3.868  0.00  0.00     0.148 A 
ATOM      5  N   LIG d   1       3.303   0.243  -2.605  0.00  0.00    -0.247 N 
ATOM      6  H   LIG d   1       2.425   0.572  -2.357  0.00  0.00     0.310 HD
ATOM      7  C   LIG d   1       4.309  -0.088  -1.762  0.00  0.00     0.243 A 
ATOM      8  N   LIG d   1       5.336  -0.489  -2.467  0.00  0.00    -0.246 N 
ATOM      9  C   LIG d   1       3.051   0.226  -5.184  0.00  0.00     0.037 C 
ATOM     10  C   LIG d   1       3.844  -0.528  -6.261  0.00  0.00     0.098 C 
ATOM     11  H   LIG d   1       3.717  -1.601  -6.121  0.00  0.00     0.057 H 
ATOM     12  H   LIG d   1       5.925  -1.864  -5.066  0.00  0.00     0.051 H 
ATOM     13  H   LIG d   1       6.885  -0.384  -4.819  0.00  0.00     0.051 H 
ATOM     14  H   LIG d   1       4.270  -0.031  -0.684  0.00  0.00     0.158 H 
ATOM     15  H   LIG d   1       2.039  -0.174  -5.124  0.00  0.00     0.037 H 
ATOM     16  H   LIG d   1       3.015   1.288  -5.427  0.00  0.00     0.037 H 
ATOM     17  H   LIG d   1       6.186  -0.783  -2.105  0.00  0.00     0.310 HD
ENDROOT
BRANCH   1  18
ATOM     18  C   LIG d   1       5.997  -0.577  -7.368  0.00  0.00     0.025 C 
ATOM     19  H   LIG d   1       5.286  -0.772  -8.172  0.00  0.00     0.048 H 
ATOM     20  H   LIG d   1       6.575  -1.480  -7.169  0.00  0.00     0.048 H 
BRANCH  18  21
ATOM     21  C   LIG d   1       6.927   0.535  -7.779  0.00  0.00    -0.033 A 
ATOM     22  C   LIG d   1       6.472   1.544  -8.608  0.00  0.00    -0.054 A 
ATOM     23  C   LIG d   1       7.322   2.565  -8.985  0.00  0.00    -0.020 A 
ATOM     24  H   LIG d   1       5.452   1.534  -8.960  0.00  0.00     0.062 H 
ATOM     25  C   LIG d   1       8.634   2.579  -8.532  0.00  0.00     0.120 A 
ATOM     26  H   LIG d   1       6.967   3.354  -9.632  0.00  0.00     0.065 H 
ATOM     27  C   LIG d   1       9.090   1.562  -7.705  0.00  0.00    -0.020 A 
ATOM     28  C   LIG d   1       8.233   0.546  -7.326  0.00  0.00    -0.054 A 
ATOM     29  H   LIG d   1      10.110   1.567  -7.354  0.00  0.00     0.065 H 
ATOM     30  H   LIG d   1       8.586  -0.242  -6.678  0.00  0.00     0.062 H 
BRANCH  25  31
ATOM     31  O   LIG d   1       9.472   3.582  -8.902  0.00  0.00    -0.495 OA
BRANCH  31  32
ATOM     32  C   LIG d   1       8.871   4.813  -9.309  0.00  0.00     0.079 C 
ATOM     33  H   LIG d   1       9.108   5.590  -8.583  0.00  0.00     0.066 H 
ATOM     34  H   LIG d   1       9.257   5.100 -10.287  0.00  0.00     0.066 H 
ATOM     35  H   LIG d   1       7.790   4.687  -9.367  0.00  0.00     0.066 H 
ENDBRANCH  31  32
ENDBRANCH  25  31
ENDBRANCH  18  21
ENDBRANCH   1  18
BRANCH  10  36
ATOM     36  C   LIG d   1       3.334  -0.137  -7.625  0.00  0.00     0.245 A 
ATOM     37  O   LIG d   1       2.994   1.100  -8.008  0.00  0.00    -0.336 OA
ATOM     38  N   LIG d   1       2.575   1.000  -9.361  0.00  0.00    -0.056 NA
ATOM     39  C   LIG d   1       2.683  -0.264  -9.691  0.00  0.00     0.202 A 
ATOM     40  N   LIG d   1       3.145  -0.947  -8.627  0.00  0.00    -0.190 NA
BRANCH  39  41
ATOM     41  C   LIG d   1       2.350  -0.845 -11.014  0.00  0.00     0.022 A 
ATOM     42  C   LIG d   1       1.059  -1.305 -11.271  0.00  0.00    -0.050 A 
ATOM     43  C   LIG d   1       0.752  -1.839 -12.506  0.00  0.00    -0.043 A 
ATOM     44  H   LIG d   1       0.299  -1.238 -10.506  0.00  0.00     0.062 H 
ATOM     45  C   LIG d   1       1.728  -1.930 -13.485  0.00  0.00     0.041 A 
ATOM     46  H   LIG d   1      -0.249  -2.190 -12.708  0.00  0.00     0.063 H 
ATOM     47  C   LIG d   1       3.012  -1.480 -13.232  0.00  0.00    -0.043 A 
ATOM     48 CL   LIG d   1       1.338  -2.610 -15.034  0.00  0.00    -0.084 Cl
ATOM     49  C   LIG d   1       3.327  -0.939 -12.003  0.00  0.00    -0.050 A 
ATOM     50  H   LIG d   1       3.770  -1.552 -13.999  0.00  0.00     0.063 H 
ATOM     51  H   LIG d   1       4.329  -0.587 -11.807  0.00  0.00     0.062 H 
ENDBRANCH  39  41
ENDBRANCH  10  36
TORSDOF 6
ENDMDL
MODEL 9
REMARK VINA RESULT:      -6.4      5.600     10.010
REMARK  6 active torsions:
REMARK  status: ('A' for Active; 'I' for Inactive)
REMARK    1  A    between atoms: C_1  and  O_2 
REMARK    2  A    between atoms: O_2  and  C_3 
REMARK    3  A    between atoms: C_6  and  C_9 
REMARK    4  A    between atoms: C_9  and  N_10 
REMARK    5  A    between atoms: C_19  and  C_21 
REMARK    6  A    between atoms: C_23  and  C_26 
ROOT
ATOM      1  N   LIG d   1      10.657   7.992  -0.759  0.00  0.00    -0.279 N 
ATOM      2  C   LIG d   1       9.666   7.242  -1.550  0.00  0.00     0.066 C 
ATOM      3  C   LIG d   1      10.197   5.849  -1.777  0.00  0.00     0.159 A 
ATOM      4  C   LIG d   1      11.211   5.316  -1.058  0.00  0.00     0.148 A 
ATOM      5  N   LIG d   1      11.423   4.060  -1.532  0.00  0.00    -0.247 N 
ATOM      6  H   LIG d   1      12.088   3.428  -1.217  0.00  0.00     0.310 HD
ATOM      7  C   LIG d   1      10.529   3.859  -2.530  0.00  0.00     0.243 A 
ATOM      8  N   LIG d   1       9.800   4.938  -2.666  0.00  0.00    -0.246 N 
ATOM      9  C   LIG d   1      11.920   6.049   0.052  0.00  0.00     0.037 C 
ATOM     10  C   LIG d   1      11.054   7.253   0.447  0.00  0.00     0.098 C 
ATOM     11  H   LIG d   1      10.163   6.904   0.969  0.00  0.00     0.057 H 
ATOM     12  H   LIG d   1       8.723   7.191  -1.006  0.00  0.00     0.051 H 
ATOM     13  H   LIG d   1       9.511   7.737  -2.508  0.00  0.00     0.051 H 
ATOM     14  H   LIG d   1      10.433   2.957  -3.116  0.00  0.00     0.158 H 
ATOM     15  H   LIG d   1      12.046   5.388   0.909  0.00  0.00     0.037 H 
ATOM     16  H   LIG d   1      12.894   6.393  -0.296  0.00  0.00     0.037 H 
ATOM     17  H   LIG d   1       9.086   5.055  -3.311  0.00  0.00     0.310 HD
ENDROOT
BRANCH   1  18
ATOM     18  C   LIG d   1      10.153   9.329  -0.417  0.00  0.00     0.025 C 
ATOM     19  H   LIG d   1      10.725   9.728   0.422  0.00  0.00     0.048 H 
ATOM     20  H   LIG d   1       9.101   9.261  -0.140  0.00  0.00     0.048 H 
BRANCH  18  21
ATOM     21  C   LIG d   1      10.303  10.242  -1.606  0.00  0.00    -0.033 A 
ATOM     22  C   LIG d   1       9.182  10.797  -2.195  0.00  0.00    -0.054 A 
ATOM     23  C   LIG d   1       9.316  11.635  -3.285  0.00  0.00    -0.020 A 
ATOM     24  H   LIG d   1       8.201  10.576  -1.802  0.00  0.00     0.062 H 
ATOM     25  C   LIG d   1      10.577  11.919  -3.789  0.00  0.00     0.120 A 
ATOM     26  H   LIG d   1       8.441  12.069  -3.745  0.00  0.00     0.065 H 
ATOM     27  C   LIG d   1      11.701  11.356  -3.200  0.00  0.00    -0.020 A 
ATOM     28  C   LIG d   1      11.561  10.524  -2.106  0.00  0.00    -0.054 A 
ATOM     29  H   LIG d   1      12.683  11.573  -3.592  0.00  0.00     0.065 H 
ATOM     30  H   LIG d   1      12.435  10.090  -1.644  0.00  0.00     0.062 H 
BRANCH  25  31
ATOM     31  O   LIG d   1      10.712  12.743  -4.861  0.00  0.00    -0.495 OA
BRANCH  31  32
ATOM     32  C   LIG d   1       9.758  12.598  -5.915  0.00  0.00     0.079 C 
ATOM     33  H   LIG d   1      10.134  13.083  -6.815  0.00  0.00     0.066 H 
ATOM     34  H   LIG d   1       9.597  11.539  -6.115  0.00  0.00     0.066 H 
ATOM     35  H   LIG d   1       8.817  13.060  -5.619  0.00  0.00     0.066 H 
ENDBRANCH  31  32
ENDBRANCH  25  31
ENDBRANCH  18  21
ENDBRANCH   1  18
BRANCH  10  36
ATOM     36  C   LIG d   1      11.842   8.162   1.355  0.00  0.00     0.245 A 
ATOM     37  O   LIG d   1      12.942   8.845   1.015  0.00  0.00    -0.336 OA
ATOM     38  N   LIG d   1      13.342   9.563   2.173  0.00  0.00    -0.056 NA
ATOM     39  C   LIG d   1      12.480   9.263   3.113  0.00  0.00     0.202 A 
ATOM     40  N   LIG d   1      11.571   8.410   2.605  0.00  0.00    -0.190 NA
BRANCH  39  41
ATOM     41  C   LIG d   1      12.501   9.777   4.504  0.00  0.00     0.022 A 
ATOM     42  C   LIG d   1      13.044  11.031   4.777  0.00  0.00    -0.050 A 
ATOM     43  C   LIG d   1      13.055  11.509   6.072  0.00  0.00    -0.043 A 
ATOM     44  H   LIG d   1      13.450  11.631   3.976  0.00  0.00     0.062 H 
ATOM     45  C   LIG d   1      12.539  10.738   7.101  0.00  0.00     0.041 A 
ATOM     46  H   LIG d   1      13.471  12.483   6.284  0.00  0.00     0.063 H 
ATOM     47  C   LIG d   1      12.003   9.490   6.835  0.00  0.00    -0.043 A 
ATOM     48 CL   LIG d   1      12.563  11.341   8.729  0.00  0.00    -0.084 Cl
ATOM     49  C   LIG d   1      11.982   9.006   5.543  0.00  0.00    -0.050 A 
ATOM     50  H   LIG d   1      11.601   8.893   7.640  0.00  0.00     0.063 H 
ATOM     51  H   LIG d   1      11.563   8.033   5.336  0.00  0.00     0.062 H 
ENDBRANCH  39  41
ENDBRANCH  10  36
TORSDOF 6
ENDMDL
MODEL 10
REMARK VINA RESULT:      -6.4      8.044     12.603
REMARK  6 active torsions:
REMARK  status: ('A' for Active; 'I' for Inactive)
REMARK    1  A    between atoms: C_1  and  O_2 
REMARK    2  A    between atoms: O_2  and  C_3 
REMARK    3  A    between atoms: C_6  and  C_9 
REMARK    4  A    between atoms: C_9  and  N_10 
REMARK    5  A    between atoms: C_19  and  C_21 
REMARK    6  A    between atoms: C_23  and  C_26 
ROOT
ATOM      1  N   LIG d   1       2.998  -4.144 -10.012  0.00  0.00    -0.279 N 
ATOM      2  C   LIG d   1       2.569  -5.093 -11.054  0.00  0.00     0.066 C 
ATOM      3  C   LIG d   1       1.157  -4.747 -11.456  0.00  0.00     0.159 A 
ATOM      4  C   LIG d   1       0.573  -3.561 -11.169  0.00  0.00     0.148 A 
ATOM      5  N   LIG d   1      -0.687  -3.601 -11.677  0.00  0.00    -0.247 N 
ATOM      6  H   LIG d   1      -1.352  -2.896 -11.628  0.00  0.00     0.310 HD
ATOM      7  C   LIG d   1      -0.839  -4.812 -12.262  0.00  0.00     0.243 A 
ATOM      8  N   LIG d   1       0.273  -5.490 -12.125  0.00  0.00    -0.246 N 
ATOM      9  C   LIG d   1       1.266  -2.452 -10.421  0.00  0.00     0.037 C 
ATOM     10  C   LIG d   1       2.772  -2.752 -10.426  0.00  0.00     0.098 C 
ATOM     11  H   LIG d   1       3.169  -2.602 -11.430  0.00  0.00     0.057 H 
ATOM     12  H   LIG d   1       3.227  -5.013 -11.919  0.00  0.00     0.051 H 
ATOM     13  H   LIG d   1       2.600  -6.108 -10.660  0.00  0.00     0.051 H 
ATOM     14  H   LIG d   1      -1.730  -5.163 -12.762  0.00  0.00     0.158 H 
ATOM     15  H   LIG d   1       1.079  -1.500 -10.917  0.00  0.00     0.037 H 
ATOM     16  H   LIG d   1       0.900  -2.413  -9.396  0.00  0.00     0.037 H 
ATOM     17  H   LIG d   1       0.429  -6.387 -12.455  0.00  0.00     0.310 HD
ENDROOT
BRANCH   1  18
ATOM     18  C   LIG d   1       4.404  -4.363  -9.648  0.00  0.00     0.025 C 
ATOM     19  H   LIG d   1       4.882  -3.403  -9.449  0.00  0.00     0.048 H 
ATOM     20  H   LIG d   1       4.919  -4.861 -10.470  0.00  0.00     0.048 H 
BRANCH  18  21
ATOM     21  C   LIG d   1       4.475  -5.225  -8.415  0.00  0.00    -0.033 A 
ATOM     22  C   LIG d   1       4.229  -4.672  -7.171  0.00  0.00    -0.054 A 
ATOM     23  C   LIG d   1       4.293  -5.460  -6.039  0.00  0.00    -0.020 A 
ATOM     24  H   LIG d   1       3.986  -3.624  -7.086  0.00  0.00     0.062 H 
ATOM     25  C   LIG d   1       4.604  -6.808  -6.149  0.00  0.00     0.120 A 
ATOM     26  H   LIG d   1       4.100  -5.029  -5.068  0.00  0.00     0.065 H 
ATOM     27  C   LIG d   1       4.857  -7.360  -7.397  0.00  0.00    -0.020 A 
ATOM     28  C   LIG d   1       4.786  -6.568  -8.527  0.00  0.00    -0.054 A 
ATOM     29  H   LIG d   1       5.103  -8.407  -7.486  0.00  0.00     0.065 H 
ATOM     30  H   LIG d   1       4.977  -6.998  -9.499  0.00  0.00     0.062 H 
BRANCH  25  31
ATOM     31  O   LIG d   1       4.668  -7.585  -5.036  0.00  0.00    -0.495 OA
BRANCH  31  32
ATOM     32  C   LIG d   1       5.545  -8.712  -5.081  0.00  0.00     0.079 C 
ATOM     33  H   LIG d   1       6.543  -8.409  -4.768  0.00  0.00     0.066 H 
ATOM     34  H   LIG d   1       5.175  -9.488  -4.412  0.00  0.00     0.066 H 
ATOM     35  H   LIG d   1       5.586  -9.100  -6.099  0.00  0.00     0.066 H 
ENDBRANCH  31  32
ENDBRANCH  25  31
ENDBRANCH  18  21
ENDBRANCH   1  18
BRANCH  10  36
ATOM     36  C   LIG d   1       3.471  -1.823  -9.466  0.00  0.00     0.245 A 
ATOM     37  O   LIG d   1       4.508  -1.029  -9.761  0.00  0.00    -0.336 OA
ATOM     38  N   LIG d   1       4.837  -0.338  -8.565  0.00  0.00    -0.056 NA
ATOM     39  C   LIG d   1       3.999  -0.760  -7.650  0.00  0.00     0.202 A 
ATOM     40  N   LIG d   1       3.172  -1.663  -8.209  0.00  0.00    -0.190 NA
BRANCH  39  41
ATOM     41  C   LIG d   1       3.966  -0.316  -6.235  0.00  0.00     0.022 A 
ATOM     42  C   LIG d   1       2.822   0.290  -5.719  0.00  0.00    -0.050 A 
ATOM     43  C   LIG d   1       2.793   0.695  -4.400  0.00  0.00    -0.043 A 
ATOM     44  H   LIG d   1       1.957   0.438  -6.349  0.00  0.00     0.062 H 
ATOM     45  C   LIG d   1       3.904   0.512  -3.593  0.00  0.00     0.041 A 
ATOM     46  H   LIG d   1       1.905   1.160  -3.998  0.00  0.00     0.063 H 
ATOM     47  C   LIG d   1       5.044  -0.085  -4.103  0.00  0.00    -0.043 A 
ATOM     48 CL   LIG d   1       3.865   1.030  -1.937  0.00  0.00    -0.084 Cl
ATOM     49  C   LIG d   1       5.080  -0.499  -5.418  0.00  0.00    -0.050 A 
ATOM     50  H   LIG d   1       5.908  -0.227  -3.470  0.00  0.00     0.063 H 
ATOM     51  H   LIG d   1       5.970  -0.965  -5.815  0.00  0.00     0.062 H 
ENDBRANCH  39  41
ENDBRANCH  10  36
TORSDOF 6
ENDMDL
