MODEL 1
REMARK VINA RESULT:      -6.9      0.000      0.000
REMARK  11 active torsions:
REMARK  status: ('A' for Active; 'I' for Inactive)
REMARK    1  A    between atoms: C_1  and  O_2 
REMARK    2  A    between atoms: O_2  and  C_3 
REMARK    3  A    between atoms: C_6  and  C_9 
REMARK    4  A    between atoms: C_9  and  N_10 
REMARK       I    between atoms: N_10  and  C_11 
REMARK    5  A    between atoms: C_11  and  C_13 
REMARK    6  A    between atoms: C_13  and  C_14 
REMARK    7  A    between atoms: C_16  and  O_34 
REMARK    8  A    between atoms: C_18  and  O_33 
REMARK    9  A    between atoms: C_20  and  C_23 
REMARK   10  A    between atoms: C_23  and  N_24 
REMARK       I    between atoms: N_24  and  C_25 
REMARK   11  A    between atoms: C_25  and  C_27 
ROOT
ATOM      1  C   LIG d   1       3.539  -3.151  -9.178  0.00  0.00     0.096 C 
ATOM      2  H   LIG d   1       4.319  -3.051  -9.933  0.00  0.00     0.063 H 
ATOM      3  C   LIG d   1       2.144  -2.878  -9.796  0.00  0.00     0.110 C 
ATOM      4  H   LIG d   1       1.354  -3.299  -9.174  0.00  0.00     0.065 H 
ATOM      5  C   LIG d   1       2.084  -1.331  -9.792  0.00  0.00     0.111 C 
ATOM      6  H   LIG d   1       1.089  -0.989  -9.506  0.00  0.00     0.065 H 
ATOM      7  C   LIG d   1       3.126  -0.916  -8.736  0.00  0.00     0.103 C 
ATOM      8  H   LIG d   1       3.920  -0.335  -9.207  0.00  0.00     0.064 H 
ATOM      9  O   LIG d   1       3.670  -2.122  -8.174  0.00  0.00    -0.366 OA
ENDROOT
BRANCH   1  10
ATOM     10  C   LIG d   1       3.582  -4.539  -8.536  0.00  0.00     0.053 C 
ATOM     11  H   LIG d   1       2.566  -4.908  -8.399  0.00  0.00     0.038 H 
ATOM     12  H   LIG d   1       4.132  -5.222  -9.183  0.00  0.00     0.038 H 
BRANCH  10  13
ATOM     13  C   LIG d   1       4.269  -4.451  -7.198  0.00  0.00     0.216 C 
ATOM     14  N   LIG d   1       5.515  -3.942  -7.112  0.00  0.00    -0.311 N 
ATOM     15  H   LIG d   1       5.969  -3.633  -7.912  0.00  0.00     0.149 HD
ATOM     16  O   LIG d   1       3.702  -4.837  -6.198  0.00  0.00    -0.276 OA
BRANCH  14  17
ATOM     17  C   LIG d   1       6.183  -3.857  -5.812  0.00  0.00     0.037 C 
ATOM     18  H   LIG d   1       5.527  -4.257  -5.039  0.00  0.00     0.051 H 
ATOM     19  H   LIG d   1       7.107  -4.435  -5.839  0.00  0.00     0.051 H 
BRANCH  17  20
ATOM     20  C   LIG d   1       6.502  -2.416  -5.504  0.00  0.00    -0.030 A 
ATOM     21  C   LIG d   1       6.990  -2.068  -4.258  0.00  0.00    -0.054 A 
ATOM     22  C   LIG d   1       7.283  -0.748  -3.974  0.00  0.00    -0.020 A 
ATOM     23  H   LIG d   1       7.141  -2.829  -3.507  0.00  0.00     0.062 H 
ATOM     24  C   LIG d   1       7.088   0.228  -4.940  0.00  0.00     0.120 A 
ATOM     25  H   LIG d   1       7.664  -0.477  -3.001  0.00  0.00     0.065 H 
ATOM     26  C   LIG d   1       6.598  -0.124  -6.189  0.00  0.00    -0.020 A 
ATOM     27  C   LIG d   1       6.312  -1.446  -6.471  0.00  0.00    -0.054 A 
ATOM     28  H   LIG d   1       6.446   0.635  -6.943  0.00  0.00     0.065 H 
ATOM     29  H   LIG d   1       5.936  -1.721  -7.445  0.00  0.00     0.062 H 
BRANCH  24  30
ATOM     30  O   LIG d   1       7.376   1.527  -4.662  0.00  0.00    -0.495 OA
BRANCH  30  31
ATOM     31  C   LIG d   1       8.518   1.777  -3.840  0.00  0.00     0.079 C 
ATOM     32  H   LIG d   1       8.713   0.906  -3.215  0.00  0.00     0.066 H 
ATOM     33  H   LIG d   1       9.385   1.970  -4.472  0.00  0.00     0.066 H 
ATOM     34  H   LIG d   1       8.328   2.644  -3.208  0.00  0.00     0.066 H 
ENDBRANCH  30  31
ENDBRANCH  24  30
ENDBRANCH  17  20
ENDBRANCH  14  17
ENDBRANCH  10  13
ENDBRANCH   1  10
BRANCH   3  35
ATOM     35  O   LIG d   1       2.068  -3.388 -11.128  0.00  0.00    -0.387 OA
ATOM     36  H   LIG d   1       1.545  -4.197 -11.210  0.00  0.00     0.210 HD
ENDBRANCH   3  35
BRANCH   7  37
ATOM     37  C   LIG d   1       2.453  -0.088  -7.639  0.00  0.00     0.041 C 
ATOM     38  H   LIG d   1       2.672   0.969  -7.793  0.00  0.00     0.049 H 
ATOM     39  H   LIG d   1       1.375  -0.245  -7.676  0.00  0.00     0.049 H 
BRANCH  37  40
ATOM     40  N   LIG d   1       2.961  -0.506  -6.330  0.00  0.00    -0.309 N 
ATOM     41  C   LIG d   1       2.966   0.363  -5.300  0.00  0.00     0.244 C 
ATOM     42  O   LIG d   1       2.548   1.494  -5.456  0.00  0.00    -0.270 OA
ATOM     43  H   LIG d   1       3.294  -1.409  -6.205  0.00  0.00     0.149 HD
BRANCH  41  44
ATOM     44  C   LIG d   1       3.478  -0.059  -3.979  0.00  0.00     0.037 A 
ATOM     45  C   LIG d   1       3.422  -1.400  -3.600  0.00  0.00    -0.050 A 
ATOM     46  C   LIG d   1       3.902  -1.786  -2.365  0.00  0.00    -0.061 A 
ATOM     47  H   LIG d   1       3.004  -2.135  -4.272  0.00  0.00     0.062 H 
ATOM     48  C   LIG d   1       4.439  -0.846  -1.503  0.00  0.00    -0.062 A 
ATOM     49  H   LIG d   1       3.859  -2.824  -2.071  0.00  0.00     0.062 H 
ATOM     50  C   LIG d   1       4.498   0.486  -1.873  0.00  0.00    -0.061 A 
ATOM     51  H   LIG d   1       4.813  -1.154  -0.539  0.00  0.00     0.062 H 
ATOM     52  C   LIG d   1       4.025   0.884  -3.106  0.00  0.00    -0.050 A 
ATOM     53  H   LIG d   1       4.917   1.215  -1.196  0.00  0.00     0.062 H 
ATOM     54  H   LIG d   1       4.076   1.924  -3.395  0.00  0.00     0.062 H 
ENDBRANCH  41  44
ENDBRANCH  37  40
ENDBRANCH   7  37
BRANCH   5  55
ATOM     55  O   LIG d   1       2.440  -0.814 -11.076  0.00  0.00    -0.387 OA
ATOM     56  H   LIG d   1       1.965  -0.008 -11.321  0.00  0.00     0.210 HD
ENDBRANCH   5  55
TORSDOF 11
ENDMDL
MODEL 2
REMARK VINA RESULT:      -6.0      6.040     10.192
REMARK  11 active torsions:
REMARK  status: ('A' for Active; 'I' for Inactive)
REMARK    1  A    between atoms: C_1  and  O_2 
REMARK    2  A    between atoms: O_2  and  C_3 
REMARK    3  A    between atoms: C_6  and  C_9 
REMARK    4  A    between atoms: C_9  and  N_10 
REMARK       I    between atoms: N_10  and  C_11 
REMARK    5  A    between atoms: C_11  and  C_13 
REMARK    6  A    between atoms: C_13  and  C_14 
REMARK    7  A    between atoms: C_16  and  O_34 
REMARK    8  A    between atoms: C_18  and  O_33 
REMARK    9  A    between atoms: C_20  and  C_23 
REMARK   10  A    between atoms: C_23  and  N_24 
REMARK       I    between atoms: N_24  and  C_25 
REMARK   11  A    between atoms: C_25  and  C_27 
ROOT
ATOM      1  C   LIG d   1      10.070   4.579  -4.304  0.00  0.00     0.096 C 
ATOM      2  H   LIG d   1      11.092   4.959  -4.277  0.00  0.00     0.063 H 
ATOM      3  C   LIG d   1       9.731   3.834  -2.987  0.00  0.00     0.110 C 
ATOM      4  H   LIG d   1       8.652   3.757  -2.850  0.00  0.00     0.065 H 
ATOM      5  C   LIG d   1      10.358   2.440  -3.232  0.00  0.00     0.111 C 
ATOM      6  H   LIG d   1       9.703   1.655  -2.854  0.00  0.00     0.065 H 
ATOM      7  C   LIG d   1      10.487   2.349  -4.765  0.00  0.00     0.103 C 
ATOM      8  H   LIG d   1      11.537   2.261  -5.044  0.00  0.00     0.064 H 
ATOM      9  O   LIG d   1       9.934   3.557  -5.313  0.00  0.00    -0.366 OA
ENDROOT
BRANCH   1  10
ATOM     10  C   LIG d   1       9.077   5.716  -4.550  0.00  0.00     0.053 C 
ATOM     11  H   LIG d   1       8.806   5.740  -5.606  0.00  0.00     0.038 H 
ATOM     12  H   LIG d   1       8.182   5.554  -3.950  0.00  0.00     0.038 H 
BRANCH  10  13
ATOM     13  C   LIG d   1       9.710   7.028  -4.165  0.00  0.00     0.216 C 
ATOM     14  N   LIG d   1       9.618   7.474  -2.896  0.00  0.00    -0.311 N 
ATOM     15  H   LIG d   1       9.142   6.951  -2.231  0.00  0.00     0.149 HD
ATOM     16  O   LIG d   1      10.304   7.682  -4.996  0.00  0.00    -0.276 OA
BRANCH  14  17
ATOM     17  C   LIG d   1      10.233   8.749  -2.521  0.00  0.00     0.037 C 
ATOM     18  H   LIG d   1      11.099   8.935  -3.157  0.00  0.00     0.051 H 
ATOM     19  H   LIG d   1       9.509   9.554  -2.649  0.00  0.00     0.051 H 
BRANCH  17  20
ATOM     20  C   LIG d   1      10.670   8.691  -1.080  0.00  0.00    -0.030 A 
ATOM     21  C   LIG d   1      10.828   9.860  -0.359  0.00  0.00    -0.054 A 
ATOM     22  C   LIG d   1      11.228   9.811   0.962  0.00  0.00    -0.020 A 
ATOM     23  H   LIG d   1      10.639  10.814  -0.830  0.00  0.00     0.062 H 
ATOM     24  C   LIG d   1      11.471   8.585   1.566  0.00  0.00     0.120 A 
ATOM     25  H   LIG d   1      11.351  10.724   1.524  0.00  0.00     0.065 H 
ATOM     26  C   LIG d   1      11.313   7.414   0.841  0.00  0.00    -0.020 A 
ATOM     27  C   LIG d   1      10.906   7.468  -0.479  0.00  0.00    -0.054 A 
ATOM     28  H   LIG d   1      11.500   6.458   1.309  0.00  0.00     0.065 H 
ATOM     29  H   LIG d   1      10.777   6.556  -1.042  0.00  0.00     0.062 H 
BRANCH  24  30
ATOM     30  O   LIG d   1      11.865   8.534   2.866  0.00  0.00    -0.495 OA
BRANCH  30  31
ATOM     31  C   LIG d   1      12.427   9.725   3.420  0.00  0.00     0.079 C 
ATOM     32  H   LIG d   1      13.045  10.219   2.671  0.00  0.00     0.066 H 
ATOM     33  H   LIG d   1      11.625  10.397   3.728  0.00  0.00     0.066 H 
ATOM     34  H   LIG d   1      13.039   9.470   4.285  0.00  0.00     0.066 H 
ENDBRANCH  30  31
ENDBRANCH  24  30
ENDBRANCH  17  20
ENDBRANCH  14  17
ENDBRANCH  10  13
ENDBRANCH   1  10
BRANCH   3  35
ATOM     35  O   LIG d   1      10.340   4.477  -1.866  0.00  0.00    -0.387 OA
ATOM     36  H   LIG d   1      10.679   3.866  -1.198  0.00  0.00     0.210 HD
ENDBRANCH   3  35
BRANCH   7  37
ATOM     37  C   LIG d   1       9.706   1.137  -5.281  0.00  0.00     0.041 C 
ATOM     38  H   LIG d   1       9.210   1.396  -6.216  0.00  0.00     0.049 H 
ATOM     39  H   LIG d   1      10.393   0.308  -5.450  0.00  0.00     0.049 H 
BRANCH  37  40
ATOM     40  N   LIG d   1       8.702   0.745  -4.288  0.00  0.00    -0.309 N 
ATOM     41  C   LIG d   1       7.397   0.732  -4.619  0.00  0.00     0.244 C 
ATOM     42  O   LIG d   1       7.050   1.046  -5.741  0.00  0.00    -0.270 OA
ATOM     43  H   LIG d   1       8.979   0.494  -3.392  0.00  0.00     0.149 HD
BRANCH  41  44
ATOM     44  C   LIG d   1       6.384   0.335  -3.618  0.00  0.00     0.037 A 
ATOM     45  C   LIG d   1       6.128  -1.015  -3.375  0.00  0.00    -0.050 A 
ATOM     46  C   LIG d   1       5.181  -1.377  -2.440  0.00  0.00    -0.061 A 
ATOM     47  H   LIG d   1       6.671  -1.775  -3.919  0.00  0.00     0.062 H 
ATOM     48  C   LIG d   1       4.485  -0.406  -1.742  0.00  0.00    -0.062 A 
ATOM     49  H   LIG d   1       4.983  -2.422  -2.251  0.00  0.00     0.062 H 
ATOM     50  C   LIG d   1       4.734   0.934  -1.978  0.00  0.00    -0.061 A 
ATOM     51  H   LIG d   1       3.746  -0.696  -1.011  0.00  0.00     0.062 H 
ATOM     52  C   LIG d   1       5.681   1.310  -2.907  0.00  0.00    -0.050 A 
ATOM     53  H   LIG d   1       4.188   1.688  -1.430  0.00  0.00     0.062 H 
ATOM     54  H   LIG d   1       5.878   2.357  -3.087  0.00  0.00     0.062 H 
ENDBRANCH  41  44
ENDBRANCH  37  40
ENDBRANCH   7  37
BRANCH   5  55
ATOM     55  O   LIG d   1      11.645   2.355  -2.616  0.00  0.00    -0.387 OA
ATOM     56  H   LIG d   1      11.715   2.841  -1.783  0.00  0.00     0.210 HD
ENDBRANCH   5  55
TORSDOF 11
ENDMDL
MODEL 3
REMARK VINA RESULT:      -5.9      1.923      4.369
REMARK  11 active torsions:
REMARK  status: ('A' for Active; 'I' for Inactive)
REMARK    1  A    between atoms: C_1  and  O_2 
REMARK    2  A    between atoms: O_2  and  C_3 
REMARK    3  A    between atoms: C_6  and  C_9 
REMARK    4  A    between atoms: C_9  and  N_10 
REMARK       I    between atoms: N_10  and  C_11 
REMARK    5  A    between atoms: C_11  and  C_13 
REMARK    6  A    between atoms: C_13  and  C_14 
REMARK    7  A    between atoms: C_16  and  O_34 
REMARK    8  A    between atoms: C_18  and  O_33 
REMARK    9  A    between atoms: C_20  and  C_23 
REMARK   10  A    between atoms: C_23  and  N_24 
REMARK       I    between atoms: N_24  and  C_25 
REMARK   11  A    between atoms: C_25  and  C_27 
ROOT
ATOM      1  C   LIG d   1       5.875   1.058  -8.555  0.00  0.00     0.096 C 
ATOM      2  H   LIG d   1       5.975   2.024  -9.049  0.00  0.00     0.063 H 
ATOM      3  C   LIG d   1       5.496  -0.042  -9.579  0.00  0.00     0.110 C 
ATOM      4  H   LIG d   1       5.728  -1.034  -9.189  0.00  0.00     0.065 H 
ATOM      5  C   LIG d   1       3.967   0.154  -9.717  0.00  0.00     0.111 C 
ATOM      6  H   LIG d   1       3.462  -0.810  -9.768  0.00  0.00     0.065 H 
ATOM      7  C   LIG d   1       3.567   0.910  -8.435  0.00  0.00     0.103 C 
ATOM      8  H   LIG d   1       3.161   1.888  -8.693  0.00  0.00     0.064 H 
ATOM      9  O   LIG d   1       4.756   1.067  -7.643  0.00  0.00    -0.366 OA
ENDROOT
BRANCH   1  10
ATOM     10  C   LIG d   1       7.165   0.690  -7.820  0.00  0.00     0.053 C 
ATOM     11  H   LIG d   1       7.782   0.060  -8.462  0.00  0.00     0.038 H 
ATOM     12  H   LIG d   1       7.712   1.598  -7.568  0.00  0.00     0.038 H 
BRANCH  10  13
ATOM     13  C   LIG d   1       6.827  -0.060  -6.558  0.00  0.00     0.216 C 
ATOM     14  N   LIG d   1       6.587  -1.386  -6.604  0.00  0.00    -0.311 N 
ATOM     15  H   LIG d   1       6.632  -1.857  -7.452  0.00  0.00     0.149 HD
ATOM     16  O   LIG d   1       6.772   0.529  -5.499  0.00  0.00    -0.276 OA
BRANCH  14  17
ATOM     17  C   LIG d   1       6.259  -2.115  -5.378  0.00  0.00     0.037 C 
ATOM     18  H   LIG d   1       7.167  -2.271  -4.794  0.00  0.00     0.051 H 
ATOM     19  H   LIG d   1       5.545  -1.536  -4.791  0.00  0.00     0.051 H 
BRANCH  17  20
ATOM     20  C   LIG d   1       5.654  -3.449  -5.732  0.00  0.00    -0.030 A 
ATOM     21  C   LIG d   1       6.219  -4.614  -5.247  0.00  0.00    -0.054 A 
ATOM     22  C   LIG d   1       5.667  -5.838  -5.571  0.00  0.00    -0.020 A 
ATOM     23  H   LIG d   1       7.094  -4.567  -4.615  0.00  0.00     0.062 H 
ATOM     24  C   LIG d   1       4.543  -5.897  -6.382  0.00  0.00     0.120 A 
ATOM     25  H   LIG d   1       6.108  -6.747  -5.191  0.00  0.00     0.065 H 
ATOM     26  C   LIG d   1       3.978  -4.728  -6.868  0.00  0.00    -0.020 A 
ATOM     27  C   LIG d   1       4.531  -3.505  -6.537  0.00  0.00    -0.054 A 
ATOM     28  H   LIG d   1       3.103  -4.772  -7.499  0.00  0.00     0.065 H 
ATOM     29  H   LIG d   1       4.088  -2.594  -6.910  0.00  0.00     0.062 H 
BRANCH  24  30
ATOM     30  O   LIG d   1       3.998  -7.101  -6.701  0.00  0.00    -0.495 OA
BRANCH  30  31
ATOM     31  C   LIG d   1       4.852  -8.243  -6.614  0.00  0.00     0.079 C 
ATOM     32  H   LIG d   1       5.348  -8.400  -7.572  0.00  0.00     0.066 H 
ATOM     33  H   LIG d   1       5.602  -8.078  -5.841  0.00  0.00     0.066 H 
ATOM     34  H   LIG d   1       4.258  -9.122  -6.364  0.00  0.00     0.066 H 
ENDBRANCH  30  31
ENDBRANCH  24  30
ENDBRANCH  17  20
ENDBRANCH  14  17
ENDBRANCH  10  13
ENDBRANCH   1  10
BRANCH   3  35
ATOM     35  O   LIG d   1       6.154   0.177 -10.829  0.00  0.00    -0.387 OA
ATOM     36  H   LIG d   1       5.562   0.455 -11.541  0.00  0.00     0.210 HD
ENDBRANCH   3  35
BRANCH   7  37
ATOM     37  C   LIG d   1       2.526   0.100  -7.658  0.00  0.00     0.041 C 
ATOM     38  H   LIG d   1       1.651   0.721  -7.467  0.00  0.00     0.049 H 
ATOM     39  H   LIG d   1       2.234  -0.771  -8.243  0.00  0.00     0.049 H 
BRANCH  37  40
ATOM     40  N   LIG d   1       3.101  -0.338  -6.383  0.00  0.00    -0.309 N 
ATOM     41  C   LIG d   1       2.878   0.377  -5.263  0.00  0.00     0.244 C 
ATOM     42  O   LIG d   1       2.201   1.385  -5.309  0.00  0.00    -0.270 OA
ATOM     43  H   LIG d   1       3.641  -1.143  -6.346  0.00  0.00     0.149 HD
BRANCH  41  44
ATOM     44  C   LIG d   1       3.457  -0.065  -3.977  0.00  0.00     0.037 A 
ATOM     45  C   LIG d   1       4.094   0.854  -3.142  0.00  0.00    -0.050 A 
ATOM     46  C   LIG d   1       4.632   0.433  -1.942  0.00  0.00    -0.061 A 
ATOM     47  H   LIG d   1       4.166   1.891  -3.433  0.00  0.00     0.062 H 
ATOM     48  C   LIG d   1       4.541  -0.895  -1.566  0.00  0.00    -0.062 A 
ATOM     49  H   LIG d   1       5.125   1.144  -1.295  0.00  0.00     0.062 H 
ATOM     50  C   LIG d   1       3.910  -1.811  -2.390  0.00  0.00    -0.061 A 
ATOM     51  H   LIG d   1       4.963  -1.217  -0.627  0.00  0.00     0.062 H 
ATOM     52  C   LIG d   1       3.364  -1.403  -3.589  0.00  0.00    -0.050 A 
ATOM     53  H   LIG d   1       3.842  -2.846  -2.091  0.00  0.00     0.062 H 
ATOM     54  H   LIG d   1       2.868  -2.119  -4.229  0.00  0.00     0.062 H 
ENDBRANCH  41  44
ENDBRANCH  37  40
ENDBRANCH   7  37
BRANCH   5  55
ATOM     55  O   LIG d   1       3.666   0.937 -10.874  0.00  0.00    -0.387 OA
ATOM     56  H   LIG d   1       4.231   1.715 -10.980  0.00  0.00     0.210 HD
ENDBRANCH   5  55
TORSDOF 11
ENDMDL
MODEL 4
REMARK VINA RESULT:      -5.8      3.144      6.596
REMARK  11 active torsions:
REMARK  status: ('A' for Active; 'I' for Inactive)
REMARK    1  A    between atoms: C_1  and  O_2 
REMARK    2  A    between atoms: O_2  and  C_3 
REMARK    3  A    between atoms: C_6  and  C_9 
REMARK    4  A    between atoms: C_9  and  N_10 
REMARK       I    between atoms: N_10  and  C_11 
REMARK    5  A    between atoms: C_11  and  C_13 
REMARK    6  A    between atoms: C_13  and  C_14 
REMARK    7  A    between atoms: C_16  and  O_34 
REMARK    8  A    between atoms: C_18  and  O_33 
REMARK    9  A    between atoms: C_20  and  C_23 
REMARK   10  A    between atoms: C_23  and  N_24 
REMARK       I    between atoms: N_24  and  C_25 
REMARK   11  A    between atoms: C_25  and  C_27 
ROOT
ATOM      1  C   LIG d   1       5.401   0.148  -3.560  0.00  0.00     0.096 C 
ATOM      2  H   LIG d   1       6.018  -0.747  -3.644  0.00  0.00     0.063 H 
ATOM      3  C   LIG d   1       4.173  -0.120  -2.652  0.00  0.00     0.110 C 
ATOM      4  H   LIG d   1       3.752   0.815  -2.281  0.00  0.00     0.065 H 
ATOM      5  C   LIG d   1       3.195  -0.819  -3.626  0.00  0.00     0.111 C 
ATOM      6  H   LIG d   1       2.177  -0.467  -3.462  0.00  0.00     0.065 H 
ATOM      7  C   LIG d   1       3.695  -0.406  -5.024  0.00  0.00     0.103 C 
ATOM      8  H   LIG d   1       4.012  -1.288  -5.580  0.00  0.00     0.064 H 
ATOM      9  O   LIG d   1       4.810   0.480  -4.834  0.00  0.00    -0.366 OA
ENDROOT
BRANCH   1  10
ATOM     10  C   LIG d   1       6.222   1.322  -3.024  0.00  0.00     0.053 C 
ATOM     11  H   LIG d   1       5.658   2.247  -3.147  0.00  0.00     0.038 H 
ATOM     12  H   LIG d   1       6.434   1.165  -1.966  0.00  0.00     0.038 H 
BRANCH  10  13
ATOM     13  C   LIG d   1       7.517   1.419  -3.787  0.00  0.00     0.216 C 
ATOM     14  N   LIG d   1       7.711   0.660  -4.885  0.00  0.00    -0.311 N 
ATOM     15  H   LIG d   1       7.016   0.050  -5.182  0.00  0.00     0.149 HD
ATOM     16  O   LIG d   1       8.385   2.180  -3.416  0.00  0.00    -0.276 OA
BRANCH  14  17
ATOM     17  C   LIG d   1       8.969   0.753  -5.627  0.00  0.00     0.037 C 
ATOM     18  H   LIG d   1       9.758   1.108  -4.963  0.00  0.00     0.051 H 
ATOM     19  H   LIG d   1       9.236  -0.230  -6.015  0.00  0.00     0.051 H 
BRANCH  17  20
ATOM     20  C   LIG d   1       8.805   1.717  -6.774  0.00  0.00    -0.030 A 
ATOM     21  C   LIG d   1       9.615   2.835  -6.857  0.00  0.00    -0.054 A 
ATOM     22  C   LIG d   1       9.467   3.721  -7.907  0.00  0.00    -0.020 A 
ATOM     23  H   LIG d   1      10.363   3.016  -6.100  0.00  0.00     0.062 H 
ATOM     24  C   LIG d   1       8.506   3.487  -8.879  0.00  0.00     0.120 A 
ATOM     25  H   LIG d   1      10.100   4.593  -7.971  0.00  0.00     0.065 H 
ATOM     26  C   LIG d   1       7.694   2.365  -8.794  0.00  0.00    -0.020 A 
ATOM     27  C   LIG d   1       7.850   1.479  -7.745  0.00  0.00    -0.054 A 
ATOM     28  H   LIG d   1       6.945   2.181  -9.550  0.00  0.00     0.065 H 
ATOM     29  H   LIG d   1       7.223   0.602  -7.681  0.00  0.00     0.062 H 
BRANCH  24  30
ATOM     30  O   LIG d   1       8.358   4.357  -9.913  0.00  0.00    -0.495 OA
BRANCH  30  31
ATOM     31  C   LIG d   1       8.653   5.730  -9.652  0.00  0.00     0.079 C 
ATOM     32  H   LIG d   1       9.297   5.804  -8.776  0.00  0.00     0.066 H 
ATOM     33  H   LIG d   1       9.162   6.163 -10.513  0.00  0.00     0.066 H 
ATOM     34  H   LIG d   1       7.725   6.272  -9.468  0.00  0.00     0.066 H 
ENDBRANCH  30  31
ENDBRANCH  24  30
ENDBRANCH  17  20
ENDBRANCH  14  17
ENDBRANCH  10  13
ENDBRANCH   1  10
BRANCH   3  35
ATOM     35  O   LIG d   1       4.520  -0.984  -1.568  0.00  0.00    -0.387 OA
ATOM     36  H   LIG d   1       4.566  -1.919  -1.810  0.00  0.00     0.210 HD
ENDBRANCH   3  35
BRANCH   7  37
ATOM     37  C   LIG d   1       2.579   0.317  -5.782  0.00  0.00     0.041 C 
ATOM     38  H   LIG d   1       1.622   0.117  -5.299  0.00  0.00     0.049 H 
ATOM     39  H   LIG d   1       2.772   1.389  -5.777  0.00  0.00     0.049 H 
BRANCH  37  40
ATOM     40  N   LIG d   1       2.537  -0.165  -7.165  0.00  0.00    -0.309 N 
ATOM     41  C   LIG d   1       2.927   0.641  -8.171  0.00  0.00     0.244 C 
ATOM     42  O   LIG d   1       3.314   1.768  -7.933  0.00  0.00    -0.270 OA
ATOM     43  H   LIG d   1       2.228  -1.065  -7.355  0.00  0.00     0.149 HD
BRANCH  41  44
ATOM     44  C   LIG d   1       2.885   0.155  -9.567  0.00  0.00     0.037 A 
ATOM     45  C   LIG d   1       1.812  -0.621 -10.008  0.00  0.00    -0.050 A 
ATOM     46  C   LIG d   1       1.781  -1.070 -11.312  0.00  0.00    -0.061 A 
ATOM     47  H   LIG d   1       1.008  -0.867  -9.331  0.00  0.00     0.062 H 
ATOM     48  C   LIG d   1       2.809  -0.755 -12.182  0.00  0.00    -0.062 A 
ATOM     49  H   LIG d   1       0.950  -1.670 -11.655  0.00  0.00     0.062 H 
ATOM     50  C   LIG d   1       3.876   0.014 -11.751  0.00  0.00    -0.061 A 
ATOM     51  H   LIG d   1       2.779  -1.110 -13.201  0.00  0.00     0.062 H 
ATOM     52  C   LIG d   1       3.918   0.474 -10.451  0.00  0.00    -0.050 A 
ATOM     53  H   LIG d   1       4.676   0.256 -12.434  0.00  0.00     0.062 H 
ATOM     54  H   LIG d   1       4.749   1.077 -10.117  0.00  0.00     0.062 H 
ENDBRANCH  41  44
ENDBRANCH  37  40
ENDBRANCH   7  37
BRANCH   5  55
ATOM     55  O   LIG d   1       3.263  -2.238  -3.470  0.00  0.00    -0.387 OA
ATOM     56  H   LIG d   1       3.681  -2.524  -2.646  0.00  0.00     0.210 HD
ENDBRANCH   5  55
TORSDOF 11
ENDMDL
MODEL 5
REMARK VINA RESULT:      -5.8      2.437      3.825
REMARK  11 active torsions:
REMARK  status: ('A' for Active; 'I' for Inactive)
REMARK    1  A    between atoms: C_1  and  O_2 
REMARK    2  A    between atoms: O_2  and  C_3 
REMARK    3  A    between atoms: C_6  and  C_9 
REMARK    4  A    between atoms: C_9  and  N_10 
REMARK       I    between atoms: N_10  and  C_11 
REMARK    5  A    between atoms: C_11  and  C_13 
REMARK    6  A    between atoms: C_13  and  C_14 
REMARK    7  A    between atoms: C_16  and  O_34 
REMARK    8  A    between atoms: C_18  and  O_33 
REMARK    9  A    between atoms: C_20  and  C_23 
REMARK   10  A    between atoms: C_23  and  N_24 
REMARK       I    between atoms: N_24  and  C_25 
REMARK   11  A    between atoms: C_25  and  C_27 
ROOT
ATOM      1  C   LIG d   1       6.026   0.760  -8.566  0.00  0.00     0.096 C 
ATOM      2  H   LIG d   1       6.257   1.712  -9.043  0.00  0.00     0.063 H 
ATOM      3  C   LIG d   1       5.473  -0.250  -9.604  0.00  0.00     0.110 C 
ATOM      4  H   LIG d   1       5.566  -1.274  -9.238  0.00  0.00     0.065 H 
ATOM      5  C   LIG d   1       3.987   0.168  -9.704  0.00  0.00     0.111 C 
ATOM      6  H   LIG d   1       3.346  -0.711  -9.764  0.00  0.00     0.065 H 
ATOM      7  C   LIG d   1       3.724   0.945  -8.400  0.00  0.00     0.103 C 
ATOM      8  H   LIG d   1       3.460   1.977  -8.629  0.00  0.00     0.064 H 
ATOM      9  O   LIG d   1       4.938   0.910  -7.630  0.00  0.00    -0.366 OA
ENDROOT
BRANCH   1  10
ATOM     10  C   LIG d   1       7.263   0.192  -7.867  0.00  0.00     0.053 C 
ATOM     11  H   LIG d   1       7.725  -0.564  -8.503  0.00  0.00     0.038 H 
ATOM     12  H   LIG d   1       7.977   0.995  -7.682  0.00  0.00     0.038 H 
BRANCH  10  13
ATOM     13  C   LIG d   1       6.857  -0.432  -6.558  0.00  0.00     0.216 C 
ATOM     14  N   LIG d   1       6.351  -1.682  -6.535  0.00  0.00    -0.311 N 
ATOM     15  H   LIG d   1       6.247  -2.178  -7.362  0.00  0.00     0.149 HD
ATOM     16  O   LIG d   1       6.987   0.188  -5.524  0.00  0.00    -0.276 OA
BRANCH  14  17
ATOM     17  C   LIG d   1       5.956  -2.289  -5.262  0.00  0.00     0.037 C 
ATOM     18  H   LIG d   1       5.801  -1.507  -4.519  0.00  0.00     0.051 H 
ATOM     19  H   LIG d   1       5.031  -2.850  -5.398  0.00  0.00     0.051 H 
BRANCH  17  20
ATOM     20  C   LIG d   1       7.043  -3.221  -4.792  0.00  0.00    -0.030 A 
ATOM     21  C   LIG d   1       7.904  -2.824  -3.785  0.00  0.00    -0.054 A 
ATOM     22  C   LIG d   1       8.902  -3.676  -3.352  0.00  0.00    -0.020 A 
ATOM     23  H   LIG d   1       7.797  -1.847  -3.338  0.00  0.00     0.062 H 
ATOM     24  C   LIG d   1       9.038  -4.931  -3.927  0.00  0.00     0.120 A 
ATOM     25  H   LIG d   1       9.574  -3.366  -2.566  0.00  0.00     0.065 H 
ATOM     26  C   LIG d   1       8.174  -5.327  -4.937  0.00  0.00    -0.020 A 
ATOM     27  C   LIG d   1       7.174  -4.474  -5.363  0.00  0.00    -0.054 A 
ATOM     28  H   LIG d   1       8.278  -6.304  -5.386  0.00  0.00     0.065 H 
ATOM     29  H   LIG d   1       6.496  -4.783  -6.145  0.00  0.00     0.062 H 
BRANCH  24  30
ATOM     30  O   LIG d   1      10.019  -5.771  -3.502  0.00  0.00    -0.495 OA
BRANCH  30  31
ATOM     31  C   LIG d   1      10.046  -6.084  -2.109  0.00  0.00     0.079 C 
ATOM     32  H   LIG d   1       9.068  -5.883  -1.671  0.00  0.00     0.066 H 
ATOM     33  H   LIG d   1      10.290  -7.139  -1.977  0.00  0.00     0.066 H 
ATOM     34  H   LIG d   1      10.799  -5.472  -1.613  0.00  0.00     0.066 H 
ENDBRANCH  30  31
ENDBRANCH  24  30
ENDBRANCH  17  20
ENDBRANCH  14  17
ENDBRANCH  10  13
ENDBRANCH   1  10
BRANCH   3  35
ATOM     35  O   LIG d   1       6.132  -0.100 -10.863  0.00  0.00    -0.387 OA
ATOM     36  H   LIG d   1       5.865  -0.750 -11.526  0.00  0.00     0.210 HD
ENDBRANCH   3  35
BRANCH   7  37
ATOM     37  C   LIG d   1       2.592   0.276  -7.616  0.00  0.00     0.041 C 
ATOM     38  H   LIG d   1       1.808   1.007  -7.416  0.00  0.00     0.049 H 
ATOM     39  H   LIG d   1       2.182  -0.546  -8.202  0.00  0.00     0.049 H 
BRANCH  37  40
ATOM     40  N   LIG d   1       3.114  -0.240  -6.348  0.00  0.00    -0.309 N 
ATOM     41  C   LIG d   1       2.954   0.469  -5.215  0.00  0.00     0.244 C 
ATOM     42  O   LIG d   1       2.376   1.539  -5.243  0.00  0.00    -0.270 OA
ATOM     43  H   LIG d   1       3.574  -1.094  -6.326  0.00  0.00     0.149 HD
BRANCH  41  44
ATOM     44  C   LIG d   1       3.479  -0.052  -3.935  0.00  0.00     0.037 A 
ATOM     45  C   LIG d   1       4.214   0.779  -3.088  0.00  0.00    -0.050 A 
ATOM     46  C   LIG d   1       4.701   0.285  -1.895  0.00  0.00    -0.061 A 
ATOM     47  H   LIG d   1       4.400   1.806  -3.365  0.00  0.00     0.062 H 
ATOM     48  C   LIG d   1       4.463  -1.030  -1.538  0.00  0.00    -0.062 A 
ATOM     49  H   LIG d   1       5.270   0.927  -1.239  0.00  0.00     0.062 H 
ATOM     50  C   LIG d   1       3.735  -1.859  -2.373  0.00  0.00    -0.061 A 
ATOM     51  H   LIG d   1       4.847  -1.411  -0.604  0.00  0.00     0.062 H 
ATOM     52  C   LIG d   1       3.239  -1.377  -3.566  0.00  0.00    -0.050 A 
ATOM     53  H   LIG d   1       3.553  -2.884  -2.089  0.00  0.00     0.062 H 
ATOM     54  H   LIG d   1       2.667  -2.024  -4.215  0.00  0.00     0.062 H 
ENDBRANCH  41  44
ENDBRANCH  37  40
ENDBRANCH   7  37
BRANCH   5  55
ATOM     55  O   LIG d   1       3.781   1.013 -10.839  0.00  0.00    -0.387 OA
ATOM     56  H   LIG d   1       3.862   1.957 -10.646  0.00  0.00     0.210 HD
ENDBRANCH   5  55
TORSDOF 11
ENDMDL
MODEL 6
REMARK VINA RESULT:      -5.7      2.389      5.340
REMARK  11 active torsions:
REMARK  status: ('A' for Active; 'I' for Inactive)
REMARK    1  A    between atoms: C_1  and  O_2 
REMARK    2  A    between atoms: O_2  and  C_3 
REMARK    3  A    between atoms: C_6  and  C_9 
REMARK    4  A    between atoms: C_9  and  N_10 
REMARK       I    between atoms: N_10  and  C_11 
REMARK    5  A    between atoms: C_11  and  C_13 
REMARK    6  A    between atoms: C_13  and  C_14 
REMARK    7  A    between atoms: C_16  and  O_34 
REMARK    8  A    between atoms: C_18  and  O_33 
REMARK    9  A    between atoms: C_20  and  C_23 
REMARK   10  A    between atoms: C_23  and  N_24 
REMARK       I    between atoms: N_24  and  C_25 
REMARK   11  A    between atoms: C_25  and  C_27 
ROOT
ATOM      1  C   LIG d   1       5.751  -2.041  -3.390  0.00  0.00     0.096 C 
ATOM      2  H   LIG d   1       6.117  -2.161  -2.370  0.00  0.00     0.063 H 
ATOM      3  C   LIG d   1       6.136  -0.647  -3.948  0.00  0.00     0.110 C 
ATOM      4  H   LIG d   1       6.093  -0.639  -5.037  0.00  0.00     0.065 H 
ATOM      5  C   LIG d   1       5.036   0.259  -3.344  0.00  0.00     0.111 C 
ATOM      6  H   LIG d   1       4.703   0.994  -4.077  0.00  0.00     0.065 H 
ATOM      7  C   LIG d   1       3.895  -0.715  -2.994  0.00  0.00     0.103 C 
ATOM      8  H   LIG d   1       3.719  -0.708  -1.918  0.00  0.00     0.064 H 
ATOM      9  O   LIG d   1       4.308  -2.026  -3.414  0.00  0.00    -0.366 OA
ENDROOT
BRANCH   1  10
ATOM     10  C   LIG d   1       6.293  -3.151  -4.293  0.00  0.00     0.053 C 
ATOM     11  H   LIG d   1       7.382  -3.162  -4.243  0.00  0.00     0.038 H 
ATOM     12  H   LIG d   1       5.905  -4.113  -3.959  0.00  0.00     0.038 H 
BRANCH  10  13
ATOM     13  C   LIG d   1       5.857  -2.900  -5.713  0.00  0.00     0.216 C 
ATOM     14  N   LIG d   1       6.775  -2.610  -6.658  0.00  0.00    -0.311 N 
ATOM     15  H   LIG d   1       7.715  -2.562  -6.422  0.00  0.00     0.149 HD
ATOM     16  O   LIG d   1       4.682  -2.960  -6.007  0.00  0.00    -0.276 OA
BRANCH  14  17
ATOM     17  C   LIG d   1       6.352  -2.366  -8.039  0.00  0.00     0.037 C 
ATOM     18  H   LIG d   1       6.862  -3.063  -8.703  0.00  0.00     0.051 H 
ATOM     19  H   LIG d   1       5.274  -2.509  -8.119  0.00  0.00     0.051 H 
BRANCH  17  20
ATOM     20  C   LIG d   1       6.702  -0.953  -8.429  0.00  0.00    -0.030 A 
ATOM     21  C   LIG d   1       6.687   0.050  -7.476  0.00  0.00    -0.054 A 
ATOM     22  C   LIG d   1       7.007   1.346  -7.831  0.00  0.00    -0.020 A 
ATOM     23  H   LIG d   1       6.425  -0.181  -6.454  0.00  0.00     0.062 H 
ATOM     24  C   LIG d   1       7.344   1.641  -9.144  0.00  0.00     0.120 A 
ATOM     25  H   LIG d   1       6.995   2.128  -7.087  0.00  0.00     0.065 H 
ATOM     26  C   LIG d   1       7.357   0.634 -10.098  0.00  0.00    -0.020 A 
ATOM     27  C   LIG d   1       7.043  -0.662  -9.737  0.00  0.00    -0.054 A 
ATOM     28  H   LIG d   1       7.620   0.862 -11.121  0.00  0.00     0.065 H 
ATOM     29  H   LIG d   1       7.059  -1.448 -10.478  0.00  0.00     0.062 H 
BRANCH  24  30
ATOM     30  O   LIG d   1       7.659   2.916  -9.495  0.00  0.00    -0.495 OA
BRANCH  30  31
ATOM     31  C   LIG d   1       8.752   3.527  -8.806  0.00  0.00     0.079 C 
ATOM     32  H   LIG d   1       9.430   3.979  -9.529  0.00  0.00     0.066 H 
ATOM     33  H   LIG d   1       8.373   4.298  -8.135  0.00  0.00     0.066 H 
ATOM     34  H   LIG d   1       9.285   2.772  -8.229  0.00  0.00     0.066 H 
ENDBRANCH  30  31
ENDBRANCH  24  30
ENDBRANCH  17  20
ENDBRANCH  14  17
ENDBRANCH  10  13
ENDBRANCH   1  10
BRANCH   3  35
ATOM     35  O   LIG d   1       7.431  -0.254  -3.488  0.00  0.00    -0.387 OA
ATOM     36  H   LIG d   1       7.710   0.618  -3.797  0.00  0.00     0.210 HD
ENDBRANCH   3  35
BRANCH   7  37
ATOM     37  C   LIG d   1       2.619  -0.308  -3.734  0.00  0.00     0.041 C 
ATOM     38  H   LIG d   1       1.798  -0.959  -3.431  0.00  0.00     0.049 H 
ATOM     39  H   LIG d   1       2.372   0.725  -3.492  0.00  0.00     0.049 H 
BRANCH  37  40
ATOM     40  N   LIG d   1       2.832  -0.433  -5.179  0.00  0.00    -0.309 N 
ATOM     41  C   LIG d   1       2.767   0.658  -5.966  0.00  0.00     0.244 C 
ATOM     42  O   LIG d   1       2.532   1.747  -5.479  0.00  0.00    -0.270 OA
ATOM     43  H   LIG d   1       3.020  -1.302  -5.568  0.00  0.00     0.149 HD
BRANCH  41  44
ATOM     44  C   LIG d   1       2.983   0.533  -7.423  0.00  0.00     0.037 A 
ATOM     45  C   LIG d   1       2.970  -0.724  -8.029  0.00  0.00    -0.050 A 
ATOM     46  C   LIG d   1       3.172  -0.833  -9.390  0.00  0.00    -0.061 A 
ATOM     47  H   LIG d   1       2.801  -1.610  -7.434  0.00  0.00     0.062 H 
ATOM     48  C   LIG d   1       3.387   0.300 -10.154  0.00  0.00    -0.062 A 
ATOM     49  H   LIG d   1       3.161  -1.805  -9.860  0.00  0.00     0.062 H 
ATOM     50  C   LIG d   1       3.401   1.550  -9.559  0.00  0.00    -0.061 A 
ATOM     51  H   LIG d   1       3.544   0.209 -11.217  0.00  0.00     0.062 H 
ATOM     52  C   LIG d   1       3.196   1.673  -8.200  0.00  0.00    -0.050 A 
ATOM     53  H   LIG d   1       3.570   2.430 -10.160  0.00  0.00     0.062 H 
ATOM     54  H   LIG d   1       3.203   2.650  -7.739  0.00  0.00     0.062 H 
ENDBRANCH  41  44
ENDBRANCH  37  40
ENDBRANCH   7  37
BRANCH   5  55
ATOM     55  O   LIG d   1       5.517   0.912  -2.166  0.00  0.00    -0.387 OA
ATOM     56  H   LIG d   1       4.869   1.497  -1.749  0.00  0.00     0.210 HD
ENDBRANCH   5  55
TORSDOF 11
ENDMDL
MODEL 7
REMARK VINA RESULT:      -5.6      2.301      6.564
REMARK  11 active torsions:
REMARK  status: ('A' for Active; 'I' for Inactive)
REMARK    1  A    between atoms: C_1  and  O_2 
REMARK    2  A    between atoms: O_2  and  C_3 
REMARK    3  A    between atoms: C_6  and  C_9 
REMARK    4  A    between atoms: C_9  and  N_10 
REMARK       I    between atoms: N_10  and  C_11 
REMARK    5  A    between atoms: C_11  and  C_13 
REMARK    6  A    between atoms: C_13  and  C_14 
REMARK    7  A    between atoms: C_16  and  O_34 
REMARK    8  A    between atoms: C_18  and  O_33 
REMARK    9  A    between atoms: C_20  and  C_23 
REMARK   10  A    between atoms: C_23  and  N_24 
REMARK       I    between atoms: N_24  and  C_25 
REMARK   11  A    between atoms: C_25  and  C_27 
ROOT
ATOM      1  C   LIG d   1       5.510   0.264  -3.701  0.00  0.00     0.096 C 
ATOM      2  H   LIG d   1       5.786  -0.741  -3.382  0.00  0.00     0.063 H 
ATOM      3  C   LIG d   1       4.519   0.904  -2.695  0.00  0.00     0.110 C 
ATOM      4  H   LIG d   1       4.505   1.989  -2.799  0.00  0.00     0.065 H 
ATOM      5  C   LIG d   1       3.168   0.290  -3.135  0.00  0.00     0.111 C 
ATOM      6  H   LIG d   1       2.377   1.038  -3.093  0.00  0.00     0.065 H 
ATOM      7  C   LIG d   1       3.413  -0.161  -4.588  0.00  0.00     0.103 C 
ATOM      8  H   LIG d   1       3.302  -1.243  -4.664  0.00  0.00     0.064 H 
ATOM      9  O   LIG d   1       4.756   0.217  -4.931  0.00  0.00    -0.366 OA
ENDROOT
BRANCH   1  10
ATOM     10  C   LIG d   1       6.753   1.140  -3.864  0.00  0.00     0.053 C 
ATOM     11  H   LIG d   1       6.452   2.180  -3.991  0.00  0.00     0.038 H 
ATOM     12  H   LIG d   1       7.380   1.050  -2.976  0.00  0.00     0.038 H 
BRANCH  10  13
ATOM     13  C   LIG d   1       7.529   0.690  -5.074  0.00  0.00     0.216 C 
ATOM     14  N   LIG d   1       7.070   0.969  -6.311  0.00  0.00    -0.311 N 
ATOM     15  H   LIG d   1       6.240   1.459  -6.421  0.00  0.00     0.149 HD
ATOM     16  O   LIG d   1       8.567   0.077  -4.937  0.00  0.00    -0.276 OA
BRANCH  14  17
ATOM     17  C   LIG d   1       7.824   0.532  -7.488  0.00  0.00     0.037 C 
ATOM     18  H   LIG d   1       8.003   1.386  -8.142  0.00  0.00     0.051 H 
ATOM     19  H   LIG d   1       8.779   0.110  -7.172  0.00  0.00     0.051 H 
BRANCH  17  20
ATOM     20  C   LIG d   1       7.034  -0.514  -8.231  0.00  0.00    -0.030 A 
ATOM     21  C   LIG d   1       6.002  -1.179  -7.596  0.00  0.00    -0.054 A 
ATOM     22  C   LIG d   1       5.276  -2.139  -8.274  0.00  0.00    -0.020 A 
ATOM     23  H   LIG d   1       5.763  -0.949  -6.568  0.00  0.00     0.062 H 
ATOM     24  C   LIG d   1       5.583  -2.434  -9.595  0.00  0.00     0.120 A 
ATOM     25  H   LIG d   1       4.470  -2.658  -7.778  0.00  0.00     0.065 H 
ATOM     26  C   LIG d   1       6.620  -1.766 -10.229  0.00  0.00    -0.020 A 
ATOM     27  C   LIG d   1       7.339  -0.803  -9.549  0.00  0.00    -0.054 A 
ATOM     28  H   LIG d   1       6.860  -1.995 -11.258  0.00  0.00     0.065 H 
ATOM     29  H   LIG d   1       8.142  -0.278 -10.044  0.00  0.00     0.062 H 
BRANCH  24  30
ATOM     30  O   LIG d   1       4.870  -3.379 -10.264  0.00  0.00    -0.495 OA
BRANCH  30  31
ATOM     31  C   LIG d   1       3.806  -4.013  -9.552  0.00  0.00     0.079 C 
ATOM     32  H   LIG d   1       3.665  -3.518  -8.591  0.00  0.00     0.066 H 
ATOM     33  H   LIG d   1       2.886  -3.942 -10.134  0.00  0.00     0.066 H 
ATOM     34  H   LIG d   1       4.052  -5.062  -9.389  0.00  0.00     0.066 H 
ENDBRANCH  30  31
ENDBRANCH  24  30
ENDBRANCH  17  20
ENDBRANCH  14  17
ENDBRANCH  10  13
ENDBRANCH   1  10
BRANCH   3  35
ATOM     35  O   LIG d   1       4.839   0.526  -1.355  0.00  0.00    -0.387 OA
ATOM     36  H   LIG d   1       4.086   0.191  -0.850  0.00  0.00     0.210 HD
ENDBRANCH   3  35
BRANCH   7  37
ATOM     37  C   LIG d   1       2.421   0.534  -5.522  0.00  0.00     0.041 C 
ATOM     38  H   LIG d   1       1.402   0.285  -5.222  0.00  0.00     0.049 H 
ATOM     39  H   LIG d   1       2.564   1.613  -5.466  0.00  0.00     0.049 H 
BRANCH  37  40
ATOM     40  N   LIG d   1       2.647   0.083  -6.898  0.00  0.00    -0.309 N 
ATOM     41  C   LIG d   1       2.823   0.986  -7.882  0.00  0.00     0.244 C 
ATOM     42  O   LIG d   1       2.793   2.174  -7.630  0.00  0.00    -0.270 OA
ATOM     43  H   LIG d   1       2.671  -0.866  -7.099  0.00  0.00     0.149 HD
BRANCH  41  44
ATOM     44  C   LIG d   1       3.052   0.531  -9.270  0.00  0.00     0.037 A 
ATOM     45  C   LIG d   1       4.076   1.094 -10.033  0.00  0.00    -0.050 A 
ATOM     46  C   LIG d   1       4.283   0.665 -11.328  0.00  0.00    -0.061 A 
ATOM     47  H   LIG d   1       4.705   1.864  -9.610  0.00  0.00     0.062 H 
ATOM     48  C   LIG d   1       3.480  -0.321 -11.871  0.00  0.00    -0.062 A 
ATOM     49  H   LIG d   1       5.076   1.100 -11.918  0.00  0.00     0.062 H 
ATOM     50  C   LIG d   1       2.462  -0.884 -11.120  0.00  0.00    -0.061 A 
ATOM     51  H   LIG d   1       3.647  -0.653 -12.884  0.00  0.00     0.062 H 
ATOM     52  C   LIG d   1       2.247  -0.467  -9.823  0.00  0.00    -0.050 A 
ATOM     53  H   LIG d   1       1.838  -1.653 -11.550  0.00  0.00     0.062 H 
ATOM     54  H   LIG d   1       1.455  -0.910  -9.237  0.00  0.00     0.062 H 
ENDBRANCH  41  44
ENDBRANCH  37  40
ENDBRANCH   7  37
BRANCH   5  55
ATOM     55  O   LIG d   1       2.837  -0.832  -2.312  0.00  0.00    -0.387 OA
ATOM     56  H   LIG d   1       3.161  -1.677  -2.651  0.00  0.00     0.210 HD
ENDBRANCH   5  55
TORSDOF 11
ENDMDL
MODEL 8
REMARK VINA RESULT:      -5.6      6.396     10.311
REMARK  11 active torsions:
REMARK  status: ('A' for Active; 'I' for Inactive)
REMARK    1  A    between atoms: C_1  and  O_2 
REMARK    2  A    between atoms: O_2  and  C_3 
REMARK    3  A    between atoms: C_6  and  C_9 
REMARK    4  A    between atoms: C_9  and  N_10 
REMARK       I    between atoms: N_10  and  C_11 
REMARK    5  A    between atoms: C_11  and  C_13 
REMARK    6  A    between atoms: C_13  and  C_14 
REMARK    7  A    between atoms: C_16  and  O_34 
REMARK    8  A    between atoms: C_18  and  O_33 
REMARK    9  A    between atoms: C_20  and  C_23 
REMARK   10  A    between atoms: C_23  and  N_24 
REMARK       I    between atoms: N_24  and  C_25 
REMARK   11  A    between atoms: C_25  and  C_27 
ROOT
ATOM      1  C   LIG d   1      10.330   4.262  -3.908  0.00  0.00     0.096 C 
ATOM      2  H   LIG d   1      11.404   4.289  -4.096  0.00  0.00     0.063 H 
ATOM      3  C   LIG d   1       9.971   3.091  -2.959  0.00  0.00     0.110 C 
ATOM      4  H   LIG d   1       8.998   3.251  -2.493  0.00  0.00     0.065 H 
ATOM      5  C   LIG d   1       9.927   1.887  -3.930  0.00  0.00     0.111 C 
ATOM      6  H   LIG d   1       9.095   1.228  -3.684  0.00  0.00     0.065 H 
ATOM      7  C   LIG d   1       9.722   2.528  -5.316  0.00  0.00     0.103 C 
ATOM      8  H   LIG d   1      10.576   2.309  -5.957  0.00  0.00     0.064 H 
ATOM      9  O   LIG d   1       9.610   3.947  -5.118  0.00  0.00    -0.366 OA
ENDROOT
BRANCH   1  10
ATOM     10  C   LIG d   1       9.851   5.594  -3.327  0.00  0.00     0.053 C 
ATOM     11  H   LIG d   1       9.874   6.359  -4.103  0.00  0.00     0.038 H 
ATOM     12  H   LIG d   1       8.832   5.483  -2.957  0.00  0.00     0.038 H 
BRANCH  10  13
ATOM     13  C   LIG d   1      10.756   6.001  -2.193  0.00  0.00     0.216 C 
ATOM     14  N   LIG d   1      10.228   6.474  -1.046  0.00  0.00    -0.311 N 
ATOM     15  H   LIG d   1       9.266   6.553  -0.951  0.00  0.00     0.149 HD
ATOM     16  O   LIG d   1      11.959   5.902  -2.312  0.00  0.00    -0.276 OA
BRANCH  14  17
ATOM     17  C   LIG d   1      11.108   6.870   0.056  0.00  0.00     0.037 C 
ATOM     18  H   LIG d   1      10.852   6.297   0.948  0.00  0.00     0.051 H 
ATOM     19  H   LIG d   1      12.145   6.673  -0.218  0.00  0.00     0.051 H 
BRANCH  17  20
ATOM     20  C   LIG d   1      10.932   8.340   0.336  0.00  0.00    -0.030 A 
ATOM     21  C   LIG d   1      11.735   8.965   1.272  0.00  0.00    -0.054 A 
ATOM     22  C   LIG d   1      11.577  10.313   1.531  0.00  0.00    -0.020 A 
ATOM     23  H   LIG d   1      12.486   8.398   1.803  0.00  0.00     0.062 H 
ATOM     24  C   LIG d   1      10.612  11.039   0.849  0.00  0.00     0.120 A 
ATOM     25  H   LIG d   1      12.204  10.799   2.262  0.00  0.00     0.065 H 
ATOM     26  C   LIG d   1       9.807  10.410  -0.089  0.00  0.00    -0.020 A 
ATOM     27  C   LIG d   1       9.973   9.063  -0.349  0.00  0.00    -0.054 A 
ATOM     28  H   LIG d   1       9.056  10.975  -0.622  0.00  0.00     0.065 H 
ATOM     29  H   LIG d   1       9.351   8.575  -1.084  0.00  0.00     0.062 H 
BRANCH  24  30
ATOM     30  O   LIG d   1      10.454  12.366   1.102  0.00  0.00    -0.495 OA
BRANCH  30  31
ATOM     31  C   LIG d   1      10.856  13.274   0.074  0.00  0.00     0.079 C 
ATOM     32  H   LIG d   1      11.792  12.933  -0.367  0.00  0.00     0.066 H 
ATOM     33  H   LIG d   1      10.086  13.313  -0.696  0.00  0.00     0.066 H 
ATOM     34  H   LIG d   1      10.994  14.267   0.501  0.00  0.00     0.066 H 
ENDBRANCH  30  31
ENDBRANCH  24  30
ENDBRANCH  17  20
ENDBRANCH  14  17
ENDBRANCH  10  13
ENDBRANCH   1  10
BRANCH   3  35
ATOM     35  O   LIG d   1      10.984   2.910  -1.967  0.00  0.00    -0.387 OA
ATOM     36  H   LIG d   1      11.276   3.731  -1.548  0.00  0.00     0.210 HD
ENDBRANCH   3  35
BRANCH   7  37
ATOM     37  C   LIG d   1       8.439   1.988  -5.953  0.00  0.00     0.041 C 
ATOM     38  H   LIG d   1       8.007   2.749  -6.603  0.00  0.00     0.049 H 
ATOM     39  H   LIG d   1       8.671   1.098  -6.538  0.00  0.00     0.049 H 
BRANCH  37  40
ATOM     40  N   LIG d   1       7.479   1.643  -4.901  0.00  0.00    -0.309 N 
ATOM     41  C   LIG d   1       7.063   0.370  -4.759  0.00  0.00     0.244 C 
ATOM     42  O   LIG d   1       7.484  -0.494  -5.504  0.00  0.00    -0.270 OA
ATOM     43  H   LIG d   1       7.144   2.333  -4.306  0.00  0.00     0.149 HD
BRANCH  41  44
ATOM     44  C   LIG d   1       6.096   0.021  -3.698  0.00  0.00     0.037 A 
ATOM     45  C   LIG d   1       5.713  -1.307  -3.505  0.00  0.00    -0.050 A 
ATOM     46  C   LIG d   1       4.809  -1.624  -2.512  0.00  0.00    -0.061 A 
ATOM     47  H   LIG d   1       6.124  -2.084  -4.132  0.00  0.00     0.062 H 
ATOM     48  C   LIG d   1       4.282  -0.630  -1.708  0.00  0.00    -0.062 A 
ATOM     49  H   LIG d   1       4.513  -2.652  -2.362  0.00  0.00     0.062 H 
ATOM     50  C   LIG d   1       4.657   0.689  -1.893  0.00  0.00    -0.061 A 
ATOM     51  H   LIG d   1       3.575  -0.884  -0.933  0.00  0.00     0.062 H 
ATOM     52  C   LIG d   1       5.563   1.020  -2.879  0.00  0.00    -0.050 A 
ATOM     53  H   LIG d   1       4.242   1.461  -1.262  0.00  0.00     0.062 H 
ATOM     54  H   LIG d   1       5.859   2.049  -3.020  0.00  0.00     0.062 H 
ENDBRANCH  41  44
ENDBRANCH  37  40
ENDBRANCH   7  37
BRANCH   5  55
ATOM     55  O   LIG d   1      11.162   1.167  -3.890  0.00  0.00    -0.387 OA
ATOM     56  H   LIG d   1      11.123   0.296  -4.308  0.00  0.00     0.210 HD
ENDBRANCH   5  55
TORSDOF 11
ENDMDL
MODEL 9
REMARK VINA RESULT:      -5.6      3.505      7.103
REMARK  11 active torsions:
REMARK  status: ('A' for Active; 'I' for Inactive)
REMARK    1  A    between atoms: C_1  and  O_2 
REMARK    2  A    between atoms: O_2  and  C_3 
REMARK    3  A    between atoms: C_6  and  C_9 
REMARK    4  A    between atoms: C_9  and  N_10 
REMARK       I    between atoms: N_10  and  C_11 
REMARK    5  A    between atoms: C_11  and  C_13 
REMARK    6  A    between atoms: C_13  and  C_14 
REMARK    7  A    between atoms: C_16  and  O_34 
REMARK    8  A    between atoms: C_18  and  O_33 
REMARK    9  A    between atoms: C_20  and  C_23 
REMARK   10  A    between atoms: C_23  and  N_24 
REMARK       I    between atoms: N_24  and  C_25 
REMARK   11  A    between atoms: C_25  and  C_27 
ROOT
ATOM      1  C   LIG d   1       5.498   0.065  -3.651  0.00  0.00     0.096 C 
ATOM      2  H   LIG d   1       6.043  -0.876  -3.727  0.00  0.00     0.063 H 
ATOM      3  C   LIG d   1       4.277  -0.087  -2.707  0.00  0.00     0.110 C 
ATOM      4  H   LIG d   1       3.938   0.886  -2.351  0.00  0.00     0.065 H 
ATOM      5  C   LIG d   1       3.224  -0.733  -3.639  0.00  0.00     0.111 C 
ATOM      6  H   LIG d   1       2.240  -0.300  -3.460  0.00  0.00     0.065 H 
ATOM      7  C   LIG d   1       3.717  -0.392  -5.059  0.00  0.00     0.103 C 
ATOM      8  H   LIG d   1       3.952  -1.309  -5.600  0.00  0.00     0.064 H 
ATOM      9  O   LIG d   1       4.901   0.411  -4.918  0.00  0.00    -0.366 OA
ENDROOT
BRANCH   1  10
ATOM     10  C   LIG d   1       6.419   1.185  -3.165  0.00  0.00     0.053 C 
ATOM     11  H   LIG d   1       5.874   2.130  -3.164  0.00  0.00     0.038 H 
ATOM     12  H   LIG d   1       6.760   0.963  -2.154  0.00  0.00     0.038 H 
BRANCH  10  13
ATOM     13  C   LIG d   1       7.607   1.293  -4.084  0.00  0.00     0.216 C 
ATOM     14  N   LIG d   1       7.971   2.493  -4.579  0.00  0.00    -0.311 N 
ATOM     15  H   LIG d   1       7.467   3.288  -4.342  0.00  0.00     0.149 HD
ATOM     16  O   LIG d   1       8.237   0.299  -4.380  0.00  0.00    -0.276 OA
BRANCH  14  17
ATOM     17  C   LIG d   1       9.127   2.598  -5.472  0.00  0.00     0.037 C 
ATOM     18  H   LIG d   1       9.993   2.132  -5.002  0.00  0.00     0.051 H 
ATOM     19  H   LIG d   1       8.906   2.090  -6.412  0.00  0.00     0.051 H 
BRANCH  17  20
ATOM     20  C   LIG d   1       9.422   4.050  -5.744  0.00  0.00    -0.030 A 
ATOM     21  C   LIG d   1       9.823   4.449  -7.006  0.00  0.00    -0.054 A 
ATOM     22  C   LIG d   1      10.094   5.780  -7.258  0.00  0.00    -0.020 A 
ATOM     23  H   LIG d   1       9.924   3.719  -7.795  0.00  0.00     0.062 H 
ATOM     24  C   LIG d   1       9.963   6.717  -6.243  0.00  0.00     0.120 A 
ATOM     25  H   LIG d   1      10.407   6.090  -8.243  0.00  0.00     0.065 H 
ATOM     26  C   LIG d   1       9.561   6.315  -4.978  0.00  0.00    -0.020 A 
ATOM     27  C   LIG d   1       9.285   4.984  -4.732  0.00  0.00    -0.054 A 
ATOM     28  H   LIG d   1       9.458   7.043  -4.187  0.00  0.00     0.065 H 
ATOM     29  H   LIG d   1       8.966   4.671  -3.749  0.00  0.00     0.062 H 
BRANCH  24  30
ATOM     30  O   LIG d   1      10.230   8.027  -6.489  0.00  0.00    -0.495 OA
BRANCH  30  31
ATOM     31  C   LIG d   1       9.475   8.991  -5.752  0.00  0.00     0.079 C 
ATOM     32  H   LIG d   1       8.979   8.503  -4.914  0.00  0.00     0.066 H 
ATOM     33  H   LIG d   1      10.144   9.766  -5.375  0.00  0.00     0.066 H 
ATOM     34  H   LIG d   1       8.728   9.443  -6.404  0.00  0.00     0.066 H 
ENDBRANCH  30  31
ENDBRANCH  24  30
ENDBRANCH  17  20
ENDBRANCH  14  17
ENDBRANCH  10  13
ENDBRANCH   1  10
BRANCH   3  35
ATOM     35  O   LIG d   1       4.586  -0.950  -1.610  0.00  0.00    -0.387 OA
ATOM     36  H   LIG d   1       5.353  -1.519  -1.761  0.00  0.00     0.210 HD
ENDBRANCH   3  35
BRANCH   7  37
ATOM     37  C   LIG d   1       2.640   0.396  -5.808  0.00  0.00     0.041 C 
ATOM     38  H   LIG d   1       1.694   0.318  -5.272  0.00  0.00     0.049 H 
ATOM     39  H   LIG d   1       2.936   1.442  -5.875  0.00  0.00     0.049 H 
BRANCH  37  40
ATOM     40  N   LIG d   1       2.482  -0.154  -7.157  0.00  0.00    -0.309 N 
ATOM     41  C   LIG d   1       2.840   0.578  -8.229  0.00  0.00     0.244 C 
ATOM     42  O   LIG d   1       3.293   1.696  -8.078  0.00  0.00    -0.270 OA
ATOM     43  H   LIG d   1       2.120  -1.047  -7.277  0.00  0.00     0.149 HD
BRANCH  41  44
ATOM     44  C   LIG d   1       2.682   0.023  -9.590  0.00  0.00     0.037 A 
ATOM     45  C   LIG d   1       1.517  -0.662  -9.938  0.00  0.00    -0.050 A 
ATOM     46  C   LIG d   1       1.377  -1.177 -11.210  0.00  0.00    -0.061 A 
ATOM     47  H   LIG d   1       0.727  -0.789  -9.212  0.00  0.00     0.062 H 
ATOM     48  C   LIG d   1       2.387  -1.015 -12.141  0.00  0.00    -0.062 A 
ATOM     49  H   LIG d   1       0.476  -1.708 -11.480  0.00  0.00     0.062 H 
ATOM     50  C   LIG d   1       3.544  -0.336 -11.804  0.00  0.00    -0.061 A 
ATOM     51  H   LIG d   1       2.272  -1.420 -13.135  0.00  0.00     0.062 H 
ATOM     52  C   LIG d   1       3.696   0.188 -10.536  0.00  0.00    -0.050 A 
ATOM     53  H   LIG d   1       4.329  -0.212 -12.534  0.00  0.00     0.062 H 
ATOM     54  H   LIG d   1       4.598   0.722 -10.276  0.00  0.00     0.062 H 
ENDBRANCH  41  44
ENDBRANCH  37  40
ENDBRANCH   7  37
BRANCH   5  55
ATOM     55  O   LIG d   1       3.189  -2.149  -3.449  0.00  0.00    -0.387 OA
ATOM     56  H   LIG d   1       2.477  -2.593  -3.929  0.00  0.00     0.210 HD
ENDBRANCH   5  55
TORSDOF 11
ENDMDL
