MODEL 1
REMARK VINA RESULT:      -5.8      0.000      0.000
REMARK  9 active torsions:
REMARK  status: ('A' for Active; 'I' for Inactive)
REMARK    1  A    between atoms: C_1  and  O_2 
REMARK    2  A    between atoms: O_2  and  C_3 
REMARK    3  A    between atoms: C_6  and  C_9 
REMARK    4  A    between atoms: C_14  and  N_20 
REMARK    5  A    between atoms: N_20  and  C_21 
REMARK    6  A    between atoms: C_24  and  O_29 
REMARK    7  A    between atoms: C_26  and  O_27 
REMARK    8  A    between atoms: O_27  and  C_28 
REMARK    9  A    between atoms: O_29  and  C_30 
ROOT
ATOM      1  C   LIG d   1       6.929 -10.339  -2.632  0.00  0.00     0.064 A 
ATOM      2  C   LIG d   1       7.419 -11.059  -1.591  0.00  0.00     0.104 A 
ATOM      3  O   LIG d   1       8.486 -10.671  -0.887  0.00  0.00    -0.462 OA
ATOM      4  C   LIG d   1       9.170  -9.539  -1.145  0.00  0.00     0.140 A 
ATOM      5  C   LIG d   1      10.273  -9.192  -0.378  0.00  0.00     0.003 A 
ATOM      6  C   LIG d   1      10.965  -8.022  -0.655  0.00  0.00     0.035 A 
ATOM      7  C   LIG d   1      10.559  -7.189  -1.699  0.00  0.00    -0.040 A 
ATOM      8  C   LIG d   1       9.480  -7.520  -2.466  0.00  0.00    -0.046 A 
ATOM      9  C   LIG d   1       8.774  -8.695  -2.198  0.00  0.00     0.065 A 
ATOM     10  C   LIG d   1       7.601  -9.081  -3.001  0.00  0.00     0.200 A 
ATOM     11  O   LIG d   1       7.205  -8.393  -3.926  0.00  0.00    -0.286 OA
ATOM     12  H   LIG d   1       6.926 -11.982  -1.320  0.00  0.00     0.104 H 
ATOM     13  H   LIG d   1      10.590  -9.829   0.434  0.00  0.00     0.067 H 
ATOM     14  H   LIG d   1      11.103  -6.278  -1.902  0.00  0.00     0.064 H 
ATOM     15  H   LIG d   1       9.171  -6.875  -3.275  0.00  0.00     0.063 H 
ENDROOT
BRANCH   6  16
ATOM     16  N   LIG d   1      12.069  -7.674   0.115  0.00  0.00    -0.311 N 
ATOM     17  H   LIG d   1      12.675  -6.980  -0.192  0.00  0.00     0.152 HD
BRANCH  16  18
ATOM     18  C   LIG d   1      12.308  -8.326   1.333  0.00  0.00     0.074 A 
ATOM     19  C   LIG d   1      13.291  -9.309   1.417  0.00  0.00     0.145 A 
ATOM     20  C   LIG d   1      13.525  -9.949   2.622  0.00  0.00     0.024 A 
ATOM     21  C   LIG d   1      12.781  -9.612   3.743  0.00  0.00     0.124 A 
ATOM     22  H   LIG d   1      14.288 -10.712   2.690  0.00  0.00     0.069 H 
ATOM     23  C   LIG d   1      11.806  -8.629   3.658  0.00  0.00    -0.018 A 
ATOM     24  C   LIG d   1      11.566  -7.991   2.457  0.00  0.00    -0.034 A 
ATOM     25  H   LIG d   1      11.230  -8.364   4.533  0.00  0.00     0.066 H 
ATOM     26  H   LIG d   1      10.803  -7.229   2.392  0.00  0.00     0.064 H 
BRANCH  19  27
ATOM     27  O   LIG d   1      14.020  -9.638   0.317  0.00  0.00    -0.493 OA
BRANCH  27  28
ATOM     28  C   LIG d   1      13.753 -10.907  -0.281  0.00  0.00     0.079 C 
ATOM     29  H   LIG d   1      14.080 -11.702   0.390  0.00  0.00     0.066 H 
ATOM     30  H   LIG d   1      12.682 -11.004  -0.465  0.00  0.00     0.066 H 
ATOM     31  H   LIG d   1      14.292 -10.985  -1.226  0.00  0.00     0.066 H 
ENDBRANCH  27  28
ENDBRANCH  19  27
BRANCH  21  32
ATOM     32  O   LIG d   1      13.010 -10.242   4.926  0.00  0.00    -0.495 OA
BRANCH  32  33
ATOM     33  C   LIG d   1      12.781 -11.652   4.964  0.00  0.00     0.079 C 
ATOM     34  H   LIG d   1      11.983 -11.872   5.672  0.00  0.00     0.066 H 
ATOM     35  H   LIG d   1      12.491 -12.001   3.971  0.00  0.00     0.066 H 
ATOM     36  H   LIG d   1      13.693 -12.161   5.275  0.00  0.00     0.066 H 
ENDBRANCH  32  33
ENDBRANCH  21  32
ENDBRANCH  16  18
ENDBRANCH   6  16
BRANCH   1  37
ATOM     37  C   LIG d   1       5.740 -10.809  -3.384  0.00  0.00    -0.011 A 
ATOM     38  C   LIG d   1       5.901 -11.566  -4.543  0.00  0.00    -0.050 A 
ATOM     39  C   LIG d   1       4.793 -12.002  -5.239  0.00  0.00    -0.019 A 
ATOM     40  H   LIG d   1       6.892 -11.811  -4.896  0.00  0.00     0.062 H 
ATOM     41  C   LIG d   1       3.518 -11.687  -4.788  0.00  0.00     0.120 A 
ATOM     42  H   LIG d   1       4.917 -12.588  -6.138  0.00  0.00     0.065 H 
ATOM     43  C   LIG d   1       3.356 -10.934  -3.633  0.00  0.00    -0.019 A 
ATOM     44  C   LIG d   1       4.459 -10.500  -2.930  0.00  0.00    -0.050 A 
ATOM     45  H   LIG d   1       2.363 -10.691  -3.285  0.00  0.00     0.065 H 
ATOM     46  H   LIG d   1       4.331  -9.917  -2.029  0.00  0.00     0.062 H 
BRANCH  41  47
ATOM     47  O   LIG d   1       2.430 -12.119  -5.476  0.00  0.00    -0.495 OA
BRANCH  47  48
ATOM     48  C   LIG d   1       2.649 -13.108  -6.484  0.00  0.00     0.079 C 
ATOM     49  H   LIG d   1       1.791 -13.778  -6.528  0.00  0.00     0.066 H 
ATOM     50  H   LIG d   1       2.780 -12.620  -7.450  0.00  0.00     0.066 H 
ATOM     51  H   LIG d   1       3.545 -13.681  -6.242  0.00  0.00     0.066 H 
ENDBRANCH  47  48
ENDBRANCH  41  47
ENDBRANCH   1  37
TORSDOF 9
ENDMDL
MODEL 2
REMARK VINA RESULT:      -5.8     12.739     16.185
REMARK  9 active torsions:
REMARK  status: ('A' for Active; 'I' for Inactive)
REMARK    1  A    between atoms: C_1  and  O_2 
REMARK    2  A    between atoms: O_2  and  C_3 
REMARK    3  A    between atoms: C_6  and  C_9 
REMARK    4  A    between atoms: C_14  and  N_20 
REMARK    5  A    between atoms: N_20  and  C_21 
REMARK    6  A    between atoms: C_24  and  O_29 
REMARK    7  A    between atoms: C_26  and  O_27 
REMARK    8  A    between atoms: O_27  and  C_28 
REMARK    9  A    between atoms: O_29  and  C_30 
ROOT
ATOM      1  C   LIG d   1       9.939   5.829  -6.963  0.00  0.00     0.064 A 
ATOM      2  C   LIG d   1       9.611   4.845  -7.838  0.00  0.00     0.104 A 
ATOM      3  O   LIG d   1       9.306   3.605  -7.445  0.00  0.00    -0.462 OA
ATOM      4  C   LIG d   1       9.297   3.220  -6.153  0.00  0.00     0.140 A 
ATOM      5  C   LIG d   1       8.973   1.916  -5.809  0.00  0.00     0.003 A 
ATOM      6  C   LIG d   1       8.967   1.536  -4.474  0.00  0.00     0.035 A 
ATOM      7  C   LIG d   1       9.282   2.457  -3.474  0.00  0.00    -0.040 A 
ATOM      8  C   LIG d   1       9.608   3.742  -3.798  0.00  0.00    -0.046 A 
ATOM      9  C   LIG d   1       9.618   4.138  -5.137  0.00  0.00     0.065 A 
ATOM     10  C   LIG d   1       9.960   5.518  -5.523  0.00  0.00     0.200 A 
ATOM     11  O   LIG d   1      10.246   6.362  -4.690  0.00  0.00    -0.286 OA
ATOM     12  H   LIG d   1       9.595   5.073  -8.894  0.00  0.00     0.104 H 
ATOM     13  H   LIG d   1       8.724   1.198  -6.577  0.00  0.00     0.067 H 
ATOM     14  H   LIG d   1       9.270   2.150  -2.438  0.00  0.00     0.064 H 
ATOM     15  H   LIG d   1       9.855   4.451  -3.021  0.00  0.00     0.063 H 
ENDROOT
BRANCH   6  16
ATOM     16  N   LIG d   1       8.642   0.228  -4.130  0.00  0.00    -0.311 N 
ATOM     17  H   LIG d   1       9.307  -0.474  -4.209  0.00  0.00     0.152 HD
BRANCH  16  18
ATOM     18  C   LIG d   1       7.353  -0.075  -3.669  0.00  0.00     0.074 A 
ATOM     19  C   LIG d   1       6.965  -1.403  -3.507  0.00  0.00     0.145 A 
ATOM     20  C   LIG d   1       5.692  -1.699  -3.051  0.00  0.00     0.024 A 
ATOM     21  C   LIG d   1       4.805  -0.675  -2.756  0.00  0.00     0.124 A 
ATOM     22  H   LIG d   1       5.389  -2.729  -2.924  0.00  0.00     0.069 H 
ATOM     23  C   LIG d   1       5.194   0.647  -2.913  0.00  0.00    -0.018 A 
ATOM     24  C   LIG d   1       6.462   0.946  -3.373  0.00  0.00    -0.034 A 
ATOM     25  H   LIG d   1       4.504   1.444  -2.679  0.00  0.00     0.066 H 
ATOM     26  H   LIG d   1       6.762   1.977  -3.499  0.00  0.00     0.064 H 
BRANCH  19  27
ATOM     27  O   LIG d   1       7.837  -2.407  -3.796  0.00  0.00    -0.493 OA
BRANCH  27  28
ATOM     28  C   LIG d   1       7.361  -3.453  -4.645  0.00  0.00     0.079 C 
ATOM     29  H   LIG d   1       6.346  -3.724  -4.354  0.00  0.00     0.066 H 
ATOM     30  H   LIG d   1       7.363  -3.110  -5.680  0.00  0.00     0.066 H 
ATOM     31  H   LIG d   1       8.011  -4.323  -4.550  0.00  0.00     0.066 H 
ENDBRANCH  27  28
ENDBRANCH  19  27
BRANCH  21  32
ATOM     32  O   LIG d   1       3.554  -0.967  -2.309  0.00  0.00    -0.495 OA
BRANCH  32  33
ATOM     33  C   LIG d   1       2.469  -0.699  -3.199  0.00  0.00     0.079 C 
ATOM     34  H   LIG d   1       2.848  -0.215  -4.099  0.00  0.00     0.066 H 
ATOM     35  H   LIG d   1       1.980  -1.636  -3.470  0.00  0.00     0.066 H 
ATOM     36  H   LIG d   1       1.750  -0.043  -2.709  0.00  0.00     0.066 H 
ENDBRANCH  32  33
ENDBRANCH  21  32
ENDBRANCH  16  18
ENDBRANCH   6  16
BRANCH   1  37
ATOM     37  C   LIG d   1      10.268   7.192  -7.446  0.00  0.00    -0.011 A 
ATOM     38  C   LIG d   1      11.565   7.491  -7.860  0.00  0.00    -0.050 A 
ATOM     39  C   LIG d   1      11.868   8.759  -8.310  0.00  0.00    -0.019 A 
ATOM     40  H   LIG d   1      12.332   6.730  -7.830  0.00  0.00     0.062 H 
ATOM     41  C   LIG d   1      10.885   9.738  -8.349  0.00  0.00     0.120 A 
ATOM     42  H   LIG d   1      12.874   8.992  -8.631  0.00  0.00     0.065 H 
ATOM     43  C   LIG d   1       9.592   9.442  -7.937  0.00  0.00    -0.019 A 
ATOM     44  C   LIG d   1       9.281   8.175  -7.492  0.00  0.00    -0.050 A 
ATOM     45  H   LIG d   1       8.829  10.206  -7.969  0.00  0.00     0.065 H 
ATOM     46  H   LIG d   1       8.274   7.945  -7.175  0.00  0.00     0.062 H 
BRANCH  41  47
ATOM     47  O   LIG d   1      11.187  10.986  -8.792  0.00  0.00    -0.495 OA
BRANCH  47  48
ATOM     48  C   LIG d   1      11.453  11.980  -7.801  0.00  0.00     0.079 C 
ATOM     49  H   LIG d   1      12.349  12.536  -8.075  0.00  0.00     0.066 H 
ATOM     50  H   LIG d   1      10.606  12.663  -7.736  0.00  0.00     0.066 H 
ATOM     51  H   LIG d   1      11.605  11.499  -6.835  0.00  0.00     0.066 H 
ENDBRANCH  47  48
ENDBRANCH  41  47
ENDBRANCH   1  37
TORSDOF 9
ENDMDL
MODEL 3
REMARK VINA RESULT:      -5.7     12.814     16.538
REMARK  9 active torsions:
REMARK  status: ('A' for Active; 'I' for Inactive)
REMARK    1  A    between atoms: C_1  and  O_2 
REMARK    2  A    between atoms: O_2  and  C_3 
REMARK    3  A    between atoms: C_6  and  C_9 
REMARK    4  A    between atoms: C_14  and  N_20 
REMARK    5  A    between atoms: N_20  and  C_21 
REMARK    6  A    between atoms: C_24  and  O_29 
REMARK    7  A    between atoms: C_26  and  O_27 
REMARK    8  A    between atoms: O_27  and  C_28 
REMARK    9  A    between atoms: O_29  and  C_30 
ROOT
ATOM      1  C   LIG d   1      10.404   6.680  -2.866  0.00  0.00     0.064 A 
ATOM      2  C   LIG d   1      10.625   5.793  -1.863  0.00  0.00     0.104 A 
ATOM      3  O   LIG d   1      10.362   4.489  -1.987  0.00  0.00    -0.462 OA
ATOM      4  C   LIG d   1       9.854   3.940  -3.108  0.00  0.00     0.140 A 
ATOM      5  C   LIG d   1       9.601   2.577  -3.174  0.00  0.00     0.003 A 
ATOM      6  C   LIG d   1       9.080   2.027  -4.336  0.00  0.00     0.035 A 
ATOM      7  C   LIG d   1       8.812   2.834  -5.444  0.00  0.00    -0.040 A 
ATOM      8  C   LIG d   1       9.051   4.177  -5.392  0.00  0.00    -0.046 A 
ATOM      9  C   LIG d   1       9.575   4.743  -4.228  0.00  0.00     0.065 A 
ATOM     10  C   LIG d   1       9.851   6.188  -4.139  0.00  0.00     0.200 A 
ATOM     11  O   LIG d   1       9.632   6.939  -5.074  0.00  0.00    -0.286 OA
ATOM     12  H   LIG d   1      11.031   6.153  -0.929  0.00  0.00     0.104 H 
ATOM     13  H   LIG d   1       9.809   1.945  -2.323  0.00  0.00     0.067 H 
ATOM     14  H   LIG d   1       8.411   2.394  -6.345  0.00  0.00     0.064 H 
ATOM     15  H   LIG d   1       8.839   4.798  -6.249  0.00  0.00     0.063 H 
ENDROOT
BRANCH   6  16
ATOM     16  N   LIG d   1       8.827   0.662  -4.401  0.00  0.00    -0.311 N 
ATOM     17  H   LIG d   1       9.487   0.064  -4.785  0.00  0.00     0.152 HD
BRANCH  16  18
ATOM     18  C   LIG d   1       7.617   0.149  -3.912  0.00  0.00     0.074 A 
ATOM     19  C   LIG d   1       7.390  -1.225  -3.916  0.00  0.00     0.145 A 
ATOM     20  C   LIG d   1       6.194  -1.728  -3.431  0.00  0.00     0.024 A 
ATOM     21  C   LIG d   1       5.226  -0.865  -2.942  0.00  0.00     0.124 A 
ATOM     22  H   LIG d   1       6.016  -2.795  -3.433  0.00  0.00     0.069 H 
ATOM     23  C   LIG d   1       5.456   0.503  -2.934  0.00  0.00    -0.018 A 
ATOM     24  C   LIG d   1       6.645   1.009  -3.421  0.00  0.00    -0.034 A 
ATOM     25  H   LIG d   1       4.703   1.174  -2.548  0.00  0.00     0.066 H 
ATOM     26  H   LIG d   1       6.821   2.075  -3.418  0.00  0.00     0.064 H 
BRANCH  19  27
ATOM     27  O   LIG d   1       8.341  -2.071  -4.395  0.00  0.00    -0.493 OA
BRANCH  27  28
ATOM     28  C   LIG d   1       8.446  -3.351  -3.768  0.00  0.00     0.079 C 
ATOM     29  H   LIG d   1       9.250  -3.329  -3.031  0.00  0.00     0.066 H 
ATOM     30  H   LIG d   1       7.505  -3.591  -3.272  0.00  0.00     0.066 H 
ATOM     31  H   LIG d   1       8.664  -4.109  -4.521  0.00  0.00     0.066 H 
ENDBRANCH  27  28
ENDBRANCH  19  27
BRANCH  21  32
ATOM     32  O   LIG d   1       4.052  -1.360  -2.466  0.00  0.00    -0.495 OA
BRANCH  32  33
ATOM     33  C   LIG d   1       2.850  -0.834  -3.034  0.00  0.00     0.079 C 
ATOM     34  H   LIG d   1       2.354  -0.193  -2.305  0.00  0.00     0.066 H 
ATOM     35  H   LIG d   1       3.092  -0.252  -3.924  0.00  0.00     0.066 H 
ATOM     36  H   LIG d   1       2.187  -1.655  -3.306  0.00  0.00     0.066 H 
ENDBRANCH  32  33
ENDBRANCH  21  32
ENDBRANCH  16  18
ENDBRANCH   6  16
BRANCH   1  37
ATOM     37  C   LIG d   1      10.714   8.119  -2.683  0.00  0.00    -0.011 A 
ATOM     38  C   LIG d   1      11.859   8.665  -3.260  0.00  0.00    -0.050 A 
ATOM     39  C   LIG d   1      12.144  10.004  -3.089  0.00  0.00    -0.019 A 
ATOM     40  H   LIG d   1      12.522   8.041  -3.842  0.00  0.00     0.062 H 
ATOM     41  C   LIG d   1      11.294  10.807  -2.342  0.00  0.00     0.120 A 
ATOM     42  H   LIG d   1      13.032  10.428  -3.536  0.00  0.00     0.065 H 
ATOM     43  C   LIG d   1      10.153  10.266  -1.766  0.00  0.00    -0.019 A 
ATOM     44  C   LIG d   1       9.858   8.930  -1.939  0.00  0.00    -0.050 A 
ATOM     45  H   LIG d   1       9.493  10.894  -1.185  0.00  0.00     0.065 H 
ATOM     46  H   LIG d   1       8.968   8.511  -1.493  0.00  0.00     0.062 H 
BRANCH  41  47
ATOM     47  O   LIG d   1      11.578  12.125  -2.176  0.00  0.00    -0.495 OA
BRANCH  47  48
ATOM     48  C   LIG d   1      10.470  13.028  -2.140  0.00  0.00     0.079 C 
ATOM     49  H   LIG d   1      10.823  14.043  -2.322  0.00  0.00     0.066 H 
ATOM     50  H   LIG d   1       9.750  12.750  -2.910  0.00  0.00     0.066 H 
ATOM     51  H   LIG d   1       9.993  12.979  -1.161  0.00  0.00     0.066 H 
ENDBRANCH  47  48
ENDBRANCH  41  47
ENDBRANCH   1  37
TORSDOF 9
ENDMDL
MODEL 4
REMARK VINA RESULT:      -5.6     10.940     13.126
REMARK  9 active torsions:
REMARK  status: ('A' for Active; 'I' for Inactive)
REMARK    1  A    between atoms: C_1  and  O_2 
REMARK    2  A    between atoms: O_2  and  C_3 
REMARK    3  A    between atoms: C_6  and  C_9 
REMARK    4  A    between atoms: C_14  and  N_20 
REMARK    5  A    between atoms: N_20  and  C_21 
REMARK    6  A    between atoms: C_24  and  O_29 
REMARK    7  A    between atoms: C_26  and  O_27 
REMARK    8  A    between atoms: O_27  and  C_28 
REMARK    9  A    between atoms: O_29  and  C_30 
ROOT
ATOM      1  C   LIG d   1       7.238  -0.246  -4.603  0.00  0.00     0.064 A 
ATOM      2  C   LIG d   1       6.793   0.738  -3.782  0.00  0.00     0.104 A 
ATOM      3  O   LIG d   1       7.556   1.773  -3.420  0.00  0.00    -0.462 OA
ATOM      4  C   LIG d   1       8.829   1.932  -3.832  0.00  0.00     0.140 A 
ATOM      5  C   LIG d   1       9.572   3.030  -3.420  0.00  0.00     0.003 A 
ATOM      6  C   LIG d   1      10.880   3.180  -3.855  0.00  0.00     0.035 A 
ATOM      7  C   LIG d   1      11.456   2.238  -4.709  0.00  0.00    -0.040 A 
ATOM      8  C   LIG d   1      10.740   1.151  -5.120  0.00  0.00    -0.046 A 
ATOM      9  C   LIG d   1       9.422   0.987  -4.689  0.00  0.00     0.065 A 
ATOM     10  C   LIG d   1       8.617  -0.171  -5.116  0.00  0.00     0.200 A 
ATOM     11  O   LIG d   1       9.071  -1.025  -5.858  0.00  0.00    -0.286 OA
ATOM     12  H   LIG d   1       5.781   0.683  -3.406  0.00  0.00     0.104 H 
ATOM     13  H   LIG d   1       9.132   3.765  -2.762  0.00  0.00     0.067 H 
ATOM     14  H   LIG d   1      12.475   2.369  -5.045  0.00  0.00     0.064 H 
ATOM     15  H   LIG d   1      11.190   0.422  -5.777  0.00  0.00     0.063 H 
ENDROOT
BRANCH   6  16
ATOM     16  N   LIG d   1      11.624   4.280  -3.441  0.00  0.00    -0.311 N 
ATOM     17  H   LIG d   1      12.563   4.347  -3.675  0.00  0.00     0.152 HD
BRANCH  16  18
ATOM     18  C   LIG d   1      11.016   5.293  -2.685  0.00  0.00     0.074 A 
ATOM     19  C   LIG d   1      10.377   6.352  -3.325  0.00  0.00     0.145 A 
ATOM     20  C   LIG d   1       9.777   7.350  -2.576  0.00  0.00     0.024 A 
ATOM     21  C   LIG d   1       9.812   7.294  -1.191  0.00  0.00     0.124 A 
ATOM     22  H   LIG d   1       9.281   8.173  -3.071  0.00  0.00     0.069 H 
ATOM     23  C   LIG d   1      10.444   6.235  -0.555  0.00  0.00    -0.018 A 
ATOM     24  C   LIG d   1      11.048   5.240  -1.299  0.00  0.00    -0.034 A 
ATOM     25  H   LIG d   1      10.466   6.190   0.524  0.00  0.00     0.066 H 
ATOM     26  H   LIG d   1      11.543   4.419  -0.802  0.00  0.00     0.064 H 
BRANCH  19  27
ATOM     27  O   LIG d   1      10.343   6.406  -4.684  0.00  0.00    -0.493 OA
BRANCH  27  28
ATOM     28  C   LIG d   1       9.365   7.264  -5.275  0.00  0.00     0.079 C 
ATOM     29  H   LIG d   1       9.613   8.303  -5.055  0.00  0.00     0.066 H 
ATOM     30  H   LIG d   1       9.353   7.113  -6.354  0.00  0.00     0.066 H 
ATOM     31  H   LIG d   1       8.382   7.031  -4.864  0.00  0.00     0.066 H 
ENDBRANCH  27  28
ENDBRANCH  19  27
BRANCH  21  32
ATOM     32  O   LIG d   1       9.224   8.275  -0.456  0.00  0.00    -0.495 OA
BRANCH  32  33
ATOM     33  C   LIG d   1       9.135   9.569  -1.056  0.00  0.00     0.079 C 
ATOM     34  H   LIG d   1       9.297  10.333  -0.296  0.00  0.00     0.066 H 
ATOM     35  H   LIG d   1       9.894   9.663  -1.833  0.00  0.00     0.066 H 
ATOM     36  H   LIG d   1       8.147   9.698  -1.496  0.00  0.00     0.066 H 
ENDBRANCH  32  33
ENDBRANCH  21  32
ENDBRANCH  16  18
ENDBRANCH   6  16
BRANCH   1  37
ATOM     37  C   LIG d   1       6.353  -1.375  -4.979  0.00  0.00    -0.011 A 
ATOM     38  C   LIG d   1       6.299  -2.516  -4.181  0.00  0.00    -0.050 A 
ATOM     39  C   LIG d   1       5.475  -3.564  -4.533  0.00  0.00    -0.019 A 
ATOM     40  H   LIG d   1       6.902  -2.580  -3.286  0.00  0.00     0.062 H 
ATOM     41  C   LIG d   1       4.700  -3.485  -5.682  0.00  0.00     0.120 A 
ATOM     42  H   LIG d   1       5.433  -4.449  -3.914  0.00  0.00     0.065 H 
ATOM     43  C   LIG d   1       4.751  -2.350  -6.479  0.00  0.00    -0.019 A 
ATOM     44  C   LIG d   1       5.569  -1.296  -6.129  0.00  0.00    -0.050 A 
ATOM     45  H   LIG d   1       4.147  -2.291  -7.372  0.00  0.00     0.065 H 
ATOM     46  H   LIG d   1       5.605  -0.412  -6.748  0.00  0.00     0.062 H 
BRANCH  41  47
ATOM     47  O   LIG d   1       3.889  -4.519  -6.025  0.00  0.00    -0.495 OA
BRANCH  47  48
ATOM     48  C   LIG d   1       4.444  -5.834  -5.945  0.00  0.00     0.079 C 
ATOM     49  H   LIG d   1       3.640  -6.568  -5.950  0.00  0.00     0.066 H 
ATOM     50  H   LIG d   1       5.098  -6.004  -6.801  0.00  0.00     0.066 H 
ATOM     51  H   LIG d   1       5.019  -5.930  -5.024  0.00  0.00     0.066 H 
ENDBRANCH  47  48
ENDBRANCH  41  47
ENDBRANCH   1  37
TORSDOF 9
ENDMDL
MODEL 5
REMARK VINA RESULT:      -5.5     11.447     14.794
REMARK  9 active torsions:
REMARK  status: ('A' for Active; 'I' for Inactive)
REMARK    1  A    between atoms: C_1  and  O_2 
REMARK    2  A    between atoms: O_2  and  C_3 
REMARK    3  A    between atoms: C_6  and  C_9 
REMARK    4  A    between atoms: C_14  and  N_20 
REMARK    5  A    between atoms: N_20  and  C_21 
REMARK    6  A    between atoms: C_24  and  O_29 
REMARK    7  A    between atoms: C_26  and  O_27 
REMARK    8  A    between atoms: O_27  and  C_28 
REMARK    9  A    between atoms: O_29  and  C_30 
ROOT
ATOM      1  C   LIG d   1       8.921   3.371  -8.530  0.00  0.00     0.064 A 
ATOM      2  C   LIG d   1       8.061   2.351  -8.773  0.00  0.00     0.104 A 
ATOM      3  O   LIG d   1       7.654   1.510  -7.818  0.00  0.00    -0.462 OA
ATOM      4  C   LIG d   1       8.059   1.595  -6.536  0.00  0.00     0.140 A 
ATOM      5  C   LIG d   1       7.601   0.689  -5.589  0.00  0.00     0.003 A 
ATOM      6  C   LIG d   1       8.027   0.793  -4.273  0.00  0.00     0.035 A 
ATOM      7  C   LIG d   1       8.911   1.804  -3.891  0.00  0.00    -0.040 A 
ATOM      8  C   LIG d   1       9.374   2.699  -4.812  0.00  0.00    -0.046 A 
ATOM      9  C   LIG d   1       8.953   2.607  -6.140  0.00  0.00     0.065 A 
ATOM     10  C   LIG d   1       9.428   3.559  -7.159  0.00  0.00     0.200 A 
ATOM     11  O   LIG d   1      10.203   4.458  -6.881  0.00  0.00    -0.286 OA
ATOM     12  H   LIG d   1       7.688   2.213  -9.778  0.00  0.00     0.104 H 
ATOM     13  H   LIG d   1       6.915  -0.093  -5.876  0.00  0.00     0.067 H 
ATOM     14  H   LIG d   1       9.231   1.877  -2.862  0.00  0.00     0.064 H 
ATOM     15  H   LIG d   1      10.060   3.477  -4.513  0.00  0.00     0.063 H 
ENDROOT
BRANCH   6  16
ATOM     16  N   LIG d   1       7.568  -0.115  -3.326  0.00  0.00    -0.311 N 
ATOM     17  H   LIG d   1       7.836  -0.025  -2.397  0.00  0.00     0.152 HD
BRANCH  16  18
ATOM     18  C   LIG d   1       6.717  -1.161  -3.711  0.00  0.00     0.074 A 
ATOM     19  C   LIG d   1       5.336  -1.004  -3.625  0.00  0.00     0.145 A 
ATOM     20  C   LIG d   1       4.499  -2.038  -4.008  0.00  0.00     0.024 A 
ATOM     21  C   LIG d   1       5.036  -3.228  -4.476  0.00  0.00     0.124 A 
ATOM     22  H   LIG d   1       3.426  -1.918  -3.942  0.00  0.00     0.069 H 
ATOM     23  C   LIG d   1       6.411  -3.381  -4.566  0.00  0.00    -0.018 A 
ATOM     24  C   LIG d   1       7.250  -2.353  -4.181  0.00  0.00    -0.034 A 
ATOM     25  H   LIG d   1       6.828  -4.306  -4.936  0.00  0.00     0.066 H 
ATOM     26  H   LIG d   1       8.321  -2.476  -4.248  0.00  0.00     0.064 H 
BRANCH  19  27
ATOM     27  O   LIG d   1       4.811   0.164  -3.166  0.00  0.00    -0.493 OA
BRANCH  27  28
ATOM     28  C   LIG d   1       4.401   0.196  -1.798  0.00  0.00     0.079 C 
ATOM     29  H   LIG d   1       3.801  -0.688  -1.577  0.00  0.00     0.066 H 
ATOM     30  H   LIG d   1       5.281   0.208  -1.154  0.00  0.00     0.066 H 
ATOM     31  H   LIG d   1       3.806   1.092  -1.617  0.00  0.00     0.066 H 
ENDBRANCH  27  28
ENDBRANCH  19  27
BRANCH  21  32
ATOM     32  O   LIG d   1       4.213  -4.244  -4.851  0.00  0.00    -0.495 OA
BRANCH  32  33
ATOM     33  C   LIG d   1       4.812  -5.343  -5.540  0.00  0.00     0.079 C 
ATOM     34  H   LIG d   1       4.692  -5.207  -6.614  0.00  0.00     0.066 H 
ATOM     35  H   LIG d   1       5.875  -5.389  -5.296  0.00  0.00     0.066 H 
ATOM     36  H   LIG d   1       4.329  -6.271  -5.234  0.00  0.00     0.066 H 
ENDBRANCH  32  33
ENDBRANCH  21  32
ENDBRANCH  16  18
ENDBRANCH   6  16
BRANCH   1  37
ATOM     37  C   LIG d   1       9.343   4.281  -9.622  0.00  0.00    -0.011 A 
ATOM     38  C   LIG d   1       8.666   5.481  -9.832  0.00  0.00    -0.050 A 
ATOM     39  C   LIG d   1       9.061   6.326 -10.848  0.00  0.00    -0.019 A 
ATOM     40  H   LIG d   1       7.833   5.750  -9.198  0.00  0.00     0.062 H 
ATOM     41  C   LIG d   1      10.131   5.982 -11.663  0.00  0.00     0.120 A 
ATOM     42  H   LIG d   1       8.536   7.256 -11.011  0.00  0.00     0.065 H 
ATOM     43  C   LIG d   1      10.807   4.787 -11.457  0.00  0.00    -0.019 A 
ATOM     44  C   LIG d   1      10.421   3.941 -10.439  0.00  0.00    -0.050 A 
ATOM     45  H   LIG d   1      11.639   4.522 -12.092  0.00  0.00     0.065 H 
ATOM     46  H   LIG d   1      10.950   3.014 -10.276  0.00  0.00     0.062 H 
BRANCH  41  47
ATOM     47  O   LIG d   1      10.517   6.816 -12.663  0.00  0.00    -0.495 OA
BRANCH  47  48
ATOM     48  C   LIG d   1       9.536   7.727 -13.164  0.00  0.00     0.079 C 
ATOM     49  H   LIG d   1       8.931   7.228 -13.921  0.00  0.00     0.066 H 
ATOM     50  H   LIG d   1       8.895   8.056 -12.345  0.00  0.00     0.066 H 
ATOM     51  H   LIG d   1      10.033   8.590 -13.606  0.00  0.00     0.066 H 
ENDBRANCH  47  48
ENDBRANCH  41  47
ENDBRANCH   1  37
TORSDOF 9
ENDMDL
MODEL 6
REMARK VINA RESULT:      -5.4     15.833     18.181
REMARK  9 active torsions:
REMARK  status: ('A' for Active; 'I' for Inactive)
REMARK    1  A    between atoms: C_1  and  O_2 
REMARK    2  A    between atoms: O_2  and  C_3 
REMARK    3  A    between atoms: C_6  and  C_9 
REMARK    4  A    between atoms: C_14  and  N_20 
REMARK    5  A    between atoms: N_20  and  C_21 
REMARK    6  A    between atoms: C_24  and  O_29 
REMARK    7  A    between atoms: C_26  and  O_27 
REMARK    8  A    between atoms: O_27  and  C_28 
REMARK    9  A    between atoms: O_29  and  C_30 
ROOT
ATOM      1  C   LIG d   1       9.612   6.954  -8.261  0.00  0.00     0.064 A 
ATOM      2  C   LIG d   1       9.221   7.998  -7.487  0.00  0.00     0.104 A 
ATOM      3  O   LIG d   1       9.182   7.930  -6.154  0.00  0.00    -0.462 OA
ATOM      4  C   LIG d   1       9.523   6.826  -5.460  0.00  0.00     0.140 A 
ATOM      5  C   LIG d   1       9.460   6.817  -4.073  0.00  0.00     0.003 A 
ATOM      6  C   LIG d   1       9.816   5.673  -3.374  0.00  0.00     0.035 A 
ATOM      7  C   LIG d   1      10.242   4.530  -4.054  0.00  0.00    -0.040 A 
ATOM      8  C   LIG d   1      10.304   4.522  -5.418  0.00  0.00    -0.046 A 
ATOM      9  C   LIG d   1       9.948   5.667  -6.134  0.00  0.00     0.065 A 
ATOM     10  C   LIG d   1      10.009   5.696  -7.606  0.00  0.00     0.200 A 
ATOM     11  O   LIG d   1      10.369   4.726  -8.250  0.00  0.00    -0.286 OA
ATOM     12  H   LIG d   1       8.930   8.921  -7.968  0.00  0.00     0.104 H 
ATOM     13  H   LIG d   1       9.135   7.698  -3.540  0.00  0.00     0.067 H 
ATOM     14  H   LIG d   1      10.522   3.647  -3.498  0.00  0.00     0.064 H 
ATOM     15  H   LIG d   1      10.630   3.636  -5.940  0.00  0.00     0.063 H 
ENDROOT
BRANCH   6  16
ATOM     16  N   LIG d   1       9.753   5.665  -1.985  0.00  0.00    -0.311 N 
ATOM     17  H   LIG d   1       9.098   5.110  -1.533  0.00  0.00     0.152 HD
BRANCH  16  18
ATOM     18  C   LIG d   1      10.636   6.458  -1.239  0.00  0.00     0.074 A 
ATOM     19  C   LIG d   1      10.181   7.625  -0.631  0.00  0.00     0.145 A 
ATOM     20  C   LIG d   1      11.055   8.405   0.107  0.00  0.00     0.024 A 
ATOM     21  C   LIG d   1      12.382   8.024   0.239  0.00  0.00     0.124 A 
ATOM     22  H   LIG d   1      10.704   9.312   0.579  0.00  0.00     0.069 H 
ATOM     23  C   LIG d   1      12.832   6.858  -0.362  0.00  0.00    -0.018 A 
ATOM     24  C   LIG d   1      11.964   6.080  -1.103  0.00  0.00    -0.034 A 
ATOM     25  H   LIG d   1      13.865   6.559  -0.253  0.00  0.00     0.066 H 
ATOM     26  H   LIG d   1      12.318   5.174  -1.574  0.00  0.00     0.064 H 
BRANCH  19  27
ATOM     27  O   LIG d   1       8.880   7.998  -0.762  0.00  0.00    -0.493 OA
BRANCH  27  28
ATOM     28  C   LIG d   1       8.599   9.398  -0.714  0.00  0.00     0.079 C 
ATOM     29  H   LIG d   1       9.531   9.952  -0.595  0.00  0.00     0.066 H 
ATOM     30  H   LIG d   1       8.112   9.703  -1.641  0.00  0.00     0.066 H 
ATOM     31  H   LIG d   1       7.940   9.609   0.129  0.00  0.00     0.066 H 
ENDBRANCH  27  28
ENDBRANCH  19  27
BRANCH  21  32
ATOM     32  O   LIG d   1      13.240   8.791   0.963  0.00  0.00    -0.495 OA
BRANCH  32  33
ATOM     33  C   LIG d   1      12.665   9.661   1.940  0.00  0.00     0.079 C 
ATOM     34  H   LIG d   1      13.421  10.364   2.290  0.00  0.00     0.066 H 
ATOM     35  H   LIG d   1      11.836  10.212   1.494  0.00  0.00     0.066 H 
ATOM     36  H   LIG d   1      12.300   9.072   2.781  0.00  0.00     0.066 H 
ENDBRANCH  32  33
ENDBRANCH  21  32
ENDBRANCH  16  18
ENDBRANCH   6  16
BRANCH   1  37
ATOM     37  C   LIG d   1       9.641   7.078  -9.739  0.00  0.00    -0.011 A 
ATOM     38  C   LIG d   1      10.391   8.087 -10.340  0.00  0.00    -0.050 A 
ATOM     39  C   LIG d   1      10.416   8.200 -11.715  0.00  0.00    -0.019 A 
ATOM     40  H   LIG d   1      10.952   8.781  -9.731  0.00  0.00     0.062 H 
ATOM     41  C   LIG d   1       9.695   7.310 -12.500  0.00  0.00     0.120 A 
ATOM     42  H   LIG d   1      10.997   8.982 -12.182  0.00  0.00     0.065 H 
ATOM     43  C   LIG d   1       8.947   6.304 -11.903  0.00  0.00    -0.019 A 
ATOM     44  C   LIG d   1       8.923   6.183 -10.530  0.00  0.00    -0.050 A 
ATOM     45  H   LIG d   1       8.387   5.613 -12.516  0.00  0.00     0.065 H 
ATOM     46  H   LIG d   1       8.343   5.397 -10.067  0.00  0.00     0.062 H 
BRANCH  41  47
ATOM     47  O   LIG d   1       9.723   7.423 -13.853  0.00  0.00    -0.495 OA
BRANCH  47  48
ATOM     48  C   LIG d   1      10.056   8.705 -14.390  0.00  0.00     0.079 C 
ATOM     49  H   LIG d   1      10.662   9.254 -13.670  0.00  0.00     0.066 H 
ATOM     50  H   LIG d   1      10.617   8.577 -15.315  0.00  0.00     0.066 H 
ATOM     51  H   LIG d   1       9.141   9.262 -14.595  0.00  0.00     0.066 H 
ENDBRANCH  47  48
ENDBRANCH  41  47
ENDBRANCH   1  37
TORSDOF 9
ENDMDL
MODEL 7
REMARK VINA RESULT:      -5.3     12.466     16.836
REMARK  9 active torsions:
REMARK  status: ('A' for Active; 'I' for Inactive)
REMARK    1  A    between atoms: C_1  and  O_2 
REMARK    2  A    between atoms: O_2  and  C_3 
REMARK    3  A    between atoms: C_6  and  C_9 
REMARK    4  A    between atoms: C_14  and  N_20 
REMARK    5  A    between atoms: N_20  and  C_21 
REMARK    6  A    between atoms: C_24  and  O_29 
REMARK    7  A    between atoms: C_26  and  O_27 
REMARK    8  A    between atoms: O_27  and  C_28 
REMARK    9  A    between atoms: O_29  and  C_30 
ROOT
ATOM      1  C   LIG d   1      10.094   4.613  -3.286  0.00  0.00     0.064 A 
ATOM      2  C   LIG d   1       9.542   3.382  -3.147  0.00  0.00     0.104 A 
ATOM      3  O   LIG d   1       9.124   2.659  -4.190  0.00  0.00    -0.462 OA
ATOM      4  C   LIG d   1       9.211   3.083  -5.466  0.00  0.00     0.140 A 
ATOM      5  C   LIG d   1       8.757   2.285  -6.507  0.00  0.00     0.003 A 
ATOM      6  C   LIG d   1       8.856   2.737  -7.815  0.00  0.00     0.035 A 
ATOM      7  C   LIG d   1       9.411   3.987  -8.094  0.00  0.00    -0.040 A 
ATOM      8  C   LIG d   1       9.856   4.785  -7.080  0.00  0.00    -0.046 A 
ATOM      9  C   LIG d   1       9.763   4.343  -5.759  0.00  0.00     0.065 A 
ATOM     10  C   LIG d   1      10.239   5.176  -4.640  0.00  0.00     0.200 A 
ATOM     11  O   LIG d   1      10.728   6.277  -4.826  0.00  0.00    -0.286 OA
ATOM     12  H   LIG d   1       9.436   2.969  -2.154  0.00  0.00     0.104 H 
ATOM     13  H   LIG d   1       8.331   1.315  -6.299  0.00  0.00     0.067 H 
ATOM     14  H   LIG d   1       9.486   4.325  -9.117  0.00  0.00     0.064 H 
ATOM     15  H   LIG d   1      10.281   5.753  -7.299  0.00  0.00     0.063 H 
ENDROOT
BRANCH   6  16
ATOM     16  N   LIG d   1       8.401   1.936  -8.857  0.00  0.00    -0.311 N 
ATOM     17  H   LIG d   1       9.020   1.632  -9.540  0.00  0.00     0.152 HD
BRANCH  16  18
ATOM     18  C   LIG d   1       7.050   1.568  -8.921  0.00  0.00     0.074 A 
ATOM     19  C   LIG d   1       6.683   0.233  -8.763  0.00  0.00     0.145 A 
ATOM     20  C   LIG d   1       5.348  -0.127  -8.825  0.00  0.00     0.024 A 
ATOM     21  C   LIG d   1       4.378   0.840  -9.044  0.00  0.00     0.124 A 
ATOM     22  H   LIG d   1       5.061  -1.162  -8.703  0.00  0.00     0.069 H 
ATOM     23  C   LIG d   1       4.745   2.169  -9.196  0.00  0.00    -0.018 A 
ATOM     24  C   LIG d   1       6.076   2.531  -9.139  0.00  0.00    -0.034 A 
ATOM     25  H   LIG d   1       3.988   2.922  -9.362  0.00  0.00     0.066 H 
ATOM     26  H   LIG d   1       6.360   3.567  -9.262  0.00  0.00     0.064 H 
BRANCH  19  27
ATOM     27  O   LIG d   1       7.635  -0.714  -8.548  0.00  0.00    -0.493 OA
BRANCH  27  28
ATOM     28  C   LIG d   1       7.465  -1.556  -7.406  0.00  0.00     0.079 C 
ATOM     29  H   LIG d   1       8.107  -2.433  -7.503  0.00  0.00     0.066 H 
ATOM     30  H   LIG d   1       7.736  -1.006  -6.505  0.00  0.00     0.066 H 
ATOM     31  H   LIG d   1       6.424  -1.874  -7.340  0.00  0.00     0.066 H 
ENDBRANCH  27  28
ENDBRANCH  19  27
BRANCH  21  32
ATOM     32  O   LIG d   1       3.067   0.485  -9.106  0.00  0.00    -0.495 OA
BRANCH  32  33
ATOM     33  C   LIG d   1       2.535  -0.228  -7.988  0.00  0.00     0.079 C 
ATOM     34  H   LIG d   1       1.877  -1.021  -8.342  0.00  0.00     0.066 H 
ATOM     35  H   LIG d   1       3.352  -0.663  -7.412  0.00  0.00     0.066 H 
ATOM     36  H   LIG d   1       1.970   0.457  -7.355  0.00  0.00     0.066 H 
ENDBRANCH  32  33
ENDBRANCH  21  32
ENDBRANCH  16  18
ENDBRANCH   6  16
BRANCH   1  37
ATOM     37  C   LIG d   1      10.545   5.378  -2.098  0.00  0.00    -0.011 A 
ATOM     38  C   LIG d   1       9.820   6.487  -1.665  0.00  0.00    -0.050 A 
ATOM     39  C   LIG d   1      10.242   7.196  -0.560  0.00  0.00    -0.019 A 
ATOM     40  H   LIG d   1       8.928   6.790  -2.194  0.00  0.00     0.062 H 
ATOM     41  C   LIG d   1      11.388   6.808   0.121  0.00  0.00     0.120 A 
ATOM     42  H   LIG d   1       9.679   8.055  -0.223  0.00  0.00     0.065 H 
ATOM     43  C   LIG d   1      12.112   5.705  -0.309  0.00  0.00    -0.019 A 
ATOM     44  C   LIG d   1      11.692   4.988  -1.409  0.00  0.00    -0.050 A 
ATOM     45  H   LIG d   1      13.004   5.405   0.223  0.00  0.00     0.065 H 
ATOM     46  H   LIG d   1      12.255   4.127  -1.740  0.00  0.00     0.062 H 
BRANCH  41  47
ATOM     47  O   LIG d   1      11.800   7.509   1.209  0.00  0.00    -0.495 OA
BRANCH  47  48
ATOM     48  C   LIG d   1      11.760   8.935   1.116  0.00  0.00     0.079 C 
ATOM     49  H   LIG d   1      11.062   9.228   0.333  0.00  0.00     0.066 H 
ATOM     50  H   LIG d   1      11.434   9.352   2.069  0.00  0.00     0.066 H 
ATOM     51  H   LIG d   1      12.755   9.311   0.876  0.00  0.00     0.066 H 
ENDBRANCH  47  48
ENDBRANCH  41  47
ENDBRANCH   1  37
TORSDOF 9
ENDMDL
MODEL 8
REMARK VINA RESULT:      -5.3      2.116      9.691
REMARK  9 active torsions:
REMARK  status: ('A' for Active; 'I' for Inactive)
REMARK    1  A    between atoms: C_1  and  O_2 
REMARK    2  A    between atoms: O_2  and  C_3 
REMARK    3  A    between atoms: C_6  and  C_9 
REMARK    4  A    between atoms: C_14  and  N_20 
REMARK    5  A    between atoms: N_20  and  C_21 
REMARK    6  A    between atoms: C_24  and  O_29 
REMARK    7  A    between atoms: C_26  and  O_27 
REMARK    8  A    between atoms: O_27  and  C_28 
REMARK    9  A    between atoms: O_29  and  C_30 
ROOT
ATOM      1  C   LIG d   1      10.303  -9.314  -0.026  0.00  0.00     0.064 A 
ATOM      2  C   LIG d   1       9.328 -10.258  -0.033  0.00  0.00     0.104 A 
ATOM      3  O   LIG d   1       8.406 -10.332  -0.997  0.00  0.00    -0.462 OA
ATOM      4  C   LIG d   1       8.359  -9.483  -2.042  0.00  0.00     0.140 A 
ATOM      5  C   LIG d   1       7.374  -9.612  -3.012  0.00  0.00     0.003 A 
ATOM      6  C   LIG d   1       7.341  -8.730  -4.082  0.00  0.00     0.035 A 
ATOM      7  C   LIG d   1       8.293  -7.716  -4.195  0.00  0.00    -0.040 A 
ATOM      8  C   LIG d   1       9.264  -7.573  -3.247  0.00  0.00    -0.046 A 
ATOM      9  C   LIG d   1       9.309  -8.454  -2.164  0.00  0.00     0.065 A 
ATOM     10  C   LIG d   1      10.347  -8.333  -1.125  0.00  0.00     0.200 A 
ATOM     11  O   LIG d   1      11.200  -7.464  -1.172  0.00  0.00    -0.286 OA
ATOM     12  H   LIG d   1       9.295 -10.978   0.772  0.00  0.00     0.104 H 
ATOM     13  H   LIG d   1       6.636 -10.397  -2.933  0.00  0.00     0.067 H 
ATOM     14  H   LIG d   1       8.259  -7.038  -5.036  0.00  0.00     0.064 H 
ATOM     15  H   LIG d   1       9.996  -6.785  -3.336  0.00  0.00     0.063 H 
ENDROOT
BRANCH   6  16
ATOM     16  N   LIG d   1       6.353  -8.860  -5.053  0.00  0.00    -0.311 N 
ATOM     17  H   LIG d   1       5.995  -8.071  -5.489  0.00  0.00     0.152 HD
BRANCH  16  18
ATOM     18  C   LIG d   1       5.876 -10.132  -5.402  0.00  0.00     0.074 A 
ATOM     19  C   LIG d   1       4.586 -10.515  -5.042  0.00  0.00     0.145 A 
ATOM     20  C   LIG d   1       4.118 -11.771  -5.389  0.00  0.00     0.024 A 
ATOM     21  C   LIG d   1       4.932 -12.645  -6.093  0.00  0.00     0.124 A 
ATOM     22  H   LIG d   1       3.117 -12.070  -5.111  0.00  0.00     0.069 H 
ATOM     23  C   LIG d   1       6.215 -12.260  -6.455  0.00  0.00    -0.018 A 
ATOM     24  C   LIG d   1       6.687 -11.009  -6.106  0.00  0.00    -0.034 A 
ATOM     25  H   LIG d   1       6.846 -12.940  -7.008  0.00  0.00     0.066 H 
ATOM     26  H   LIG d   1       7.688 -10.713  -6.386  0.00  0.00     0.064 H 
BRANCH  19  27
ATOM     27  O   LIG d   1       3.789  -9.656  -4.352  0.00  0.00    -0.493 OA
BRANCH  27  28
ATOM     28  C   LIG d   1       3.237 -10.131  -3.122  0.00  0.00     0.079 C 
ATOM     29  H   LIG d   1       3.038  -9.286  -2.463  0.00  0.00     0.066 H 
ATOM     30  H   LIG d   1       2.306 -10.662  -3.322  0.00  0.00     0.066 H 
ATOM     31  H   LIG d   1       3.945 -10.807  -2.642  0.00  0.00     0.066 H 
ENDBRANCH  27  28
ENDBRANCH  19  27
BRANCH  21  32
ATOM     32  O   LIG d   1       4.471 -13.879  -6.433  0.00  0.00    -0.495 OA
BRANCH  32  33
ATOM     33  C   LIG d   1       3.111 -13.967  -6.859  0.00  0.00     0.079 C 
ATOM     34  H   LIG d   1       2.472 -13.442  -6.149  0.00  0.00     0.066 H 
ATOM     35  H   LIG d   1       3.008 -13.512  -7.845  0.00  0.00     0.066 H 
ATOM     36  H   LIG d   1       2.813 -15.014  -6.910  0.00  0.00     0.066 H 
ENDBRANCH  32  33
ENDBRANCH  21  32
ENDBRANCH  16  18
ENDBRANCH   6  16
BRANCH   1  37
ATOM     37  C   LIG d   1      11.307  -9.272   1.065  0.00  0.00    -0.011 A 
ATOM     38  C   LIG d   1      11.065  -8.511   2.207  0.00  0.00    -0.050 A 
ATOM     39  C   LIG d   1      12.000  -8.474   3.220  0.00  0.00    -0.019 A 
ATOM     40  H   LIG d   1      10.145  -7.950   2.299  0.00  0.00     0.062 H 
ATOM     41  C   LIG d   1      13.182  -9.192   3.103  0.00  0.00     0.120 A 
ATOM     42  H   LIG d   1      11.813  -7.883   4.106  0.00  0.00     0.065 H 
ATOM     43  C   LIG d   1      13.425  -9.951   1.967  0.00  0.00    -0.019 A 
ATOM     44  C   LIG d   1      12.492  -9.997   0.953  0.00  0.00    -0.050 A 
ATOM     45  H   LIG d   1      14.346 -10.510   1.879  0.00  0.00     0.065 H 
ATOM     46  H   LIG d   1      12.681 -10.591   0.071  0.00  0.00     0.062 H 
BRANCH  41  47
ATOM     47  O   LIG d   1      14.100  -9.154   4.103  0.00  0.00    -0.495 OA
BRANCH  47  48
ATOM     48  C   LIG d   1      14.152 -10.281   4.980  0.00  0.00     0.079 C 
ATOM     49  H   LIG d   1      14.838 -10.072   5.801  0.00  0.00     0.066 H 
ATOM     50  H   LIG d   1      13.156 -10.477   5.379  0.00  0.00     0.066 H 
ATOM     51  H   LIG d   1      14.500 -11.155   4.429  0.00  0.00     0.066 H 
ENDBRANCH  47  48
ENDBRANCH  41  47
ENDBRANCH   1  37
TORSDOF 9
ENDMDL
MODEL 9
REMARK VINA RESULT:      -5.3      5.388      9.079
REMARK  9 active torsions:
REMARK  status: ('A' for Active; 'I' for Inactive)
REMARK    1  A    between atoms: C_1  and  O_2 
REMARK    2  A    between atoms: O_2  and  C_3 
REMARK    3  A    between atoms: C_6  and  C_9 
REMARK    4  A    between atoms: C_14  and  N_20 
REMARK    5  A    between atoms: N_20  and  C_21 
REMARK    6  A    between atoms: C_24  and  O_29 
REMARK    7  A    between atoms: C_26  and  O_27 
REMARK    8  A    between atoms: O_27  and  C_28 
REMARK    9  A    between atoms: O_29  and  C_30 
ROOT
ATOM      1  C   LIG d   1       9.564  -8.658  -2.329  0.00  0.00     0.064 A 
ATOM      2  C   LIG d   1       8.814  -8.730  -3.458  0.00  0.00     0.104 A 
ATOM      3  O   LIG d   1       8.452  -7.647  -4.151  0.00  0.00    -0.462 OA
ATOM      4  C   LIG d   1       8.793  -6.393  -3.795  0.00  0.00     0.140 A 
ATOM      5  C   LIG d   1       8.384  -5.308  -4.557  0.00  0.00     0.003 A 
ATOM      6  C   LIG d   1       8.745  -4.023  -4.177  0.00  0.00     0.035 A 
ATOM      7  C   LIG d   1       9.521  -3.813  -3.036  0.00  0.00    -0.040 A 
ATOM      8  C   LIG d   1       9.927  -4.870  -2.274  0.00  0.00    -0.046 A 
ATOM      9  C   LIG d   1       9.570  -6.169  -2.645  0.00  0.00     0.065 A 
ATOM     10  C   LIG d   1       9.995  -7.333  -1.849  0.00  0.00     0.200 A 
ATOM     11  O   LIG d   1      10.670  -7.207  -0.842  0.00  0.00    -0.286 OA
ATOM     12  H   LIG d   1       8.498  -9.701  -3.811  0.00  0.00     0.104 H 
ATOM     13  H   LIG d   1       7.786  -5.462  -5.443  0.00  0.00     0.067 H 
ATOM     14  H   LIG d   1       9.800  -2.808  -2.754  0.00  0.00     0.064 H 
ATOM     15  H   LIG d   1      10.523  -4.703  -1.390  0.00  0.00     0.063 H 
ENDROOT
BRANCH   6  16
ATOM     16  N   LIG d   1       8.334  -2.936  -4.941  0.00  0.00    -0.311 N 
ATOM     17  H   LIG d   1       8.523  -2.914  -5.893  0.00  0.00     0.152 HD
BRANCH  16  18
ATOM     18  C   LIG d   1       7.648  -1.873  -4.337  0.00  0.00     0.074 A 
ATOM     19  C   LIG d   1       8.108  -0.568  -4.495  0.00  0.00     0.145 A 
ATOM     20  C   LIG d   1       7.427   0.480  -3.897  0.00  0.00     0.024 A 
ATOM     21  C   LIG d   1       6.291   0.229  -3.144  0.00  0.00     0.124 A 
ATOM     22  H   LIG d   1       7.782   1.494  -4.018  0.00  0.00     0.069 H 
ATOM     23  C   LIG d   1       5.831  -1.072  -2.993  0.00  0.00    -0.018 A 
ATOM     24  C   LIG d   1       6.510  -2.120  -3.583  0.00  0.00    -0.034 A 
ATOM     25  H   LIG d   1       4.942  -1.265  -2.411  0.00  0.00     0.066 H 
ATOM     26  H   LIG d   1       6.153  -3.132  -3.461  0.00  0.00     0.064 H 
BRANCH  19  27
ATOM     27  O   LIG d   1       9.223  -0.323  -5.234  0.00  0.00    -0.493 OA
BRANCH  27  28
ATOM     28  C   LIG d   1       9.682   1.029  -5.286  0.00  0.00     0.079 C 
ATOM     29  H   LIG d   1       9.092   1.640  -4.602  0.00  0.00     0.066 H 
ATOM     30  H   LIG d   1      10.732   1.068  -4.994  0.00  0.00     0.066 H 
ATOM     31  H   LIG d   1       9.573   1.412  -6.301  0.00  0.00     0.066 H 
ENDBRANCH  27  28
ENDBRANCH  19  27
BRANCH  21  32
ATOM     32  O   LIG d   1       5.623   1.258  -2.557  0.00  0.00    -0.495 OA
BRANCH  32  33
ATOM     33  C   LIG d   1       4.198   1.162  -2.509  0.00  0.00     0.079 C 
ATOM     34  H   LIG d   1       3.879   0.239  -2.991  0.00  0.00     0.066 H 
ATOM     35  H   LIG d   1       3.869   1.161  -1.469  0.00  0.00     0.066 H 
ATOM     36  H   LIG d   1       3.759   2.014  -3.028  0.00  0.00     0.066 H 
ENDBRANCH  32  33
ENDBRANCH  21  32
ENDBRANCH  16  18
ENDBRANCH   6  16
BRANCH   1  37
ATOM     37  C   LIG d   1       9.944  -9.889  -1.594  0.00  0.00    -0.011 A 
ATOM     38  C   LIG d   1      11.103 -10.580  -1.942  0.00  0.00    -0.050 A 
ATOM     39  C   LIG d   1      11.454 -11.724  -1.256  0.00  0.00    -0.019 A 
ATOM     40  H   LIG d   1      11.727 -10.220  -2.748  0.00  0.00     0.062 H 
ATOM     41  C   LIG d   1      10.654 -12.188  -0.221  0.00  0.00     0.120 A 
ATOM     42  H   LIG d   1      12.353 -12.260  -1.525  0.00  0.00     0.065 H 
ATOM     43  C   LIG d   1       9.499 -11.501   0.128  0.00  0.00    -0.019 A 
ATOM     44  C   LIG d   1       9.146 -10.354  -0.550  0.00  0.00    -0.050 A 
ATOM     45  H   LIG d   1       8.879 -11.865   0.934  0.00  0.00     0.065 H 
ATOM     46  H   LIG d   1       8.249  -9.818  -0.276  0.00  0.00     0.062 H 
BRANCH  41  47
ATOM     47  O   LIG d   1      11.003 -13.315   0.453  0.00  0.00    -0.495 OA
BRANCH  47  48
ATOM     48  C   LIG d   1      12.336 -13.796   0.265  0.00  0.00     0.079 C 
ATOM     49  H   LIG d   1      12.323 -14.883   0.194  0.00  0.00     0.066 H 
ATOM     50  H   LIG d   1      12.748 -13.376  -0.653  0.00  0.00     0.066 H 
ATOM     51  H   LIG d   1      12.954 -13.494   1.111  0.00  0.00     0.066 H 
ENDBRANCH  47  48
ENDBRANCH  41  47
ENDBRANCH   1  37
TORSDOF 9
ENDMDL
MODEL 10
REMARK VINA RESULT:      -5.2      5.927      7.834
REMARK  9 active torsions:
REMARK  status: ('A' for Active; 'I' for Inactive)
REMARK    1  A    between atoms: C_1  and  O_2 
REMARK    2  A    between atoms: O_2  and  C_3 
REMARK    3  A    between atoms: C_6  and  C_9 
REMARK    4  A    between atoms: C_14  and  N_20 
REMARK    5  A    between atoms: N_20  and  C_21 
REMARK    6  A    between atoms: C_24  and  O_29 
REMARK    7  A    between atoms: C_26  and  O_27 
REMARK    8  A    between atoms: O_27  and  C_28 
REMARK    9  A    between atoms: O_29  and  C_30 
ROOT
ATOM      1  C   LIG d   1       5.472  -3.976  -5.859  0.00  0.00     0.064 A 
ATOM      2  C   LIG d   1       6.806  -4.037  -5.617  0.00  0.00     0.104 A 
ATOM      3  O   LIG d   1       7.435  -5.183  -5.340  0.00  0.00    -0.462 OA
ATOM      4  C   LIG d   1       6.807  -6.374  -5.274  0.00  0.00     0.140 A 
ATOM      5  C   LIG d   1       7.517  -7.529  -4.980  0.00  0.00     0.003 A 
ATOM      6  C   LIG d   1       6.856  -8.747  -4.917  0.00  0.00     0.035 A 
ATOM      7  C   LIG d   1       5.482  -8.821  -5.152  0.00  0.00    -0.040 A 
ATOM      8  C   LIG d   1       4.769  -7.692  -5.438  0.00  0.00    -0.046 A 
ATOM      9  C   LIG d   1       5.422  -6.459  -5.503  0.00  0.00     0.065 A 
ATOM     10  C   LIG d   1       4.686  -5.222  -5.815  0.00  0.00     0.200 A 
ATOM     11  O   LIG d   1       3.485  -5.228  -6.024  0.00  0.00    -0.286 OA
ATOM     12  H   LIG d   1       7.382  -3.124  -5.650  0.00  0.00     0.104 H 
ATOM     13  H   LIG d   1       8.581  -7.481  -4.801  0.00  0.00     0.067 H 
ATOM     14  H   LIG d   1       4.979  -9.776  -5.106  0.00  0.00     0.064 H 
ATOM     15  H   LIG d   1       3.706  -7.753  -5.615  0.00  0.00     0.063 H 
ENDROOT
BRANCH   6  16
ATOM     16  N   LIG d   1       7.568  -9.905  -4.622  0.00  0.00    -0.311 N 
ATOM     17  H   LIG d   1       7.658 -10.602  -5.291  0.00  0.00     0.152 HD
BRANCH  16  18
ATOM     18  C   LIG d   1       8.155 -10.064  -3.359  0.00  0.00     0.074 A 
ATOM     19  C   LIG d   1       9.537 -10.199  -3.245  0.00  0.00     0.145 A 
ATOM     20  C   LIG d   1      10.113 -10.355  -1.995  0.00  0.00     0.024 A 
ATOM     21  C   LIG d   1       9.316 -10.378  -0.861  0.00  0.00     0.124 A 
ATOM     22  H   LIG d   1      11.185 -10.459  -1.904  0.00  0.00     0.069 H 
ATOM     23  C   LIG d   1       7.940 -10.239  -0.977  0.00  0.00    -0.018 A 
ATOM     24  C   LIG d   1       7.361 -10.088  -2.222  0.00  0.00    -0.034 A 
ATOM     25  H   LIG d   1       7.321 -10.251  -0.092  0.00  0.00     0.066 H 
ATOM     26  H   LIG d   1       6.289  -9.983  -2.310  0.00  0.00     0.064 H 
BRANCH  19  27
ATOM     27  O   LIG d   1      10.317 -10.176  -4.358  0.00  0.00    -0.493 OA
BRANCH  27  28
ATOM     28  C   LIG d   1      11.732 -10.168  -4.157  0.00  0.00     0.079 C 
ATOM     29  H   LIG d   1      12.027  -9.229  -3.687  0.00  0.00     0.066 H 
ATOM     30  H   LIG d   1      12.013 -11.001  -3.512  0.00  0.00     0.066 H 
ATOM     31  H   LIG d   1      12.237 -10.266  -5.119  0.00  0.00     0.066 H 
ENDBRANCH  27  28
ENDBRANCH  19  27
BRANCH  21  32
ATOM     32  O   LIG d   1       9.883 -10.533   0.365  0.00  0.00    -0.495 OA
BRANCH  32  33
ATOM     33  C   LIG d   1      10.724  -9.474   0.828  0.00  0.00     0.079 C 
ATOM     34  H   LIG d   1      11.768  -9.753   0.689  0.00  0.00     0.066 H 
ATOM     35  H   LIG d   1      10.512  -8.567   0.261  0.00  0.00     0.066 H 
ATOM     36  H   LIG d   1      10.533  -9.294   1.886  0.00  0.00     0.066 H 
ENDBRANCH  32  33
ENDBRANCH  21  32
ENDBRANCH  16  18
ENDBRANCH   6  16
BRANCH   1  37
ATOM     37  C   LIG d   1       4.818  -2.681  -6.165  0.00  0.00    -0.011 A 
ATOM     38  C   LIG d   1       4.577  -1.762  -5.145  0.00  0.00    -0.050 A 
ATOM     39  C   LIG d   1       3.969  -0.558  -5.432  0.00  0.00    -0.019 A 
ATOM     40  H   LIG d   1       4.868  -1.992  -4.130  0.00  0.00     0.062 H 
ATOM     41  C   LIG d   1       3.595  -0.261  -6.736  0.00  0.00     0.120 A 
ATOM     42  H   LIG d   1       3.783   0.154  -4.642  0.00  0.00     0.065 H 
ATOM     43  C   LIG d   1       3.833  -1.174  -7.754  0.00  0.00    -0.019 A 
ATOM     44  C   LIG d   1       4.446  -2.377  -7.474  0.00  0.00    -0.050 A 
ATOM     45  H   LIG d   1       3.541  -0.940  -8.767  0.00  0.00     0.065 H 
ATOM     46  H   LIG d   1       4.634  -3.085  -8.267  0.00  0.00     0.062 H 
BRANCH  41  47
ATOM     47  O   LIG d   1       2.996   0.926  -7.015  0.00  0.00    -0.495 OA
BRANCH  47  48
ATOM     48  C   LIG d   1       3.054   1.379  -8.370  0.00  0.00     0.079 C 
ATOM     49  H   LIG d   1       2.043   1.532  -8.745  0.00  0.00     0.066 H 
ATOM     50  H   LIG d   1       3.606   2.318  -8.415  0.00  0.00     0.066 H 
ATOM     51  H   LIG d   1       3.560   0.632  -8.981  0.00  0.00     0.066 H 
ENDBRANCH  47  48
ENDBRANCH  41  47
ENDBRANCH   1  37
TORSDOF 9
ENDMDL
