MODEL 1
REMARK VINA RESULT:      -5.7      0.000      0.000
REMARK  11 active torsions:
REMARK  status: ('A' for Active; 'I' for Inactive)
REMARK    1  A    between atoms: C_1  and  C_2 
REMARK    2  A    between atoms: C_2  and  O_3 
REMARK    3  A    between atoms: O_3  and  C_4 
REMARK    4  A    between atoms: C_4  and  C_6 
REMARK    5  A    between atoms: C_6  and  C_8 
REMARK    6  A    between atoms: C_6  and  N_17 
REMARK    7  A    between atoms: C_8  and  C_10 
REMARK    8  A    between atoms: C_8  and  O_16 
REMARK       I    between atoms: N_17  and  C_18 
REMARK    9  A    between atoms: C_18  and  C_20 
REMARK   10  A    between atoms: C_20  and  C_21 
REMARK   11  A    between atoms: C_21  and  C_22 
ROOT
ATOM      1  C   LIG d   1       4.106  -0.817  -5.431  0.00  0.00     0.151 C 
ATOM      2  H   LIG d   1       4.236  -1.575  -6.204  0.00  0.00     0.064 H 
ENDROOT
BRANCH   1   3
ATOM      3  C   LIG d   1       3.879  -1.489  -4.101  0.00  0.00     0.331 C 
ATOM      4  O   LIG d   1       4.119  -2.667  -3.971  0.00  0.00    -0.249 OA
BRANCH   3   5
ATOM      5  O   LIG d   1       3.410  -0.780  -3.063  0.00  0.00    -0.464 OA
BRANCH   5   6
ATOM      6  C   LIG d   1       4.305  -0.597  -1.933  0.00  0.00     0.090 C 
ATOM      7  H   LIG d   1       3.874  -1.066  -1.049  0.00  0.00     0.069 H 
ATOM      8  H   LIG d   1       5.269  -1.056  -2.156  0.00  0.00     0.069 H 
BRANCH   6   9
ATOM      9  C   LIG d   1       4.499   0.899  -1.675  0.00  0.00    -0.031 C 
ATOM     10  H   LIG d   1       5.229   1.298  -2.379  0.00  0.00     0.026 H 
ATOM     11  H   LIG d   1       3.548   1.417  -1.805  0.00  0.00     0.026 H 
ATOM     12  H   LIG d   1       4.856   1.048  -0.656  0.00  0.00     0.026 H 
ENDBRANCH   6   9
ENDBRANCH   5   6
ENDBRANCH   3   5
ENDBRANCH   1   3
BRANCH   1  13
ATOM     13  C   LIG d   1       2.898   0.058  -5.773  0.00  0.00     0.109 C 
ATOM     14  H   LIG d   1       1.982  -0.468  -5.507  0.00  0.00     0.067 H 
BRANCH  13  15
ATOM     15  C   LIG d   1       2.896   0.357  -7.251  0.00  0.00    -0.017 A 
ATOM     16  C   LIG d   1       2.878  -0.680  -8.165  0.00  0.00    -0.056 A 
ATOM     17  C   LIG d   1       2.876  -0.407  -9.520  0.00  0.00    -0.061 A 
ATOM     18  H   LIG d   1       2.865  -1.704  -7.821  0.00  0.00     0.062 H 
ATOM     19  C   LIG d   1       2.893   0.904  -9.961  0.00  0.00    -0.062 A 
ATOM     20  H   LIG d   1       2.862  -1.217 -10.235  0.00  0.00     0.062 H 
ATOM     21  C   LIG d   1       2.910   1.940  -9.047  0.00  0.00    -0.061 A 
ATOM     22  H   LIG d   1       2.893   1.117 -11.020  0.00  0.00     0.062 H 
ATOM     23  C   LIG d   1       2.912   1.667  -7.691  0.00  0.00    -0.056 A 
ATOM     24  H   LIG d   1       2.929   2.963  -9.391  0.00  0.00     0.062 H 
ATOM     25  H   LIG d   1       2.925   2.476  -6.977  0.00  0.00     0.062 H 
ENDBRANCH  13  15
BRANCH  13  26
ATOM     26  O   LIG d   1       2.974   1.282  -5.040  0.00  0.00    -0.385 OA
ATOM     27  H   LIG d   1       2.611   1.228  -4.145  0.00  0.00     0.210 HD
ENDBRANCH  13  26
ENDBRANCH   1  13
BRANCH   1  28
ATOM     28  N   LIG d   1       5.308   0.016  -5.358  0.00  0.00    -0.300 N 
ATOM     29  C   LIG d   1       6.367  -0.256  -6.147  0.00  0.00     0.214 C 
ATOM     30  O   LIG d   1       6.323  -1.193  -6.916  0.00  0.00    -0.276 OA
ATOM     31  H   LIG d   1       5.342   0.766  -4.743  0.00  0.00     0.150 HD
BRANCH  29  32
ATOM     32  C   LIG d   1       7.603   0.601  -6.072  0.00  0.00     0.029 C 
ATOM     33  H   LIG d   1       8.279   0.336  -6.884  0.00  0.00     0.036 H 
ATOM     34  H   LIG d   1       7.324   1.651  -6.161  0.00  0.00     0.036 H 
BRANCH  32  35
ATOM     35  C   LIG d   1       8.302   0.372  -4.731  0.00  0.00    -0.005 C 
ATOM     36  H   LIG d   1       7.846  -0.480  -4.225  0.00  0.00     0.033 H 
ATOM     37  H   LIG d   1       9.359   0.170  -4.902  0.00  0.00     0.033 H 
BRANCH  35  38
ATOM     38  C   LIG d   1       8.158   1.602  -3.871  0.00  0.00     0.042 C 
ATOM     39  O   LIG d   1       7.058   2.019  -3.594  0.00  0.00    -0.550 OA
ATOM     40  O   LIG d   1       9.250   2.233  -3.414  0.00  0.00    -0.550 OA
ENDBRANCH  35  38
ENDBRANCH  32  35
ENDBRANCH  29  32
ENDBRANCH   1  28
TORSDOF 11
ENDMDL
MODEL 2
REMARK VINA RESULT:      -5.7      2.245      4.888
REMARK  11 active torsions:
REMARK  status: ('A' for Active; 'I' for Inactive)
REMARK    1  A    between atoms: C_1  and  C_2 
REMARK    2  A    between atoms: C_2  and  O_3 
REMARK    3  A    between atoms: O_3  and  C_4 
REMARK    4  A    between atoms: C_4  and  C_6 
REMARK    5  A    between atoms: C_6  and  C_8 
REMARK    6  A    between atoms: C_6  and  N_17 
REMARK    7  A    between atoms: C_8  and  C_10 
REMARK    8  A    between atoms: C_8  and  O_16 
REMARK       I    between atoms: N_17  and  C_18 
REMARK    9  A    between atoms: C_18  and  C_20 
REMARK   10  A    between atoms: C_20  and  C_21 
REMARK   11  A    between atoms: C_21  and  C_22 
ROOT
ATOM      1  C   LIG d   1       3.436  -0.327  -6.143  0.00  0.00     0.151 C 
ATOM      2  H   LIG d   1       2.743  -1.101  -5.816  0.00  0.00     0.064 H 
ENDROOT
BRANCH   1   3
ATOM      3  C   LIG d   1       2.846   0.413  -7.316  0.00  0.00     0.331 C 
ATOM      4  O   LIG d   1       2.246  -0.194  -8.172  0.00  0.00    -0.249 OA
BRANCH   3   5
ATOM      5  O   LIG d   1       2.987   1.744  -7.409  0.00  0.00    -0.464 OA
BRANCH   5   6
ATOM      6  C   LIG d   1       3.050   2.307  -8.746  0.00  0.00     0.090 C 
ATOM      7  H   LIG d   1       2.464   1.692  -9.428  0.00  0.00     0.069 H 
ATOM      8  H   LIG d   1       2.646   3.320  -8.733  0.00  0.00     0.069 H 
BRANCH   6   9
ATOM      9  C   LIG d   1       4.506   2.345  -9.216  0.00  0.00    -0.031 C 
ATOM     10  H   LIG d   1       4.559   2.811 -10.200  0.00  0.00     0.026 H 
ATOM     11  H   LIG d   1       5.102   2.921  -8.508  0.00  0.00     0.026 H 
ATOM     12  H   LIG d   1       4.895   1.328  -9.274  0.00  0.00     0.026 H 
ENDBRANCH   6   9
ENDBRANCH   5   6
ENDBRANCH   3   5
ENDBRANCH   1   3
BRANCH   1  13
ATOM     13  C   LIG d   1       4.760  -0.973  -6.561  0.00  0.00     0.109 C 
ATOM     14  H   LIG d   1       4.948  -0.766  -7.614  0.00  0.00     0.067 H 
BRANCH  13  15
ATOM     15  C   LIG d   1       4.682  -2.462  -6.346  0.00  0.00    -0.017 A 
ATOM     16  C   LIG d   1       5.019  -3.002  -5.119  0.00  0.00    -0.056 A 
ATOM     17  C   LIG d   1       4.947  -4.369  -4.922  0.00  0.00    -0.061 A 
ATOM     18  H   LIG d   1       5.338  -2.357  -4.314  0.00  0.00     0.062 H 
ATOM     19  C   LIG d   1       4.539  -5.195  -5.952  0.00  0.00    -0.062 A 
ATOM     20  H   LIG d   1       5.211  -4.791  -3.963  0.00  0.00     0.062 H 
ATOM     21  C   LIG d   1       4.201  -4.655  -7.179  0.00  0.00    -0.061 A 
ATOM     22  H   LIG d   1       4.484  -6.263  -5.798  0.00  0.00     0.062 H 
ATOM     23  C   LIG d   1       4.272  -3.288  -7.376  0.00  0.00    -0.056 A 
ATOM     24  H   LIG d   1       3.887  -5.301  -7.985  0.00  0.00     0.062 H 
ATOM     25  H   LIG d   1       4.008  -2.867  -8.334  0.00  0.00     0.062 H 
ENDBRANCH  13  15
BRANCH  13  26
ATOM     26  O   LIG d   1       5.822  -0.433  -5.773  0.00  0.00    -0.385 OA
ATOM     27  H   LIG d   1       5.939  -0.870  -4.917  0.00  0.00     0.210 HD
ENDBRANCH  13  26
ENDBRANCH   1  13
BRANCH   1  28
ATOM     28  N   LIG d   1       3.676   0.610  -5.044  0.00  0.00    -0.300 N 
ATOM     29  C   LIG d   1       3.170   0.358  -3.820  0.00  0.00     0.214 C 
ATOM     30  O   LIG d   1       2.515  -0.645  -3.631  0.00  0.00    -0.276 OA
ATOM     31  H   LIG d   1       4.200   1.413  -5.196  0.00  0.00     0.150 HD
BRANCH  29  32
ATOM     32  C   LIG d   1       3.416   1.323  -2.690  0.00  0.00     0.029 C 
ATOM     33  H   LIG d   1       3.658   2.305  -3.096  0.00  0.00     0.036 H 
ATOM     34  H   LIG d   1       2.521   1.397  -2.072  0.00  0.00     0.036 H 
BRANCH  32  35
ATOM     35  C   LIG d   1       4.583   0.822  -1.836  0.00  0.00    -0.005 C 
ATOM     36  H   LIG d   1       4.818   1.564  -1.071  0.00  0.00     0.033 H 
ATOM     37  H   LIG d   1       4.306  -0.118  -1.358  0.00  0.00     0.033 H 
BRANCH  35  38
ATOM     38  C   LIG d   1       5.790   0.604  -2.712  0.00  0.00     0.042 C 
ATOM     39  O   LIG d   1       6.270  -0.500  -2.815  0.00  0.00    -0.550 OA
ATOM     40  O   LIG d   1       6.332   1.636  -3.377  0.00  0.00    -0.550 OA
ENDBRANCH  35  38
ENDBRANCH  32  35
ENDBRANCH  29  32
ENDBRANCH   1  28
TORSDOF 11
ENDMDL
MODEL 3
REMARK VINA RESULT:      -5.7      2.536      5.957
REMARK  11 active torsions:
REMARK  status: ('A' for Active; 'I' for Inactive)
REMARK    1  A    between atoms: C_1  and  C_2 
REMARK    2  A    between atoms: C_2  and  O_3 
REMARK    3  A    between atoms: O_3  and  C_4 
REMARK    4  A    between atoms: C_4  and  C_6 
REMARK    5  A    between atoms: C_6  and  C_8 
REMARK    6  A    between atoms: C_6  and  N_17 
REMARK    7  A    between atoms: C_8  and  C_10 
REMARK    8  A    between atoms: C_8  and  O_16 
REMARK       I    between atoms: N_17  and  C_18 
REMARK    9  A    between atoms: C_18  and  C_20 
REMARK   10  A    between atoms: C_20  and  C_21 
REMARK   11  A    between atoms: C_21  and  C_22 
ROOT
ATOM      1  C   LIG d   1       3.595   0.255  -6.219  0.00  0.00     0.151 C 
ATOM      2  H   LIG d   1       4.481   0.886  -6.161  0.00  0.00     0.064 H 
ENDROOT
BRANCH   1   3
ATOM      3  C   LIG d   1       2.846   0.557  -7.491  0.00  0.00     0.331 C 
ATOM      4  O   LIG d   1       2.857   1.676  -7.948  0.00  0.00    -0.249 OA
BRANCH   3   5
ATOM      5  O   LIG d   1       2.167  -0.417  -8.117  0.00  0.00    -0.464 OA
BRANCH   5   6
ATOM      6  C   LIG d   1       2.603  -0.768  -9.457  0.00  0.00     0.090 C 
ATOM      7  H   LIG d   1       3.367  -0.064  -9.786  0.00  0.00     0.069 H 
ATOM      8  H   LIG d   1       3.015  -1.777  -9.452  0.00  0.00     0.069 H 
BRANCH   6   9
ATOM      9  C   LIG d   1       1.409  -0.709 -10.413  0.00  0.00    -0.031 C 
ATOM     10  H   LIG d   1       0.988  -1.707 -10.531  0.00  0.00     0.026 H 
ATOM     11  H   LIG d   1       0.650  -0.040 -10.006  0.00  0.00     0.026 H 
ATOM     12  H   LIG d   1       1.738  -0.337 -11.383  0.00  0.00     0.026 H 
ENDBRANCH   6   9
ENDBRANCH   5   6
ENDBRANCH   3   5
ENDBRANCH   1   3
BRANCH   1  13
ATOM     13  C   LIG d   1       2.690   0.534  -5.016  0.00  0.00     0.109 C 
ATOM     14  H   LIG d   1       2.513   1.607  -4.936  0.00  0.00     0.067 H 
BRANCH  13  15
ATOM     15  C   LIG d   1       3.358   0.039  -3.759  0.00  0.00    -0.017 A 
ATOM     16  C   LIG d   1       3.202  -1.276  -3.366  0.00  0.00    -0.056 A 
ATOM     17  C   LIG d   1       3.816  -1.731  -2.213  0.00  0.00    -0.061 A 
ATOM     18  H   LIG d   1       2.601  -1.950  -3.959  0.00  0.00     0.062 H 
ATOM     19  C   LIG d   1       4.585  -0.869  -1.454  0.00  0.00    -0.062 A 
ATOM     20  H   LIG d   1       3.693  -2.760  -1.906  0.00  0.00     0.062 H 
ATOM     21  C   LIG d   1       4.742   0.446  -1.848  0.00  0.00    -0.061 A 
ATOM     22  H   LIG d   1       5.063  -1.225  -0.553  0.00  0.00     0.062 H 
ATOM     23  C   LIG d   1       4.129   0.901  -3.001  0.00  0.00    -0.056 A 
ATOM     24  H   LIG d   1       5.338   1.120  -1.252  0.00  0.00     0.062 H 
ATOM     25  H   LIG d   1       4.251   1.928  -3.308  0.00  0.00     0.062 H 
ENDBRANCH  13  15
BRANCH  13  26
ATOM     26  O   LIG d   1       1.444  -0.142  -5.191  0.00  0.00    -0.385 OA
ATOM     27  H   LIG d   1       1.355  -0.947  -4.661  0.00  0.00     0.210 HD
ENDBRANCH  13  26
ENDBRANCH   1  13
BRANCH   1  28
ATOM     28  N   LIG d   1       3.996  -1.153  -6.210  0.00  0.00    -0.300 N 
ATOM     29  C   LIG d   1       5.262  -1.495  -6.524  0.00  0.00     0.214 C 
ATOM     30  O   LIG d   1       6.067  -0.636  -6.813  0.00  0.00    -0.276 OA
ATOM     31  H   LIG d   1       3.352  -1.840  -5.978  0.00  0.00     0.150 HD
BRANCH  29  32
ATOM     32  C   LIG d   1       5.676  -2.944  -6.515  0.00  0.00     0.029 C 
ATOM     33  H   LIG d   1       5.657  -3.333  -7.533  0.00  0.00     0.036 H 
ATOM     34  H   LIG d   1       6.684  -3.033  -6.111  0.00  0.00     0.036 H 
BRANCH  32  35
ATOM     35  C   LIG d   1       4.706  -3.746  -5.644  0.00  0.00    -0.005 C 
ATOM     36  H   LIG d   1       5.260  -4.243  -4.847  0.00  0.00     0.033 H 
ATOM     37  H   LIG d   1       3.967  -3.073  -5.208  0.00  0.00     0.033 H 
BRANCH  35  38
ATOM     38  C   LIG d   1       4.007  -4.779  -6.489  0.00  0.00     0.042 C 
ATOM     39  O   LIG d   1       3.709  -5.849  -6.012  0.00  0.00    -0.550 OA
ATOM     40  O   LIG d   1       3.715  -4.512  -7.772  0.00  0.00    -0.550 OA
ENDBRANCH  35  38
ENDBRANCH  32  35
ENDBRANCH  29  32
ENDBRANCH   1  28
TORSDOF 11
ENDMDL
MODEL 4
REMARK VINA RESULT:      -5.6      2.195      5.400
REMARK  11 active torsions:
REMARK  status: ('A' for Active; 'I' for Inactive)
REMARK    1  A    between atoms: C_1  and  C_2 
REMARK    2  A    between atoms: C_2  and  O_3 
REMARK    3  A    between atoms: O_3  and  C_4 
REMARK    4  A    between atoms: C_4  and  C_6 
REMARK    5  A    between atoms: C_6  and  C_8 
REMARK    6  A    between atoms: C_6  and  N_17 
REMARK    7  A    between atoms: C_8  and  C_10 
REMARK    8  A    between atoms: C_8  and  O_16 
REMARK       I    between atoms: N_17  and  C_18 
REMARK    9  A    between atoms: C_18  and  C_20 
REMARK   10  A    between atoms: C_20  and  C_21 
REMARK   11  A    between atoms: C_21  and  C_22 
ROOT
ATOM      1  C   LIG d   1       4.599  -1.126  -6.188  0.00  0.00     0.151 C 
ATOM      2  H   LIG d   1       4.492  -2.200  -6.336  0.00  0.00     0.064 H 
ENDROOT
BRANCH   1   3
ATOM      3  C   LIG d   1       3.851  -0.392  -7.272  0.00  0.00     0.331 C 
ATOM      4  O   LIG d   1       3.101  -0.996  -8.002  0.00  0.00    -0.249 OA
BRANCH   3   5
ATOM      5  O   LIG d   1       4.019   0.931  -7.425  0.00  0.00    -0.464 OA
BRANCH   5   6
ATOM      6  C   LIG d   1       3.076   1.618  -8.290  0.00  0.00     0.090 C 
ATOM      7  H   LIG d   1       2.509   0.886  -8.864  0.00  0.00     0.069 H 
ATOM      8  H   LIG d   1       2.393   2.212  -7.682  0.00  0.00     0.069 H 
BRANCH   6   9
ATOM      9  C   LIG d   1       3.838   2.537  -9.247  0.00  0.00    -0.031 C 
ATOM     10  H   LIG d   1       3.190   2.814 -10.078  0.00  0.00     0.026 H 
ATOM     11  H   LIG d   1       4.152   3.436  -8.715  0.00  0.00     0.026 H 
ATOM     12  H   LIG d   1       4.716   2.016  -9.628  0.00  0.00     0.026 H 
ENDBRANCH   6   9
ENDBRANCH   5   6
ENDBRANCH   3   5
ENDBRANCH   1   3
BRANCH   1  13
ATOM     13  C   LIG d   1       6.081  -0.748  -6.246  0.00  0.00     0.109 C 
ATOM     14  H   LIG d   1       6.364  -0.546  -7.279  0.00  0.00     0.067 H 
BRANCH  13  15
ATOM     15  C   LIG d   1       6.910  -1.887  -5.711  0.00  0.00    -0.017 A 
ATOM     16  C   LIG d   1       7.516  -1.779  -4.473  0.00  0.00    -0.056 A 
ATOM     17  C   LIG d   1       8.276  -2.824  -3.981  0.00  0.00    -0.061 A 
ATOM     18  H   LIG d   1       7.395  -0.879  -3.889  0.00  0.00     0.062 H 
ATOM     19  C   LIG d   1       8.431  -3.976  -4.728  0.00  0.00    -0.062 A 
ATOM     20  H   LIG d   1       8.749  -2.739  -3.014  0.00  0.00     0.062 H 
ATOM     21  C   LIG d   1       7.825  -4.085  -5.966  0.00  0.00    -0.061 A 
ATOM     22  H   LIG d   1       9.026  -4.792  -4.345  0.00  0.00     0.062 H 
ATOM     23  C   LIG d   1       7.064  -3.040  -6.457  0.00  0.00    -0.056 A 
ATOM     24  H   LIG d   1       7.951  -4.983  -6.551  0.00  0.00     0.062 H 
ATOM     25  H   LIG d   1       6.591  -3.125  -7.423  0.00  0.00     0.062 H 
ENDBRANCH  13  15
BRANCH  13  26
ATOM     26  O   LIG d   1       6.306   0.418  -5.453  0.00  0.00    -0.385 OA
ATOM     27  H   LIG d   1       6.406   1.231  -5.969  0.00  0.00     0.210 HD
ENDBRANCH  13  26
ENDBRANCH   1  13
BRANCH   1  28
ATOM     28  N   LIG d   1       4.052  -0.756  -4.881  0.00  0.00    -0.300 N 
ATOM     29  C   LIG d   1       3.835  -1.704  -3.948  0.00  0.00     0.214 C 
ATOM     30  O   LIG d   1       4.093  -2.864  -4.192  0.00  0.00    -0.276 OA
ATOM     31  H   LIG d   1       3.846   0.172  -4.686  0.00  0.00     0.150 HD
BRANCH  29  32
ATOM     32  C   LIG d   1       3.272  -1.324  -2.603  0.00  0.00     0.029 C 
ATOM     33  H   LIG d   1       2.455  -0.616  -2.738  0.00  0.00     0.036 H 
ATOM     34  H   LIG d   1       2.900  -2.215  -2.099  0.00  0.00     0.036 H 
BRANCH  32  35
ATOM     35  C   LIG d   1       4.370  -0.680  -1.754  0.00  0.00    -0.005 C 
ATOM     36  H   LIG d   1       4.122  -0.788  -0.697  0.00  0.00     0.033 H 
ATOM     37  H   LIG d   1       5.322  -1.172  -1.956  0.00  0.00     0.033 H 
BRANCH  35  38
ATOM     38  C   LIG d   1       4.479   0.783  -2.097  0.00  0.00     0.042 C 
ATOM     39  O   LIG d   1       3.534   1.516  -1.926  0.00  0.00    -0.550 OA
ATOM     40  O   LIG d   1       5.626   1.273  -2.593  0.00  0.00    -0.550 OA
ENDBRANCH  35  38
ENDBRANCH  32  35
ENDBRANCH  29  32
ENDBRANCH   1  28
TORSDOF 11
ENDMDL
MODEL 5
REMARK VINA RESULT:      -5.6      1.887      3.770
REMARK  11 active torsions:
REMARK  status: ('A' for Active; 'I' for Inactive)
REMARK    1  A    between atoms: C_1  and  C_2 
REMARK    2  A    between atoms: C_2  and  O_3 
REMARK    3  A    between atoms: O_3  and  C_4 
REMARK    4  A    between atoms: C_4  and  C_6 
REMARK    5  A    between atoms: C_6  and  C_8 
REMARK    6  A    between atoms: C_6  and  N_17 
REMARK    7  A    between atoms: C_8  and  C_10 
REMARK    8  A    between atoms: C_8  and  O_16 
REMARK       I    between atoms: N_17  and  C_18 
REMARK    9  A    between atoms: C_18  and  C_20 
REMARK   10  A    between atoms: C_20  and  C_21 
REMARK   11  A    between atoms: C_21  and  C_22 
ROOT
ATOM      1  C   LIG d   1       4.535  -0.728  -6.678  0.00  0.00     0.151 C 
ATOM      2  H   LIG d   1       3.977   0.117  -7.079  0.00  0.00     0.064 H 
ENDROOT
BRANCH   1   3
ATOM      3  C   LIG d   1       5.991  -0.358  -6.560  0.00  0.00     0.331 C 
ATOM      4  O   LIG d   1       6.371   0.725  -6.938  0.00  0.00    -0.249 OA
BRANCH   3   5
ATOM      5  O   LIG d   1       6.865  -1.230  -6.033  0.00  0.00    -0.464 OA
BRANCH   5   6
ATOM      6  C   LIG d   1       7.556  -0.821  -4.823  0.00  0.00     0.090 C 
ATOM      7  H   LIG d   1       8.631  -0.919  -4.969  0.00  0.00     0.069 H 
ATOM      8  H   LIG d   1       7.311   0.218  -4.600  0.00  0.00     0.069 H 
BRANCH   6   9
ATOM      9  C   LIG d   1       7.115  -1.711  -3.659  0.00  0.00    -0.031 C 
ATOM     10  H   LIG d   1       7.745  -2.601  -3.623  0.00  0.00     0.026 H 
ATOM     11  H   LIG d   1       7.210  -1.160  -2.723  0.00  0.00     0.026 H 
ATOM     12  H   LIG d   1       6.076  -2.008  -3.802  0.00  0.00     0.026 H 
ENDBRANCH   6   9
ENDBRANCH   5   6
ENDBRANCH   3   5
ENDBRANCH   1   3
BRANCH   1  13
ATOM     13  C   LIG d   1       4.389  -1.928  -7.618  0.00  0.00     0.109 C 
ATOM     14  H   LIG d   1       5.332  -2.100  -8.135  0.00  0.00     0.067 H 
BRANCH  13  15
ATOM     15  C   LIG d   1       3.305  -1.646  -8.627  0.00  0.00    -0.017 A 
ATOM     16  C   LIG d   1       2.781  -2.677  -9.383  0.00  0.00    -0.056 A 
ATOM     17  C   LIG d   1       1.786  -2.420 -10.308  0.00  0.00    -0.061 A 
ATOM     18  H   LIG d   1       3.146  -3.685  -9.251  0.00  0.00     0.062 H 
ATOM     19  C   LIG d   1       1.317  -1.130 -10.478  0.00  0.00    -0.062 A 
ATOM     20  H   LIG d   1       1.376  -3.226 -10.899  0.00  0.00     0.062 H 
ATOM     21  C   LIG d   1       1.842  -0.099  -9.721  0.00  0.00    -0.061 A 
ATOM     22  H   LIG d   1       0.541  -0.929 -11.201  0.00  0.00     0.062 H 
ATOM     23  C   LIG d   1       2.836  -0.357  -8.795  0.00  0.00    -0.056 A 
ATOM     24  H   LIG d   1       1.479   0.908  -9.857  0.00  0.00     0.062 H 
ATOM     25  H   LIG d   1       3.245   0.448  -8.204  0.00  0.00     0.062 H 
ENDBRANCH  13  15
BRANCH  13  26
ATOM     26  O   LIG d   1       4.043  -3.087  -6.859  0.00  0.00    -0.385 OA
ATOM     27  H   LIG d   1       3.875  -3.874  -7.397  0.00  0.00     0.210 HD
ENDBRANCH  13  26
ENDBRANCH   1  13
BRANCH   1  28
ATOM     28  N   LIG d   1       4.011  -1.077  -5.356  0.00  0.00    -0.300 N 
ATOM     29  C   LIG d   1       3.146  -0.251  -4.734  0.00  0.00     0.214 C 
ATOM     30  O   LIG d   1       2.804   0.782  -5.270  0.00  0.00    -0.276 OA
ATOM     31  H   LIG d   1       4.284  -1.904  -4.928  0.00  0.00     0.150 HD
BRANCH  29  32
ATOM     32  C   LIG d   1       2.606  -0.610  -3.374  0.00  0.00     0.029 C 
ATOM     33  H   LIG d   1       1.854   0.120  -3.077  0.00  0.00     0.036 H 
ATOM     34  H   LIG d   1       2.155  -1.601  -3.412  0.00  0.00     0.036 H 
BRANCH  32  35
ATOM     35  C   LIG d   1       3.748  -0.609  -2.356  0.00  0.00    -0.005 C 
ATOM     36  H   LIG d   1       3.397  -1.038  -1.416  0.00  0.00     0.033 H 
ATOM     37  H   LIG d   1       4.577  -1.204  -2.739  0.00  0.00     0.033 H 
BRANCH  35  38
ATOM     38  C   LIG d   1       4.211   0.805  -2.120  0.00  0.00     0.042 C 
ATOM     39  O   LIG d   1       3.402   1.680  -1.915  0.00  0.00    -0.550 OA
ATOM     40  O   LIG d   1       5.522   1.095  -2.138  0.00  0.00    -0.550 OA
ENDBRANCH  35  38
ENDBRANCH  32  35
ENDBRANCH  29  32
ENDBRANCH   1  28
TORSDOF 11
ENDMDL
MODEL 6
REMARK VINA RESULT:      -5.6      2.226      5.638
REMARK  11 active torsions:
REMARK  status: ('A' for Active; 'I' for Inactive)
REMARK    1  A    between atoms: C_1  and  C_2 
REMARK    2  A    between atoms: C_2  and  O_3 
REMARK    3  A    between atoms: O_3  and  C_4 
REMARK    4  A    between atoms: C_4  and  C_6 
REMARK    5  A    between atoms: C_6  and  C_8 
REMARK    6  A    between atoms: C_6  and  N_17 
REMARK    7  A    between atoms: C_8  and  C_10 
REMARK    8  A    between atoms: C_8  and  O_16 
REMARK       I    between atoms: N_17  and  C_18 
REMARK    9  A    between atoms: C_18  and  C_20 
REMARK   10  A    between atoms: C_20  and  C_21 
REMARK   11  A    between atoms: C_21  and  C_22 
ROOT
ATOM      1  C   LIG d   1       4.087  -0.756  -6.494  0.00  0.00     0.151 C 
ATOM      2  H   LIG d   1       3.950  -1.808  -6.248  0.00  0.00     0.064 H 
ENDROOT
BRANCH   1   3
ATOM      3  C   LIG d   1       5.556  -0.420  -6.467  0.00  0.00     0.331 C 
ATOM      4  O   LIG d   1       5.937   0.657  -6.862  0.00  0.00    -0.249 OA
BRANCH   3   5
ATOM      5  O   LIG d   1       6.441  -1.316  -6.003  0.00  0.00    -0.464 OA
BRANCH   5   6
ATOM      6  C   LIG d   1       7.288  -0.896  -4.901  0.00  0.00     0.090 C 
ATOM      7  H   LIG d   1       8.287  -0.673  -5.276  0.00  0.00     0.069 H 
ATOM      8  H   LIG d   1       6.865  -0.004  -4.438  0.00  0.00     0.069 H 
BRANCH   6   9
ATOM      9  C   LIG d   1       7.371  -2.019  -3.865  0.00  0.00    -0.031 C 
ATOM     10  H   LIG d   1       8.014  -2.815  -4.243  0.00  0.00     0.026 H 
ATOM     11  H   LIG d   1       7.785  -1.627  -2.936  0.00  0.00     0.026 H 
ATOM     12  H   LIG d   1       6.373  -2.416  -3.679  0.00  0.00     0.026 H 
ENDBRANCH   6   9
ENDBRANCH   5   6
ENDBRANCH   3   5
ENDBRANCH   1   3
BRANCH   1  13
ATOM     13  C   LIG d   1       3.347   0.108  -5.469  0.00  0.00     0.109 C 
ATOM     14  H   LIG d   1       3.601   1.156  -5.628  0.00  0.00     0.067 H 
BRANCH  13  15
ATOM     15  C   LIG d   1       3.755  -0.304  -4.078  0.00  0.00    -0.017 A 
ATOM     16  C   LIG d   1       3.619  -1.620  -3.680  0.00  0.00    -0.056 A 
ATOM     17  C   LIG d   1       3.994  -1.998  -2.403  0.00  0.00    -0.061 A 
ATOM     18  H   LIG d   1       3.221  -2.354  -4.364  0.00  0.00     0.062 H 
ATOM     19  C   LIG d   1       4.504  -1.059  -1.526  0.00  0.00    -0.062 A 
ATOM     20  H   LIG d   1       3.887  -3.027  -2.092  0.00  0.00     0.062 H 
ATOM     21  C   LIG d   1       4.641   0.257  -1.925  0.00  0.00    -0.061 A 
ATOM     22  H   LIG d   1       4.796  -1.355  -0.529  0.00  0.00     0.062 H 
ATOM     23  C   LIG d   1       4.267   0.635  -3.202  0.00  0.00    -0.056 A 
ATOM     24  H   LIG d   1       5.034   0.991  -1.239  0.00  0.00     0.062 H 
ATOM     25  H   LIG d   1       4.374   1.663  -3.513  0.00  0.00     0.062 H 
ENDBRANCH  13  15
BRANCH  13  26
ATOM     26  O   LIG d   1       1.939  -0.070  -5.625  0.00  0.00    -0.385 OA
ATOM     27  H   LIG d   1       1.559  -0.740  -5.039  0.00  0.00     0.210 HD
ENDBRANCH  13  26
ENDBRANCH   1  13
BRANCH   1  28
ATOM     28  N   LIG d   1       3.551  -0.493  -7.831  0.00  0.00    -0.300 N 
ATOM     29  C   LIG d   1       3.307  -1.518  -8.673  0.00  0.00     0.214 C 
ATOM     30  O   LIG d   1       3.534  -2.656  -8.322  0.00  0.00    -0.276 OA
ATOM     31  H   LIG d   1       3.369   0.418  -8.111  0.00  0.00     0.150 HD
BRANCH  29  32
ATOM     32  C   LIG d   1       2.756  -1.248 -10.049  0.00  0.00     0.029 C 
ATOM     33  H   LIG d   1       3.394  -1.719 -10.796  0.00  0.00     0.036 H 
ATOM     34  H   LIG d   1       1.748  -1.655 -10.123  0.00  0.00     0.036 H 
BRANCH  32  35
ATOM     35  C   LIG d   1       2.713   0.262 -10.294  0.00  0.00    -0.005 C 
ATOM     36  H   LIG d   1       1.879   0.499 -10.957  0.00  0.00     0.033 H 
ATOM     37  H   LIG d   1       2.582   0.781  -9.345  0.00  0.00     0.033 H 
BRANCH  35  38
ATOM     38  C   LIG d   1       4.004   0.704 -10.934  0.00  0.00     0.042 C 
ATOM     39  O   LIG d   1       4.280   0.338 -12.052  0.00  0.00    -0.550 OA
ATOM     40  O   LIG d   1       4.846   1.505 -10.263  0.00  0.00    -0.550 OA
ENDBRANCH  35  38
ENDBRANCH  32  35
ENDBRANCH  29  32
ENDBRANCH   1  28
TORSDOF 11
ENDMDL
MODEL 7
REMARK VINA RESULT:      -5.4      1.888      5.201
REMARK  11 active torsions:
REMARK  status: ('A' for Active; 'I' for Inactive)
REMARK    1  A    between atoms: C_1  and  C_2 
REMARK    2  A    between atoms: C_2  and  O_3 
REMARK    3  A    between atoms: O_3  and  C_4 
REMARK    4  A    between atoms: C_4  and  C_6 
REMARK    5  A    between atoms: C_6  and  C_8 
REMARK    6  A    between atoms: C_6  and  N_17 
REMARK    7  A    between atoms: C_8  and  C_10 
REMARK    8  A    between atoms: C_8  and  O_16 
REMARK       I    between atoms: N_17  and  C_18 
REMARK    9  A    between atoms: C_18  and  C_20 
REMARK   10  A    between atoms: C_20  and  C_21 
REMARK   11  A    between atoms: C_21  and  C_22 
ROOT
ATOM      1  C   LIG d   1       4.493  -0.656  -4.874  0.00  0.00     0.151 C 
ATOM      2  H   LIG d   1       4.451   0.417  -4.688  0.00  0.00     0.064 H 
ENDROOT
BRANCH   1   3
ATOM      3  C   LIG d   1       3.766  -1.385  -3.773  0.00  0.00     0.331 C 
ATOM      4  O   LIG d   1       3.879  -2.584  -3.666  0.00  0.00    -0.249 OA
BRANCH   3   5
ATOM      5  O   LIG d   1       2.994  -0.703  -2.912  0.00  0.00    -0.464 OA
BRANCH   5   6
ATOM      6  C   LIG d   1       3.341   0.687  -2.676  0.00  0.00     0.090 C 
ATOM      7  H   LIG d   1       3.687   1.138  -3.606  0.00  0.00     0.069 H 
ATOM      8  H   LIG d   1       2.462   1.224  -2.316  0.00  0.00     0.069 H 
BRANCH   6   9
ATOM      9  C   LIG d   1       4.452   0.764  -1.627  0.00  0.00    -0.031 C 
ATOM     10  H   LIG d   1       4.104   1.342  -0.771  0.00  0.00     0.026 H 
ATOM     11  H   LIG d   1       4.717  -0.243  -1.302  0.00  0.00     0.026 H 
ATOM     12  H   LIG d   1       5.328   1.247  -2.060  0.00  0.00     0.026 H 
ENDBRANCH   6   9
ENDBRANCH   5   6
ENDBRANCH   3   5
ENDBRANCH   1   3
BRANCH   1  13
ATOM     13  C   LIG d   1       5.954  -1.111  -4.909  0.00  0.00     0.109 C 
ATOM     14  H   LIG d   1       6.197  -1.623  -3.978  0.00  0.00     0.067 H 
BRANCH  13  15
ATOM     15  C   LIG d   1       6.850   0.090  -5.071  0.00  0.00    -0.017 A 
ATOM     16  C   LIG d   1       7.327   0.431  -6.323  0.00  0.00    -0.056 A 
ATOM     17  C   LIG d   1       8.149   1.534  -6.473  0.00  0.00    -0.061 A 
ATOM     18  H   LIG d   1       7.059  -0.162  -7.184  0.00  0.00     0.062 H 
ATOM     19  C   LIG d   1       8.493   2.294  -5.370  0.00  0.00    -0.062 A 
ATOM     20  H   LIG d   1       8.523   1.800  -7.450  0.00  0.00     0.062 H 
ATOM     21  C   LIG d   1       8.014   1.953  -4.119  0.00  0.00    -0.061 A 
ATOM     22  H   LIG d   1       9.135   3.154  -5.487  0.00  0.00     0.062 H 
ATOM     23  C   LIG d   1       7.192   0.851  -3.970  0.00  0.00    -0.056 A 
ATOM     24  H   LIG d   1       8.287   2.544  -3.258  0.00  0.00     0.062 H 
ATOM     25  H   LIG d   1       6.818   0.586  -2.993  0.00  0.00     0.062 H 
ENDBRANCH  13  15
BRANCH  13  26
ATOM     26  O   LIG d   1       6.148  -2.002  -6.008  0.00  0.00    -0.385 OA
ATOM     27  H   LIG d   1       6.019  -1.593  -6.875  0.00  0.00     0.210 HD
ENDBRANCH  13  26
ENDBRANCH   1  13
BRANCH   1  28
ATOM     28  N   LIG d   1       3.858  -0.954  -6.159  0.00  0.00    -0.300 N 
ATOM     29  C   LIG d   1       3.160   0.002  -6.805  0.00  0.00     0.214 C 
ATOM     30  O   LIG d   1       3.057   1.108  -6.319  0.00  0.00    -0.276 OA
ATOM     31  H   LIG d   1       3.940  -1.839  -6.548  0.00  0.00     0.150 HD
BRANCH  29  32
ATOM     32  C   LIG d   1       2.507  -0.305  -8.127  0.00  0.00     0.029 C 
ATOM     33  H   LIG d   1       3.035  -1.125  -8.612  0.00  0.00     0.036 H 
ATOM     34  H   LIG d   1       1.468  -0.590  -7.962  0.00  0.00     0.036 H 
BRANCH  32  35
ATOM     35  C   LIG d   1       2.558   0.935  -9.022  0.00  0.00    -0.005 C 
ATOM     36  H   LIG d   1       1.544   1.214  -9.315  0.00  0.00     0.033 H 
ATOM     37  H   LIG d   1       3.017   1.759  -8.475  0.00  0.00     0.033 H 
BRANCH  35  38
ATOM     38  C   LIG d   1       3.372   0.634 -10.253  0.00  0.00     0.042 C 
ATOM     39  O   LIG d   1       3.818   1.540 -10.919  0.00  0.00    -0.550 OA
ATOM     40  O   LIG d   1       3.603  -0.638 -10.611  0.00  0.00    -0.550 OA
ENDBRANCH  35  38
ENDBRANCH  32  35
ENDBRANCH  29  32
ENDBRANCH   1  28
TORSDOF 11
ENDMDL
MODEL 8
REMARK VINA RESULT:      -5.3      2.375      5.611
REMARK  11 active torsions:
REMARK  status: ('A' for Active; 'I' for Inactive)
REMARK    1  A    between atoms: C_1  and  C_2 
REMARK    2  A    between atoms: C_2  and  O_3 
REMARK    3  A    between atoms: O_3  and  C_4 
REMARK    4  A    between atoms: C_4  and  C_6 
REMARK    5  A    between atoms: C_6  and  C_8 
REMARK    6  A    between atoms: C_6  and  N_17 
REMARK    7  A    between atoms: C_8  and  C_10 
REMARK    8  A    between atoms: C_8  and  O_16 
REMARK       I    between atoms: N_17  and  C_18 
REMARK    9  A    between atoms: C_18  and  C_20 
REMARK   10  A    between atoms: C_20  and  C_21 
REMARK   11  A    between atoms: C_21  and  C_22 
ROOT
ATOM      1  C   LIG d   1       4.849  -0.748  -6.649  0.00  0.00     0.151 C 
ATOM      2  H   LIG d   1       3.959  -1.219  -6.232  0.00  0.00     0.064 H 
ENDROOT
BRANCH   1   3
ATOM      3  C   LIG d   1       5.487  -1.677  -7.650  0.00  0.00     0.331 C 
ATOM      4  O   LIG d   1       6.549  -1.389  -8.149  0.00  0.00    -0.249 OA
BRANCH   3   5
ATOM      5  O   LIG d   1       4.875  -2.823  -7.987  0.00  0.00    -0.464 OA
BRANCH   5   6
ATOM      6  C   LIG d   1       4.431  -3.677  -6.900  0.00  0.00     0.090 C 
ATOM      7  H   LIG d   1       3.886  -3.080  -6.169  0.00  0.00     0.069 H 
ATOM      8  H   LIG d   1       3.778  -4.456  -7.294  0.00  0.00     0.069 H 
BRANCH   6   9
ATOM      9  C   LIG d   1       5.646  -4.320  -6.229  0.00  0.00    -0.031 C 
ATOM     10  H   LIG d   1       5.978  -5.174  -6.820  0.00  0.00     0.026 H 
ATOM     11  H   LIG d   1       6.453  -3.590  -6.160  0.00  0.00     0.026 H 
ATOM     12  H   LIG d   1       5.374  -4.655  -5.228  0.00  0.00     0.026 H 
ENDBRANCH   6   9
ENDBRANCH   5   6
ENDBRANCH   3   5
ENDBRANCH   1   3
BRANCH   1  13
ATOM     13  C   LIG d   1       5.843  -0.451  -5.524  0.00  0.00     0.109 C 
ATOM     14  H   LIG d   1       6.454  -1.334  -5.337  0.00  0.00     0.067 H 
BRANCH  13  15
ATOM     15  C   LIG d   1       5.088  -0.088  -4.270  0.00  0.00    -0.017 A 
ATOM     16  C   LIG d   1       3.796  -0.542  -4.086  0.00  0.00    -0.056 A 
ATOM     17  C   LIG d   1       3.103  -0.210  -2.936  0.00  0.00    -0.061 A 
ATOM     18  H   LIG d   1       3.326  -1.157  -4.839  0.00  0.00     0.062 H 
ATOM     19  C   LIG d   1       3.704   0.578  -1.972  0.00  0.00    -0.062 A 
ATOM     20  H   LIG d   1       2.093  -0.565  -2.792  0.00  0.00     0.062 H 
ATOM     21  C   LIG d   1       4.996   1.031  -2.156  0.00  0.00    -0.061 A 
ATOM     22  H   LIG d   1       3.162   0.838  -1.074  0.00  0.00     0.062 H 
ATOM     23  C   LIG d   1       5.689   0.698  -3.305  0.00  0.00    -0.056 A 
ATOM     24  H   LIG d   1       5.463   1.650  -1.404  0.00  0.00     0.062 H 
ATOM     25  H   LIG d   1       6.698   1.052  -3.449  0.00  0.00     0.062 H 
ENDBRANCH  13  15
BRANCH  13  26
ATOM     26  O   LIG d   1       6.683   0.638  -5.906  0.00  0.00    -0.385 OA
ATOM     27  H   LIG d   1       7.535   0.367  -6.276  0.00  0.00     0.210 HD
ENDBRANCH  13  26
ENDBRANCH   1  13
BRANCH   1  28
ATOM     28  N   LIG d   1       4.474   0.502  -7.312  0.00  0.00    -0.300 N 
ATOM     29  C   LIG d   1       3.221   0.669  -7.780  0.00  0.00     0.214 C 
ATOM     30  O   LIG d   1       2.404  -0.219  -7.652  0.00  0.00    -0.276 OA
ATOM     31  H   LIG d   1       5.128   1.212  -7.414  0.00  0.00     0.150 HD
BRANCH  29  32
ATOM     32  C   LIG d   1       2.836   1.955  -8.462  0.00  0.00     0.029 C 
ATOM     33  H   LIG d   1       2.028   1.765  -9.169  0.00  0.00     0.036 H 
ATOM     34  H   LIG d   1       2.503   2.677  -7.717  0.00  0.00     0.036 H 
BRANCH  32  35
ATOM     35  C   LIG d   1       4.046   2.518  -9.210  0.00  0.00    -0.005 C 
ATOM     36  H   LIG d   1       3.777   3.470  -9.672  0.00  0.00     0.033 H 
ATOM     37  H   LIG d   1       4.867   2.674  -8.510  0.00  0.00     0.033 H 
BRANCH  35  38
ATOM     38  C   LIG d   1       4.475   1.546 -10.278  0.00  0.00     0.042 C 
ATOM     39  O   LIG d   1       3.709   1.244 -11.163  0.00  0.00    -0.550 OA
ATOM     40  O   LIG d   1       5.707   1.014 -10.247  0.00  0.00    -0.550 OA
ENDBRANCH  35  38
ENDBRANCH  32  35
ENDBRANCH  29  32
ENDBRANCH   1  28
TORSDOF 11
ENDMDL
MODEL 9
REMARK VINA RESULT:      -5.3      2.901      5.473
REMARK  11 active torsions:
REMARK  status: ('A' for Active; 'I' for Inactive)
REMARK    1  A    between atoms: C_1  and  C_2 
REMARK    2  A    between atoms: C_2  and  O_3 
REMARK    3  A    between atoms: O_3  and  C_4 
REMARK    4  A    between atoms: C_4  and  C_6 
REMARK    5  A    between atoms: C_6  and  C_8 
REMARK    6  A    between atoms: C_6  and  N_17 
REMARK    7  A    between atoms: C_8  and  C_10 
REMARK    8  A    between atoms: C_8  and  O_16 
REMARK       I    between atoms: N_17  and  C_18 
REMARK    9  A    between atoms: C_18  and  C_20 
REMARK   10  A    between atoms: C_20  and  C_21 
REMARK   11  A    between atoms: C_21  and  C_22 
ROOT
ATOM      1  C   LIG d   1       6.619  -2.917  -4.386  0.00  0.00     0.151 C 
ATOM      2  H   LIG d   1       5.758  -3.391  -3.916  0.00  0.00     0.064 H 
ENDROOT
BRANCH   1   3
ATOM      3  C   LIG d   1       7.721  -3.931  -4.556  0.00  0.00     0.331 C 
ATOM      4  O   LIG d   1       7.463  -5.040  -4.962  0.00  0.00    -0.249 OA
BRANCH   3   5
ATOM      5  O   LIG d   1       8.987  -3.602  -4.257  0.00  0.00    -0.464 OA
BRANCH   5   6
ATOM      6  C   LIG d   1       9.769  -4.585  -3.528  0.00  0.00     0.090 C 
ATOM      7  H   LIG d   1       9.417  -5.586  -3.778  0.00  0.00     0.069 H 
ATOM      8  H   LIG d   1      10.820  -4.489  -3.802  0.00  0.00     0.069 H 
BRANCH   6   9
ATOM      9  C   LIG d   1       9.609  -4.349  -2.024  0.00  0.00    -0.031 C 
ATOM     10  H   LIG d   1      10.593  -4.261  -1.564  0.00  0.00     0.026 H 
ATOM     11  H   LIG d   1       9.047  -3.429  -1.858  0.00  0.00     0.026 H 
ATOM     12  H   LIG d   1       9.073  -5.187  -1.580  0.00  0.00     0.026 H 
ENDBRANCH   6   9
ENDBRANCH   5   6
ENDBRANCH   3   5
ENDBRANCH   1   3
BRANCH   1  13
ATOM     13  C   LIG d   1       7.114  -1.769  -3.502  0.00  0.00     0.109 C 
ATOM     14  H   LIG d   1       7.612  -2.178  -2.623  0.00  0.00     0.067 H 
BRANCH  13  15
ATOM     15  C   LIG d   1       5.942  -0.926  -3.070  0.00  0.00    -0.017 A 
ATOM     16  C   LIG d   1       4.763  -1.532  -2.677  0.00  0.00    -0.056 A 
ATOM     17  C   LIG d   1       3.687  -0.759  -2.280  0.00  0.00    -0.061 A 
ATOM     18  H   LIG d   1       4.682  -2.609  -2.679  0.00  0.00     0.062 H 
ATOM     19  C   LIG d   1       3.791   0.619  -2.277  0.00  0.00    -0.062 A 
ATOM     20  H   LIG d   1       2.766  -1.232  -1.973  0.00  0.00     0.062 H 
ATOM     21  C   LIG d   1       4.970   1.225  -2.670  0.00  0.00    -0.061 A 
ATOM     22  H   LIG d   1       2.950   1.223  -1.968  0.00  0.00     0.062 H 
ATOM     23  C   LIG d   1       6.046   0.452  -3.066  0.00  0.00    -0.056 A 
ATOM     24  H   LIG d   1       5.049   2.301  -2.672  0.00  0.00     0.062 H 
ATOM     25  H   LIG d   1       6.966   0.925  -3.372  0.00  0.00     0.062 H 
ENDBRANCH  13  15
BRANCH  13  26
ATOM     26  O   LIG d   1       8.034  -0.963  -4.239  0.00  0.00    -0.385 OA
ATOM     27  H   LIG d   1       8.963  -1.192  -4.092  0.00  0.00     0.210 HD
ENDBRANCH  13  26
ENDBRANCH   1  13
BRANCH   1  28
ATOM     28  N   LIG d   1       6.232  -2.391  -5.696  0.00  0.00    -0.300 N 
ATOM     29  C   LIG d   1       5.059  -2.757  -6.250  0.00  0.00     0.214 C 
ATOM     30  O   LIG d   1       4.325  -3.523  -5.663  0.00  0.00    -0.276 OA
ATOM     31  H   LIG d   1       6.819  -1.778  -6.166  0.00  0.00     0.150 HD
BRANCH  29  32
ATOM     32  C   LIG d   1       4.661  -2.216  -7.599  0.00  0.00     0.029 C 
ATOM     33  H   LIG d   1       5.525  -1.751  -8.074  0.00  0.00     0.036 H 
ATOM     34  H   LIG d   1       4.297  -3.031  -8.225  0.00  0.00     0.036 H 
BRANCH  32  35
ATOM     35  C   LIG d   1       3.553  -1.175  -7.424  0.00  0.00    -0.005 C 
ATOM     36  H   LIG d   1       3.272  -0.777  -8.401  0.00  0.00     0.033 H 
ATOM     37  H   LIG d   1       2.685  -1.643  -6.959  0.00  0.00     0.033 H 
BRANCH  35  38
ATOM     38  C   LIG d   1       4.049  -0.054  -6.549  0.00  0.00     0.042 C 
ATOM     39  O   LIG d   1       3.319   0.431  -5.716  0.00  0.00    -0.550 OA
ATOM     40  O   LIG d   1       5.301   0.407  -6.694  0.00  0.00    -0.550 OA
ENDBRANCH  35  38
ENDBRANCH  32  35
ENDBRANCH  29  32
ENDBRANCH   1  28
TORSDOF 11
ENDMDL
MODEL 10
REMARK VINA RESULT:      -5.3      2.579      5.756
REMARK  11 active torsions:
REMARK  status: ('A' for Active; 'I' for Inactive)
REMARK    1  A    between atoms: C_1  and  C_2 
REMARK    2  A    between atoms: C_2  and  O_3 
REMARK    3  A    between atoms: O_3  and  C_4 
REMARK    4  A    between atoms: C_4  and  C_6 
REMARK    5  A    between atoms: C_6  and  C_8 
REMARK    6  A    between atoms: C_6  and  N_17 
REMARK    7  A    between atoms: C_8  and  C_10 
REMARK    8  A    between atoms: C_8  and  O_16 
REMARK       I    between atoms: N_17  and  C_18 
REMARK    9  A    between atoms: C_18  and  C_20 
REMARK   10  A    between atoms: C_20  and  C_21 
REMARK   11  A    between atoms: C_21  and  C_22 
ROOT
ATOM      1  C   LIG d   1       4.288  -0.991  -5.134  0.00  0.00     0.151 C 
ATOM      2  H   LIG d   1       5.286  -0.555  -5.149  0.00  0.00     0.064 H 
ENDROOT
BRANCH   1   3
ATOM      3  C   LIG d   1       3.435  -0.259  -4.130  0.00  0.00     0.331 C 
ATOM      4  O   LIG d   1       2.529  -0.834  -3.575  0.00  0.00    -0.249 OA
BRANCH   3   5
ATOM      5  O   LIG d   1       3.682   1.031  -3.853  0.00  0.00    -0.464 OA
BRANCH   5   6
ATOM      6  C   LIG d   1       3.566   1.440  -2.465  0.00  0.00     0.090 C 
ATOM      7  H   LIG d   1       3.630   2.525  -2.400  0.00  0.00     0.069 H 
ATOM      8  H   LIG d   1       2.607   1.107  -2.068  0.00  0.00     0.069 H 
BRANCH   6   9
ATOM      9  C   LIG d   1       4.701   0.812  -1.652  0.00  0.00    -0.031 C 
ATOM     10  H   LIG d   1       5.271   0.134  -2.288  0.00  0.00     0.026 H 
ATOM     11  H   LIG d   1       5.358   1.597  -1.277  0.00  0.00     0.026 H 
ATOM     12  H   LIG d   1       4.282   0.257  -0.813  0.00  0.00     0.026 H 
ENDBRANCH   6   9
ENDBRANCH   5   6
ENDBRANCH   3   5
ENDBRANCH   1   3
BRANCH   1  13
ATOM     13  C   LIG d   1       4.382  -2.468  -4.744  0.00  0.00     0.109 C 
ATOM     14  H   LIG d   1       3.772  -2.649  -3.859  0.00  0.00     0.067 H 
BRANCH  13  15
ATOM     15  C   LIG d   1       5.817  -2.818  -4.446  0.00  0.00    -0.017 A 
ATOM     16  C   LIG d   1       6.404  -3.907  -5.062  0.00  0.00    -0.056 A 
ATOM     17  C   LIG d   1       7.722  -4.229  -4.790  0.00  0.00    -0.061 A 
ATOM     18  H   LIG d   1       5.836  -4.507  -5.757  0.00  0.00     0.062 H 
ATOM     19  C   LIG d   1       8.450  -3.461  -3.900  0.00  0.00    -0.062 A 
ATOM     20  H   LIG d   1       8.180  -5.080  -5.271  0.00  0.00     0.062 H 
ATOM     21  C   LIG d   1       7.863  -2.372  -3.284  0.00  0.00    -0.061 A 
ATOM     22  H   LIG d   1       9.478  -3.713  -3.686  0.00  0.00     0.062 H 
ATOM     23  C   LIG d   1       6.546  -2.050  -3.558  0.00  0.00    -0.056 A 
ATOM     24  H   LIG d   1       8.430  -1.776  -2.586  0.00  0.00     0.062 H 
ATOM     25  H   LIG d   1       6.088  -1.200  -3.077  0.00  0.00     0.062 H 
ENDBRANCH  13  15
BRANCH  13  26
ATOM     26  O   LIG d   1       3.908  -3.277  -5.821  0.00  0.00    -0.385 OA
ATOM     27  H   LIG d   1       2.944  -3.348  -5.866  0.00  0.00     0.210 HD
ENDBRANCH  13  26
ENDBRANCH   1  13
BRANCH   1  28
ATOM     28  N   LIG d   1       3.685  -0.876  -6.464  0.00  0.00    -0.300 N 
ATOM     29  C   LIG d   1       4.266  -0.102  -7.403  0.00  0.00     0.214 C 
ATOM     30  O   LIG d   1       5.287   0.499  -7.145  0.00  0.00    -0.276 OA
ATOM     31  H   LIG d   1       2.868  -1.357  -6.670  0.00  0.00     0.150 HD
BRANCH  29  32
ATOM     32  C   LIG d   1       3.646   0.017  -8.770  0.00  0.00     0.029 C 
ATOM     33  H   LIG d   1       3.378   1.056  -8.960  0.00  0.00     0.036 H 
ATOM     34  H   LIG d   1       4.359  -0.317  -9.524  0.00  0.00     0.036 H 
BRANCH  32  35
ATOM     35  C   LIG d   1       2.389  -0.854  -8.838  0.00  0.00    -0.005 C 
ATOM     36  H   LIG d   1       1.985  -0.987  -7.833  0.00  0.00     0.033 H 
ATOM     37  H   LIG d   1       1.643  -0.367  -9.467  0.00  0.00     0.033 H 
BRANCH  35  38
ATOM     38  C   LIG d   1       2.738  -2.198  -9.421  0.00  0.00     0.042 C 
ATOM     39  O   LIG d   1       3.271  -3.036  -8.731  0.00  0.00    -0.550 OA
ATOM     40  O   LIG d   1       2.458  -2.466 -10.706  0.00  0.00    -0.550 OA
ENDBRANCH  35  38
ENDBRANCH  32  35
ENDBRANCH  29  32
ENDBRANCH   1  28
TORSDOF 11
ENDMDL
