MODEL 1
REMARK VINA RESULT:      -7.1      0.000      0.000
REMARK  11 active torsions:
REMARK  status: ('A' for Active; 'I' for Inactive)
REMARK    1  A    between atoms: C_1  and  C_2 
REMARK    2  A    between atoms: C_2  and  C_4 
REMARK    3  A    between atoms: C_2  and  C_16 
REMARK    4  A    between atoms: C_4  and  C_5 
REMARK    5  A    between atoms: C_5  and  C_6 
REMARK       I    between atoms: C_6  and  N_8 
REMARK    6  A    between atoms: N_8  and  C_9 
REMARK    7  A    between atoms: C_9  and  C_10 
REMARK    8  A    between atoms: C_22  and  C_43 
REMARK    9  A    between atoms: C_29  and  O_42 
REMARK   10  A    between atoms: C_34  and  C_41 
REMARK   11  A    between atoms: C_37  and  O_40 
ROOT
ATOM      1  C   LIG d   1       9.332   3.120  -4.999  0.00  0.00    -0.033 C 
ATOM      2  H   LIG d   1       8.283   3.327  -5.213  0.00  0.00     0.031 H 
ATOM      3  C   LIG d   1       9.457   2.240  -3.729  0.00  0.00    -0.049 C 
ATOM      4  C   LIG d   1      10.197   3.102  -2.671  0.00  0.00    -0.049 C 
ATOM      5  C   LIG d   1       9.905   4.535  -3.129  0.00  0.00    -0.030 C 
ATOM      6  H   LIG d   1       8.882   4.812  -2.877  0.00  0.00     0.031 H 
ATOM      7  C   LIG d   1      10.070   4.414  -4.669  0.00  0.00    -0.026 C 
ATOM      8  C   LIG d   1       9.522   5.684  -5.289  0.00  0.00    -0.047 C 
ATOM      9  C   LIG d   1      10.410   6.845  -4.813  0.00  0.00    -0.049 C 
ATOM     10  C   LIG d   1      10.446   6.929  -3.291  0.00  0.00    -0.030 C 
ATOM     11  H   LIG d   1       9.447   7.166  -2.927  0.00  0.00     0.031 H 
ATOM     12  C   LIG d   1      10.874   5.596  -2.643  0.00  0.00    -0.008 C 
ATOM     13  H   LIG d   1      11.885   5.346  -2.964  0.00  0.00     0.033 H 
ATOM     14  C   LIG d   1      10.810   5.717  -1.119  0.00  0.00     0.059 C 
ATOM     15  H   LIG d   1       9.790   5.957  -0.817  0.00  0.00     0.060 H 
ATOM     16  C   LIG d   1      11.754   6.828  -0.657  0.00  0.00    -0.023 C 
ATOM     17  C   LIG d   1      11.332   8.156  -1.290  0.00  0.00    -0.031 C 
ATOM     18  H   LIG d   1      12.004   8.948  -0.958  0.00  0.00     0.031 H 
ATOM     19  C   LIG d   1      11.408   8.033  -2.850  0.00  0.00    -0.026 C 
ATOM     20  C   LIG d   1      10.983   9.361  -3.482  0.00  0.00    -0.045 C 
ATOM     21  C   LIG d   1       9.558   9.699  -3.040  0.00  0.00    -0.026 C 
ATOM     22  C   LIG d   1       9.512   9.823  -1.515  0.00  0.00     0.056 C 
ATOM     23  H   LIG d   1      10.188  10.615  -1.194  0.00  0.00     0.059 H 
ATOM     24  C   LIG d   1       9.900   8.489  -0.867  0.00  0.00    -0.023 C 
ATOM     25  H   LIG d   1       8.467   1.967  -3.365  0.00  0.00     0.027 H 
ATOM     26  H   LIG d   1      10.034   1.343  -3.952  0.00  0.00     0.027 H 
ATOM     27  H   LIG d   1       9.790   2.924  -1.676  0.00  0.00     0.027 H 
ATOM     28  H   LIG d   1      11.269   2.902  -2.691  0.00  0.00     0.027 H 
ATOM     29  H   LIG d   1       9.556   5.611  -6.376  0.00  0.00     0.027 H 
ATOM     30  H   LIG d   1       8.494   5.843  -4.959  0.00  0.00     0.027 H 
ATOM     31  H   LIG d   1      11.423   6.695  -5.187  0.00  0.00     0.027 H 
ATOM     32  H   LIG d   1      10.018   7.780  -5.213  0.00  0.00     0.027 H 
ATOM     33  H   LIG d   1      11.709   6.914   0.429  0.00  0.00     0.029 H 
ATOM     34  H   LIG d   1      12.773   6.589  -0.961  0.00  0.00     0.029 H 
ATOM     35  H   LIG d   1      11.661  10.150  -3.159  0.00  0.00     0.027 H 
ATOM     36  H   LIG d   1      11.016   9.273  -4.568  0.00  0.00     0.027 H 
ATOM     37  H   LIG d   1       9.253  10.644  -3.490  0.00  0.00     0.029 H 
ATOM     38  H   LIG d   1       8.880   8.909  -3.360  0.00  0.00     0.029 H 
ATOM     39  H   LIG d   1       9.229   7.696  -1.198  0.00  0.00     0.029 H 
ATOM     40  H   LIG d   1       9.853   8.573   0.219  0.00  0.00     0.029 H 
ENDROOT
BRANCH   1  41
ATOM     41  C   LIG d   1       9.988   2.425  -6.193  0.00  0.00    -0.040 C 
ATOM     42  H   LIG d   1      11.016   2.772  -6.296  0.00  0.00     0.030 H 
BRANCH  41  43
ATOM     43  C   LIG d   1       9.208   2.754  -7.467  0.00  0.00    -0.062 C 
ATOM     44  H   LIG d   1       9.870   3.242  -8.182  0.00  0.00     0.023 H 
ATOM     45  H   LIG d   1       8.818   1.834  -7.902  0.00  0.00     0.023 H 
ATOM     46  H   LIG d   1       8.380   3.420  -7.224  0.00  0.00     0.023 H 
ENDBRANCH  41  43
BRANCH  41  47
ATOM     47  C   LIG d   1       9.983   0.910  -5.968  0.00  0.00    -0.042 C 
ATOM     48  H   LIG d   1      10.983   0.515  -6.137  0.00  0.00     0.027 H 
ATOM     49  H   LIG d   1       9.677   0.697  -4.944  0.00  0.00     0.027 H 
BRANCH  47  50
ATOM     50  C   LIG d   1       9.001   0.254  -6.941  0.00  0.00     0.024 C 
ATOM     51  H   LIG d   1       8.374   1.020  -7.397  0.00  0.00     0.036 H 
ATOM     52  H   LIG d   1       9.557  -0.272  -7.717  0.00  0.00     0.036 H 
BRANCH  50  53
ATOM     53  C   LIG d   1       8.133  -0.726  -6.193  0.00  0.00     0.213 C 
ATOM     54  O   LIG d   1       7.472  -1.538  -6.803  0.00  0.00    -0.276 OA
ATOM     55  N   LIG d   1       8.093  -0.698  -4.846  0.00  0.00    -0.311 N 
ATOM     56  H   LIG d   1       8.622  -0.048  -4.358  0.00  0.00     0.149 HD
BRANCH  55  57
ATOM     57  C   LIG d   1       7.249  -1.649  -4.118  0.00  0.00     0.037 C 
ATOM     58  H   LIG d   1       6.754  -2.312  -4.827  0.00  0.00     0.051 H 
ATOM     59  H   LIG d   1       7.869  -2.239  -3.441  0.00  0.00     0.051 H 
BRANCH  57  60
ATOM     60  C   LIG d   1       6.214  -0.896  -3.324  0.00  0.00    -0.028 A 
ATOM     61  C   LIG d   1       5.212  -1.571  -2.643  0.00  0.00    -0.039 A 
ATOM     62  C   LIG d   1       4.284  -0.847  -1.920  0.00  0.00     0.028 A 
ATOM     63  H   LIG d   1       5.161  -2.650  -2.675  0.00  0.00     0.064 H 
ATOM     64  N   LIG d   1       4.337   0.469  -1.881  0.00  0.00    -0.263 NA
ATOM     65  H   LIG d   1       3.504  -1.367  -1.383  0.00  0.00     0.083 H 
ATOM     66  C   LIG d   1       5.271   1.145  -2.520  0.00  0.00     0.028 A 
ATOM     67  C   LIG d   1       6.238   0.489  -3.259  0.00  0.00    -0.039 A 
ATOM     68  H   LIG d   1       5.283   2.224  -2.465  0.00  0.00     0.083 H 
ATOM     69  H   LIG d   1       7.000   1.047  -3.780  0.00  0.00     0.064 H 
ENDBRANCH  57  60
ENDBRANCH  55  57
ENDBRANCH  50  53
ENDBRANCH  47  50
ENDBRANCH  41  47
ENDBRANCH   1  41
BRANCH   7  70
ATOM     70  C   LIG d   1      11.552   4.266  -5.020  0.00  0.00    -0.059 C 
ATOM     71  H   LIG d   1      11.649   3.869  -6.030  0.00  0.00     0.024 H 
ATOM     72  H   LIG d   1      12.037   5.241  -4.964  0.00  0.00     0.024 H 
ATOM     73  H   LIG d   1      12.027   3.584  -4.314  0.00  0.00     0.024 H 
ENDBRANCH   7  70
BRANCH  14  74
ATOM     74  O   LIG d   1      11.204   4.479  -0.526  0.00  0.00    -0.392 OA
ATOM     75  H   LIG d   1      10.559   3.768  -0.636  0.00  0.00     0.210 HD
ENDBRANCH  14  74
BRANCH  19  76
ATOM     76  C   LIG d   1      12.830   7.681  -3.296  0.00  0.00    -0.059 C 
ATOM     77  H   LIG d   1      13.194   6.837  -2.712  0.00  0.00     0.024 H 
ATOM     78  H   LIG d   1      12.823   7.416  -4.353  0.00  0.00     0.024 H 
ATOM     79  H   LIG d   1      13.482   8.540  -3.141  0.00  0.00     0.024 H 
ENDBRANCH  19  76
BRANCH  22  80
ATOM     80  O   LIG d   1       8.180  10.138  -1.103  0.00  0.00    -0.392 OA
ATOM     81  H   LIG d   1       7.940  11.066  -1.224  0.00  0.00     0.210 HD
ENDBRANCH  22  80
TORSDOF 11
ENDMDL
MODEL 2
REMARK VINA RESULT:      -6.4      7.137     10.199
REMARK  11 active torsions:
REMARK  status: ('A' for Active; 'I' for Inactive)
REMARK    1  A    between atoms: C_1  and  C_2 
REMARK    2  A    between atoms: C_2  and  C_4 
REMARK    3  A    between atoms: C_2  and  C_16 
REMARK    4  A    between atoms: C_4  and  C_5 
REMARK    5  A    between atoms: C_5  and  C_6 
REMARK       I    between atoms: C_6  and  N_8 
REMARK    6  A    between atoms: N_8  and  C_9 
REMARK    7  A    between atoms: C_9  and  C_10 
REMARK    8  A    between atoms: C_22  and  C_43 
REMARK    9  A    between atoms: C_29  and  O_42 
REMARK   10  A    between atoms: C_34  and  C_41 
REMARK   11  A    between atoms: C_37  and  O_40 
ROOT
ATOM      1  C   LIG d   1       3.746   0.175 -10.012  0.00  0.00    -0.033 C 
ATOM      2  H   LIG d   1       4.169   1.131 -10.323  0.00  0.00     0.031 H 
ATOM      3  C   LIG d   1       2.354   0.390  -9.367  0.00  0.00    -0.049 C 
ATOM      4  C   LIG d   1       2.486  -0.048  -7.883  0.00  0.00    -0.049 C 
ATOM      5  C   LIG d   1       3.986   0.112  -7.611  0.00  0.00    -0.030 C 
ATOM      6  H   LIG d   1       4.240   1.165  -7.493  0.00  0.00     0.031 H 
ATOM      7  C   LIG d   1       4.606  -0.452  -8.919  0.00  0.00    -0.026 C 
ATOM      8  C   LIG d   1       6.077  -0.088  -8.922  0.00  0.00    -0.047 C 
ATOM      9  C   LIG d   1       6.732  -0.821  -7.739  0.00  0.00    -0.049 C 
ATOM     10  C   LIG d   1       6.062  -0.457  -6.419  0.00  0.00    -0.030 C 
ATOM     11  H   LIG d   1       6.224   0.603  -6.223  0.00  0.00     0.031 H 
ATOM     12  C   LIG d   1       4.538  -0.697  -6.452  0.00  0.00    -0.008 C 
ATOM     13  H   LIG d   1       4.344  -1.756  -6.617  0.00  0.00     0.033 H 
ATOM     14  C   LIG d   1       3.913  -0.235  -5.135  0.00  0.00     0.059 C 
ATOM     15  H   LIG d   1       4.109   0.828  -4.993  0.00  0.00     0.060 H 
ATOM     16  C   LIG d   1       4.523  -1.026  -3.977  0.00  0.00    -0.023 C 
ATOM     17  C   LIG d   1       6.034  -0.787  -3.933  0.00  0.00    -0.031 C 
ATOM     18  H   LIG d   1       6.468  -1.349  -3.106  0.00  0.00     0.031 H 
ATOM     19  C   LIG d   1       6.674  -1.270  -5.279  0.00  0.00    -0.026 C 
ATOM     20  C   LIG d   1       8.184  -1.028  -5.234  0.00  0.00    -0.045 C 
ATOM     21  C   LIG d   1       8.453   0.463  -5.018  0.00  0.00    -0.026 C 
ATOM     22  C   LIG d   1       7.827   0.908  -3.694  0.00  0.00     0.056 C 
ATOM     23  H   LIG d   1       8.266   0.338  -2.875  0.00  0.00     0.059 H 
ATOM     24  C   LIG d   1       6.308   0.705  -3.736  0.00  0.00    -0.023 C 
ATOM     25  H   LIG d   1       2.072   1.441  -9.424  0.00  0.00     0.027 H 
ATOM     26  H   LIG d   1       1.609  -0.225  -9.873  0.00  0.00     0.027 H 
ATOM     27  H   LIG d   1       1.904   0.607  -7.234  0.00  0.00     0.027 H 
ATOM     28  H   LIG d   1       2.180  -1.086  -7.758  0.00  0.00     0.027 H 
ATOM     29  H   LIG d   1       6.537  -0.406  -9.857  0.00  0.00     0.027 H 
ATOM     30  H   LIG d   1       6.192   0.990  -8.799  0.00  0.00     0.027 H 
ATOM     31  H   LIG d   1       6.649  -1.897  -7.897  0.00  0.00     0.027 H 
ATOM     32  H   LIG d   1       7.787  -0.549  -7.691  0.00  0.00     0.027 H 
ATOM     33  H   LIG d   1       4.077  -0.697  -3.038  0.00  0.00     0.029 H 
ATOM     34  H   LIG d   1       4.328  -2.089  -4.119  0.00  0.00     0.029 H 
ATOM     35  H   LIG d   1       8.620  -1.599  -4.414  0.00  0.00     0.027 H 
ATOM     36  H   LIG d   1       8.631  -1.345  -6.177  0.00  0.00     0.027 H 
ATOM     37  H   LIG d   1       9.528   0.637  -4.987  0.00  0.00     0.029 H 
ATOM     38  H   LIG d   1       8.016   1.034  -5.836  0.00  0.00     0.029 H 
ATOM     39  H   LIG d   1       5.872   1.267  -4.563  0.00  0.00     0.029 H 
ATOM     40  H   LIG d   1       5.860   1.036  -2.799  0.00  0.00     0.029 H 
ENDROOT
BRANCH   1  41
ATOM     41  C   LIG d   1       3.636  -0.771 -11.209  0.00  0.00    -0.040 C 
ATOM     42  H   LIG d   1       4.112  -1.720 -10.966  0.00  0.00     0.030 H 
BRANCH  41  43
ATOM     43  C   LIG d   1       4.332  -0.145 -12.419  0.00  0.00    -0.062 C 
ATOM     44  H   LIG d   1       3.992   0.884 -12.542  0.00  0.00     0.023 H 
ATOM     45  H   LIG d   1       5.411  -0.155 -12.263  0.00  0.00     0.023 H 
ATOM     46  H   LIG d   1       4.089  -0.718 -13.314  0.00  0.00     0.023 H 
ENDBRANCH  41  43
BRANCH  41  47
ATOM     47  C   LIG d   1       2.161  -1.011 -11.536  0.00  0.00    -0.042 C 
ATOM     48  H   LIG d   1       1.564  -0.887 -10.634  0.00  0.00     0.027 H 
ATOM     49  H   LIG d   1       1.835  -0.292 -12.288  0.00  0.00     0.027 H 
BRANCH  47  50
ATOM     50  C   LIG d   1       1.983  -2.431 -12.078  0.00  0.00     0.024 C 
ATOM     51  H   LIG d   1       2.525  -2.532 -13.018  0.00  0.00     0.036 H 
ATOM     52  H   LIG d   1       2.372  -3.146 -11.353  0.00  0.00     0.036 H 
BRANCH  50  53
ATOM     53  C   LIG d   1       0.518  -2.699 -12.312  0.00  0.00     0.213 C 
ATOM     54  O   LIG d   1      -0.194  -1.824 -12.757  0.00  0.00    -0.276 OA
ATOM     55  N   LIG d   1       0.000  -3.910 -12.026  0.00  0.00    -0.311 N 
ATOM     56  H   LIG d   1       0.571  -4.609 -11.670  0.00  0.00     0.149 HD
BRANCH  55  57
ATOM     57  C   LIG d   1      -1.423  -4.171 -12.253  0.00  0.00     0.037 C 
ATOM     58  H   LIG d   1      -1.938  -3.231 -12.449  0.00  0.00     0.051 H 
ATOM     59  H   LIG d   1      -1.538  -4.834 -13.112  0.00  0.00     0.051 H 
BRANCH  57  60
ATOM     60  C   LIG d   1      -2.014  -4.824 -11.031  0.00  0.00    -0.028 A 
ATOM     61  C   LIG d   1      -3.324  -4.569 -10.653  0.00  0.00    -0.039 A 
ATOM     62  C   LIG d   1      -3.834  -5.191  -9.530  0.00  0.00     0.028 A 
ATOM     63  H   LIG d   1      -3.938  -3.894 -11.232  0.00  0.00     0.064 H 
ATOM     64  N   LIG d   1      -3.089  -6.011  -8.816  0.00  0.00    -0.263 NA
ATOM     65  H   LIG d   1      -4.855  -5.000  -9.232  0.00  0.00     0.083 H 
ATOM     66  C   LIG d   1      -1.839  -6.273  -9.142  0.00  0.00     0.028 A 
ATOM     67  C   LIG d   1      -1.262  -5.692 -10.255  0.00  0.00    -0.039 A 
ATOM     68  H   LIG d   1      -1.258  -6.950  -8.532  0.00  0.00     0.083 H 
ATOM     69  H   LIG d   1      -0.238  -5.911 -10.518  0.00  0.00     0.064 H 
ENDBRANCH  57  60
ENDBRANCH  55  57
ENDBRANCH  50  53
ENDBRANCH  47  50
ENDBRANCH  41  47
ENDBRANCH   1  41
BRANCH   7  70
ATOM     70  C   LIG d   1       4.451  -1.974  -8.950  0.00  0.00    -0.059 C 
ATOM     71  H   LIG d   1       5.283  -2.435  -8.417  0.00  0.00     0.024 H 
ATOM     72  H   LIG d   1       3.513  -2.253  -8.469  0.00  0.00     0.024 H 
ATOM     73  H   LIG d   1       4.446  -2.319  -9.984  0.00  0.00     0.024 H 
ENDBRANCH   7  70
BRANCH  14  74
ATOM     74  O   LIG d   1       2.503  -0.457  -5.173  0.00  0.00    -0.392 OA
ATOM     75  H   LIG d   1       2.098  -0.572  -4.303  0.00  0.00     0.210 HD
ENDBRANCH  14  74
BRANCH  19  76
ATOM     76  C   LIG d   1       6.397  -2.759  -5.506  0.00  0.00    -0.059 C 
ATOM     77  H   LIG d   1       7.299  -3.242  -5.880  0.00  0.00     0.024 H 
ATOM     78  H   LIG d   1       6.101  -3.220  -4.564  0.00  0.00     0.024 H 
ATOM     79  H   LIG d   1       5.594  -2.872  -6.234  0.00  0.00     0.024 H 
ENDBRANCH  19  76
BRANCH  22  80
ATOM     80  O   LIG d   1       8.076   2.300  -3.493  0.00  0.00    -0.392 OA
ATOM     81  H   LIG d   1       8.603   2.496  -2.707  0.00  0.00     0.210 HD
ENDBRANCH  22  80
TORSDOF 11
ENDMDL
MODEL 3
REMARK VINA RESULT:      -6.3      2.122      4.013
REMARK  11 active torsions:
REMARK  status: ('A' for Active; 'I' for Inactive)
REMARK    1  A    between atoms: C_1  and  C_2 
REMARK    2  A    between atoms: C_2  and  C_4 
REMARK    3  A    between atoms: C_2  and  C_16 
REMARK    4  A    between atoms: C_4  and  C_5 
REMARK    5  A    between atoms: C_5  and  C_6 
REMARK       I    between atoms: C_6  and  N_8 
REMARK    6  A    between atoms: N_8  and  C_9 
REMARK    7  A    between atoms: C_9  and  C_10 
REMARK    8  A    between atoms: C_22  and  C_43 
REMARK    9  A    between atoms: C_29  and  O_42 
REMARK   10  A    between atoms: C_34  and  C_41 
REMARK   11  A    between atoms: C_37  and  O_40 
ROOT
ATOM      1  C   LIG d   1      10.640   5.717  -3.692  0.00  0.00    -0.033 C 
ATOM      2  H   LIG d   1      11.693   5.498  -3.873  0.00  0.00     0.031 H 
ATOM      3  C   LIG d   1       9.971   6.239  -4.988  0.00  0.00    -0.049 C 
ATOM      4  C   LIG d   1       9.541   7.703  -4.699  0.00  0.00    -0.049 C 
ATOM      5  C   LIG d   1      10.489   8.122  -3.570  0.00  0.00    -0.030 C 
ATOM      6  H   LIG d   1      11.485   8.320  -3.965  0.00  0.00     0.031 H 
ATOM      7  C   LIG d   1      10.502   6.849  -2.679  0.00  0.00    -0.026 C 
ATOM      8  C   LIG d   1      11.629   7.003  -1.677  0.00  0.00    -0.047 C 
ATOM      9  C   LIG d   1      11.280   8.200  -0.777  0.00  0.00    -0.049 C 
ATOM     10  C   LIG d   1      11.073   9.470  -1.596  0.00  0.00    -0.030 C 
ATOM     11  H   LIG d   1      12.015   9.737  -2.074  0.00  0.00     0.031 H 
ATOM     12  C   LIG d   1      10.022   9.282  -2.710  0.00  0.00    -0.008 C 
ATOM     13  H   LIG d   1       9.059   9.043  -2.260  0.00  0.00     0.033 H 
ATOM     14  C   LIG d   1       9.922  10.558  -3.547  0.00  0.00     0.059 C 
ATOM     15  H   LIG d   1      10.891  10.775  -3.996  0.00  0.00     0.060 H 
ATOM     16  C   LIG d   1       9.503  11.724  -2.649  0.00  0.00    -0.023 C 
ATOM     17  C   LIG d   1      10.544  11.921  -1.546  0.00  0.00    -0.031 C 
ATOM     18  H   LIG d   1      10.246  12.753  -0.908  0.00  0.00     0.031 H 
ATOM     19  C   LIG d   1      10.638  10.617  -0.683  0.00  0.00    -0.026 C 
ATOM     20  C   LIG d   1      11.682  10.815   0.418  0.00  0.00    -0.045 C 
ATOM     21  C   LIG d   1      13.037  11.136  -0.218  0.00  0.00    -0.026 C 
ATOM     22  C   LIG d   1      12.921  12.417  -1.046  0.00  0.00     0.056 C 
ATOM     23  H   LIG d   1      12.620  13.242  -0.400  0.00  0.00     0.059 H 
ATOM     24  C   LIG d   1      11.905  12.223  -2.178  0.00  0.00    -0.023 C 
ATOM     25  H   LIG d   1      10.681   6.213  -5.813  0.00  0.00     0.027 H 
ATOM     26  H   LIG d   1       9.097   5.634  -5.227  0.00  0.00     0.027 H 
ATOM     27  H   LIG d   1       9.688   8.329  -5.579  0.00  0.00     0.027 H 
ATOM     28  H   LIG d   1       8.504   7.743  -4.366  0.00  0.00     0.027 H 
ATOM     29  H   LIG d   1      11.717   6.099  -1.076  0.00  0.00     0.027 H 
ATOM     30  H   LIG d   1      12.567   7.194  -2.201  0.00  0.00     0.027 H 
ATOM     31  H   LIG d   1      10.365   7.977  -0.227  0.00  0.00     0.027 H 
ATOM     32  H   LIG d   1      12.091   8.361  -0.067  0.00  0.00     0.027 H 
ATOM     33  H   LIG d   1       9.430  12.633  -3.246  0.00  0.00     0.029 H 
ATOM     34  H   LIG d   1       8.534  11.506  -2.199  0.00  0.00     0.029 H 
ATOM     35  H   LIG d   1      11.379  11.640   1.063  0.00  0.00     0.027 H 
ATOM     36  H   LIG d   1      11.765   9.902   1.009  0.00  0.00     0.027 H 
ATOM     37  H   LIG d   1      13.781  11.276   0.565  0.00  0.00     0.029 H 
ATOM     38  H   LIG d   1      13.339  10.312  -0.864  0.00  0.00     0.029 H 
ATOM     39  H   LIG d   1      12.202  11.390  -2.816  0.00  0.00     0.029 H 
ATOM     40  H   LIG d   1      11.833  13.131  -2.776  0.00  0.00     0.029 H 
ENDROOT
BRANCH   1  41
ATOM     41  C   LIG d   1       9.918   4.465  -3.189  0.00  0.00    -0.040 C 
ATOM     42  H   LIG d   1       9.247   4.735  -2.375  0.00  0.00     0.030 H 
BRANCH  41  43
ATOM     43  C   LIG d   1      10.947   3.450  -2.687  0.00  0.00    -0.062 C 
ATOM     44  H   LIG d   1      11.553   3.102  -3.524  0.00  0.00     0.023 H 
ATOM     45  H   LIG d   1      11.590   3.921  -1.944  0.00  0.00     0.023 H 
ATOM     46  H   LIG d   1      10.430   2.602  -2.236  0.00  0.00     0.023 H 
ENDBRANCH  41  43
BRANCH  41  47
ATOM     47  C   LIG d   1       9.109   3.849  -4.333  0.00  0.00    -0.042 C 
ATOM     48  H   LIG d   1       8.069   3.744  -4.027  0.00  0.00     0.027 H 
ATOM     49  H   LIG d   1       9.167   4.496  -5.208  0.00  0.00     0.027 H 
BRANCH  47  50
ATOM     50  C   LIG d   1       9.682   2.472  -4.679  0.00  0.00     0.024 C 
ATOM     51  H   LIG d   1      10.326   2.556  -5.554  0.00  0.00     0.036 H 
ATOM     52  H   LIG d   1      10.261   2.098  -3.834  0.00  0.00     0.036 H 
BRANCH  50  53
ATOM     53  C   LIG d   1       8.552   1.519  -4.976  0.00  0.00     0.213 C 
ATOM     54  O   LIG d   1       7.815   1.728  -5.915  0.00  0.00    -0.276 OA
ATOM     55  N   LIG d   1       8.363   0.436  -4.198  0.00  0.00    -0.311 N 
ATOM     56  H   LIG d   1       8.953   0.269  -3.446  0.00  0.00     0.149 HD
BRANCH  55  57
ATOM     57  C   LIG d   1       7.265  -0.491  -4.485  0.00  0.00     0.037 C 
ATOM     58  H   LIG d   1       6.856  -0.274  -5.471  0.00  0.00     0.051 H 
ATOM     59  H   LIG d   1       7.640  -1.515  -4.465  0.00  0.00     0.051 H 
BRANCH  57  60
ATOM     60  C   LIG d   1       6.187  -0.329  -3.446  0.00  0.00    -0.028 A 
ATOM     61  C   LIG d   1       5.793   0.930  -3.021  0.00  0.00    -0.039 A 
ATOM     62  C   LIG d   1       4.796   1.040  -2.071  0.00  0.00     0.028 A 
ATOM     63  H   LIG d   1       6.258   1.816  -3.432  0.00  0.00     0.064 H 
ATOM     64  N   LIG d   1       4.228  -0.035  -1.562  0.00  0.00    -0.263 NA
ATOM     65  H   LIG d   1       4.480   2.019  -1.739  0.00  0.00     0.083 H 
ATOM     66  C   LIG d   1       4.580  -1.249  -1.938  0.00  0.00     0.028 A 
ATOM     67  C   LIG d   1       5.566  -1.437  -2.888  0.00  0.00    -0.039 A 
ATOM     68  H   LIG d   1       4.092  -2.107  -1.498  0.00  0.00     0.083 H 
ATOM     69  H   LIG d   1       5.850  -2.433  -3.192  0.00  0.00     0.064 H 
ENDBRANCH  57  60
ENDBRANCH  55  57
ENDBRANCH  50  53
ENDBRANCH  47  50
ENDBRANCH  41  47
ENDBRANCH   1  41
BRANCH   7  70
ATOM     70  C   LIG d   1       9.168   6.722  -1.940  0.00  0.00    -0.059 C 
ATOM     71  H   LIG d   1       9.321   6.187  -1.003  0.00  0.00     0.024 H 
ATOM     72  H   LIG d   1       8.773   7.716  -1.731  0.00  0.00     0.024 H 
ATOM     73  H   LIG d   1       8.460   6.172  -2.561  0.00  0.00     0.024 H 
ENDBRANCH   7  70
BRANCH  14  74
ATOM     74  O   LIG d   1       8.951  10.377  -4.578  0.00  0.00    -0.392 OA
ATOM     75  H   LIG d   1       8.050  10.246  -4.251  0.00  0.00     0.210 HD
ENDBRANCH  14  74
BRANCH  19  76
ATOM     76  C   LIG d   1       9.282  10.285  -0.055  0.00  0.00    -0.059 C 
ATOM     77  H   LIG d   1       8.618   9.882  -0.820  0.00  0.00     0.024 H 
ATOM     78  H   LIG d   1       9.420   9.545   0.733  0.00  0.00     0.024 H 
ATOM     79  H   LIG d   1       8.846  11.189   0.367  0.00  0.00     0.024 H 
ENDBRANCH  19  76
BRANCH  22  80
ATOM     80  O   LIG d   1      14.185  12.716  -1.642  0.00  0.00    -0.392 OA
ATOM     81  H   LIG d   1      14.341  12.261  -2.481  0.00  0.00     0.210 HD
ENDBRANCH  22  80
TORSDOF 11
ENDMDL
MODEL 4
REMARK VINA RESULT:      -6.2      2.171      3.235
REMARK  11 active torsions:
REMARK  status: ('A' for Active; 'I' for Inactive)
REMARK    1  A    between atoms: C_1  and  C_2 
REMARK    2  A    between atoms: C_2  and  C_4 
REMARK    3  A    between atoms: C_2  and  C_16 
REMARK    4  A    between atoms: C_4  and  C_5 
REMARK    5  A    between atoms: C_5  and  C_6 
REMARK       I    between atoms: C_6  and  N_8 
REMARK    6  A    between atoms: N_8  and  C_9 
REMARK    7  A    between atoms: C_9  and  C_10 
REMARK    8  A    between atoms: C_22  and  C_43 
REMARK    9  A    between atoms: C_29  and  O_42 
REMARK   10  A    between atoms: C_34  and  C_41 
REMARK   11  A    between atoms: C_37  and  O_40 
ROOT
ATOM      1  C   LIG d   1       9.794   6.177  -3.246  0.00  0.00    -0.033 C 
ATOM      2  H   LIG d   1       8.765   6.497  -3.414  0.00  0.00     0.031 H 
ATOM      3  C   LIG d   1       9.865   5.211  -2.037  0.00  0.00    -0.049 C 
ATOM      4  C   LIG d   1      10.712   5.928  -0.952  0.00  0.00    -0.049 C 
ATOM      5  C   LIG d   1      10.549   7.409  -1.313  0.00  0.00    -0.030 C 
ATOM      6  H   LIG d   1       9.564   7.766  -1.013  0.00  0.00     0.031 H 
ATOM      7  C   LIG d   1      10.663   7.371  -2.863  0.00  0.00    -0.026 C 
ATOM      8  C   LIG d   1      10.224   8.724  -3.387  0.00  0.00    -0.047 C 
ATOM      9  C   LIG d   1      11.233   9.763  -2.869  0.00  0.00    -0.049 C 
ATOM     10  C   LIG d   1      11.317   9.746  -1.347  0.00  0.00    -0.030 C 
ATOM     11  H   LIG d   1      10.355  10.054  -0.938  0.00  0.00     0.031 H 
ATOM     12  C   LIG d   1      11.629   8.340  -0.795  0.00  0.00    -0.008 C 
ATOM     13  H   LIG d   1      12.602   8.016  -1.163  0.00  0.00     0.033 H 
ATOM     14  C   LIG d   1      11.617   8.370   0.734  0.00  0.00     0.059 C 
ATOM     15  H   LIG d   1      10.633   8.686   1.083  0.00  0.00     0.060 H 
ATOM     16  C   LIG d   1      12.676   9.354   1.233  0.00  0.00    -0.023 C 
ATOM     17  C   LIG d   1      12.368  10.753   0.695  0.00  0.00    -0.031 C 
ATOM     18  H   LIG d   1      13.122  11.455   1.053  0.00  0.00     0.031 H 
ATOM     19  C   LIG d   1      12.392  10.723  -0.871  0.00  0.00    -0.026 C 
ATOM     20  C   LIG d   1      12.082  12.123  -1.407  0.00  0.00    -0.045 C 
ATOM     21  C   LIG d   1      10.708  12.567  -0.900  0.00  0.00    -0.026 C 
ATOM     22  C   LIG d   1      10.714  12.598   0.630  0.00  0.00     0.056 C 
ATOM     23  H   LIG d   1      11.472  13.300   0.976  0.00  0.00     0.059 H 
ATOM     24  C   LIG d   1      10.987  11.194   1.183  0.00  0.00    -0.023 C 
ATOM     25  H   LIG d   1       8.863   5.010  -1.659  0.00  0.00     0.027 H 
ATOM     26  H   LIG d   1      10.347   4.278  -2.332  0.00  0.00     0.027 H 
ATOM     27  H   LIG d   1      10.316   5.728   0.043  0.00  0.00     0.027 H 
ATOM     28  H   LIG d   1      11.758   5.629  -1.018  0.00  0.00     0.027 H 
ATOM     29  H   LIG d   1      10.223   8.717  -4.476  0.00  0.00     0.027 H 
ATOM     30  H   LIG d   1       9.226   8.959  -3.015  0.00  0.00     0.027 H 
ATOM     31  H   LIG d   1      12.217   9.541  -3.284  0.00  0.00     0.027 H 
ATOM     32  H   LIG d   1      10.924  10.755  -3.199  0.00  0.00     0.027 H 
ATOM     33  H   LIG d   1      12.667   9.375   2.323  0.00  0.00     0.029 H 
ATOM     34  H   LIG d   1      13.659   9.038   0.883  0.00  0.00     0.029 H 
ATOM     35  H   LIG d   1      12.842  12.822  -1.059  0.00  0.00     0.027 H 
ATOM     36  H   LIG d   1      12.079  12.102  -2.497  0.00  0.00     0.027 H 
ATOM     37  H   LIG d   1      10.486  13.563  -1.282  0.00  0.00     0.029 H 
ATOM     38  H   LIG d   1       9.949  11.867  -1.246  0.00  0.00     0.029 H 
ATOM     39  H   LIG d   1      10.234  10.492   0.826  0.00  0.00     0.029 H 
ATOM     40  H   LIG d   1      10.976  11.214   2.273  0.00  0.00     0.029 H 
ENDROOT
BRANCH   1  41
ATOM     41  C   LIG d   1      10.348   5.499  -4.500  0.00  0.00    -0.040 C 
ATOM     42  H   LIG d   1      11.403   5.749  -4.612  0.00  0.00     0.030 H 
BRANCH  41  43
ATOM     43  C   LIG d   1       9.576   5.986  -5.728  0.00  0.00    -0.062 C 
ATOM     44  H   LIG d   1       8.854   5.226  -6.029  0.00  0.00     0.023 H 
ATOM     45  H   LIG d   1       9.050   6.909  -5.484  0.00  0.00     0.023 H 
ATOM     46  H   LIG d   1      10.272   6.170  -6.546  0.00  0.00     0.023 H 
ENDBRANCH  41  43
BRANCH  41  47
ATOM     47  C   LIG d   1      10.196   3.981  -4.371  0.00  0.00    -0.042 C 
ATOM     48  H   LIG d   1      11.129   3.497  -4.655  0.00  0.00     0.027 H 
ATOM     49  H   LIG d   1       9.955   3.728  -3.338  0.00  0.00     0.027 H 
BRANCH  47  50
ATOM     50  C   LIG d   1       9.069   3.502  -5.289  0.00  0.00     0.024 C 
ATOM     51  H   LIG d   1       8.219   4.179  -5.206  0.00  0.00     0.036 H 
ATOM     52  H   LIG d   1       9.423   3.487  -6.320  0.00  0.00     0.036 H 
BRANCH  50  53
ATOM     53  C   LIG d   1       8.647   2.113  -4.882  0.00  0.00     0.213 C 
ATOM     54  O   LIG d   1       9.130   1.147  -5.433  0.00  0.00    -0.276 OA
ATOM     55  N   LIG d   1       7.734   1.946  -3.905  0.00  0.00    -0.311 N 
ATOM     56  H   LIG d   1       7.349   2.719  -3.464  0.00  0.00     0.149 HD
BRANCH  55  57
ATOM     57  C   LIG d   1       7.323   0.596  -3.509  0.00  0.00     0.037 C 
ATOM     58  H   LIG d   1       7.680  -0.123  -4.245  0.00  0.00     0.051 H 
ATOM     59  H   LIG d   1       7.750   0.360  -2.533  0.00  0.00     0.051 H 
BRANCH  57  60
ATOM     60  C   LIG d   1       5.820   0.533  -3.429  0.00  0.00    -0.028 A 
ATOM     61  C   LIG d   1       5.084  -0.117  -4.409  0.00  0.00    -0.039 A 
ATOM     62  C   LIG d   1       3.708  -0.161  -4.299  0.00  0.00     0.028 A 
ATOM     63  H   LIG d   1       5.583  -0.587  -5.245  0.00  0.00     0.064 H 
ATOM     64  N   LIG d   1       3.093   0.414  -3.285  0.00  0.00    -0.263 NA
ATOM     65  H   LIG d   1       3.129  -0.670  -5.056  0.00  0.00     0.083 H 
ATOM     66  C   LIG d   1       3.759   1.045  -2.338  0.00  0.00     0.028 A 
ATOM     67  C   LIG d   1       5.139   1.125  -2.377  0.00  0.00    -0.039 A 
ATOM     68  H   LIG d   1       3.221   1.505  -1.522  0.00  0.00     0.083 H 
ATOM     69  H   LIG d   1       5.679   1.643  -1.599  0.00  0.00     0.064 H 
ENDBRANCH  57  60
ENDBRANCH  55  57
ENDBRANCH  50  53
ENDBRANCH  47  50
ENDBRANCH  41  47
ENDBRANCH   1  41
BRANCH   7  70
ATOM     70  C   LIG d   1      12.114   7.105  -3.268  0.00  0.00    -0.059 C 
ATOM     71  H   LIG d   1      12.735   7.948  -2.966  0.00  0.00     0.024 H 
ATOM     72  H   LIG d   1      12.467   6.198  -2.777  0.00  0.00     0.024 H 
ATOM     73  H   LIG d   1      12.172   6.980  -4.350  0.00  0.00     0.024 H 
ENDBRANCH   7  70
BRANCH  14  74
ATOM     74  O   LIG d   1      11.903   7.065   1.239  0.00  0.00    -0.392 OA
ATOM     75  H   LIG d   1      12.169   6.430   0.560  0.00  0.00     0.210 HD
ENDBRANCH  14  74
BRANCH  19  76
ATOM     76  C   LIG d   1      13.761  10.266  -1.382  0.00  0.00    -0.059 C 
ATOM     77  H   LIG d   1      14.477  10.275  -0.560  0.00  0.00     0.024 H 
ATOM     78  H   LIG d   1      13.680   9.256  -1.782  0.00  0.00     0.024 H 
ATOM     79  H   LIG d   1      14.100  10.942  -2.167  0.00  0.00     0.024 H 
ENDBRANCH  19  76
BRANCH  22  80
ATOM     80  O   LIG d   1       9.431  13.011   1.103  0.00  0.00    -0.392 OA
ATOM     81  H   LIG d   1       9.176  13.900   0.822  0.00  0.00     0.210 HD
ENDBRANCH  22  80
TORSDOF 11
ENDMDL
MODEL 5
REMARK VINA RESULT:      -6.1      4.265      7.303
REMARK  11 active torsions:
REMARK  status: ('A' for Active; 'I' for Inactive)
REMARK    1  A    between atoms: C_1  and  C_2 
REMARK    2  A    between atoms: C_2  and  C_4 
REMARK    3  A    between atoms: C_2  and  C_16 
REMARK    4  A    between atoms: C_4  and  C_5 
REMARK    5  A    between atoms: C_5  and  C_6 
REMARK       I    between atoms: C_6  and  N_8 
REMARK    6  A    between atoms: N_8  and  C_9 
REMARK    7  A    between atoms: C_9  and  C_10 
REMARK    8  A    between atoms: C_22  and  C_43 
REMARK    9  A    between atoms: C_29  and  O_42 
REMARK   10  A    between atoms: C_34  and  C_41 
REMARK   11  A    between atoms: C_37  and  O_40 
ROOT
ATOM      1  C   LIG d   1       6.493  -2.092  -3.639  0.00  0.00    -0.033 C 
ATOM      2  H   LIG d   1       6.502  -2.039  -2.550  0.00  0.00     0.031 H 
ATOM      3  C   LIG d   1       7.481  -3.179  -4.131  0.00  0.00    -0.049 C 
ATOM      4  C   LIG d   1       8.584  -2.437  -4.934  0.00  0.00    -0.049 C 
ATOM      5  C   LIG d   1       8.531  -1.017  -4.359  0.00  0.00    -0.030 C 
ATOM      6  H   LIG d   1       8.999  -0.989  -3.376  0.00  0.00     0.031 H 
ATOM      7  C   LIG d   1       6.999  -0.783  -4.237  0.00  0.00    -0.026 C 
ATOM      8  C   LIG d   1       6.793   0.467  -3.405  0.00  0.00    -0.047 C 
ATOM      9  C   LIG d   1       7.385   1.645  -4.196  0.00  0.00    -0.049 C 
ATOM     10  C   LIG d   1       8.858   1.416  -4.516  0.00  0.00    -0.030 C 
ATOM     11  H   LIG d   1       9.420   1.387  -3.583  0.00  0.00     0.031 H 
ATOM     12  C   LIG d   1       9.095   0.077  -5.245  0.00  0.00    -0.008 C 
ATOM     13  H   LIG d   1       8.569   0.088  -6.199  0.00  0.00     0.033 H 
ATOM     14  C   LIG d   1      10.595  -0.134  -5.462  0.00  0.00     0.059 C 
ATOM     15  H   LIG d   1      11.102  -0.152  -4.497  0.00  0.00     0.060 H 
ATOM     16  C   LIG d   1      11.153   1.008  -6.312  0.00  0.00    -0.023 C 
ATOM     17  C   LIG d   1      10.927   2.339  -5.591  0.00  0.00    -0.031 C 
ATOM     18  H   LIG d   1      11.327   3.153  -6.196  0.00  0.00     0.031 H 
ATOM     19  C   LIG d   1       9.391   2.560  -5.379  0.00  0.00    -0.026 C 
ATOM     20  C   LIG d   1       9.167   3.890  -4.656  0.00  0.00    -0.045 C 
ATOM     21  C   LIG d   1       9.896   3.865  -3.311  0.00  0.00    -0.026 C 
ATOM     22  C   LIG d   1      11.394   3.659  -3.545  0.00  0.00     0.056 C 
ATOM     23  H   LIG d   1      11.783   4.476  -4.153  0.00  0.00     0.059 H 
ATOM     24  C   LIG d   1      11.638   2.312  -4.236  0.00  0.00    -0.023 C 
ATOM     25  H   LIG d   1       7.922  -3.697  -3.280  0.00  0.00     0.027 H 
ATOM     26  H   LIG d   1       6.964  -3.890  -4.775  0.00  0.00     0.027 H 
ATOM     27  H   LIG d   1       9.560  -2.889  -4.758  0.00  0.00     0.027 H 
ATOM     28  H   LIG d   1       8.349  -2.431  -5.998  0.00  0.00     0.027 H 
ATOM     29  H   LIG d   1       5.729   0.629  -3.237  0.00  0.00     0.027 H 
ATOM     30  H   LIG d   1       7.309   0.365  -2.449  0.00  0.00     0.027 H 
ATOM     31  H   LIG d   1       6.831   1.763  -5.128  0.00  0.00     0.027 H 
ATOM     32  H   LIG d   1       7.285   2.556  -3.605  0.00  0.00     0.027 H 
ATOM     33  H   LIG d   1      12.221   0.857  -6.467  0.00  0.00     0.029 H 
ATOM     34  H   LIG d   1      10.644   1.026  -7.276  0.00  0.00     0.029 H 
ATOM     35  H   LIG d   1       9.557   4.705  -5.266  0.00  0.00     0.027 H 
ATOM     36  H   LIG d   1       8.100   4.038  -4.489  0.00  0.00     0.027 H 
ATOM     37  H   LIG d   1       9.737   4.812  -2.794  0.00  0.00     0.029 H 
ATOM     38  H   LIG d   1       9.508   3.049  -2.702  0.00  0.00     0.029 H 
ATOM     39  H   LIG d   1      11.238   1.497  -3.632  0.00  0.00     0.029 H 
ATOM     40  H   LIG d   1      12.706   2.159  -4.390  0.00  0.00     0.029 H 
ENDROOT
BRANCH   1  41
ATOM     41  C   LIG d   1       5.080  -2.393  -4.142  0.00  0.00    -0.040 C 
ATOM     42  H   LIG d   1       4.855  -1.755  -4.996  0.00  0.00     0.030 H 
BRANCH  41  43
ATOM     43  C   LIG d   1       4.072  -2.124  -3.023  0.00  0.00    -0.062 C 
ATOM     44  H   LIG d   1       4.488  -1.395  -2.327  0.00  0.00     0.023 H 
ATOM     45  H   LIG d   1       3.150  -1.732  -3.451  0.00  0.00     0.023 H 
ATOM     46  H   LIG d   1       3.860  -3.053  -2.493  0.00  0.00     0.023 H 
ENDBRANCH  41  43
BRANCH  41  47
ATOM     47  C   LIG d   1       4.991  -3.861  -4.566  0.00  0.00    -0.042 C 
ATOM     48  H   LIG d   1       5.980  -4.316  -4.512  0.00  0.00     0.027 H 
ATOM     49  H   LIG d   1       4.311  -4.391  -3.899  0.00  0.00     0.027 H 
BRANCH  47  50
ATOM     50  C   LIG d   1       4.467  -3.947  -6.001  0.00  0.00     0.024 C 
ATOM     51  H   LIG d   1       3.513  -3.424  -6.072  0.00  0.00     0.036 H 
ATOM     52  H   LIG d   1       5.187  -3.485  -6.678  0.00  0.00     0.036 H 
BRANCH  50  53
ATOM     53  C   LIG d   1       4.277  -5.393  -6.381  0.00  0.00     0.213 C 
ATOM     54  O   LIG d   1       3.509  -5.690  -7.270  0.00  0.00    -0.276 OA
ATOM     55  N   LIG d   1       4.961  -6.355  -5.731  0.00  0.00    -0.311 N 
ATOM     56  H   LIG d   1       5.575  -6.117  -5.019  0.00  0.00     0.149 HD
BRANCH  55  57
ATOM     57  C   LIG d   1       4.776  -7.762  -6.098  0.00  0.00     0.037 C 
ATOM     58  H   LIG d   1       3.719  -7.955  -6.274  0.00  0.00     0.051 H 
ATOM     59  H   LIG d   1       5.341  -7.976  -7.007  0.00  0.00     0.051 H 
BRANCH  57  60
ATOM     60  C   LIG d   1       5.271  -8.642  -4.980  0.00  0.00    -0.028 A 
ATOM     61  C   LIG d   1       6.598  -8.604  -4.581  0.00  0.00    -0.039 A 
ATOM     62  C   LIG d   1       7.013  -9.420  -3.546  0.00  0.00     0.028 A 
ATOM     63  H   LIG d   1       7.297  -7.941  -5.070  0.00  0.00     0.064 H 
ATOM     64  N   LIG d   1       6.167 -10.236  -2.949  0.00  0.00    -0.263 NA
ATOM     65  H   LIG d   1       8.045  -9.392  -3.227  0.00  0.00     0.083 H 
ATOM     66  C   LIG d   1       4.900 -10.302  -3.305  0.00  0.00     0.028 A 
ATOM     67  C   LIG d   1       4.410  -9.511  -4.327  0.00  0.00    -0.039 A 
ATOM     68  H   LIG d   1       4.236 -10.983  -2.792  0.00  0.00     0.083 H 
ATOM     69  H   LIG d   1       3.371  -9.570  -4.614  0.00  0.00     0.064 H 
ENDBRANCH  57  60
ENDBRANCH  55  57
ENDBRANCH  50  53
ENDBRANCH  47  50
ENDBRANCH  41  47
ENDBRANCH   1  41
BRANCH   7  70
ATOM     70  C   LIG d   1       6.395  -0.583  -5.628  0.00  0.00    -0.059 C 
ATOM     71  H   LIG d   1       7.122  -0.088  -6.272  0.00  0.00     0.024 H 
ATOM     72  H   LIG d   1       6.133  -1.552  -6.053  0.00  0.00     0.024 H 
ATOM     73  H   LIG d   1       5.499   0.034  -5.551  0.00  0.00     0.024 H 
ENDBRANCH   7  70
BRANCH  14  74
ATOM     74  O   LIG d   1      10.808  -1.376  -6.134  0.00  0.00    -0.392 OA
ATOM     75  H   LIG d   1      11.579  -1.381  -6.717  0.00  0.00     0.210 HD
ENDBRANCH  14  74
BRANCH  19  76
ATOM     76  C   LIG d   1       8.655   2.572  -6.722  0.00  0.00    -0.059 C 
ATOM     77  H   LIG d   1       8.346   1.558  -6.975  0.00  0.00     0.024 H 
ATOM     78  H   LIG d   1       7.777   3.212  -6.648  0.00  0.00     0.024 H 
ATOM     79  H   LIG d   1       9.320   2.954  -7.496  0.00  0.00     0.024 H 
ENDBRANCH  19  76
BRANCH  22  80
ATOM     80  O   LIG d   1      12.074   3.634  -2.289  0.00  0.00    -0.392 OA
ATOM     81  H   LIG d   1      12.746   2.943  -2.219  0.00  0.00     0.210 HD
ENDBRANCH  22  80
TORSDOF 11
ENDMDL
MODEL 6
REMARK VINA RESULT:      -6.0      7.934     10.358
REMARK  11 active torsions:
REMARK  status: ('A' for Active; 'I' for Inactive)
REMARK    1  A    between atoms: C_1  and  C_2 
REMARK    2  A    between atoms: C_2  and  C_4 
REMARK    3  A    between atoms: C_2  and  C_16 
REMARK    4  A    between atoms: C_4  and  C_5 
REMARK    5  A    between atoms: C_5  and  C_6 
REMARK       I    between atoms: C_6  and  N_8 
REMARK    6  A    between atoms: N_8  and  C_9 
REMARK    7  A    between atoms: C_9  and  C_10 
REMARK    8  A    between atoms: C_22  and  C_43 
REMARK    9  A    between atoms: C_29  and  O_42 
REMARK   10  A    between atoms: C_34  and  C_41 
REMARK   11  A    between atoms: C_37  and  O_40 
ROOT
ATOM      1  C   LIG d   1       6.333  -3.279  -5.593  0.00  0.00    -0.033 C 
ATOM      2  H   LIG d   1       5.944  -4.279  -5.792  0.00  0.00     0.031 H 
ATOM      3  C   LIG d   1       5.592  -2.647  -4.388  0.00  0.00    -0.049 C 
ATOM      4  C   LIG d   1       4.828  -1.414  -4.942  0.00  0.00    -0.049 C 
ATOM      5  C   LIG d   1       4.658  -1.755  -6.427  0.00  0.00    -0.030 C 
ATOM      6  H   LIG d   1       3.876  -2.503  -6.557  0.00  0.00     0.031 H 
ATOM      7  C   LIG d   1       6.048  -2.357  -6.774  0.00  0.00    -0.026 C 
ATOM      8  C   LIG d   1       5.934  -3.013  -8.135  0.00  0.00    -0.047 C 
ATOM      9  C   LIG d   1       5.637  -1.902  -9.155  0.00  0.00    -0.049 C 
ATOM     10  C   LIG d   1       4.371  -1.135  -8.790  0.00  0.00    -0.030 C 
ATOM     11  H   LIG d   1       3.520  -1.813  -8.851  0.00  0.00     0.031 H 
ATOM     12  C   LIG d   1       4.421  -0.577  -7.353  0.00  0.00    -0.008 C 
ATOM     13  H   LIG d   1       5.246   0.130  -7.269  0.00  0.00     0.033 H 
ATOM     14  C   LIG d   1       3.093   0.106  -7.017  0.00  0.00     0.059 C 
ATOM     15  H   LIG d   1       2.283  -0.619  -7.096  0.00  0.00     0.060 H 
ATOM     16  C   LIG d   1       2.850   1.255  -7.996  0.00  0.00    -0.023 C 
ATOM     17  C   LIG d   1       2.792   0.707  -9.424  0.00  0.00    -0.031 C 
ATOM     18  H   LIG d   1       2.616   1.527 -10.121  0.00  0.00     0.031 H 
ATOM     19  C   LIG d   1       4.155   0.018  -9.770  0.00  0.00    -0.026 C 
ATOM     20  C   LIG d   1       4.095  -0.531 -11.198  0.00  0.00    -0.045 C 
ATOM     21  C   LIG d   1       2.944  -1.534 -11.307  0.00  0.00    -0.026 C 
ATOM     22  C   LIG d   1       1.624  -0.835 -10.974  0.00  0.00     0.056 C 
ATOM     23  H   LIG d   1       1.460  -0.017 -11.675  0.00  0.00     0.059 H 
ATOM     24  C   LIG d   1       1.655  -0.311  -9.534  0.00  0.00    -0.023 C 
ATOM     25  H   LIG d   1       4.891  -3.363  -3.962  0.00  0.00     0.027 H 
ATOM     26  H   LIG d   1       6.311  -2.332  -3.631  0.00  0.00     0.027 H 
ATOM     27  H   LIG d   1       3.858  -1.312  -4.456  0.00  0.00     0.027 H 
ATOM     28  H   LIG d   1       5.418  -0.506  -4.820  0.00  0.00     0.027 H 
ATOM     29  H   LIG d   1       6.871  -3.509  -8.387  0.00  0.00     0.027 H 
ATOM     30  H   LIG d   1       5.120  -3.739  -8.130  0.00  0.00     0.027 H 
ATOM     31  H   LIG d   1       6.479  -1.209  -9.182  0.00  0.00     0.027 H 
ATOM     32  H   LIG d   1       5.513  -2.348 -10.142  0.00  0.00     0.027 H 
ATOM     33  H   LIG d   1       1.904   1.742  -7.756  0.00  0.00     0.029 H 
ATOM     34  H   LIG d   1       3.662   1.978  -7.917  0.00  0.00     0.029 H 
ATOM     35  H   LIG d   1       3.930   0.289 -11.896  0.00  0.00     0.027 H 
ATOM     36  H   LIG d   1       5.035  -1.029 -11.436  0.00  0.00     0.027 H 
ATOM     37  H   LIG d   1       2.901  -1.927 -12.323  0.00  0.00     0.029 H 
ATOM     38  H   LIG d   1       3.108  -2.353 -10.607  0.00  0.00     0.029 H 
ATOM     39  H   LIG d   1       1.832  -1.129  -8.835  0.00  0.00     0.029 H 
ATOM     40  H   LIG d   1       0.709   0.174  -9.292  0.00  0.00     0.029 H 
ENDROOT
BRANCH   1  41
ATOM     41  C   LIG d   1       7.836  -3.341  -5.319  0.00  0.00    -0.040 C 
ATOM     42  H   LIG d   1       8.313  -2.441  -5.706  0.00  0.00     0.030 H 
BRANCH  41  43
ATOM     43  C   LIG d   1       8.431  -4.570  -6.009  0.00  0.00    -0.062 C 
ATOM     44  H   LIG d   1       9.349  -4.865  -5.499  0.00  0.00     0.023 H 
ATOM     45  H   LIG d   1       7.715  -5.391  -5.970  0.00  0.00     0.023 H 
ATOM     46  H   LIG d   1       8.653  -4.332  -7.049  0.00  0.00     0.023 H 
ENDBRANCH  41  43
BRANCH  41  47
ATOM     47  C   LIG d   1       8.077  -3.435  -3.810  0.00  0.00    -0.042 C 
ATOM     48  H   LIG d   1       7.885  -2.467  -3.351  0.00  0.00     0.027 H 
ATOM     49  H   LIG d   1       7.406  -4.180  -3.382  0.00  0.00     0.027 H 
BRANCH  47  50
ATOM     50  C   LIG d   1       9.528  -3.847  -3.550  0.00  0.00     0.024 C 
ATOM     51  H   LIG d   1      10.003  -4.119  -4.493  0.00  0.00     0.036 H 
ATOM     52  H   LIG d   1      10.066  -3.012  -3.099  0.00  0.00     0.036 H 
BRANCH  50  53
ATOM     53  C   LIG d   1       9.555  -5.027  -2.614  0.00  0.00     0.213 C 
ATOM     54  O   LIG d   1       9.543  -4.850  -1.415  0.00  0.00    -0.276 OA
ATOM     55  N   LIG d   1       9.592  -6.280  -3.110  0.00  0.00    -0.311 N 
ATOM     56  H   LIG d   1       9.601  -6.421  -4.070  0.00  0.00     0.149 HD
BRANCH  55  57
ATOM     57  C   LIG d   1       9.618  -7.428  -2.200  0.00  0.00     0.037 C 
ATOM     58  H   LIG d   1      10.564  -7.956  -2.310  0.00  0.00     0.051 H 
ATOM     59  H   LIG d   1       9.513  -7.079  -1.173  0.00  0.00     0.051 H 
BRANCH  57  60
ATOM     60  C   LIG d   1       8.481  -8.358  -2.534  0.00  0.00    -0.028 A 
ATOM     61  C   LIG d   1       7.948  -9.202  -1.571  0.00  0.00    -0.039 A 
ATOM     62  C   LIG d   1       6.900 -10.036  -1.912  0.00  0.00     0.028 A 
ATOM     63  H   LIG d   1       8.345  -9.204  -0.566  0.00  0.00     0.064 H 
ATOM     64  N   LIG d   1       6.415 -10.043  -3.137  0.00  0.00    -0.263 NA
ATOM     65  H   LIG d   1       6.477 -10.693  -1.165  0.00  0.00     0.083 H 
ATOM     66  C   LIG d   1       6.899  -9.259  -4.080  0.00  0.00     0.028 A 
ATOM     67  C   LIG d   1       7.943  -8.393  -3.812  0.00  0.00    -0.039 A 
ATOM     68  H   LIG d   1       6.476  -9.293  -5.073  0.00  0.00     0.083 H 
ATOM     69  H   LIG d   1       8.335  -7.753  -4.587  0.00  0.00     0.064 H 
ENDBRANCH  57  60
ENDBRANCH  55  57
ENDBRANCH  50  53
ENDBRANCH  47  50
ENDBRANCH  41  47
ENDBRANCH   1  41
BRANCH   7  70
ATOM     70  C   LIG d   1       7.095  -1.243  -6.823  0.00  0.00    -0.059 C 
ATOM     71  H   LIG d   1       7.606  -1.181  -5.863  0.00  0.00     0.024 H 
ATOM     72  H   LIG d   1       7.820  -1.461  -7.607  0.00  0.00     0.024 H 
ATOM     73  H   LIG d   1       6.605  -0.292  -7.036  0.00  0.00     0.024 H 
ENDBRANCH   7  70
BRANCH  14  74
ATOM     74  O   LIG d   1       3.145   0.617  -5.685  0.00  0.00    -0.392 OA
ATOM     75  H   LIG d   1       3.623   0.051  -5.064  0.00  0.00     0.210 HD
ENDBRANCH  14  74
BRANCH  19  76
ATOM     76  C   LIG d   1       5.311   1.015  -9.649  0.00  0.00    -0.059 C 
ATOM     77  H   LIG d   1       5.291   1.697 -10.499  0.00  0.00     0.024 H 
ATOM     78  H   LIG d   1       5.206   1.582  -8.725  0.00  0.00     0.024 H 
ATOM     79  H   LIG d   1       6.257   0.474  -9.639  0.00  0.00     0.024 H 
ENDBRANCH  19  76
BRANCH  22  80
ATOM     80  O   LIG d   1       0.550  -1.772 -11.075  0.00  0.00    -0.392 OA
ATOM     81  H   LIG d   1       0.020  -1.677 -11.877  0.00  0.00     0.210 HD
ENDBRANCH  22  80
TORSDOF 11
ENDMDL
MODEL 7
REMARK VINA RESULT:      -5.8      2.805      4.447
REMARK  11 active torsions:
REMARK  status: ('A' for Active; 'I' for Inactive)
REMARK    1  A    between atoms: C_1  and  C_2 
REMARK    2  A    between atoms: C_2  and  C_4 
REMARK    3  A    between atoms: C_2  and  C_16 
REMARK    4  A    between atoms: C_4  and  C_5 
REMARK    5  A    between atoms: C_5  and  C_6 
REMARK       I    between atoms: C_6  and  N_8 
REMARK    6  A    between atoms: N_8  and  C_9 
REMARK    7  A    between atoms: C_9  and  C_10 
REMARK    8  A    between atoms: C_22  and  C_43 
REMARK    9  A    between atoms: C_29  and  O_42 
REMARK   10  A    between atoms: C_34  and  C_41 
REMARK   11  A    between atoms: C_37  and  O_40 
ROOT
ATOM      1  C   LIG d   1       9.305   3.273  -5.215  0.00  0.00    -0.033 C 
ATOM      2  H   LIG d   1       8.262   3.505  -5.437  0.00  0.00     0.031 H 
ATOM      3  C   LIG d   1       9.395   2.339  -3.983  0.00  0.00    -0.049 C 
ATOM      4  C   LIG d   1      10.130   3.144  -2.877  0.00  0.00    -0.049 C 
ATOM      5  C   LIG d   1       9.866   4.599  -3.278  0.00  0.00    -0.030 C 
ATOM      6  H   LIG d   1       8.842   4.880  -3.031  0.00  0.00     0.031 H 
ATOM      7  C   LIG d   1      10.056   4.541  -4.819  0.00  0.00    -0.026 C 
ATOM      8  C   LIG d   1       9.536   5.844  -5.393  0.00  0.00    -0.047 C 
ATOM      9  C   LIG d   1      10.432   6.971  -4.853  0.00  0.00    -0.049 C 
ATOM     10  C   LIG d   1      10.444   6.990  -3.329  0.00  0.00    -0.030 C 
ATOM     11  H   LIG d   1       9.442   7.226  -2.972  0.00  0.00     0.031 H 
ATOM     12  C   LIG d   1      10.842   5.624  -2.731  0.00  0.00    -0.008 C 
ATOM     13  H   LIG d   1      11.854   5.373  -3.047  0.00  0.00     0.033 H 
ATOM     14  C   LIG d   1      10.754   5.682  -1.206  0.00  0.00     0.059 C 
ATOM     15  H   LIG d   1       9.733   5.923  -0.910  0.00  0.00     0.060 H 
ATOM     16  C   LIG d   1      11.706   6.758  -0.681  0.00  0.00    -0.023 C 
ATOM     17  C   LIG d   1      11.313   8.117  -1.264  0.00  0.00    -0.031 C 
ATOM     18  H   LIG d   1      11.990   8.884  -0.887  0.00  0.00     0.031 H 
ATOM     19  C   LIG d   1      11.414   8.059  -2.826  0.00  0.00    -0.026 C 
ATOM     20  C   LIG d   1      11.018   9.419  -3.407  0.00  0.00    -0.045 C 
ATOM     21  C   LIG d   1       9.591   9.760  -2.974  0.00  0.00    -0.026 C 
ATOM     22  C   LIG d   1       9.521   9.819  -1.446  0.00  0.00     0.056 C 
ATOM     23  H   LIG d   1      10.203  10.587  -1.081  0.00  0.00     0.059 H 
ATOM     24  C   LIG d   1       9.879   8.454  -0.850  0.00  0.00    -0.023 C 
ATOM     25  H   LIG d   1       8.396   2.065  -3.646  0.00  0.00     0.027 H 
ATOM     26  H   LIG d   1       9.964   1.444  -4.234  0.00  0.00     0.027 H 
ATOM     27  H   LIG d   1       9.704   2.930  -1.897  0.00  0.00     0.027 H 
ATOM     28  H   LIG d   1      11.199   2.929  -2.888  0.00  0.00     0.027 H 
ATOM     29  H   LIG d   1       9.587   5.817  -6.481  0.00  0.00     0.027 H 
ATOM     30  H   LIG d   1       8.505   6.005  -5.074  0.00  0.00     0.027 H 
ATOM     31  H   LIG d   1      11.449   6.822  -5.217  0.00  0.00     0.027 H 
ATOM     32  H   LIG d   1      10.060   7.928  -5.219  0.00  0.00     0.027 H 
ATOM     33  H   LIG d   1      11.644   6.798   0.407  0.00  0.00     0.029 H 
ATOM     34  H   LIG d   1      12.727   6.516  -0.978  0.00  0.00     0.029 H 
ATOM     35  H   LIG d   1      11.702  10.184  -3.040  0.00  0.00     0.027 H 
ATOM     36  H   LIG d   1      11.068   9.377  -4.496  0.00  0.00     0.027 H 
ATOM     37  H   LIG d   1       9.308  10.727  -3.388  0.00  0.00     0.029 H 
ATOM     38  H   LIG d   1       8.907   8.994  -3.339  0.00  0.00     0.029 H 
ATOM     39  H   LIG d   1       9.203   7.685  -1.225  0.00  0.00     0.029 H 
ATOM     40  H   LIG d   1       9.815   8.492   0.238  0.00  0.00     0.029 H 
ENDROOT
BRANCH   1  41
ATOM     41  C   LIG d   1       9.971   2.620  -6.427  0.00  0.00    -0.040 C 
ATOM     42  H   LIG d   1      10.995   2.980  -6.518  0.00  0.00     0.030 H 
BRANCH  41  43
ATOM     43  C   LIG d   1       9.190   2.977  -7.693  0.00  0.00    -0.062 C 
ATOM     44  H   LIG d   1       8.277   3.508  -7.420  0.00  0.00     0.023 H 
ATOM     45  H   LIG d   1       9.803   3.614  -8.331  0.00  0.00     0.023 H 
ATOM     46  H   LIG d   1       8.933   2.064  -8.232  0.00  0.00     0.023 H 
ENDBRANCH  41  43
BRANCH  41  47
ATOM     47  C   LIG d   1       9.981   1.100  -6.246  0.00  0.00    -0.042 C 
ATOM     48  H   LIG d   1      10.128   0.860  -5.194  0.00  0.00     0.027 H 
ATOM     49  H   LIG d   1       9.029   0.688  -6.583  0.00  0.00     0.027 H 
BRANCH  47  50
ATOM     50  C   LIG d   1      11.118   0.495  -7.072  0.00  0.00     0.024 C 
ATOM     51  H   LIG d   1      10.713  -0.248  -7.759  0.00  0.00     0.036 H 
ATOM     52  H   LIG d   1      11.613   1.284  -7.640  0.00  0.00     0.036 H 
BRANCH  50  53
ATOM     53  C   LIG d   1      12.114  -0.161  -6.150  0.00  0.00     0.213 C 
ATOM     54  O   LIG d   1      12.950  -0.915  -6.600  0.00  0.00    -0.276 OA
ATOM     55  N   LIG d   1      12.073   0.090  -4.827  0.00  0.00    -0.311 N 
ATOM     56  H   LIG d   1      11.404   0.693  -4.468  0.00  0.00     0.149 HD
BRANCH  55  57
ATOM     57  C   LIG d   1      13.040  -0.548  -3.930  0.00  0.00     0.037 C 
ATOM     58  H   LIG d   1      12.513  -1.007  -3.095  0.00  0.00     0.051 H 
ATOM     59  H   LIG d   1      13.591  -1.315  -4.477  0.00  0.00     0.051 H 
BRANCH  57  60
ATOM     60  C   LIG d   1      14.002   0.488  -3.410  0.00  0.00    -0.028 A 
ATOM     61  C   LIG d   1      15.042   0.132  -2.565  0.00  0.00    -0.039 A 
ATOM     62  C   LIG d   1      15.909   1.108  -2.115  0.00  0.00     0.028 A 
ATOM     63  H   LIG d   1      15.174  -0.899  -2.266  0.00  0.00     0.064 H 
ATOM     64  N   LIG d   1      15.750   2.368  -2.470  0.00  0.00    -0.263 NA
ATOM     65  H   LIG d   1      16.724   0.837  -1.459  0.00  0.00     0.083 H 
ATOM     66  C   LIG d   1      14.771   2.744  -3.268  0.00  0.00     0.028 A 
ATOM     67  C   LIG d   1      13.868   1.822  -3.764  0.00  0.00    -0.039 A 
ATOM     68  H   LIG d   1      14.672   3.786  -3.538  0.00  0.00     0.083 H 
ATOM     69  H   LIG d   1      13.068   2.137  -4.417  0.00  0.00     0.064 H 
ENDBRANCH  57  60
ENDBRANCH  55  57
ENDBRANCH  50  53
ENDBRANCH  47  50
ENDBRANCH  41  47
ENDBRANCH   1  41
BRANCH   7  70
ATOM     70  C   LIG d   1      11.541   4.387  -5.152  0.00  0.00    -0.059 C 
ATOM     71  H   LIG d   1      11.648   3.917  -6.129  0.00  0.00     0.024 H 
ATOM     72  H   LIG d   1      12.013   5.369  -5.166  0.00  0.00     0.024 H 
ATOM     73  H   LIG d   1      12.020   3.764  -4.395  0.00  0.00     0.024 H 
ENDBRANCH   7  70
BRANCH  14  74
ATOM     74  O   LIG d   1      11.120   4.414  -0.659  0.00  0.00    -0.392 OA
ATOM     75  H   LIG d   1      12.071   4.300  -0.532  0.00  0.00     0.210 HD
ENDBRANCH  14  74
BRANCH  19  76
ATOM     76  C   LIG d   1      12.838   7.706  -3.264  0.00  0.00    -0.059 C 
ATOM     77  H   LIG d   1      13.552   8.268  -2.662  0.00  0.00     0.024 H 
ATOM     78  H   LIG d   1      13.005   6.638  -3.123  0.00  0.00     0.024 H 
ATOM     79  H   LIG d   1      12.968   7.959  -4.315  0.00  0.00     0.024 H 
ENDBRANCH  19  76
BRANCH  22  80
ATOM     80  O   LIG d   1       8.188  10.136  -1.043  0.00  0.00    -0.392 OA
ATOM     81  H   LIG d   1       8.005   9.951  -0.111  0.00  0.00     0.210 HD
ENDBRANCH  22  80
TORSDOF 11
ENDMDL
MODEL 8
REMARK VINA RESULT:      -5.8      8.004     10.861
REMARK  11 active torsions:
REMARK  status: ('A' for Active; 'I' for Inactive)
REMARK    1  A    between atoms: C_1  and  C_2 
REMARK    2  A    between atoms: C_2  and  C_4 
REMARK    3  A    between atoms: C_2  and  C_16 
REMARK    4  A    between atoms: C_4  and  C_5 
REMARK    5  A    between atoms: C_5  and  C_6 
REMARK       I    between atoms: C_6  and  N_8 
REMARK    6  A    between atoms: N_8  and  C_9 
REMARK    7  A    between atoms: C_9  and  C_10 
REMARK    8  A    between atoms: C_22  and  C_43 
REMARK    9  A    between atoms: C_29  and  O_42 
REMARK   10  A    between atoms: C_34  and  C_41 
REMARK   11  A    between atoms: C_37  and  O_40 
ROOT
ATOM      1  C   LIG d   1       4.668  -2.314  -5.513  0.00  0.00    -0.033 C 
ATOM      2  H   LIG d   1       4.021  -2.568  -4.672  0.00  0.00     0.031 H 
ATOM      3  C   LIG d   1       4.382  -3.252  -6.712  0.00  0.00    -0.049 C 
ATOM      4  C   LIG d   1       5.679  -4.073  -6.944  0.00  0.00    -0.049 C 
ATOM      5  C   LIG d   1       6.361  -4.033  -5.572  0.00  0.00    -0.030 C 
ATOM      6  H   LIG d   1       5.861  -4.710  -4.880  0.00  0.00     0.031 H 
ATOM      7  C   LIG d   1       6.129  -2.556  -5.148  0.00  0.00    -0.026 C 
ATOM      8  C   LIG d   1       6.489  -2.441  -3.680  0.00  0.00    -0.047 C 
ATOM      9  C   LIG d   1       7.994  -2.734  -3.554  0.00  0.00    -0.049 C 
ATOM     10  C   LIG d   1       8.342  -4.108  -4.115  0.00  0.00    -0.030 C 
ATOM     11  H   LIG d   1       7.851  -4.870  -3.509  0.00  0.00     0.031 H 
ATOM     12  C   LIG d   1       7.857  -4.285  -5.569  0.00  0.00    -0.008 C 
ATOM     13  H   LIG d   1       8.355  -3.555  -6.206  0.00  0.00     0.033 H 
ATOM     14  C   LIG d   1       8.159  -5.707  -6.045  0.00  0.00     0.059 C 
ATOM     15  H   LIG d   1       7.644  -6.421  -5.402  0.00  0.00     0.060 H 
ATOM     16  C   LIG d   1       9.666  -5.956  -5.982  0.00  0.00    -0.023 C 
ATOM     17  C   LIG d   1      10.153  -5.789  -4.541  0.00  0.00    -0.031 C 
ATOM     18  H   LIG d   1      11.228  -5.969  -4.497  0.00  0.00     0.031 H 
ATOM     19  C   LIG d   1       9.853  -4.329  -4.059  0.00  0.00    -0.026 C 
ATOM     20  C   LIG d   1      10.339  -4.165  -2.616  0.00  0.00    -0.045 C 
ATOM     21  C   LIG d   1       9.626  -5.182  -1.723  0.00  0.00    -0.026 C 
ATOM     22  C   LIG d   1       9.942  -6.599  -2.208  0.00  0.00     0.056 C 
ATOM     23  H   LIG d   1      11.018  -6.767  -2.162  0.00  0.00     0.059 H 
ATOM     24  C   LIG d   1       9.429  -6.791  -3.640  0.00  0.00    -0.023 C 
ATOM     25  H   LIG d   1       3.553  -3.918  -6.477  0.00  0.00     0.027 H 
ATOM     26  H   LIG d   1       4.149  -2.663  -7.599  0.00  0.00     0.027 H 
ATOM     27  H   LIG d   1       5.441  -5.099  -7.227  0.00  0.00     0.027 H 
ATOM     28  H   LIG d   1       6.306  -3.601  -7.700  0.00  0.00     0.027 H 
ATOM     29  H   LIG d   1       6.275  -1.434  -3.323  0.00  0.00     0.027 H 
ATOM     30  H   LIG d   1       5.920  -3.169  -3.100  0.00  0.00     0.027 H 
ATOM     31  H   LIG d   1       8.551  -1.972  -4.101  0.00  0.00     0.027 H 
ATOM     32  H   LIG d   1       8.277  -2.695  -2.502  0.00  0.00     0.027 H 
ATOM     33  H   LIG d   1       9.881  -6.969  -6.323  0.00  0.00     0.029 H 
ATOM     34  H   LIG d   1      10.180  -5.240  -6.624  0.00  0.00     0.029 H 
ATOM     35  H   LIG d   1      11.414  -4.334  -2.573  0.00  0.00     0.027 H 
ATOM     36  H   LIG d   1      10.114  -3.156  -2.270  0.00  0.00     0.027 H 
ATOM     37  H   LIG d   1       9.970  -5.066  -0.695  0.00  0.00     0.029 H 
ATOM     38  H   LIG d   1       8.551  -5.015  -1.767  0.00  0.00     0.029 H 
ATOM     39  H   LIG d   1       8.355  -6.611  -3.686  0.00  0.00     0.029 H 
ATOM     40  H   LIG d   1       9.642  -7.805  -3.980  0.00  0.00     0.029 H 
ENDROOT
BRANCH   1  41
ATOM     41  C   LIG d   1       4.458  -0.854  -5.919  0.00  0.00    -0.040 C 
ATOM     42  H   LIG d   1       5.426  -0.372  -6.056  0.00  0.00     0.030 H 
BRANCH  41  43
ATOM     43  C   LIG d   1       3.677  -0.127  -4.823  0.00  0.00    -0.062 C 
ATOM     44  H   LIG d   1       4.233  -0.175  -3.886  0.00  0.00     0.023 H 
ATOM     45  H   LIG d   1       3.535   0.916  -5.108  0.00  0.00     0.023 H 
ATOM     46  H   LIG d   1       2.704  -0.603  -4.693  0.00  0.00     0.023 H 
ENDBRANCH  41  43
BRANCH  41  47
ATOM     47  C   LIG d   1       3.671  -0.797  -7.231  0.00  0.00    -0.042 C 
ATOM     48  H   LIG d   1       4.349  -0.961  -8.068  0.00  0.00     0.027 H 
ATOM     49  H   LIG d   1       2.905  -1.571  -7.227  0.00  0.00     0.027 H 
BRANCH  47  50
ATOM     50  C   LIG d   1       3.009   0.576  -7.369  0.00  0.00     0.024 C 
ATOM     51  H   LIG d   1       1.943   0.488  -7.160  0.00  0.00     0.036 H 
ATOM     52  H   LIG d   1       3.463   1.270  -6.661  0.00  0.00     0.036 H 
BRANCH  50  53
ATOM     53  C   LIG d   1       3.206   1.088  -8.773  0.00  0.00     0.213 C 
ATOM     54  O   LIG d   1       2.734   2.156  -9.099  0.00  0.00    -0.276 OA
ATOM     55  N   LIG d   1       3.905   0.359  -9.664  0.00  0.00    -0.311 N 
ATOM     56  H   LIG d   1       4.282  -0.496  -9.402  0.00  0.00     0.149 HD
BRANCH  55  57
ATOM     57  C   LIG d   1       4.096   0.856 -11.029  0.00  0.00     0.037 C 
ATOM     58  H   LIG d   1       3.538   1.782 -11.159  0.00  0.00     0.051 H 
ATOM     59  H   LIG d   1       5.157   1.042 -11.202  0.00  0.00     0.051 H 
BRANCH  57  60
ATOM     60  C   LIG d   1       3.600  -0.173 -12.012  0.00  0.00    -0.028 A 
ATOM     61  C   LIG d   1       2.415  -0.857 -11.787  0.00  0.00    -0.039 A 
ATOM     62  C   LIG d   1       1.988  -1.788 -12.713  0.00  0.00     0.028 A 
ATOM     63  H   LIG d   1       1.830  -0.660 -10.899  0.00  0.00     0.064 H 
ATOM     64  N   LIG d   1       2.698  -2.038 -13.795  0.00  0.00    -0.263 NA
ATOM     65  H   LIG d   1       1.063  -2.321 -12.547  0.00  0.00     0.083 H 
ATOM     66  C   LIG d   1       3.832  -1.411 -14.040  0.00  0.00     0.028 A 
ATOM     67  C   LIG d   1       4.319  -0.462 -13.162  0.00  0.00    -0.039 A 
ATOM     68  H   LIG d   1       4.387  -1.642 -14.937  0.00  0.00     0.083 H 
ATOM     69  H   LIG d   1       5.248   0.048 -13.367  0.00  0.00     0.064 H 
ENDBRANCH  57  60
ENDBRANCH  55  57
ENDBRANCH  50  53
ENDBRANCH  47  50
ENDBRANCH  41  47
ENDBRANCH   1  41
BRANCH   7  70
ATOM     70  C   LIG d   1       7.028  -1.634  -5.974  0.00  0.00    -0.059 C 
ATOM     71  H   LIG d   1       6.707  -1.652  -7.015  0.00  0.00     0.024 H 
ATOM     72  H   LIG d   1       6.957  -0.617  -5.589  0.00  0.00     0.024 H 
ATOM     73  H   LIG d   1       8.061  -1.977  -5.906  0.00  0.00     0.024 H 
ENDBRANCH   7  70
BRANCH  14  74
ATOM     74  O   LIG d   1       7.705  -5.865  -7.390  0.00  0.00    -0.392 OA
ATOM     75  H   LIG d   1       8.134  -6.587  -7.868  0.00  0.00     0.210 HD
ENDBRANCH  14  74
BRANCH  19  76
ATOM     76  C   LIG d   1      10.554  -3.307  -4.958  0.00  0.00    -0.059 C 
ATOM     77  H   LIG d   1      11.622  -3.308  -4.743  0.00  0.00     0.024 H 
ATOM     78  H   LIG d   1      10.393  -3.573  -6.002  0.00  0.00     0.024 H 
ATOM     79  H   LIG d   1      10.145  -2.315  -4.768  0.00  0.00     0.024 H 
ENDBRANCH  19  76
BRANCH  22  80
ATOM     80  O   LIG d   1       9.276  -7.548  -1.374  0.00  0.00    -0.392 OA
ATOM     81  H   LIG d   1       9.377  -8.465  -1.664  0.00  0.00     0.210 HD
ENDBRANCH  22  80
TORSDOF 11
ENDMDL
MODEL 9
REMARK VINA RESULT:      -5.7      2.054      2.728
REMARK  11 active torsions:
REMARK  status: ('A' for Active; 'I' for Inactive)
REMARK    1  A    between atoms: C_1  and  C_2 
REMARK    2  A    between atoms: C_2  and  C_4 
REMARK    3  A    between atoms: C_2  and  C_16 
REMARK    4  A    between atoms: C_4  and  C_5 
REMARK    5  A    between atoms: C_5  and  C_6 
REMARK       I    between atoms: C_6  and  N_8 
REMARK    6  A    between atoms: N_8  and  C_9 
REMARK    7  A    between atoms: C_9  and  C_10 
REMARK    8  A    between atoms: C_22  and  C_43 
REMARK    9  A    between atoms: C_29  and  O_42 
REMARK   10  A    between atoms: C_34  and  C_41 
REMARK   11  A    between atoms: C_37  and  O_40 
ROOT
ATOM      1  C   LIG d   1       9.280   3.557  -5.031  0.00  0.00    -0.033 C 
ATOM      2  H   LIG d   1       8.237   3.825  -5.200  0.00  0.00     0.031 H 
ATOM      3  C   LIG d   1       9.391   2.546  -3.863  0.00  0.00    -0.049 C 
ATOM      4  C   LIG d   1      10.183   3.263  -2.736  0.00  0.00    -0.049 C 
ATOM      5  C   LIG d   1       9.939   4.746  -3.037  0.00  0.00    -0.030 C 
ATOM      6  H   LIG d   1       8.932   5.034  -2.737  0.00  0.00     0.031 H 
ATOM      7  C   LIG d   1      10.074   4.781  -4.585  0.00  0.00    -0.026 C 
ATOM      8  C   LIG d   1       9.566   6.128  -5.058  0.00  0.00    -0.047 C 
ATOM      9  C   LIG d   1      10.507   7.200  -4.482  0.00  0.00    -0.049 C 
ATOM     10  C   LIG d   1      10.572   7.122  -2.960  0.00  0.00    -0.030 C 
ATOM     11  H   LIG d   1       9.589   7.357  -2.553  0.00  0.00     0.031 H 
ATOM     12  C   LIG d   1      10.958   5.714  -2.464  0.00  0.00    -0.008 C 
ATOM     13  H   LIG d   1      11.953   5.461  -2.830  0.00  0.00     0.033 H 
ATOM     14  C   LIG d   1      10.925   5.677  -0.935  0.00  0.00     0.059 C 
ATOM     15  H   LIG d   1       9.920   5.921  -0.588  0.00  0.00     0.060 H 
ATOM     16  C   LIG d   1      11.920   6.697  -0.379  0.00  0.00    -0.023 C 
ATOM     17  C   LIG d   1      11.539   8.099  -0.862  0.00  0.00    -0.031 C 
ATOM     18  H   LIG d   1      12.247   8.826  -0.464  0.00  0.00     0.031 H 
ATOM     19  C   LIG d   1      11.584   8.137  -2.428  0.00  0.00    -0.026 C 
ATOM     20  C   LIG d   1      11.201   9.539  -2.909  0.00  0.00    -0.045 C 
ATOM     21  C   LIG d   1       9.798   9.882  -2.404  0.00  0.00    -0.026 C 
ATOM     22  C   LIG d   1       9.783   9.847  -0.874  0.00  0.00     0.056 C 
ATOM     23  H   LIG d   1      10.495  10.576  -0.487  0.00  0.00     0.059 H 
ATOM     24  C   LIG d   1      10.129   8.440  -0.377  0.00  0.00    -0.023 C 
ATOM     25  H   LIG d   1       8.398   2.273  -3.508  0.00  0.00     0.027 H 
ATOM     26  H   LIG d   1       9.929   1.656  -4.190  0.00  0.00     0.027 H 
ATOM     27  H   LIG d   1       9.786   2.997  -1.757  0.00  0.00     0.027 H 
ATOM     28  H   LIG d   1      11.245   3.026  -2.799  0.00  0.00     0.027 H 
ATOM     29  H   LIG d   1       9.578   6.168  -6.146  0.00  0.00     0.027 H 
ATOM     30  H   LIG d   1       8.551   6.291  -4.692  0.00  0.00     0.027 H 
ATOM     31  H   LIG d   1      11.507   7.052  -4.891  0.00  0.00     0.027 H 
ATOM     32  H   LIG d   1      10.145   8.186  -4.774  0.00  0.00     0.027 H 
ATOM     33  H   LIG d   1      11.896   6.671   0.710  0.00  0.00     0.029 H 
ATOM     34  H   LIG d   1      12.923   6.453  -0.728  0.00  0.00     0.029 H 
ATOM     35  H   LIG d   1      11.915  10.264  -2.520  0.00  0.00     0.027 H 
ATOM     36  H   LIG d   1      11.212   9.565  -3.999  0.00  0.00     0.027 H 
ATOM     37  H   LIG d   1       9.523  10.880  -2.747  0.00  0.00     0.029 H 
ATOM     38  H   LIG d   1       9.084   9.156  -2.791  0.00  0.00     0.029 H 
ATOM     39  H   LIG d   1       9.422   7.711  -0.774  0.00  0.00     0.029 H 
ATOM     40  H   LIG d   1      10.103   8.411   0.713  0.00  0.00     0.029 H 
ENDROOT
BRANCH   1  41
ATOM     41  C   LIG d   1       9.888   2.967  -6.304  0.00  0.00    -0.040 C 
ATOM     42  H   LIG d   1      10.960   3.162  -6.320  0.00  0.00     0.030 H 
BRANCH  41  43
ATOM     43  C   LIG d   1       9.234   3.611  -7.528  0.00  0.00    -0.062 C 
ATOM     44  H   LIG d   1       9.234   2.901  -8.356  0.00  0.00     0.023 H 
ATOM     45  H   LIG d   1       8.208   3.890  -7.288  0.00  0.00     0.023 H 
ATOM     46  H   LIG d   1       9.795   4.501  -7.814  0.00  0.00     0.023 H 
ENDBRANCH  41  43
BRANCH  41  47
ATOM     47  C   LIG d   1       9.646   1.455  -6.332  0.00  0.00    -0.042 C 
ATOM     48  H   LIG d   1      10.376   0.983  -6.988  0.00  0.00     0.027 H 
ATOM     49  H   LIG d   1       9.748   1.053  -5.325  0.00  0.00     0.027 H 
BRANCH  47  50
ATOM     50  C   LIG d   1       8.234   1.175  -6.853  0.00  0.00     0.024 C 
ATOM     51  H   LIG d   1       7.569   1.985  -6.555  0.00  0.00     0.036 H 
ATOM     52  H   LIG d   1       8.256   1.103  -7.941  0.00  0.00     0.036 H 
BRANCH  50  53
ATOM     53  C   LIG d   1       7.735  -0.125  -6.274  0.00  0.00     0.213 C 
ATOM     54  O   LIG d   1       6.597  -0.209  -5.866  0.00  0.00    -0.276 OA
ATOM     55  N   LIG d   1       8.555  -1.192  -6.210  0.00  0.00    -0.311 N 
ATOM     56  H   LIG d   1       9.466  -1.124  -6.537  0.00  0.00     0.149 HD
BRANCH  55  57
ATOM     57  C   LIG d   1       8.071  -2.456  -5.648  0.00  0.00     0.037 C 
ATOM     58  H   LIG d   1       7.126  -2.286  -5.135  0.00  0.00     0.051 H 
ATOM     59  H   LIG d   1       7.924  -3.178  -6.452  0.00  0.00     0.051 H 
BRANCH  57  60
ATOM     60  C   LIG d   1       9.086  -2.990  -4.670  0.00  0.00    -0.028 A 
ATOM     61  C   LIG d   1      10.444  -2.816  -4.890  0.00  0.00    -0.039 A 
ATOM     62  C   LIG d   1      11.344  -3.314  -3.968  0.00  0.00     0.028 A 
ATOM     63  H   LIG d   1      10.792  -2.294  -5.769  0.00  0.00     0.064 H 
ATOM     64  N   LIG d   1      10.926  -3.958  -2.896  0.00  0.00    -0.263 NA
ATOM     65  H   LIG d   1      12.404  -3.178  -4.130  0.00  0.00     0.083 H 
ATOM     66  C   LIG d   1       9.643  -4.147  -2.657  0.00  0.00     0.028 A 
ATOM     67  C   LIG d   1       8.684  -3.671  -3.531  0.00  0.00    -0.039 A 
ATOM     68  H   LIG d   1       9.338  -4.679  -1.768  0.00  0.00     0.083 H 
ATOM     69  H   LIG d   1       7.635  -3.829  -3.330  0.00  0.00     0.064 H 
ENDBRANCH  57  60
ENDBRANCH  55  57
ENDBRANCH  50  53
ENDBRANCH  47  50
ENDBRANCH  41  47
ENDBRANCH   1  41
BRANCH   7  70
ATOM     70  C   LIG d   1      11.543   4.616  -4.979  0.00  0.00    -0.059 C 
ATOM     71  H   LIG d   1      11.944   5.578  -5.298  0.00  0.00     0.024 H 
ATOM     72  H   LIG d   1      12.110   4.252  -4.123  0.00  0.00     0.024 H 
ATOM     73  H   LIG d   1      11.621   3.900  -5.798  0.00  0.00     0.024 H 
ENDBRANCH   7  70
BRANCH  14  74
ATOM     74  O   LIG d   1      11.279   4.370  -0.482  0.00  0.00    -0.392 OA
ATOM     75  H   LIG d   1      12.132   4.057  -0.812  0.00  0.00     0.210 HD
ENDBRANCH  14  74
BRANCH  19  76
ATOM     76  C   LIG d   1      12.983   7.781  -2.938  0.00  0.00    -0.059 C 
ATOM     77  H   LIG d   1      13.611   7.487  -2.097  0.00  0.00     0.024 H 
ATOM     78  H   LIG d   1      12.912   6.955  -3.644  0.00  0.00     0.024 H 
ATOM     79  H   LIG d   1      13.420   8.647  -3.433  0.00  0.00     0.024 H 
ENDBRANCH  19  76
BRANCH  22  80
ATOM     80  O   LIG d   1       8.472  10.167  -0.403  0.00  0.00    -0.392 OA
ATOM     81  H   LIG d   1       8.047   9.453   0.091  0.00  0.00     0.210 HD
ENDBRANCH  22  80
TORSDOF 11
ENDMDL
MODEL 10
REMARK VINA RESULT:      -5.6      4.408      7.487
REMARK  11 active torsions:
REMARK  status: ('A' for Active; 'I' for Inactive)
REMARK    1  A    between atoms: C_1  and  C_2 
REMARK    2  A    between atoms: C_2  and  C_4 
REMARK    3  A    between atoms: C_2  and  C_16 
REMARK    4  A    between atoms: C_4  and  C_5 
REMARK    5  A    between atoms: C_5  and  C_6 
REMARK       I    between atoms: C_6  and  N_8 
REMARK    6  A    between atoms: N_8  and  C_9 
REMARK    7  A    between atoms: C_9  and  C_10 
REMARK    8  A    between atoms: C_22  and  C_43 
REMARK    9  A    between atoms: C_29  and  O_42 
REMARK   10  A    between atoms: C_34  and  C_41 
REMARK   11  A    between atoms: C_37  and  O_40 
ROOT
ATOM      1  C   LIG d   1       9.113   4.693  -5.383  0.00  0.00    -0.033 C 
ATOM      2  H   LIG d   1       8.068   4.675  -5.694  0.00  0.00     0.031 H 
ATOM      3  C   LIG d   1       9.371   5.895  -4.441  0.00  0.00    -0.049 C 
ATOM      4  C   LIG d   1      10.366   6.828  -5.183  0.00  0.00    -0.049 C 
ATOM      5  C   LIG d   1      10.139   6.468  -6.656  0.00  0.00    -0.030 C 
ATOM      6  H   LIG d   1       9.208   6.906  -7.014  0.00  0.00     0.031 H 
ATOM      7  C   LIG d   1      10.020   4.920  -6.588  0.00  0.00    -0.026 C 
ATOM      8  C   LIG d   1       9.498   4.443  -7.929  0.00  0.00    -0.047 C 
ATOM      9  C   LIG d   1      10.565   4.785  -8.982  0.00  0.00    -0.049 C 
ATOM     10  C   LIG d   1      10.875   6.277  -8.995  0.00  0.00    -0.030 C 
ATOM     11  H   LIG d   1       9.983   6.820  -9.307  0.00  0.00     0.031 H 
ATOM     12  C   LIG d   1      11.278   6.802  -7.602  0.00  0.00    -0.008 C 
ATOM     13  H   LIG d   1      12.187   6.299  -7.275  0.00  0.00     0.033 H 
ATOM     14  C   LIG d   1      11.493   8.315  -7.661  0.00  0.00     0.059 C 
ATOM     15  H   LIG d   1      10.570   8.801  -7.979  0.00  0.00     0.060 H 
ATOM     16  C   LIG d   1      12.608   8.632  -8.660  0.00  0.00    -0.023 C 
ATOM     17  C   LIG d   1      12.212   8.120 -10.047  0.00  0.00    -0.031 C 
ATOM     18  H   LIG d   1      13.006   8.348 -10.759  0.00  0.00     0.031 H 
ATOM     19  C   LIG d   1      12.002   6.569  -9.986  0.00  0.00    -0.026 C 
ATOM     20  C   LIG d   1      11.605   6.060 -11.374  0.00  0.00    -0.045 C 
ATOM     21  C   LIG d   1      10.319   6.758 -11.822  0.00  0.00    -0.026 C 
ATOM     22  C   LIG d   1      10.553   8.269 -11.882  0.00  0.00     0.056 C 
ATOM     23  H   LIG d   1      11.349   8.485 -12.594  0.00  0.00     0.059 H 
ATOM     24  C   LIG d   1      10.916   8.801 -10.491  0.00  0.00    -0.023 C 
ATOM     25  H   LIG d   1       8.439   6.423  -4.243  0.00  0.00     0.027 H 
ATOM     26  H   LIG d   1       9.811   5.549  -3.505  0.00  0.00     0.027 H 
ATOM     27  H   LIG d   1      10.124   7.875  -5.000  0.00  0.00     0.027 H 
ATOM     28  H   LIG d   1      11.392   6.612  -4.888  0.00  0.00     0.027 H 
ATOM     29  H   LIG d   1       9.334   3.366  -7.901  0.00  0.00     0.027 H 
ATOM     30  H   LIG d   1       8.565   4.955  -8.167  0.00  0.00     0.027 H 
ATOM     31  H   LIG d   1      11.478   4.232  -8.757  0.00  0.00     0.027 H 
ATOM     32  H   LIG d   1      10.202   4.487  -9.966  0.00  0.00     0.027 H 
ATOM     33  H   LIG d   1      12.762   9.710  -8.702  0.00  0.00     0.029 H 
ATOM     34  H   LIG d   1      13.530   8.145  -8.342  0.00  0.00     0.029 H 
ATOM     35  H   LIG d   1      12.403   6.277 -12.084  0.00  0.00     0.027 H 
ATOM     36  H   LIG d   1      11.439   4.983 -11.332  0.00  0.00     0.027 H 
ATOM     37  H   LIG d   1      10.034   6.395 -12.809  0.00  0.00     0.029 H 
ATOM     38  H   LIG d   1       9.522   6.542 -11.111  0.00  0.00     0.029 H 
ATOM     39  H   LIG d   1      10.123   8.573  -9.778  0.00  0.00     0.029 H 
ATOM     40  H   LIG d   1      11.068   9.880 -10.531  0.00  0.00     0.029 H 
ENDROOT
BRANCH   1  41
ATOM     41  C   LIG d   1       9.479   3.383  -4.684  0.00  0.00    -0.040 C 
ATOM     42  H   LIG d   1      10.443   3.032  -5.050  0.00  0.00     0.030 H 
BRANCH  41  43
ATOM     43  C   LIG d   1       8.408   2.331  -4.977  0.00  0.00    -0.062 C 
ATOM     44  H   LIG d   1       7.806   2.165  -4.083  0.00  0.00     0.023 H 
ATOM     45  H   LIG d   1       7.767   2.680  -5.787  0.00  0.00     0.023 H 
ATOM     46  H   LIG d   1       8.887   1.396  -5.271  0.00  0.00     0.023 H 
ENDBRANCH  41  43
BRANCH  41  47
ATOM     47  C   LIG d   1       9.564   3.616  -3.173  0.00  0.00    -0.042 C 
ATOM     48  H   LIG d   1       9.463   4.681  -2.964  0.00  0.00     0.027 H 
ATOM     49  H   LIG d   1       8.762   3.071  -2.676  0.00  0.00     0.027 H 
BRANCH  47  50
ATOM     50  C   LIG d   1      10.915   3.120  -2.655  0.00  0.00     0.024 C 
ATOM     51  H   LIG d   1      10.756   2.317  -1.935  0.00  0.00     0.036 H 
ATOM     52  H   LIG d   1      11.509   2.748  -3.490  0.00  0.00     0.036 H 
BRANCH  50  53
ATOM     53  C   LIG d   1      11.645   4.257  -1.987  0.00  0.00     0.213 C 
ATOM     54  O   LIG d   1      12.568   4.801  -2.554  0.00  0.00    -0.276 OA
ATOM     55  N   LIG d   1      11.271   4.668  -0.759  0.00  0.00    -0.311 N 
ATOM     56  H   LIG d   1      10.532   4.232  -0.306  0.00  0.00     0.149 HD
BRANCH  55  57
ATOM     57  C   LIG d   1      11.980   5.773  -0.108  0.00  0.00     0.037 C 
ATOM     58  H   LIG d   1      12.135   5.535   0.943  0.00  0.00     0.051 H 
ATOM     59  H   LIG d   1      12.945   5.920  -0.594  0.00  0.00     0.051 H 
BRANCH  57  60
ATOM     60  C   LIG d   1      11.161   7.032  -0.225  0.00  0.00    -0.028 A 
ATOM     61  C   LIG d   1      11.551   8.195   0.422  0.00  0.00    -0.039 A 
ATOM     62  C   LIG d   1      10.779   9.332   0.286  0.00  0.00     0.028 A 
ATOM     63  H   LIG d   1      12.450   8.211   1.022  0.00  0.00     0.064 H 
ATOM     64  N   LIG d   1       9.678   9.318  -0.439  0.00  0.00    -0.263 NA
ATOM     65  H   LIG d   1      11.079  10.243   0.784  0.00  0.00     0.083 H 
ATOM     66  C   LIG d   1       9.274   8.230  -1.065  0.00  0.00     0.028 A 
ATOM     67  C   LIG d   1       9.998   7.056  -0.980  0.00  0.00    -0.039 A 
ATOM     68  H   LIG d   1       8.366   8.256  -1.650  0.00  0.00     0.083 H 
ATOM     69  H   LIG d   1       9.662   6.168  -1.494  0.00  0.00     0.064 H 
ENDBRANCH  57  60
ENDBRANCH  55  57
ENDBRANCH  50  53
ENDBRANCH  47  50
ENDBRANCH  41  47
ENDBRANCH   1  41
BRANCH   7  70
ATOM     70  C   LIG d   1      11.396   4.307  -6.322  0.00  0.00    -0.059 C 
ATOM     71  H   LIG d   1      11.427   3.911  -5.307  0.00  0.00     0.024 H 
ATOM     72  H   LIG d   1      11.578   3.501  -7.032  0.00  0.00     0.024 H 
ATOM     73  H   LIG d   1      12.164   5.073  -6.436  0.00  0.00     0.024 H 
ENDBRANCH   7  70
BRANCH  14  74
ATOM     74  O   LIG d   1      11.862   8.795  -6.368  0.00  0.00    -0.392 OA
ATOM     75  H   LIG d   1      11.449   9.636  -6.127  0.00  0.00     0.210 HD
ENDBRANCH  14  74
BRANCH  19  76
ATOM     76  C   LIG d   1      13.283   5.867  -9.526  0.00  0.00    -0.059 C 
ATOM     77  H   LIG d   1      13.972   6.604  -9.115  0.00  0.00     0.024 H 
ATOM     78  H   LIG d   1      13.038   5.131  -8.761  0.00  0.00     0.024 H 
ATOM     79  H   LIG d   1      13.749   5.368 -10.375  0.00  0.00     0.024 H 
ENDBRANCH  19  76
BRANCH  22  80
ATOM     80  O   LIG d   1       9.352   8.921 -12.298  0.00  0.00    -0.392 OA
ATOM     81  H   LIG d   1       9.459   9.864 -12.479  0.00  0.00     0.210 HD
ENDBRANCH  22  80
TORSDOF 11
ENDMDL
