MODEL 1
REMARK VINA RESULT:      -6.7      0.000      0.000
REMARK  11 active torsions:
REMARK  status: ('A' for Active; 'I' for Inactive)
REMARK    1  A    between atoms: C_1  and  C_2 
REMARK    2  A    between atoms: C_4  and  N_33 
REMARK    3  A    between atoms: C_8  and  C_32 
REMARK    4  A    between atoms: C_11  and  O_31 
REMARK    5  A    between atoms: C_13  and  C_17 
REMARK    6  A    between atoms: C_17  and  C_19 
REMARK    7  A    between atoms: C_17  and  C_20 
REMARK       I    between atoms: C_20  and  N_22 
REMARK    8  A    between atoms: N_22  and  C_23 
REMARK    9  A    between atoms: C_23  and  C_24 
REMARK   10  A    between atoms: C_24  and  N_25 
REMARK       I    between atoms: N_33  and  C_34 
REMARK   11  A    between atoms: C_34  and  C_36 
ROOT
ATOM      1  C   LIG d   1       8.956   2.616  -5.062  0.00  0.00    -0.020 C 
ATOM      2  H   LIG d   1       9.797   1.932  -4.870  0.00  0.00     0.032 H 
ATOM      3  C   LIG d   1       9.491   4.033  -5.275  0.00  0.00     0.026 C 
ATOM      4  H   LIG d   1       8.663   4.740  -5.429  0.00  0.00     0.050 H 
ATOM      5  C   LIG d   1      10.440   4.045  -6.474  0.00  0.00    -0.034 C 
ATOM      6  C   LIG d   1       9.687   3.590  -7.726  0.00  0.00    -0.046 C 
ATOM      7  C   LIG d   1       9.152   2.172  -7.512  0.00  0.00    -0.026 C 
ATOM      8  C   LIG d   1       8.203   2.160  -6.312  0.00  0.00    -0.005 C 
ATOM      9  H   LIG d   1       7.362   2.845  -6.503  0.00  0.00     0.033 H 
ATOM     10  C   LIG d   1       7.668   0.744  -6.098  0.00  0.00     0.062 C 
ATOM     11  H   LIG d   1       8.479   0.046  -5.845  0.00  0.00     0.060 H 
ATOM     12  C   LIG d   1       6.914   0.289  -7.349  0.00  0.00    -0.004 C 
ATOM     13  H   LIG d   1       6.073   0.972  -7.540  0.00  0.00     0.033 H 
ATOM     14  C   LIG d   1       7.863   0.299  -8.549  0.00  0.00    -0.047 C 
ATOM     15  C   LIG d   1       8.397   1.717  -8.763  0.00  0.00    -0.047 C 
ATOM     16  H   LIG d   1      10.825   5.064  -6.629  0.00  0.00     0.028 H 
ATOM     17  H   LIG d   1      11.281   3.360  -6.284  0.00  0.00     0.028 H 
ATOM     18  H   LIG d   1       8.846   4.273  -7.917  0.00  0.00     0.027 H 
ATOM     19  H   LIG d   1      10.369   3.598  -8.589  0.00  0.00     0.027 H 
ATOM     20  H   LIG d   1       8.703  -0.384  -8.359  0.00  0.00     0.027 H 
ATOM     21  H   LIG d   1       7.321  -0.028  -9.448  0.00  0.00     0.027 H 
ATOM     22  H   LIG d   1       7.558   2.401  -8.954  0.00  0.00     0.027 H 
ATOM     23  H   LIG d   1       9.080   1.726  -9.626  0.00  0.00     0.027 H 
ENDROOT
BRANCH  12  24
ATOM     24  C   LIG d   1       6.379  -1.129  -7.135  0.00  0.00     0.038 C 
ATOM     25  H   LIG d   1       6.821  -1.563  -6.227  0.00  0.00     0.040 H 
BRANCH  24  26
ATOM     26  C   LIG d   1       6.728  -1.993  -8.348  0.00  0.00    -0.054 C 
ATOM     27  H   LIG d   1       5.819  -2.175  -8.942  0.00  0.00     0.024 H 
ATOM     28  H   LIG d   1       7.141  -2.954  -8.008  0.00  0.00     0.024 H 
ATOM     29  H   LIG d   1       7.472  -1.472  -8.968  0.00  0.00     0.024 H 
ENDBRANCH  24  26
BRANCH  24  30
ATOM     30  C   LIG d   1       4.882  -1.080  -6.966  0.00  0.00     0.216 C 
ATOM     31  O   LIG d   1       4.206  -2.042  -7.261  0.00  0.00    -0.276 OA
ATOM     32  N   LIG d   1       4.295   0.033  -6.485  0.00  0.00    -0.310 N 
ATOM     33  H   LIG d   1       4.908   0.907  -6.217  0.00  0.00     0.149 HD
BRANCH  32  34
ATOM     34  C   LIG d   1       2.840   0.083  -6.320  0.00  0.00     0.052 C 
ATOM     35  H   LIG d   1       2.403   0.712  -7.110  0.00  0.00     0.051 H 
ATOM     36  H   LIG d   1       2.428  -0.936  -6.393  0.00  0.00     0.051 H 
BRANCH  34  37
ATOM     37  C   LIG d   1       2.500   0.673  -4.951  0.00  0.00    -0.016 C 
ATOM     38  H   LIG d   1       2.492   1.772  -5.018  0.00  0.00     0.083 H 
ATOM     39  H   LIG d   1       1.507   0.319  -4.635  0.00  0.00     0.083 H 
BRANCH  37  40
ATOM     40  N   LIG d   1       3.507   0.249  -3.970  0.00  0.00     0.240 N 
ATOM     41  C   LIG d   1       3.722   1.287  -2.952  0.00  0.00    -0.008 C 
ATOM     42  C   LIG d   1       4.818   0.830  -1.987  0.00  0.00     0.088 C 
ATOM     43  H   LIG d   1       4.028   2.224  -3.442  0.00  0.00     0.084 H 
ATOM     44  H   LIG d   1       2.787   1.455  -2.396  0.00  0.00     0.084 H 
ATOM     45  O   LIG d   1       4.446  -0.424  -1.410  0.00  0.00    -0.369 OA
ATOM     46  H   LIG d   1       4.943   1.578  -1.190  0.00  0.00     0.061 H 
ATOM     47  H   LIG d   1       5.766   0.717  -2.534  0.00  0.00     0.061 H 
ATOM     48  C   LIG d   1       4.230  -1.458  -2.374  0.00  0.00     0.088 C 
ATOM     49  C   LIG d   1       3.128  -1.024  -3.343  0.00  0.00    -0.008 C 
ATOM     50  H   LIG d   1       3.925  -2.382  -1.861  0.00  0.00     0.061 H 
ATOM     51  H   LIG d   1       5.159  -1.641  -2.934  0.00  0.00     0.061 H 
ATOM     52  H   LIG d   1       2.183  -0.895  -2.792  0.00  0.00     0.084 H 
ATOM     53  H   LIG d   1       2.997  -1.791  -4.120  0.00  0.00     0.084 H 
ATOM     54  H   LIG d   1       4.455   0.097  -4.507  0.00  0.00     0.204 HD
ENDBRANCH  37  40
ENDBRANCH  34  37
ENDBRANCH  32  34
ENDBRANCH  24  30
ENDBRANCH  12  24
BRANCH  10  55
ATOM     55  O   LIG d   1       6.781   0.733  -4.978  0.00  0.00    -0.391 OA
ATOM     56  H   LIG d   1       7.176   0.572  -3.964  0.00  0.00     0.210 HD
ENDBRANCH  10  55
BRANCH   1  57
ATOM     57  C   LIG d   1       8.007   2.605  -3.862  0.00  0.00    -0.060 C 
ATOM     58  H   LIG d   1       8.494   3.093  -3.004  0.00  0.00     0.023 H 
ATOM     59  H   LIG d   1       7.759   1.565  -3.600  0.00  0.00     0.023 H 
ATOM     60  H   LIG d   1       7.086   3.147  -4.118  0.00  0.00     0.023 H 
ENDBRANCH   1  57
BRANCH   7  61
ATOM     61  C   LIG d   1      10.320   1.221  -7.247  0.00  0.00    -0.059 C 
ATOM     62  H   LIG d   1      11.264   1.788  -7.258  0.00  0.00     0.024 H 
ATOM     63  H   LIG d   1      10.349   0.447  -8.029  0.00  0.00     0.024 H 
ATOM     64  H   LIG d   1      10.190   0.745  -6.265  0.00  0.00     0.024 H 
ENDBRANCH   7  61
BRANCH   3  65
ATOM     65  N   LIG d   1      10.213   4.469  -4.077  0.00  0.00    -0.312 N 
ATOM     66  C   LIG d   1       9.952   5.674  -3.534  0.00  0.00     0.216 C 
ATOM     67  O   LIG d   1       9.118   6.397  -4.035  0.00  0.00    -0.276 OA
ATOM     68  H   LIG d   1      10.969   3.812  -3.622  0.00  0.00     0.149 HD
BRANCH  66  69
ATOM     69  C   LIG d   1      10.694   6.122  -2.301  0.00  0.00     0.036 C 
ATOM     70  C   LIG d   1       9.766   6.965  -1.425  0.00  0.00    -0.042 C 
ATOM     71  C   LIG d   1      10.521   7.420  -0.174  0.00  0.00    -0.052 C 
ATOM     72  H   LIG d   1       9.429   7.846  -1.990  0.00  0.00     0.027 H 
ATOM     73  H   LIG d   1       8.894   6.363  -1.129  0.00  0.00     0.027 H 
ATOM     74  C   LIG d   1      10.990   6.195   0.613  0.00  0.00    -0.053 C 
ATOM     75  H   LIG d   1       9.854   8.027   0.457  0.00  0.00     0.026 H 
ATOM     76  H   LIG d   1      11.392   8.022  -0.470  0.00  0.00     0.026 H 
ATOM     77  C   LIG d   1      11.919   5.351  -0.263  0.00  0.00    -0.052 C 
ATOM     78  H   LIG d   1      10.119   5.593   0.908  0.00  0.00     0.026 H 
ATOM     79  H   LIG d   1      11.532   6.522   1.512  0.00  0.00     0.026 H 
ATOM     80  C   LIG d   1      11.164   4.897  -1.515  0.00  0.00    -0.042 C 
ATOM     81  H   LIG d   1      12.256   4.471   0.302  0.00  0.00     0.026 H 
ATOM     82  H   LIG d   1      12.790   5.953  -0.560  0.00  0.00     0.026 H 
ATOM     83  H   LIG d   1      10.292   4.294  -1.218  0.00  0.00     0.027 H 
ATOM     84  H   LIG d   1      11.831   4.291  -2.145  0.00  0.00     0.027 H 
ATOM     85  H   LIG d   1      11.563   6.721  -2.612  0.00  0.00     0.039 H 
ENDBRANCH  66  69
ENDBRANCH   3  65
TORSDOF 11
ENDMDL
MODEL 2
REMARK VINA RESULT:      -6.5      2.853      5.096
REMARK  11 active torsions:
REMARK  status: ('A' for Active; 'I' for Inactive)
REMARK    1  A    between atoms: C_1  and  C_2 
REMARK    2  A    between atoms: C_4  and  N_33 
REMARK    3  A    between atoms: C_8  and  C_32 
REMARK    4  A    between atoms: C_11  and  O_31 
REMARK    5  A    between atoms: C_13  and  C_17 
REMARK    6  A    between atoms: C_17  and  C_19 
REMARK    7  A    between atoms: C_17  and  C_20 
REMARK       I    between atoms: C_20  and  N_22 
REMARK    8  A    between atoms: N_22  and  C_23 
REMARK    9  A    between atoms: C_23  and  C_24 
REMARK   10  A    between atoms: C_24  and  N_25 
REMARK       I    between atoms: N_33  and  C_34 
REMARK   11  A    between atoms: C_34  and  C_36 
ROOT
ATOM      1  C   LIG d   1      10.399   7.021  -2.542  0.00  0.00    -0.020 C 
ATOM      2  H   LIG d   1      11.496   6.958  -2.604  0.00  0.00     0.032 H 
ATOM      3  C   LIG d   1       9.963   8.481  -2.668  0.00  0.00     0.026 C 
ATOM      4  H   LIG d   1       8.871   8.569  -2.569  0.00  0.00     0.050 H 
ATOM      5  C   LIG d   1      10.428   9.038  -4.015  0.00  0.00    -0.034 C 
ATOM      6  C   LIG d   1       9.804   8.219  -5.148  0.00  0.00    -0.046 C 
ATOM      7  C   LIG d   1      10.240   6.757  -5.021  0.00  0.00    -0.026 C 
ATOM      8  C   LIG d   1       9.776   6.202  -3.674  0.00  0.00    -0.005 C 
ATOM      9  H   LIG d   1       8.679   6.264  -3.610  0.00  0.00     0.033 H 
ATOM     10  C   LIG d   1      10.212   4.741  -3.546  0.00  0.00     0.062 C 
ATOM     11  H   LIG d   1      11.308   4.651  -3.546  0.00  0.00     0.060 H 
ATOM     12  C   LIG d   1       9.588   3.922  -4.678  0.00  0.00    -0.004 C 
ATOM     13  H   LIG d   1       8.492   3.984  -4.615  0.00  0.00     0.033 H 
ATOM     14  C   LIG d   1      10.054   4.478  -6.026  0.00  0.00    -0.047 C 
ATOM     15  C   LIG d   1       9.617   5.939  -6.153  0.00  0.00    -0.047 C 
ATOM     16  H   LIG d   1      10.114  10.088  -4.107  0.00  0.00     0.028 H 
ATOM     17  H   LIG d   1      11.524   8.975  -4.079  0.00  0.00     0.028 H 
ATOM     18  H   LIG d   1       8.708   8.281  -5.085  0.00  0.00     0.027 H 
ATOM     19  H   LIG d   1      10.138   8.618  -6.116  0.00  0.00     0.027 H 
ATOM     20  H   LIG d   1      11.149   4.415  -6.090  0.00  0.00     0.027 H 
ATOM     21  H   LIG d   1       9.605   3.889  -6.840  0.00  0.00     0.027 H 
ATOM     22  H   LIG d   1       8.521   6.001  -6.089  0.00  0.00     0.027 H 
ATOM     23  H   LIG d   1       9.951   6.339  -7.122  0.00  0.00     0.027 H 
ENDROOT
BRANCH  12  24
ATOM     24  C   LIG d   1      10.024   2.461  -4.551  0.00  0.00     0.038 C 
ATOM     25  H   LIG d   1      10.818   2.372  -3.796  0.00  0.00     0.040 H 
BRANCH  24  26
ATOM     26  C   LIG d   1      10.535   1.962  -5.904  0.00  0.00    -0.054 C 
ATOM     27  H   LIG d   1      11.592   2.244  -6.023  0.00  0.00     0.024 H 
ATOM     28  H   LIG d   1       9.942   2.418  -6.711  0.00  0.00     0.024 H 
ATOM     29  H   LIG d   1      10.440   0.867  -5.952  0.00  0.00     0.024 H 
ENDBRANCH  24  26
BRANCH  24  30
ATOM     30  C   LIG d   1       8.850   1.623  -4.117  0.00  0.00     0.216 C 
ATOM     31  O   LIG d   1       7.988   2.104  -3.414  0.00  0.00    -0.276 OA
ATOM     32  N   LIG d   1       8.758   0.337  -4.511  0.00  0.00    -0.310 N 
ATOM     33  H   LIG d   1       9.540  -0.100  -5.150  0.00  0.00     0.149 HD
BRANCH  32  34
ATOM     34  C   LIG d   1       7.617  -0.479  -4.090  0.00  0.00     0.052 C 
ATOM     35  H   LIG d   1       7.898  -1.543  -4.116  0.00  0.00     0.051 H 
ATOM     36  H   LIG d   1       7.326  -0.202  -3.065  0.00  0.00     0.051 H 
BRANCH  34  37
ATOM     37  C   LIG d   1       6.439  -0.240  -5.036  0.00  0.00    -0.016 C 
ATOM     38  H   LIG d   1       6.735   0.479  -5.815  0.00  0.00     0.083 H 
ATOM     39  H   LIG d   1       6.149  -1.191  -5.507  0.00  0.00     0.083 H 
BRANCH  37  40
ATOM     40  N   LIG d   1       5.302   0.299  -4.278  0.00  0.00     0.240 N 
ATOM     41  C   LIG d   1       4.031  -0.243  -4.778  0.00  0.00    -0.008 C 
ATOM     42  C   LIG d   1       2.872   0.388  -4.002  0.00  0.00     0.088 C 
ATOM     43  H   LIG d   1       3.929  -0.009  -5.848  0.00  0.00     0.084 H 
ATOM     44  H   LIG d   1       4.016  -1.334  -4.639  0.00  0.00     0.084 H 
ATOM     45  O   LIG d   1       3.052   0.144  -2.604  0.00  0.00    -0.369 OA
ATOM     46  H   LIG d   1       1.922  -0.056  -4.332  0.00  0.00     0.061 H 
ATOM     47  H   LIG d   1       2.854   1.473  -4.186  0.00  0.00     0.061 H 
ATOM     48  C   LIG d   1       4.281   0.659  -2.084  0.00  0.00     0.088 C 
ATOM     49  C   LIG d   1       5.453   0.031  -2.841  0.00  0.00    -0.008 C 
ATOM     50  H   LIG d   1       4.360   0.413  -1.015  0.00  0.00     0.061 H 
ATOM     51  H   LIG d   1       4.306   1.752  -2.211  0.00  0.00     0.061 H 
ATOM     52  H   LIG d   1       5.462  -1.056  -2.669  0.00  0.00     0.084 H 
ATOM     53  H   LIG d   1       6.398   0.466  -2.484  0.00  0.00     0.084 H 
ATOM     54  H   LIG d   1       5.290   1.389  -4.423  0.00  0.00     0.204 HD
ENDBRANCH  37  40
ENDBRANCH  34  37
ENDBRANCH  32  34
ENDBRANCH  24  30
ENDBRANCH  12  24
BRANCH  10  55
ATOM     55  O   LIG d   1       9.778   4.221  -2.288  0.00  0.00    -0.391 OA
ATOM     56  H   LIG d   1       9.823   4.850  -1.387  0.00  0.00     0.210 HD
ENDBRANCH  10  55
BRANCH   1  57
ATOM     57  C   LIG d   1       9.934   6.465  -1.194  0.00  0.00    -0.060 C 
ATOM     58  H   LIG d   1       8.834   6.449  -1.163  0.00  0.00     0.023 H 
ATOM     59  H   LIG d   1      10.315   7.103  -0.383  0.00  0.00     0.023 H 
ATOM     60  H   LIG d   1      10.319   5.443  -1.067  0.00  0.00     0.023 H 
ENDBRANCH   1  57
BRANCH   7  61
ATOM     61  C   LIG d   1      11.765   6.671  -5.110  0.00  0.00    -0.059 C 
ATOM     62  H   LIG d   1      12.167   7.635  -5.456  0.00  0.00     0.024 H 
ATOM     63  H   LIG d   1      12.048   5.880  -5.820  0.00  0.00     0.024 H 
ATOM     64  H   LIG d   1      12.177   6.438  -4.117  0.00  0.00     0.024 H 
ENDBRANCH   7  61
BRANCH   3  65
ATOM     65  N   LIG d   1      10.560   9.265  -1.584  0.00  0.00    -0.312 N 
ATOM     66  C   LIG d   1       9.769   9.911  -0.705  0.00  0.00     0.216 C 
ATOM     67  O   LIG d   1       8.563   9.843  -0.810  0.00  0.00    -0.276 OA
ATOM     68  H   LIG d   1      11.654   9.327  -1.489  0.00  0.00     0.149 HD
BRANCH  66  69
ATOM     69  C   LIG d   1      10.383  10.717   0.410  0.00  0.00     0.036 C 
ATOM     70  C   LIG d   1      11.518   9.919   1.053  0.00  0.00    -0.042 C 
ATOM     71  C   LIG d   1      12.141  10.737   2.185  0.00  0.00    -0.052 C 
ATOM     72  H   LIG d   1      11.119   8.977   1.458  0.00  0.00     0.027 H 
ATOM     73  H   LIG d   1      12.285   9.697   0.296  0.00  0.00     0.027 H 
ATOM     74  C   LIG d   1      12.695  12.047   1.622  0.00  0.00    -0.053 C 
ATOM     75  H   LIG d   1      12.957  10.163   2.648  0.00  0.00     0.026 H 
ATOM     76  H   LIG d   1      11.374  10.958   2.943  0.00  0.00     0.026 H 
ATOM     77  C   LIG d   1      11.560  12.847   0.980  0.00  0.00    -0.052 C 
ATOM     78  H   LIG d   1      13.461  11.826   0.865  0.00  0.00     0.026 H 
ATOM     79  H   LIG d   1      13.143  12.636   2.437  0.00  0.00     0.026 H 
ATOM     80  C   LIG d   1      10.937  12.028  -0.152  0.00  0.00    -0.042 C 
ATOM     81  H   LIG d   1      11.958  13.789   0.575  0.00  0.00     0.026 H 
ATOM     82  H   LIG d   1      10.793  13.068   1.736  0.00  0.00     0.026 H 
ATOM     83  H   LIG d   1      11.704  11.807  -0.910  0.00  0.00     0.027 H 
ATOM     84  H   LIG d   1      10.121  12.602  -0.614  0.00  0.00     0.027 H 
ATOM     85  H   LIG d   1       9.605  10.932   1.158  0.00  0.00     0.039 H 
ENDBRANCH  66  69
ENDBRANCH   3  65
TORSDOF 11
ENDMDL
MODEL 3
REMARK VINA RESULT:      -6.1      5.005      6.707
REMARK  11 active torsions:
REMARK  status: ('A' for Active; 'I' for Inactive)
REMARK    1  A    between atoms: C_1  and  C_2 
REMARK    2  A    between atoms: C_4  and  N_33 
REMARK    3  A    between atoms: C_8  and  C_32 
REMARK    4  A    between atoms: C_11  and  O_31 
REMARK    5  A    between atoms: C_13  and  C_17 
REMARK    6  A    between atoms: C_17  and  C_19 
REMARK    7  A    between atoms: C_17  and  C_20 
REMARK       I    between atoms: C_20  and  N_22 
REMARK    8  A    between atoms: N_22  and  C_23 
REMARK    9  A    between atoms: C_23  and  C_24 
REMARK   10  A    between atoms: C_24  and  N_25 
REMARK       I    between atoms: N_33  and  C_34 
REMARK   11  A    between atoms: C_34  and  C_36 
ROOT
ATOM      1  C   LIG d   1       6.888  -0.026  -5.094  0.00  0.00    -0.020 C 
ATOM      2  H   LIG d   1       6.103   0.378  -5.752  0.00  0.00     0.032 H 
ATOM      3  C   LIG d   1       7.154   0.956  -3.954  0.00  0.00     0.026 C 
ATOM      4  H   LIG d   1       7.964   0.589  -3.306  0.00  0.00     0.050 H 
ATOM      5  C   LIG d   1       5.870   1.161  -3.147  0.00  0.00    -0.034 C 
ATOM      6  C   LIG d   1       5.412  -0.180  -2.569  0.00  0.00    -0.046 C 
ATOM      7  C   LIG d   1       5.146  -1.164  -3.711  0.00  0.00    -0.026 C 
ATOM      8  C   LIG d   1       6.430  -1.367  -4.518  0.00  0.00    -0.005 C 
ATOM      9  H   LIG d   1       7.216  -1.771  -3.861  0.00  0.00     0.033 H 
ATOM     10  C   LIG d   1       6.165  -2.350  -5.659  0.00  0.00     0.062 C 
ATOM     11  H   LIG d   1       5.427  -1.948  -6.368  0.00  0.00     0.060 H 
ATOM     12  C   LIG d   1       5.708  -3.691  -5.082  0.00  0.00    -0.004 C 
ATOM     13  H   LIG d   1       6.493  -4.095  -4.426  0.00  0.00     0.033 H 
ATOM     14  C   LIG d   1       4.423  -3.487  -4.276  0.00  0.00    -0.047 C 
ATOM     15  C   LIG d   1       4.689  -2.505  -3.133  0.00  0.00    -0.047 C 
ATOM     16  H   LIG d   1       6.061   1.867  -2.326  0.00  0.00     0.028 H 
ATOM     17  H   LIG d   1       5.085   1.564  -3.803  0.00  0.00     0.028 H 
ATOM     18  H   LIG d   1       6.197  -0.584  -1.913  0.00  0.00     0.027 H 
ATOM     19  H   LIG d   1       4.489  -0.034  -1.989  0.00  0.00     0.027 H 
ATOM     20  H   LIG d   1       3.638  -3.084  -4.932  0.00  0.00     0.027 H 
ATOM     21  H   LIG d   1       4.095  -4.451  -3.861  0.00  0.00     0.027 H 
ATOM     22  H   LIG d   1       5.474  -2.908  -2.477  0.00  0.00     0.027 H 
ATOM     23  H   LIG d   1       3.766  -2.357  -2.553  0.00  0.00     0.027 H 
ENDROOT
BRANCH  12  24
ATOM     24  C   LIG d   1       5.442  -4.674  -6.224  0.00  0.00     0.038 C 
ATOM     25  H   LIG d   1       6.250  -4.611  -6.967  0.00  0.00     0.040 H 
BRANCH  24  26
ATOM     26  C   LIG d   1       4.102  -4.341  -6.881  0.00  0.00    -0.054 C 
ATOM     27  H   LIG d   1       3.883  -3.272  -6.744  0.00  0.00     0.024 H 
ATOM     28  H   LIG d   1       3.306  -4.941  -6.417  0.00  0.00     0.024 H 
ATOM     29  H   LIG d   1       4.154  -4.569  -7.957  0.00  0.00     0.024 H 
ENDBRANCH  24  26
BRANCH  24  30
ATOM     30  C   LIG d   1       5.400  -6.078  -5.677  0.00  0.00     0.216 C 
ATOM     31  O   LIG d   1       4.339  -6.577  -5.368  0.00  0.00    -0.276 OA
ATOM     32  N   LIG d   1       6.542  -6.779  -5.533  0.00  0.00    -0.310 N 
ATOM     33  H   LIG d   1       7.505  -6.326  -5.813  0.00  0.00     0.149 HD
BRANCH  32  34
ATOM     34  C   LIG d   1       6.502  -8.144  -5.001  0.00  0.00     0.052 C 
ATOM     35  H   LIG d   1       5.645  -8.246  -4.318  0.00  0.00     0.051 H 
ATOM     36  H   LIG d   1       6.396  -8.858  -5.833  0.00  0.00     0.051 H 
BRANCH  34  37
ATOM     37  C   LIG d   1       7.797  -8.435  -4.242  0.00  0.00    -0.016 C 
ATOM     38  H   LIG d   1       8.565  -8.784  -4.949  0.00  0.00     0.083 H 
ATOM     39  H   LIG d   1       8.146  -7.516  -3.746  0.00  0.00     0.083 H 
BRANCH  37  40
ATOM     40  N   LIG d   1       7.551  -9.474  -3.233  0.00  0.00     0.240 N 
ATOM     41  C   LIG d   1       8.071  -9.067  -1.920  0.00  0.00    -0.008 C 
ATOM     42  C   LIG d   1       7.847 -10.199  -0.914  0.00  0.00     0.088 C 
ATOM     43  H   LIG d   1       9.147  -8.853  -2.002  0.00  0.00     0.084 H 
ATOM     44  H   LIG d   1       7.543  -8.163  -1.580  0.00  0.00     0.084 H 
ATOM     45  O   LIG d   1       6.455 -10.521  -0.869  0.00  0.00    -0.369 OA
ATOM     46  H   LIG d   1       8.182  -9.878   0.083  0.00  0.00     0.061 H 
ATOM     47  H   LIG d   1       8.420 -11.085  -1.225  0.00  0.00     0.061 H 
ATOM     48  C   LIG d   1       5.916 -10.923  -2.131  0.00  0.00     0.088 C 
ATOM     49  C   LIG d   1       6.120  -9.798  -3.149  0.00  0.00    -0.008 C 
ATOM     50  H   LIG d   1       4.841 -11.130  -2.024  0.00  0.00     0.061 H 
ATOM     51  H   LIG d   1       6.431 -11.830  -2.480  0.00  0.00     0.061 H 
ATOM     52  H   LIG d   1       5.560  -8.906  -2.829  0.00  0.00     0.084 H 
ATOM     53  H   LIG d   1       5.759 -10.123  -4.135  0.00  0.00     0.084 H 
ATOM     54  H   LIG d   1       8.089 -10.380  -3.547  0.00  0.00     0.204 HD
ENDBRANCH  37  40
ENDBRANCH  34  37
ENDBRANCH  32  34
ENDBRANCH  24  30
ENDBRANCH  12  24
BRANCH  10  55
ATOM     55  O   LIG d   1       7.364  -2.541  -6.413  0.00  0.00    -0.391 OA
ATOM     56  H   LIG d   1       8.316  -2.731  -5.895  0.00  0.00     0.210 HD
ENDBRANCH  10  55
BRANCH   1  57
ATOM     57  C   LIG d   1       8.172  -0.230  -5.901  0.00  0.00    -0.060 C 
ATOM     58  H   LIG d   1       8.899  -0.797  -5.299  0.00  0.00     0.023 H 
ATOM     59  H   LIG d   1       8.600   0.749  -6.165  0.00  0.00     0.023 H 
ATOM     60  H   LIG d   1       7.943  -0.788  -6.821  0.00  0.00     0.023 H 
ENDBRANCH   1  57
BRANCH   7  61
ATOM     61  C   LIG d   1       4.055  -0.602  -4.624  0.00  0.00    -0.059 C 
ATOM     62  H   LIG d   1       3.778   0.408  -4.285  0.00  0.00     0.024 H 
ATOM     63  H   LIG d   1       3.171  -1.256  -4.584  0.00  0.00     0.024 H 
ATOM     64  H   LIG d   1       4.429  -0.553  -5.656  0.00  0.00     0.024 H 
ENDBRANCH   7  61
BRANCH   3  65
ATOM     65  N   LIG d   1       7.592   2.241  -4.507  0.00  0.00    -0.312 N 
ATOM     66  C   LIG d   1       8.760   2.783  -4.108  0.00  0.00     0.216 C 
ATOM     67  O   LIG d   1       9.448   2.207  -3.292  0.00  0.00    -0.276 OA
ATOM     68  H   LIG d   1       6.968   2.762  -5.246  0.00  0.00     0.149 HD
BRANCH  66  69
ATOM     69  C   LIG d   1       9.211   4.103  -4.677  0.00  0.00     0.036 C 
ATOM     70  C   LIG d   1      10.229   4.745  -3.733  0.00  0.00    -0.042 C 
ATOM     71  C   LIG d   1      10.687   6.085  -4.311  0.00  0.00    -0.052 C 
ATOM     72  H   LIG d   1       9.764   4.909  -2.750  0.00  0.00     0.027 H 
ATOM     73  H   LIG d   1      11.097   4.078  -3.621  0.00  0.00     0.027 H 
ATOM     74  C   LIG d   1      11.333   5.857  -5.678  0.00  0.00    -0.053 C 
ATOM     75  H   LIG d   1      11.419   6.548  -3.632  0.00  0.00     0.026 H 
ATOM     76  H   LIG d   1       9.819   6.752  -4.421  0.00  0.00     0.026 H 
ATOM     77  C   LIG d   1      10.315   5.216  -6.624  0.00  0.00    -0.052 C 
ATOM     78  H   LIG d   1      12.200   5.191  -5.567  0.00  0.00     0.026 H 
ATOM     79  H   LIG d   1      11.662   6.821  -6.094  0.00  0.00     0.026 H 
ATOM     80  C   LIG d   1       9.857   3.875  -6.045  0.00  0.00    -0.042 C 
ATOM     81  H   LIG d   1      10.779   5.052  -7.606  0.00  0.00     0.026 H 
ATOM     82  H   LIG d   1       9.447   5.882  -6.734  0.00  0.00     0.026 H 
ATOM     83  H   LIG d   1      10.725   3.208  -5.934  0.00  0.00     0.027 H 
ATOM     84  H   LIG d   1       9.125   3.414  -6.724  0.00  0.00     0.027 H 
ATOM     85  H   LIG d   1       8.334   4.758  -4.783  0.00  0.00     0.039 H 
ENDBRANCH  66  69
ENDBRANCH   3  65
TORSDOF 11
ENDMDL
MODEL 4
REMARK VINA RESULT:      -5.9      2.909      4.348
REMARK  11 active torsions:
REMARK  status: ('A' for Active; 'I' for Inactive)
REMARK    1  A    between atoms: C_1  and  C_2 
REMARK    2  A    between atoms: C_4  and  N_33 
REMARK    3  A    between atoms: C_8  and  C_32 
REMARK    4  A    between atoms: C_11  and  O_31 
REMARK    5  A    between atoms: C_13  and  C_17 
REMARK    6  A    between atoms: C_17  and  C_19 
REMARK    7  A    between atoms: C_17  and  C_20 
REMARK       I    between atoms: C_20  and  N_22 
REMARK    8  A    between atoms: N_22  and  C_23 
REMARK    9  A    between atoms: C_23  and  C_24 
REMARK   10  A    between atoms: C_24  and  N_25 
REMARK       I    between atoms: N_33  and  C_34 
REMARK   11  A    between atoms: C_34  and  C_36 
ROOT
ATOM      1  C   LIG d   1      10.207   6.327  -4.295  0.00  0.00    -0.020 C 
ATOM      2  H   LIG d   1      11.277   6.099  -4.178  0.00  0.00     0.032 H 
ATOM      3  C   LIG d   1      10.047   7.663  -5.022  0.00  0.00     0.026 C 
ATOM      4  H   LIG d   1       8.984   7.929  -5.114  0.00  0.00     0.050 H 
ATOM      5  C   LIG d   1      10.703   7.576  -6.401  0.00  0.00    -0.034 C 
ATOM      6  C   LIG d   1      10.031   6.468  -7.216  0.00  0.00    -0.046 C 
ATOM      7  C   LIG d   1      10.191   5.131  -6.489  0.00  0.00    -0.026 C 
ATOM      8  C   LIG d   1       9.536   5.219  -5.109  0.00  0.00    -0.005 C 
ATOM      9  H   LIG d   1       8.465   5.447  -5.225  0.00  0.00     0.033 H 
ATOM     10  C   LIG d   1       9.696   3.883  -4.382  0.00  0.00     0.062 C 
ATOM     11  H   LIG d   1      10.755   3.655  -4.196  0.00  0.00     0.060 H 
ATOM     12  C   LIG d   1       9.024   2.776  -5.196  0.00  0.00    -0.004 C 
ATOM     13  H   LIG d   1       7.954   3.004  -5.312  0.00  0.00     0.033 H 
ATOM     14  C   LIG d   1       9.680   2.687  -6.575  0.00  0.00    -0.047 C 
ATOM     15  C   LIG d   1       9.519   4.023  -7.303  0.00  0.00    -0.047 C 
ATOM     16  H   LIG d   1      10.587   8.536  -6.924  0.00  0.00     0.028 H 
ATOM     17  H   LIG d   1      11.773   7.347  -6.285  0.00  0.00     0.028 H 
ATOM     18  H   LIG d   1       8.961   6.696  -7.332  0.00  0.00     0.027 H 
ATOM     19  H   LIG d   1      10.502   6.405  -8.207  0.00  0.00     0.027 H 
ATOM     20  H   LIG d   1      10.749   2.459  -6.459  0.00  0.00     0.027 H 
ATOM     21  H   LIG d   1       9.197   1.891  -7.160  0.00  0.00     0.027 H 
ATOM     22  H   LIG d   1       8.450   4.252  -7.419  0.00  0.00     0.027 H 
ATOM     23  H   LIG d   1       9.991   3.961  -8.295  0.00  0.00     0.027 H 
ENDROOT
BRANCH  12  24
ATOM     24  C   LIG d   1       9.184   1.439  -4.468  0.00  0.00     0.038 C 
ATOM     25  H   LIG d   1       9.837   1.565  -3.593  0.00  0.00     0.040 H 
BRANCH  24  26
ATOM     26  C   LIG d   1       9.787   0.408  -5.424  0.00  0.00    -0.054 C 
ATOM     27  H   LIG d   1       9.573   0.703  -6.462  0.00  0.00     0.024 H 
ATOM     28  H   LIG d   1       9.346  -0.580  -5.225  0.00  0.00     0.024 H 
ATOM     29  H   LIG d   1      10.876   0.361  -5.273  0.00  0.00     0.024 H 
ENDBRANCH  24  26
BRANCH  24  30
ATOM     30  C   LIG d   1       7.835   0.959  -3.997  0.00  0.00     0.216 C 
ATOM     31  O   LIG d   1       6.914   1.741  -3.897  0.00  0.00    -0.276 OA
ATOM     32  N   LIG d   1       7.653  -0.340  -3.688  0.00  0.00    -0.310 N 
ATOM     33  H   LIG d   1       8.489  -1.050  -3.778  0.00  0.00     0.149 HD
BRANCH  32  34
ATOM     34  C   LIG d   1       6.342  -0.808  -3.230  0.00  0.00     0.052 C 
ATOM     35  H   LIG d   1       6.455  -1.329  -2.267  0.00  0.00     0.051 H 
ATOM     36  H   LIG d   1       5.669   0.054  -3.103  0.00  0.00     0.051 H 
BRANCH  34  37
ATOM     37  C   LIG d   1       5.752  -1.768  -4.263  0.00  0.00    -0.016 C 
ATOM     38  H   LIG d   1       6.484  -1.934  -5.069  0.00  0.00     0.083 H 
ATOM     39  H   LIG d   1       5.518  -2.729  -3.779  0.00  0.00     0.083 H 
BRANCH  37  40
ATOM     40  N   LIG d   1       4.525  -1.190  -4.826  0.00  0.00     0.240 N 
ATOM     41  C   LIG d   1       3.947  -0.191  -3.916  0.00  0.00    -0.008 C 
ATOM     42  C   LIG d   1       2.642   0.342  -4.513  0.00  0.00     0.088 C 
ATOM     43  H   LIG d   1       3.745  -0.657  -2.941  0.00  0.00     0.084 H 
ATOM     44  H   LIG d   1       4.658   0.639  -3.784  0.00  0.00     0.084 H 
ATOM     45  O   LIG d   1       2.902   0.879  -5.812  0.00  0.00    -0.369 OA
ATOM     46  H   LIG d   1       2.236   1.131  -3.864  0.00  0.00     0.061 H 
ATOM     47  H   LIG d   1       1.913  -0.478  -4.593  0.00  0.00     0.061 H 
ATOM     48  C   LIG d   1       3.464  -0.068  -6.724  0.00  0.00     0.088 C 
ATOM     49  C   LIG d   1       4.778  -0.605  -6.150  0.00  0.00    -0.008 C 
ATOM     50  H   LIG d   1       3.659   0.421  -7.690  0.00  0.00     0.061 H 
ATOM     51  H   LIG d   1       2.761  -0.902  -6.871  0.00  0.00     0.061 H 
ATOM     52  H   LIG d   1       5.502   0.219  -6.055  0.00  0.00     0.084 H 
ATOM     53  H   LIG d   1       5.186  -1.375  -6.820  0.00  0.00     0.084 H 
ATOM     54  H   LIG d   1       3.795  -2.005  -4.946  0.00  0.00     0.204 HD
ENDBRANCH  37  40
ENDBRANCH  34  37
ENDBRANCH  32  34
ENDBRANCH  24  30
ENDBRANCH  12  24
BRANCH  10  55
ATOM     55  O   LIG d   1       9.083   3.965  -3.093  0.00  0.00    -0.391 OA
ATOM     56  H   LIG d   1       7.998   3.822  -2.989  0.00  0.00     0.210 HD
ENDBRANCH  10  55
BRANCH   1  57
ATOM     57  C   LIG d   1       9.552   6.415  -2.916  0.00  0.00    -0.060 C 
ATOM     58  H   LIG d   1       8.673   5.754  -2.883  0.00  0.00     0.023 H 
ATOM     59  H   LIG d   1       9.237   7.452  -2.724  0.00  0.00     0.023 H 
ATOM     60  H   LIG d   1      10.273   6.104  -2.146  0.00  0.00     0.023 H 
ENDBRANCH   1  57
BRANCH   7  61
ATOM     61  C   LIG d   1      11.679   4.814  -6.327  0.00  0.00    -0.059 C 
ATOM     62  H   LIG d   1      12.257   5.373  -7.078  0.00  0.00     0.024 H 
ATOM     63  H   LIG d   1      11.842   3.735  -6.467  0.00  0.00     0.024 H 
ATOM     64  H   LIG d   1      12.008   5.106  -5.319  0.00  0.00     0.024 H 
ENDBRANCH   7  61
BRANCH   3  65
ATOM     65  N   LIG d   1      10.691   8.724  -4.242  0.00  0.00    -0.312 N 
ATOM     66  C   LIG d   1      10.159   9.962  -4.222  0.00  0.00     0.216 C 
ATOM     67  O   LIG d   1       9.148  10.198  -4.848  0.00  0.00    -0.276 OA
ATOM     68  H   LIG d   1      11.607   8.509  -3.674  0.00  0.00     0.149 HD
BRANCH  66  69
ATOM     69  C   LIG d   1      10.821  11.053  -3.420  0.00  0.00     0.036 C 
ATOM     70  C   LIG d   1       9.760  11.820  -2.629  0.00  0.00    -0.042 C 
ATOM     71  C   LIG d   1      10.432  12.927  -1.815  0.00  0.00    -0.052 C 
ATOM     72  H   LIG d   1       9.034  12.265  -3.326  0.00  0.00     0.027 H 
ATOM     73  H   LIG d   1       9.239  11.129  -1.949  0.00  0.00     0.027 H 
ATOM     74  C   LIG d   1      11.441  12.308  -0.846  0.00  0.00    -0.053 C 
ATOM     75  H   LIG d   1       9.668  13.480  -1.246  0.00  0.00     0.026 H 
ATOM     76  H   LIG d   1      10.951  13.618  -2.495  0.00  0.00     0.026 H 
ATOM     77  C   LIG d   1      12.503  11.541  -1.637  0.00  0.00    -0.052 C 
ATOM     78  H   LIG d   1      10.920  11.618  -0.167  0.00  0.00     0.026 H 
ATOM     79  H   LIG d   1      11.924  13.105  -0.261  0.00  0.00     0.026 H 
ATOM     80  C   LIG d   1      11.831  10.434  -2.452  0.00  0.00    -0.042 C 
ATOM     81  H   LIG d   1      13.228  11.096  -0.941  0.00  0.00     0.026 H 
ATOM     82  H   LIG d   1      13.022  12.231  -2.318  0.00  0.00     0.026 H 
ATOM     83  H   LIG d   1      11.310   9.743  -1.771  0.00  0.00     0.027 H 
ATOM     84  H   LIG d   1      12.593   9.883  -3.020  0.00  0.00     0.027 H 
ATOM     85  H   LIG d   1      11.337  11.734  -4.112  0.00  0.00     0.039 H 
ENDBRANCH  66  69
ENDBRANCH   3  65
TORSDOF 11
ENDMDL
MODEL 5
REMARK VINA RESULT:      -5.7      6.321      9.022
REMARK  11 active torsions:
REMARK  status: ('A' for Active; 'I' for Inactive)
REMARK    1  A    between atoms: C_1  and  C_2 
REMARK    2  A    between atoms: C_4  and  N_33 
REMARK    3  A    between atoms: C_8  and  C_32 
REMARK    4  A    between atoms: C_11  and  O_31 
REMARK    5  A    between atoms: C_13  and  C_17 
REMARK    6  A    between atoms: C_17  and  C_19 
REMARK    7  A    between atoms: C_17  and  C_20 
REMARK       I    between atoms: C_20  and  N_22 
REMARK    8  A    between atoms: N_22  and  C_23 
REMARK    9  A    between atoms: C_23  and  C_24 
REMARK   10  A    between atoms: C_24  and  N_25 
REMARK       I    between atoms: N_33  and  C_34 
REMARK   11  A    between atoms: C_34  and  C_36 
ROOT
ATOM      1  C   LIG d   1       4.139  -1.566  -8.358  0.00  0.00    -0.020 C 
ATOM      2  H   LIG d   1       4.902  -1.563  -9.152  0.00  0.00     0.032 H 
ATOM      3  C   LIG d   1       4.272  -0.295  -7.518  0.00  0.00     0.026 C 
ATOM      4  H   LIG d   1       3.544  -0.298  -6.694  0.00  0.00     0.050 H 
ATOM      5  C   LIG d   1       4.071   0.930  -8.411  0.00  0.00    -0.034 C 
ATOM      6  C   LIG d   1       2.677   0.878  -9.042  0.00  0.00    -0.046 C 
ATOM      7  C   LIG d   1       2.544  -0.394  -9.882  0.00  0.00    -0.026 C 
ATOM      8  C   LIG d   1       2.746  -1.619  -8.988  0.00  0.00    -0.005 C 
ATOM      9  H   LIG d   1       1.985  -1.623  -8.193  0.00  0.00     0.033 H 
ATOM     10  C   LIG d   1       2.614  -2.891  -9.827  0.00  0.00     0.062 C 
ATOM     11  H   LIG d   1       3.401  -2.946 -10.594  0.00  0.00     0.060 H 
ATOM     12  C   LIG d   1       1.221  -2.943 -10.457  0.00  0.00    -0.004 C 
ATOM     13  H   LIG d   1       0.459  -2.948  -9.663  0.00  0.00     0.033 H 
ATOM     14  C   LIG d   1       1.019  -1.718 -11.352  0.00  0.00    -0.047 C 
ATOM     15  C   LIG d   1       1.151  -0.447 -10.512  0.00  0.00    -0.047 C 
ATOM     16  H   LIG d   1       4.166   1.845  -7.808  0.00  0.00     0.028 H 
ATOM     17  H   LIG d   1       4.832   0.934  -9.206  0.00  0.00     0.028 H 
ATOM     18  H   LIG d   1       1.916   0.874  -8.248  0.00  0.00     0.027 H 
ATOM     19  H   LIG d   1       2.532   1.758  -9.684  0.00  0.00     0.027 H 
ATOM     20  H   LIG d   1       1.779  -1.715 -12.146  0.00  0.00     0.027 H 
ATOM     21  H   LIG d   1       0.017  -1.756 -11.804  0.00  0.00     0.027 H 
ATOM     22  H   LIG d   1       0.390  -0.450  -9.718  0.00  0.00     0.027 H 
ATOM     23  H   LIG d   1       1.006   0.435 -11.154  0.00  0.00     0.027 H 
ENDROOT
BRANCH  12  24
ATOM     24  C   LIG d   1       1.088  -4.216 -11.297  0.00  0.00     0.038 C 
ATOM     25  H   LIG d   1       1.439  -5.083 -10.720  0.00  0.00     0.040 H 
BRANCH  24  26
ATOM     26  C   LIG d   1       1.916  -4.071 -12.575  0.00  0.00    -0.054 C 
ATOM     27  H   LIG d   1       2.932  -4.456 -12.398  0.00  0.00     0.024 H 
ATOM     28  H   LIG d   1       1.972  -3.010 -12.859  0.00  0.00     0.024 H 
ATOM     29  H   LIG d   1       1.443  -4.644 -13.386  0.00  0.00     0.024 H 
ENDBRANCH  24  26
BRANCH  24  30
ATOM     30  C   LIG d   1      -0.360  -4.430 -11.658  0.00  0.00     0.216 C 
ATOM     31  O   LIG d   1      -0.686  -4.537 -12.820  0.00  0.00    -0.276 OA
ATOM     32  N   LIG d   1      -1.291  -4.503 -10.687  0.00  0.00    -0.310 N 
ATOM     33  H   LIG d   1      -0.995  -4.406  -9.631  0.00  0.00     0.149 HD
BRANCH  32  34
ATOM     34  C   LIG d   1      -2.699  -4.712 -11.035  0.00  0.00     0.052 C 
ATOM     35  H   LIG d   1      -3.070  -3.840 -11.596  0.00  0.00     0.051 H 
ATOM     36  H   LIG d   1      -2.793  -5.615 -11.658  0.00  0.00     0.051 H 
BRANCH  34  37
ATOM     37  C   LIG d   1      -3.522  -4.885  -9.758  0.00  0.00    -0.016 C 
ATOM     38  H   LIG d   1      -3.251  -5.836  -9.274  0.00  0.00     0.083 H 
ATOM     39  H   LIG d   1      -3.313  -4.051  -9.071  0.00  0.00     0.083 H 
BRANCH  37  40
ATOM     40  N   LIG d   1      -4.952  -4.897 -10.094  0.00  0.00     0.240 N 
ATOM     41  C   LIG d   1      -5.534  -3.554  -9.970  0.00  0.00    -0.008 C 
ATOM     42  C   LIG d   1      -7.034  -3.622 -10.270  0.00  0.00     0.088 C 
ATOM     43  H   LIG d   1      -5.379  -3.180  -8.946  0.00  0.00     0.084 H 
ATOM     44  H   LIG d   1      -5.046  -2.874 -10.684  0.00  0.00     0.084 H 
ATOM     45  O   LIG d   1      -7.229  -4.178 -11.573  0.00  0.00    -0.369 OA
ATOM     46  H   LIG d   1      -7.463  -2.611 -10.234  0.00  0.00     0.061 H 
ATOM     47  H   LIG d   1      -7.530  -4.258  -9.521  0.00  0.00     0.061 H 
ATOM     48  C   LIG d   1      -6.674  -5.487 -11.728  0.00  0.00     0.088 C 
ATOM     49  C   LIG d   1      -5.172  -5.437 -11.443  0.00  0.00    -0.008 C 
ATOM     50  H   LIG d   1      -6.841  -5.838 -12.758  0.00  0.00     0.061 H 
ATOM     51  H   LIG d   1      -7.158  -6.179 -11.023  0.00  0.00     0.061 H 
ATOM     52  H   LIG d   1      -4.678  -4.789 -12.183  0.00  0.00     0.084 H 
ATOM     53  H   LIG d   1      -4.750  -6.451 -11.506  0.00  0.00     0.084 H 
ATOM     54  H   LIG d   1      -5.459  -5.557  -9.375  0.00  0.00     0.204 HD
ENDBRANCH  37  40
ENDBRANCH  34  37
ENDBRANCH  32  34
ENDBRANCH  24  30
ENDBRANCH  12  24
BRANCH  10  55
ATOM     55  O   LIG d   1       2.802  -4.035  -8.993  0.00  0.00    -0.391 OA
ATOM     56  H   LIG d   1       2.813  -5.043  -9.434  0.00  0.00     0.210 HD
ENDBRANCH  10  55
BRANCH   1  57
ATOM     57  C   LIG d   1       4.342  -2.791  -7.464  0.00  0.00    -0.060 C 
ATOM     58  H   LIG d   1       3.421  -3.393  -7.451  0.00  0.00     0.023 H 
ATOM     59  H   LIG d   1       4.579  -2.464  -6.440  0.00  0.00     0.023 H 
ATOM     60  H   LIG d   1       5.171  -3.398  -7.856  0.00  0.00     0.023 H 
ENDBRANCH   1  57
BRANCH   7  61
ATOM     61  C   LIG d   1       3.603  -0.388 -10.986  0.00  0.00    -0.059 C 
ATOM     62  H   LIG d   1       3.307  -1.089 -11.781  0.00  0.00     0.024 H 
ATOM     63  H   LIG d   1       4.572  -0.699 -10.567  0.00  0.00     0.024 H 
ATOM     64  H   LIG d   1       3.691   0.624 -11.404  0.00  0.00     0.024 H 
ENDBRANCH   7  61
BRANCH   3  65
ATOM     65  N   LIG d   1       5.607  -0.245  -6.915  0.00  0.00    -0.312 N 
ATOM     66  C   LIG d   1       5.740  -0.032  -5.591  0.00  0.00     0.216 C 
ATOM     67  O   LIG d   1       4.756   0.118  -4.898  0.00  0.00    -0.276 OA
ATOM     68  H   LIG d   1       6.499  -0.381  -7.543  0.00  0.00     0.149 HD
BRANCH  66  69
ATOM     69  C   LIG d   1       7.113   0.020  -4.970  0.00  0.00     0.036 C 
ATOM     70  C   LIG d   1       8.154  -0.430  -5.996  0.00  0.00    -0.042 C 
ATOM     71  C   LIG d   1       9.547  -0.378  -5.365  0.00  0.00    -0.052 C 
ATOM     72  H   LIG d   1       7.934  -1.460  -6.315  0.00  0.00     0.027 H 
ATOM     73  H   LIG d   1       8.121   0.239  -6.869  0.00  0.00     0.027 H 
ATOM     74  C   LIG d   1       9.853   1.054  -4.923  0.00  0.00    -0.053 C 
ATOM     75  H   LIG d   1      10.297  -0.702  -6.103  0.00  0.00     0.026 H 
ATOM     76  H   LIG d   1       9.580  -1.047  -4.493  0.00  0.00     0.026 H 
ATOM     77  C   LIG d   1       8.812   1.504  -3.896  0.00  0.00    -0.052 C 
ATOM     78  H   LIG d   1       9.820   1.723  -5.795  0.00  0.00     0.026 H 
ATOM     79  H   LIG d   1      10.855   1.091  -4.469  0.00  0.00     0.026 H 
ATOM     80  C   LIG d   1       7.419   1.451  -4.526  0.00  0.00    -0.042 C 
ATOM     81  H   LIG d   1       9.032   2.533  -3.577  0.00  0.00     0.026 H 
ATOM     82  H   LIG d   1       8.844   0.835  -3.024  0.00  0.00     0.026 H 
ATOM     83  H   LIG d   1       7.386   2.121  -5.400  0.00  0.00     0.027 H 
ATOM     84  H   LIG d   1       6.670   1.775  -3.789  0.00  0.00     0.027 H 
ATOM     85  H   LIG d   1       7.130  -0.652  -4.099  0.00  0.00     0.039 H 
ENDBRANCH  66  69
ENDBRANCH   3  65
TORSDOF 11
ENDMDL
MODEL 6
REMARK VINA RESULT:      -5.7      6.992     11.188
REMARK  11 active torsions:
REMARK  status: ('A' for Active; 'I' for Inactive)
REMARK    1  A    between atoms: C_1  and  C_2 
REMARK    2  A    between atoms: C_4  and  N_33 
REMARK    3  A    between atoms: C_8  and  C_32 
REMARK    4  A    between atoms: C_11  and  O_31 
REMARK    5  A    between atoms: C_13  and  C_17 
REMARK    6  A    between atoms: C_17  and  C_19 
REMARK    7  A    between atoms: C_17  and  C_20 
REMARK       I    between atoms: C_20  and  N_22 
REMARK    8  A    between atoms: N_22  and  C_23 
REMARK    9  A    between atoms: C_23  and  C_24 
REMARK   10  A    between atoms: C_24  and  N_25 
REMARK       I    between atoms: N_33  and  C_34 
REMARK   11  A    between atoms: C_34  and  C_36 
ROOT
ATOM      1  C   LIG d   1      10.147  10.331  -7.642  0.00  0.00    -0.020 C 
ATOM      2  H   LIG d   1       9.299  10.847  -8.119  0.00  0.00     0.032 H 
ATOM      3  C   LIG d   1      11.272  10.149  -8.660  0.00  0.00     0.026 C 
ATOM      4  H   LIG d   1      12.114   9.600  -8.214  0.00  0.00     0.050 H 
ATOM      5  C   LIG d   1      11.730  11.519  -9.166  0.00  0.00    -0.034 C 
ATOM      6  C   LIG d   1      12.238  12.354  -7.988  0.00  0.00    -0.046 C 
ATOM      7  C   LIG d   1      11.111  12.535  -6.968  0.00  0.00    -0.026 C 
ATOM      8  C   LIG d   1      10.654  11.166  -6.464  0.00  0.00    -0.005 C 
ATOM      9  H   LIG d   1      11.500  10.649  -5.986  0.00  0.00     0.033 H 
ATOM     10  C   LIG d   1       9.527  11.347  -5.445  0.00  0.00     0.062 C 
ATOM     11  H   LIG d   1       8.642  11.807  -5.907  0.00  0.00     0.060 H 
ATOM     12  C   LIG d   1      10.035  12.181  -4.267  0.00  0.00    -0.004 C 
ATOM     13  H   LIG d   1      10.881  11.665  -3.789  0.00  0.00     0.033 H 
ATOM     14  C   LIG d   1      10.492  13.551  -4.771  0.00  0.00    -0.047 C 
ATOM     15  C   LIG d   1      11.619  13.369  -5.790  0.00  0.00    -0.047 C 
ATOM     16  H   LIG d   1      12.540  11.388  -9.898  0.00  0.00     0.028 H 
ATOM     17  H   LIG d   1      10.883  12.036  -9.642  0.00  0.00     0.028 H 
ATOM     18  H   LIG d   1      13.084  11.837  -7.511  0.00  0.00     0.027 H 
ATOM     19  H   LIG d   1      12.566  13.338  -8.351  0.00  0.00     0.027 H 
ATOM     20  H   LIG d   1       9.646  14.067  -5.248  0.00  0.00     0.027 H 
ATOM     21  H   LIG d   1      10.857  14.151  -3.924  0.00  0.00     0.027 H 
ATOM     22  H   LIG d   1      12.465  12.853  -5.314  0.00  0.00     0.027 H 
ATOM     23  H   LIG d   1      11.948  14.354  -6.154  0.00  0.00     0.027 H 
ENDROOT
BRANCH  12  24
ATOM     24  C   LIG d   1       8.908  12.363  -3.247  0.00  0.00     0.038 C 
ATOM     25  H   LIG d   1       7.953  12.038  -3.684  0.00  0.00     0.040 H 
BRANCH  24  26
ATOM     26  C   LIG d   1       8.822  13.835  -2.841  0.00  0.00    -0.054 C 
ATOM     27  H   LIG d   1       9.701  14.100  -2.235  0.00  0.00     0.024 H 
ATOM     28  H   LIG d   1       7.908  14.001  -2.252  0.00  0.00     0.024 H 
ATOM     29  H   LIG d   1       8.796  14.464  -3.744  0.00  0.00     0.024 H 
ENDBRANCH  24  26
BRANCH  24  30
ATOM     30  C   LIG d   1       9.193  11.521  -2.030  0.00  0.00     0.216 C 
ATOM     31  O   LIG d   1      10.040  11.869  -1.235  0.00  0.00    -0.276 OA
ATOM     32  N   LIG d   1       8.504  10.381  -1.824  0.00  0.00    -0.310 N 
ATOM     33  H   LIG d   1       7.735  10.065  -2.545  0.00  0.00     0.149 HD
BRANCH  32  34
ATOM     34  C   LIG d   1       8.779   9.561  -0.641  0.00  0.00     0.052 C 
ATOM     35  H   LIG d   1       9.697   9.921  -0.152  0.00  0.00     0.051 H 
ATOM     36  H   LIG d   1       7.935   9.638   0.062  0.00  0.00     0.051 H 
BRANCH  34  37
ATOM     37  C   LIG d   1       8.963   8.102  -1.061  0.00  0.00    -0.016 C 
ATOM     38  H   LIG d   1       9.542   7.570  -0.291  0.00  0.00     0.083 H 
ATOM     39  H   LIG d   1       7.977   7.626  -1.172  0.00  0.00     0.083 H 
BRANCH  37  40
ATOM     40  N   LIG d   1       9.681   8.047  -2.341  0.00  0.00     0.240 N 
ATOM     41  C   LIG d   1      11.108   8.349  -2.159  0.00  0.00    -0.008 C 
ATOM     42  C   LIG d   1      11.805   8.338  -3.521  0.00  0.00     0.088 C 
ATOM     43  H   LIG d   1      11.216   9.341  -1.696  0.00  0.00     0.084 H 
ATOM     44  H   LIG d   1      11.563   7.589  -1.505  0.00  0.00     0.084 H 
ATOM     45  O   LIG d   1      11.596   7.070  -4.148  0.00  0.00    -0.369 OA
ATOM     46  H   LIG d   1      12.883   8.507  -3.385  0.00  0.00     0.061 H 
ATOM     47  H   LIG d   1      11.387   9.135  -4.154  0.00  0.00     0.061 H 
ATOM     48  C   LIG d   1      10.217   6.745  -4.342  0.00  0.00     0.088 C 
ATOM     49  C   LIG d   1       9.504   6.739  -2.988  0.00  0.00    -0.008 C 
ATOM     50  H   LIG d   1      10.135   5.750  -4.804  0.00  0.00     0.061 H 
ATOM     51  H   LIG d   1       9.750   7.494  -4.999  0.00  0.00     0.061 H 
ATOM     52  H   LIG d   1       9.933   5.953  -2.349  0.00  0.00     0.084 H 
ATOM     53  H   LIG d   1       8.431   6.546  -3.136  0.00  0.00     0.084 H 
ATOM     54  H   LIG d   1       9.251   8.815  -3.000  0.00  0.00     0.204 HD
ENDBRANCH  37  40
ENDBRANCH  34  37
ENDBRANCH  32  34
ENDBRANCH  24  30
ENDBRANCH  12  24
BRANCH  10  55
ATOM     55  O   LIG d   1       9.100  10.068  -4.973  0.00  0.00    -0.391 OA
ATOM     56  H   LIG d   1       9.723   9.507  -4.260  0.00  0.00     0.210 HD
ENDBRANCH  10  55
BRANCH   1  57
ATOM     57  C   LIG d   1       9.689   8.961  -7.137  0.00  0.00    -0.060 C 
ATOM     58  H   LIG d   1       8.798   8.642  -7.698  0.00  0.00     0.023 H 
ATOM     59  H   LIG d   1       9.444   9.027  -6.066  0.00  0.00     0.023 H 
ATOM     60  H   LIG d   1      10.497   8.229  -7.283  0.00  0.00     0.023 H 
ENDBRANCH   1  57
BRANCH   7  61
ATOM     61  C   LIG d   1       9.934  13.253  -7.632  0.00  0.00    -0.059 C 
ATOM     62  H   LIG d   1       9.748  14.207  -7.115  0.00  0.00     0.024 H 
ATOM     63  H   LIG d   1       9.036  12.621  -7.569  0.00  0.00     0.024 H 
ATOM     64  H   LIG d   1      10.172  13.448  -8.687  0.00  0.00     0.024 H 
ENDBRANCH   7  61
BRANCH   3  65
ATOM     65  N   LIG d   1      10.786   9.351  -9.789  0.00  0.00    -0.312 N 
ATOM     66  C   LIG d   1      11.543   8.350 -10.282  0.00  0.00     0.216 C 
ATOM     67  O   LIG d   1      12.626   8.111  -9.792  0.00  0.00    -0.276 OA
ATOM     68  H   LIG d   1       9.804   9.568 -10.233  0.00  0.00     0.149 HD
BRANCH  66  69
ATOM     69  C   LIG d   1      11.043   7.529 -11.442  0.00  0.00     0.036 C 
ATOM     70  C   LIG d   1      10.273   6.317 -10.915  0.00  0.00    -0.042 C 
ATOM     71  C   LIG d   1       9.766   5.483 -12.093  0.00  0.00    -0.052 C 
ATOM     72  H   LIG d   1      10.939   5.703 -10.290  0.00  0.00     0.027 H 
ATOM     73  H   LIG d   1       9.418   6.659 -10.312  0.00  0.00     0.027 H 
ATOM     74  C   LIG d   1       8.840   6.336 -12.961  0.00  0.00    -0.053 C 
ATOM     75  H   LIG d   1       9.213   4.610 -11.714  0.00  0.00     0.026 H 
ATOM     76  H   LIG d   1      10.621   5.140 -12.694  0.00  0.00     0.026 H 
ATOM     77  C   LIG d   1       9.610   7.548 -13.489  0.00  0.00    -0.052 C 
ATOM     78  H   LIG d   1       7.986   6.678 -12.359  0.00  0.00     0.026 H 
ATOM     79  H   LIG d   1       8.476   5.736 -13.808  0.00  0.00     0.026 H 
ATOM     80  C   LIG d   1      10.117   8.382 -12.311  0.00  0.00    -0.042 C 
ATOM     81  H   LIG d   1       8.944   8.162 -14.113  0.00  0.00     0.026 H 
ATOM     82  H   LIG d   1      10.465   7.207 -14.090  0.00  0.00     0.026 H 
ATOM     83  H   LIG d   1       9.262   8.725 -11.709  0.00  0.00     0.027 H 
ATOM     84  H   LIG d   1      10.670   9.254 -12.690  0.00  0.00     0.027 H 
ATOM     85  H   LIG d   1      11.908   7.195 -12.035  0.00  0.00     0.039 H 
ENDBRANCH  66  69
ENDBRANCH   3  65
TORSDOF 11
ENDMDL
MODEL 7
REMARK VINA RESULT:      -5.7      3.751      5.770
REMARK  11 active torsions:
REMARK  status: ('A' for Active; 'I' for Inactive)
REMARK    1  A    between atoms: C_1  and  C_2 
REMARK    2  A    between atoms: C_4  and  N_33 
REMARK    3  A    between atoms: C_8  and  C_32 
REMARK    4  A    between atoms: C_11  and  O_31 
REMARK    5  A    between atoms: C_13  and  C_17 
REMARK    6  A    between atoms: C_17  and  C_19 
REMARK    7  A    between atoms: C_17  and  C_20 
REMARK       I    between atoms: C_20  and  N_22 
REMARK    8  A    between atoms: N_22  and  C_23 
REMARK    9  A    between atoms: C_23  and  C_24 
REMARK   10  A    between atoms: C_24  and  N_25 
REMARK       I    between atoms: N_33  and  C_34 
REMARK   11  A    between atoms: C_34  and  C_36 
ROOT
ATOM      1  C   LIG d   1      10.229   8.092  -3.558  0.00  0.00    -0.020 C 
ATOM      2  H   LIG d   1      11.329   8.106  -3.571  0.00  0.00     0.032 H 
ATOM      3  C   LIG d   1       9.694   9.356  -4.233  0.00  0.00     0.026 C 
ATOM      4  H   LIG d   1       8.596   9.380  -4.195  0.00  0.00     0.050 H 
ATOM      5  C   LIG d   1      10.186   9.408  -5.681  0.00  0.00    -0.034 C 
ATOM      6  C   LIG d   1       9.682   8.176  -6.435  0.00  0.00    -0.046 C 
ATOM      7  C   LIG d   1      10.217   6.911  -5.760  0.00  0.00    -0.026 C 
ATOM      8  C   LIG d   1       9.726   6.859  -4.312  0.00  0.00    -0.005 C 
ATOM      9  H   LIG d   1       8.625   6.845  -4.298  0.00  0.00     0.033 H 
ATOM     10  C   LIG d   1      10.260   5.595  -3.636  0.00  0.00     0.062 C 
ATOM     11  H   LIG d   1      11.358   5.607  -3.580  0.00  0.00     0.060 H 
ATOM     12  C   LIG d   1       9.757   4.363  -4.390  0.00  0.00    -0.004 C 
ATOM     13  H   LIG d   1       8.657   4.348  -4.376  0.00  0.00     0.033 H 
ATOM     14  C   LIG d   1      10.248   4.414  -5.838  0.00  0.00    -0.047 C 
ATOM     15  C   LIG d   1       9.713   5.678  -6.513  0.00  0.00    -0.047 C 
ATOM     16  H   LIG d   1       9.801  10.317  -6.166  0.00  0.00     0.028 H 
ATOM     17  H   LIG d   1      11.286   9.422  -5.694  0.00  0.00     0.028 H 
ATOM     18  H   LIG d   1       8.583   8.161  -6.421  0.00  0.00     0.027 H 
ATOM     19  H   LIG d   1      10.035   8.213  -7.475  0.00  0.00     0.027 H 
ATOM     20  H   LIG d   1      11.348   4.428  -5.851  0.00  0.00     0.027 H 
ATOM     21  H   LIG d   1       9.886   3.528  -6.379  0.00  0.00     0.027 H 
ATOM     22  H   LIG d   1       8.614   5.664  -6.499  0.00  0.00     0.027 H 
ATOM     23  H   LIG d   1      10.067   5.716  -7.554  0.00  0.00     0.027 H 
ENDROOT
BRANCH  12  24
ATOM     24  C   LIG d   1      10.291   3.098  -3.714  0.00  0.00     0.038 C 
ATOM     25  H   LIG d   1      10.326   3.242  -2.625  0.00  0.00     0.040 H 
BRANCH  24  26
ATOM     26  C   LIG d   1      11.694   2.792  -4.243  0.00  0.00    -0.054 C 
ATOM     27  H   LIG d   1      12.438   3.337  -3.644  0.00  0.00     0.024 H 
ATOM     28  H   LIG d   1      11.767   3.108  -5.294  0.00  0.00     0.024 H 
ATOM     29  H   LIG d   1      11.885   1.710  -4.171  0.00  0.00     0.024 H 
ENDBRANCH  24  26
BRANCH  24  30
ATOM     30  C   LIG d   1       9.375   1.941  -4.019  0.00  0.00     0.216 C 
ATOM     31  O   LIG d   1       9.794   0.977  -4.623  0.00  0.00    -0.276 OA
ATOM     32  N   LIG d   1       8.089   1.977  -3.618  0.00  0.00    -0.310 N 
ATOM     33  H   LIG d   1       7.708   2.852  -3.069  0.00  0.00     0.149 HD
BRANCH  32  34
ATOM     34  C   LIG d   1       7.197   0.853  -3.913  0.00  0.00     0.052 C 
ATOM     35  H   LIG d   1       6.935   0.864  -4.982  0.00  0.00     0.051 H 
ATOM     36  H   LIG d   1       7.705  -0.092  -3.669  0.00  0.00     0.051 H 
BRANCH  34  37
ATOM     37  C   LIG d   1       5.923   0.978  -3.076  0.00  0.00    -0.016 C 
ATOM     38  H   LIG d   1       6.183   0.955  -2.007  0.00  0.00     0.083 H 
ATOM     39  H   LIG d   1       5.421   1.929  -3.311  0.00  0.00     0.083 H 
BRANCH  37  40
ATOM     40  N   LIG d   1       5.022  -0.141  -3.385  0.00  0.00     0.240 N 
ATOM     41  C   LIG d   1       5.652  -1.083  -4.320  0.00  0.00    -0.008 C 
ATOM     42  C   LIG d   1       4.660  -2.198  -4.660  0.00  0.00     0.088 C 
ATOM     43  H   LIG d   1       5.939  -0.551  -5.239  0.00  0.00     0.084 H 
ATOM     44  H   LIG d   1       6.550  -1.518  -3.854  0.00  0.00     0.084 H 
ATOM     45  O   LIG d   1       4.236  -2.836  -3.452  0.00  0.00    -0.369 OA
ATOM     46  H   LIG d   1       5.146  -2.937  -5.314  0.00  0.00     0.061 H 
ATOM     47  H   LIG d   1       3.788  -1.769  -5.175  0.00  0.00     0.061 H 
ATOM     48  C   LIG d   1       3.617  -1.947  -2.519  0.00  0.00     0.088 C 
ATOM     49  C   LIG d   1       4.598  -0.829  -2.158  0.00  0.00    -0.008 C 
ATOM     50  H   LIG d   1       3.340  -2.501  -1.610  0.00  0.00     0.061 H 
ATOM     51  H   LIG d   1       2.713  -1.509  -2.970  0.00  0.00     0.061 H 
ATOM     52  H   LIG d   1       5.478  -1.260  -1.656  0.00  0.00     0.084 H 
ATOM     53  H   LIG d   1       4.108  -0.111  -1.484  0.00  0.00     0.084 H 
ATOM     54  H   LIG d   1       4.127   0.275  -3.870  0.00  0.00     0.204 HD
ENDBRANCH  37  40
ENDBRANCH  34  37
ENDBRANCH  32  34
ENDBRANCH  24  30
ENDBRANCH  12  24
BRANCH  10  55
ATOM     55  O   LIG d   1       9.801   5.546  -2.284  0.00  0.00    -0.391 OA
ATOM     56  H   LIG d   1      10.226   4.811  -1.584  0.00  0.00     0.210 HD
ENDBRANCH  10  55
BRANCH   1  57
ATOM     57  C   LIG d   1       9.738   8.041  -2.110  0.00  0.00    -0.060 C 
ATOM     58  H   LIG d   1       8.711   7.644  -2.084  0.00  0.00     0.023 H 
ATOM     59  H   LIG d   1       9.750   9.054  -1.682  0.00  0.00     0.023 H 
ATOM     60  H   LIG d   1      10.398   7.387  -1.522  0.00  0.00     0.023 H 
ENDBRANCH   1  57
BRANCH   7  61
ATOM     61  C   LIG d   1      11.747   6.931  -5.779  0.00  0.00    -0.059 C 
ATOM     62  H   LIG d   1      12.096   7.362  -6.729  0.00  0.00     0.024 H 
ATOM     63  H   LIG d   1      12.128   5.903  -5.681  0.00  0.00     0.024 H 
ATOM     64  H   LIG d   1      12.116   7.540  -4.942  0.00  0.00     0.024 H 
ENDBRANCH   7  61
BRANCH   3  65
ATOM     65  N   LIG d   1      10.177  10.537  -3.511  0.00  0.00    -0.312 N 
ATOM     66  C   LIG d   1       9.342  11.566  -3.269  0.00  0.00     0.216 C 
ATOM     67  O   LIG d   1       8.191  11.515  -3.647  0.00  0.00    -0.276 OA
ATOM     68  H   LIG d   1      11.220  10.582  -3.168  0.00  0.00     0.149 HD
BRANCH  66  69
ATOM     69  C   LIG d   1       9.837  12.780  -2.526  0.00  0.00     0.036 C 
ATOM     70  C   LIG d   1      10.463  12.347  -1.200  0.00  0.00    -0.042 C 
ATOM     71  C   LIG d   1      10.966  13.580  -0.446  0.00  0.00    -0.052 C 
ATOM     72  H   LIG d   1       9.708  11.827  -0.591  0.00  0.00     0.027 H 
ATOM     73  H   LIG d   1      11.306  11.668  -1.396  0.00  0.00     0.027 H 
ATOM     74  C   LIG d   1      12.015  14.302  -1.293  0.00  0.00    -0.053 C 
ATOM     75  H   LIG d   1      11.416  13.269   0.509  0.00  0.00     0.026 H 
ATOM     76  H   LIG d   1      10.122  14.258  -0.249  0.00  0.00     0.026 H 
ATOM     77  C   LIG d   1      11.390  14.737  -2.620  0.00  0.00    -0.052 C 
ATOM     78  H   LIG d   1      12.858  13.624  -1.489  0.00  0.00     0.026 H 
ATOM     79  H   LIG d   1      12.377  15.189  -0.751  0.00  0.00     0.026 H 
ATOM     80  C   LIG d   1      10.886  13.503  -3.373  0.00  0.00    -0.042 C 
ATOM     81  H   LIG d   1      12.144  15.256  -3.228  0.00  0.00     0.026 H 
ATOM     82  H   LIG d   1      10.547  15.414  -2.423  0.00  0.00     0.026 H 
ATOM     83  H   LIG d   1      11.730  12.824  -3.570  0.00  0.00     0.027 H 
ATOM     84  H   LIG d   1      10.437  13.814  -4.327  0.00  0.00     0.027 H 
ATOM     85  H   LIG d   1       8.985  13.449  -2.338  0.00  0.00     0.039 H 
ENDBRANCH  66  69
ENDBRANCH   3  65
TORSDOF 11
ENDMDL
MODEL 8
REMARK VINA RESULT:      -5.7      2.319      8.033
REMARK  11 active torsions:
REMARK  status: ('A' for Active; 'I' for Inactive)
REMARK    1  A    between atoms: C_1  and  C_2 
REMARK    2  A    between atoms: C_4  and  N_33 
REMARK    3  A    between atoms: C_8  and  C_32 
REMARK    4  A    between atoms: C_11  and  O_31 
REMARK    5  A    between atoms: C_13  and  C_17 
REMARK    6  A    between atoms: C_17  and  C_19 
REMARK    7  A    between atoms: C_17  and  C_20 
REMARK       I    between atoms: C_20  and  N_22 
REMARK    8  A    between atoms: N_22  and  C_23 
REMARK    9  A    between atoms: C_23  and  C_24 
REMARK   10  A    between atoms: C_24  and  N_25 
REMARK       I    between atoms: N_33  and  C_34 
REMARK   11  A    between atoms: C_34  and  C_36 
ROOT
ATOM      1  C   LIG d   1       8.446   2.543  -5.917  0.00  0.00    -0.020 C 
ATOM      2  H   LIG d   1       7.522   3.003  -6.298  0.00  0.00     0.032 H 
ATOM      3  C   LIG d   1       8.240   1.035  -5.765  0.00  0.00     0.026 C 
ATOM      4  H   LIG d   1       9.140   0.561  -5.348  0.00  0.00     0.050 H 
ATOM      5  C   LIG d   1       7.892   0.428  -7.126  0.00  0.00    -0.034 C 
ATOM      6  C   LIG d   1       9.036   0.690  -8.108  0.00  0.00    -0.046 C 
ATOM      7  C   LIG d   1       9.243   2.199  -8.260  0.00  0.00    -0.026 C 
ATOM      8  C   LIG d   1       9.590   2.806  -6.899  0.00  0.00    -0.005 C 
ATOM      9  H   LIG d   1      10.514   2.345  -6.517  0.00  0.00     0.033 H 
ATOM     10  C   LIG d   1       9.796   4.313  -7.049  0.00  0.00     0.062 C 
ATOM     11  H   LIG d   1       8.871   4.812  -7.373  0.00  0.00     0.060 H 
ATOM     12  C   LIG d   1      10.940   4.576  -8.031  0.00  0.00    -0.004 C 
ATOM     13  H   LIG d   1      11.864   4.116  -7.649  0.00  0.00     0.033 H 
ATOM     14  C   LIG d   1      10.593   3.970  -9.392  0.00  0.00    -0.047 C 
ATOM     15  C   LIG d   1      10.387   2.461  -9.241  0.00  0.00    -0.047 C 
ATOM     16  H   LIG d   1       7.744  -0.656  -7.018  0.00  0.00     0.028 H 
ATOM     17  H   LIG d   1       6.969   0.889  -7.508  0.00  0.00     0.028 H 
ATOM     18  H   LIG d   1       9.960   0.231  -7.727  0.00  0.00     0.027 H 
ATOM     19  H   LIG d   1       8.787   0.254  -9.086  0.00  0.00     0.027 H 
ATOM     20  H   LIG d   1       9.670   4.430  -9.774  0.00  0.00     0.027 H 
ATOM     21  H   LIG d   1      11.415   4.159 -10.098  0.00  0.00     0.027 H 
ATOM     22  H   LIG d   1      11.310   2.001  -8.859  0.00  0.00     0.027 H 
ATOM     23  H   LIG d   1      10.137   2.025 -10.220  0.00  0.00     0.027 H 
ENDROOT
BRANCH  12  24
ATOM     24  C   LIG d   1      11.147   6.085  -8.182  0.00  0.00     0.038 C 
ATOM     25  H   LIG d   1      10.256   6.622  -7.826  0.00  0.00     0.040 H 
BRANCH  24  26
ATOM     26  C   LIG d   1      11.402   6.419  -9.653  0.00  0.00    -0.054 C 
ATOM     27  H   LIG d   1      10.592   5.999 -10.269  0.00  0.00     0.024 H 
ATOM     28  H   LIG d   1      12.363   5.986  -9.967  0.00  0.00     0.024 H 
ATOM     29  H   LIG d   1      11.432   7.511  -9.782  0.00  0.00     0.024 H 
ENDBRANCH  24  26
BRANCH  24  30
ATOM     30  C   LIG d   1      12.332   6.514  -7.356  0.00  0.00     0.216 C 
ATOM     31  O   LIG d   1      13.456   6.375  -7.788  0.00  0.00    -0.276 OA
ATOM     32  N   LIG d   1      12.141   7.055  -6.136  0.00  0.00    -0.310 N 
ATOM     33  H   LIG d   1      11.121   7.181  -5.744  0.00  0.00     0.149 HD
BRANCH  32  34
ATOM     34  C   LIG d   1      13.292   7.473  -5.331  0.00  0.00     0.052 C 
ATOM     35  H   LIG d   1      14.066   6.691  -5.365  0.00  0.00     0.051 H 
ATOM     36  H   LIG d   1      13.700   8.411  -5.736  0.00  0.00     0.051 H 
BRANCH  34  37
ATOM     37  C   LIG d   1      12.851   7.691  -3.883  0.00  0.00    -0.016 C 
ATOM     38  H   LIG d   1      13.724   7.605  -3.218  0.00  0.00     0.083 H 
ATOM     39  H   LIG d   1      12.411   8.695  -3.782  0.00  0.00     0.083 H 
BRANCH  37  40
ATOM     40  N   LIG d   1      11.853   6.679  -3.516  0.00  0.00     0.240 N 
ATOM     41  C   LIG d   1      12.458   5.609  -2.710  0.00  0.00    -0.008 C 
ATOM     42  C   LIG d   1      11.399   4.548  -2.401  0.00  0.00     0.088 C 
ATOM     43  H   LIG d   1      13.287   5.152  -3.271  0.00  0.00     0.084 H 
ATOM     44  H   LIG d   1      12.843   6.031  -1.770  0.00  0.00     0.084 H 
ATOM     45  O   LIG d   1      10.293   5.166  -1.737  0.00  0.00    -0.369 OA
ATOM     46  H   LIG d   1      11.832   3.774  -1.750  0.00  0.00     0.061 H 
ATOM     47  H   LIG d   1      11.055   4.088  -3.338  0.00  0.00     0.061 H 
ATOM     48  C   LIG d   1       9.679   6.212  -2.495  0.00  0.00     0.088 C 
ATOM     49  C   LIG d   1      10.721   7.289  -2.805  0.00  0.00    -0.008 C 
ATOM     50  H   LIG d   1       8.856   6.653  -1.914  0.00  0.00     0.061 H 
ATOM     51  H   LIG d   1       9.284   5.802  -3.436  0.00  0.00     0.061 H 
ATOM     52  H   LIG d   1      11.077   7.739  -1.866  0.00  0.00     0.084 H 
ATOM     53  H   LIG d   1      10.269   8.068  -3.436  0.00  0.00     0.084 H 
ATOM     54  H   LIG d   1      11.472   6.231  -4.446  0.00  0.00     0.204 HD
ENDBRANCH  37  40
ENDBRANCH  34  37
ENDBRANCH  32  34
ENDBRANCH  24  30
ENDBRANCH  12  24
BRANCH  10  55
ATOM     55  O   LIG d   1      10.120   4.880  -5.779  0.00  0.00    -0.391 OA
ATOM     56  H   LIG d   1       9.715   5.862  -5.494  0.00  0.00     0.210 HD
ENDBRANCH  10  55
BRANCH   1  57
ATOM     57  C   LIG d   1       8.793   3.149  -4.556  0.00  0.00    -0.060 C 
ATOM     58  H   LIG d   1       9.678   3.795  -4.656  0.00  0.00     0.023 H 
ATOM     59  H   LIG d   1       9.007   2.343  -3.838  0.00  0.00     0.023 H 
ATOM     60  H   LIG d   1       7.943   3.745  -4.193  0.00  0.00     0.023 H 
ENDBRANCH   1  57
BRANCH   7  61
ATOM     61  C   LIG d   1       7.958   2.839  -8.790  0.00  0.00    -0.059 C 
ATOM     62  H   LIG d   1       8.092   3.104  -9.850  0.00  0.00     0.024 H 
ATOM     63  H   LIG d   1       7.734   3.747  -8.211  0.00  0.00     0.024 H 
ATOM     64  H   LIG d   1       7.127   2.126  -8.693  0.00  0.00     0.024 H 
ENDBRANCH   7  61
BRANCH   3  65
ATOM     65  N   LIG d   1       7.144   0.784  -4.825  0.00  0.00    -0.312 N 
ATOM     66  C   LIG d   1       7.140  -0.339  -4.080  0.00  0.00     0.216 C 
ATOM     67  O   LIG d   1       8.043  -1.141  -4.187  0.00  0.00    -0.276 OA
ATOM     68  H   LIG d   1       6.326   1.511  -4.728  0.00  0.00     0.149 HD
BRANCH  66  69
ATOM     69  C   LIG d   1       6.014  -0.598  -3.113  0.00  0.00     0.036 C 
ATOM     70  C   LIG d   1       5.202   0.684  -2.919  0.00  0.00    -0.042 C 
ATOM     71  C   LIG d   1       4.059   0.421  -1.937  0.00  0.00    -0.052 C 
ATOM     72  H   LIG d   1       5.856   1.474  -2.519  0.00  0.00     0.027 H 
ATOM     73  H   LIG d   1       4.789   1.006  -3.887  0.00  0.00     0.027 H 
ATOM     74  C   LIG d   1       3.151  -0.677  -2.493  0.00  0.00    -0.053 C 
ATOM     75  H   LIG d   1       3.476   1.344  -1.797  0.00  0.00     0.026 H 
ATOM     76  H   LIG d   1       4.474   0.100  -0.970  0.00  0.00     0.026 H 
ATOM     77  C   LIG d   1       3.962  -1.960  -2.687  0.00  0.00    -0.052 C 
ATOM     78  H   LIG d   1       2.738  -0.356  -3.460  0.00  0.00     0.026 H 
ATOM     79  H   LIG d   1       2.330  -0.866  -1.787  0.00  0.00     0.026 H 
ATOM     80  C   LIG d   1       5.106  -1.697  -3.669  0.00  0.00    -0.042 C 
ATOM     81  H   LIG d   1       3.310  -2.749  -3.087  0.00  0.00     0.026 H 
ATOM     82  H   LIG d   1       4.377  -2.281  -1.721  0.00  0.00     0.026 H 
ATOM     83  H   LIG d   1       4.691  -1.375  -4.636  0.00  0.00     0.027 H 
ATOM     84  H   LIG d   1       5.689  -2.618  -3.808  0.00  0.00     0.027 H 
ATOM     85  H   LIG d   1       6.442  -0.919  -2.152  0.00  0.00     0.039 H 
ENDBRANCH  66  69
ENDBRANCH   3  65
TORSDOF 11
ENDMDL
MODEL 9
REMARK VINA RESULT:      -5.7      3.341      5.877
REMARK  11 active torsions:
REMARK  status: ('A' for Active; 'I' for Inactive)
REMARK    1  A    between atoms: C_1  and  C_2 
REMARK    2  A    between atoms: C_4  and  N_33 
REMARK    3  A    between atoms: C_8  and  C_32 
REMARK    4  A    between atoms: C_11  and  O_31 
REMARK    5  A    between atoms: C_13  and  C_17 
REMARK    6  A    between atoms: C_17  and  C_19 
REMARK    7  A    between atoms: C_17  and  C_20 
REMARK       I    between atoms: C_20  and  N_22 
REMARK    8  A    between atoms: N_22  and  C_23 
REMARK    9  A    between atoms: C_23  and  C_24 
REMARK   10  A    between atoms: C_24  and  N_25 
REMARK       I    between atoms: N_33  and  C_34 
REMARK   11  A    between atoms: C_34  and  C_36 
ROOT
ATOM      1  C   LIG d   1      11.603   6.869  -1.209  0.00  0.00    -0.020 C 
ATOM      2  H   LIG d   1      12.582   6.851  -1.713  0.00  0.00     0.032 H 
ATOM      3  C   LIG d   1      11.154   8.317  -1.018  0.00  0.00     0.026 C 
ATOM      4  H   LIG d   1      10.195   8.358  -0.480  0.00  0.00     0.050 H 
ATOM      5  C   LIG d   1      11.035   8.999  -2.382  0.00  0.00    -0.034 C 
ATOM      6  C   LIG d   1      10.007   8.255  -3.237  0.00  0.00    -0.046 C 
ATOM      7  C   LIG d   1      10.457   6.804  -3.428  0.00  0.00    -0.026 C 
ATOM      8  C   LIG d   1      10.576   6.123  -2.063  0.00  0.00    -0.005 C 
ATOM      9  H   LIG d   1       9.598   6.140  -1.559  0.00  0.00     0.033 H 
ATOM     10  C   LIG d   1      11.026   4.674  -2.254  0.00  0.00     0.062 C 
ATOM     11  H   LIG d   1      12.029   4.624  -2.702  0.00  0.00     0.060 H 
ATOM     12  C   LIG d   1       9.998   3.929  -3.108  0.00  0.00    -0.004 C 
ATOM     13  H   LIG d   1       9.021   3.946  -2.603  0.00  0.00     0.033 H 
ATOM     14  C   LIG d   1       9.880   4.610  -4.473  0.00  0.00    -0.047 C 
ATOM     15  C   LIG d   1       9.429   6.059  -4.282  0.00  0.00    -0.047 C 
ATOM     16  H   LIG d   1      10.711  10.041  -2.245  0.00  0.00     0.028 H 
ATOM     17  H   LIG d   1      12.013   8.982  -2.887  0.00  0.00     0.028 H 
ATOM     18  H   LIG d   1       9.030   8.271  -2.733  0.00  0.00     0.027 H 
ATOM     19  H   LIG d   1       9.922   8.744  -4.218  0.00  0.00     0.027 H 
ATOM     20  H   LIG d   1      10.857   4.592  -4.977  0.00  0.00     0.027 H 
ATOM     21  H   LIG d   1       9.141   4.074  -5.087  0.00  0.00     0.027 H 
ATOM     22  H   LIG d   1       8.453   6.077  -3.778  0.00  0.00     0.027 H 
ATOM     23  H   LIG d   1       9.344   6.550  -5.263  0.00  0.00     0.027 H 
ENDROOT
BRANCH  12  24
ATOM     24  C   LIG d   1      10.448   2.479  -3.299  0.00  0.00     0.038 C 
ATOM     25  H   LIG d   1      10.606   2.004  -2.320  0.00  0.00     0.040 H 
BRANCH  24  26
ATOM     26  C   LIG d   1      11.748   2.451  -4.106  0.00  0.00    -0.054 C 
ATOM     27  H   LIG d   1      11.636   1.762  -4.956  0.00  0.00     0.024 H 
ATOM     28  H   LIG d   1      12.572   2.108  -3.463  0.00  0.00     0.024 H 
ATOM     29  H   LIG d   1      11.969   3.462  -4.480  0.00  0.00     0.024 H 
ENDBRANCH  24  26
BRANCH  24  30
ATOM     30  C   LIG d   1       9.380   1.715  -4.038  0.00  0.00     0.216 C 
ATOM     31  O   LIG d   1       9.602   1.284  -5.149  0.00  0.00    -0.276 OA
ATOM     32  N   LIG d   1       8.178   1.512  -3.464  0.00  0.00    -0.310 N 
ATOM     33  H   LIG d   1       7.977   1.903  -2.455  0.00  0.00     0.149 HD
BRANCH  32  34
ATOM     34  C   LIG d   1       7.139   0.769  -4.182  0.00  0.00     0.052 C 
ATOM     35  H   LIG d   1       6.195   1.335  -4.148  0.00  0.00     0.051 H 
ATOM     36  H   LIG d   1       7.445   0.630  -5.229  0.00  0.00     0.051 H 
BRANCH  34  37
ATOM     37  C   LIG d   1       6.938  -0.596  -3.523  0.00  0.00    -0.016 C 
ATOM     38  H   LIG d   1       7.576  -1.341  -4.023  0.00  0.00     0.083 H 
ATOM     39  H   LIG d   1       7.213  -0.534  -2.459  0.00  0.00     0.083 H 
BRANCH  37  40
ATOM     40  N   LIG d   1       5.530  -0.997  -3.644  0.00  0.00     0.240 N 
ATOM     41  C   LIG d   1       5.008  -1.481  -2.358  0.00  0.00    -0.008 C 
ATOM     42  C   LIG d   1       3.560  -1.942  -2.542  0.00  0.00     0.088 C 
ATOM     43  H   LIG d   1       5.622  -2.323  -2.006  0.00  0.00     0.084 H 
ATOM     44  H   LIG d   1       5.044  -0.667  -1.617  0.00  0.00     0.084 H 
ATOM     45  O   LIG d   1       2.784  -0.862  -3.069  0.00  0.00    -0.369 OA
ATOM     46  H   LIG d   1       3.146  -2.251  -1.571  0.00  0.00     0.061 H 
ATOM     47  H   LIG d   1       3.531  -2.791  -3.240  0.00  0.00     0.061 H 
ATOM     48  C   LIG d   1       3.265  -0.367  -4.322  0.00  0.00     0.088 C 
ATOM     49  C   LIG d   1       4.710   0.110  -4.156  0.00  0.00    -0.008 C 
ATOM     50  H   LIG d   1       2.636   0.473  -4.651  0.00  0.00     0.061 H 
ATOM     51  H   LIG d   1       3.228  -1.169  -5.074  0.00  0.00     0.061 H 
ATOM     52  H   LIG d   1       4.741   0.949  -3.445  0.00  0.00     0.084 H 
ATOM     53  H   LIG d   1       5.104   0.439  -5.128  0.00  0.00     0.084 H 
ATOM     54  H   LIG d   1       5.478  -1.824  -4.366  0.00  0.00     0.204 HD
ENDBRANCH  37  40
ENDBRANCH  34  37
ENDBRANCH  32  34
ENDBRANCH  24  30
ENDBRANCH  12  24
BRANCH  10  55
ATOM     55  O   LIG d   1      11.137   4.037  -0.979  0.00  0.00    -0.391 OA
ATOM     56  H   LIG d   1      11.495   4.606  -0.109  0.00  0.00     0.210 HD
ENDBRANCH  10  55
BRANCH   1  57
ATOM     57  C   LIG d   1      11.722   6.187   0.156  0.00  0.00    -0.060 C 
ATOM     58  H   LIG d   1      12.308   6.825   0.835  0.00  0.00     0.023 H 
ATOM     59  H   LIG d   1      12.226   5.216   0.039  0.00  0.00     0.023 H 
ATOM     60  H   LIG d   1      10.718   6.030   0.576  0.00  0.00     0.023 H 
ENDBRANCH   1  57
BRANCH   7  61
ATOM     61  C   LIG d   1      11.817   6.781  -4.130  0.00  0.00    -0.059 C 
ATOM     62  H   LIG d   1      11.853   5.933  -4.830  0.00  0.00     0.024 H 
ATOM     63  H   LIG d   1      12.615   6.671  -3.380  0.00  0.00     0.024 H 
ATOM     64  H   LIG d   1      11.960   7.720  -4.683  0.00  0.00     0.024 H 
ENDBRANCH   7  61
BRANCH   3  65
ATOM     65  N   LIG d   1      12.138   9.031  -0.200  0.00  0.00    -0.312 N 
ATOM     66  C   LIG d   1      11.727   9.906   0.739  0.00  0.00     0.216 C 
ATOM     67  O   LIG d   1      10.542  10.102   0.908  0.00  0.00    -0.276 OA
ATOM     68  H   LIG d   1      13.212   8.853  -0.353  0.00  0.00     0.149 HD
BRANCH  66  69
ATOM     69  C   LIG d   1      12.739  10.639   1.581  0.00  0.00     0.036 C 
ATOM     70  C   LIG d   1      12.408  10.445   3.061  0.00  0.00    -0.042 C 
ATOM     71  C   LIG d   1      13.436  11.191   3.915  0.00  0.00    -0.052 C 
ATOM     72  H   LIG d   1      11.403  10.842   3.267  0.00  0.00     0.027 H 
ATOM     73  H   LIG d   1      12.436   9.373   3.306  0.00  0.00     0.027 H 
ATOM     74  C   LIG d   1      14.834  10.639   3.629  0.00  0.00    -0.053 C 
ATOM     75  H   LIG d   1      13.198  11.052   4.981  0.00  0.00     0.026 H 
ATOM     76  H   LIG d   1      13.407  12.263   3.671  0.00  0.00     0.026 H 
ATOM     77  C   LIG d   1      15.165  10.833   2.148  0.00  0.00    -0.052 C 
ATOM     78  H   LIG d   1      14.862   9.567   3.873  0.00  0.00     0.026 H 
ATOM     79  H   LIG d   1      15.572  11.175   4.243  0.00  0.00     0.026 H 
ATOM     80  C   LIG d   1      14.137  10.088   1.294  0.00  0.00    -0.042 C 
ATOM     81  H   LIG d   1      16.170  10.436   1.942  0.00  0.00     0.026 H 
ATOM     82  H   LIG d   1      15.136  11.904   1.903  0.00  0.00     0.026 H 
ATOM     83  H   LIG d   1      14.166   9.015   1.539  0.00  0.00     0.027 H 
ATOM     84  H   LIG d   1      14.375  10.227   0.230  0.00  0.00     0.027 H 
ATOM     85  H   LIG d   1      12.700  11.709   1.325  0.00  0.00     0.039 H 
ENDBRANCH  66  69
ENDBRANCH   3  65
TORSDOF 11
ENDMDL
