MODEL 1
REMARK VINA RESULT:      -6.2      0.000      0.000
REMARK  10 active torsions:
REMARK  status: ('A' for Active; 'I' for Inactive)
REMARK    1  A    between atoms: C_1  and  C_2 
REMARK    2  A    between atoms: C_3  and  C_33 
REMARK    3  A    between atoms: C_9  and  C_32 
REMARK    4  A    between atoms: C_20  and  O_31 
REMARK    5  A    between atoms: C_24  and  C_30 
REMARK    6  A    between atoms: C_33  and  C_34 
REMARK    7  A    between atoms: C_34  and  C_35 
REMARK    8  A    between atoms: C_35  and  C_37 
REMARK    9  A    between atoms: C_35  and  C_38 
REMARK   10  A    between atoms: C_38  and  O_39 
ROOT
ATOM      1  C   LIG d   1       6.007  -2.113  -4.372  0.00  0.00    -0.028 C 
ATOM      2  C   LIG d   1       4.964  -2.506  -3.670  0.00  0.00     0.098 C 
ATOM      3  O   LIG d   1       4.294  -3.538  -4.228  0.00  0.00    -0.492 OA
ATOM      4  C   LIG d   1       5.136  -4.174  -5.202  0.00  0.00     0.107 C 
ATOM      5  H   LIG d   1       5.632  -5.067  -4.814  0.00  0.00     0.074 H 
ATOM      6  C   LIG d   1       6.139  -3.027  -5.565  0.00  0.00     0.033 C 
ATOM      7  H   LIG d   1       7.162  -3.383  -5.729  0.00  0.00     0.039 H 
ATOM      8  C   LIG d   1       5.527  -2.410  -6.834  0.00  0.00     0.039 C 
ATOM      9  C   LIG d   1       5.094  -3.696  -7.567  0.00  0.00    -0.022 C 
ATOM     10  H   LIG d   1       6.012  -4.280  -7.764  0.00  0.00     0.031 H 
ATOM     11  C   LIG d   1       4.327  -4.458  -6.491  0.00  0.00    -0.011 C 
ATOM     12  C   LIG d   1       4.432  -3.458  -8.898  0.00  0.00    -0.034 C 
ATOM     13  H   LIG d   1       3.353  -3.604  -8.788  0.00  0.00     0.031 H 
ATOM     14  C   LIG d   1       4.970  -4.525  -9.865  0.00  0.00    -0.049 C 
ATOM     15  C   LIG d   1       4.411  -4.325 -11.270  0.00  0.00    -0.049 C 
ATOM     16  C   LIG d   1       4.839  -2.946 -11.772  0.00  0.00    -0.033 C 
ATOM     17  H   LIG d   1       5.937  -2.890 -11.743  0.00  0.00     0.031 H 
ATOM     18  C   LIG d   1       4.384  -2.747 -13.216  0.00  0.00    -0.024 C 
ATOM     19  C   LIG d   1       4.840  -1.376 -13.717  0.00  0.00     0.056 C 
ATOM     20  H   LIG d   1       5.931  -1.335 -13.719  0.00  0.00     0.059 H 
ATOM     21  C   LIG d   1       4.292  -0.273 -12.813  0.00  0.00    -0.026 C 
ATOM     22  C   LIG d   1       4.738  -0.494 -11.371  0.00  0.00    -0.045 C 
ATOM     23  C   LIG d   1       4.267  -1.863 -10.869  0.00  0.00    -0.026 C 
ATOM     24  C   LIG d   1       4.711  -2.061  -9.420  0.00  0.00    -0.026 C 
ATOM     25  H   LIG d   1       4.064  -1.363  -8.869  0.00  0.00     0.031 H 
ATOM     26  C   LIG d   1       6.150  -1.619  -9.202  0.00  0.00     0.010 C 
ATOM     27  C   LIG d   1       6.521  -1.719  -7.725  0.00  0.00     0.140 C 
ATOM     28  O   LIG d   1       7.566  -1.266  -7.292  0.00  0.00    -0.297 OA
ATOM     29  H   LIG d   1       4.326  -5.524  -6.713  0.00  0.00     0.030 H 
ATOM     30  H   LIG d   1       3.311  -4.084  -6.402  0.00  0.00     0.030 H 
ATOM     31  H   LIG d   1       6.059  -4.459  -9.895  0.00  0.00     0.027 H 
ATOM     32  H   LIG d   1       4.684  -5.512  -9.498  0.00  0.00     0.027 H 
ATOM     33  H   LIG d   1       4.833  -5.091 -11.932  0.00  0.00     0.027 H 
ATOM     34  H   LIG d   1       3.332  -4.426 -11.268  0.00  0.00     0.027 H 
ATOM     35  H   LIG d   1       4.843  -3.520 -13.844  0.00  0.00     0.029 H 
ATOM     36  H   LIG d   1       3.305  -2.835 -13.302  0.00  0.00     0.029 H 
ATOM     37  H   LIG d   1       3.207  -0.239 -12.883  0.00  0.00     0.029 H 
ATOM     38  H   LIG d   1       4.683   0.692 -13.160  0.00  0.00     0.029 H 
ATOM     39  H   LIG d   1       4.322   0.286 -10.734  0.00  0.00     0.027 H 
ATOM     40  H   LIG d   1       5.829  -0.451 -11.327  0.00  0.00     0.027 H 
ATOM     41  H   LIG d   1       6.255  -0.668  -9.494  0.00  0.00     0.035 H 
ATOM     42  H   LIG d   1       6.826  -2.247  -9.790  0.00  0.00     0.035 H 
ENDROOT
BRANCH   2  43
ATOM     43  C   LIG d   1       4.548  -1.854  -2.377  0.00  0.00     0.005 C 
ATOM     44  H   LIG d   1       5.274  -1.087  -2.108  0.00  0.00     0.034 H 
ATOM     45  H   LIG d   1       4.506  -2.606  -1.589  0.00  0.00     0.034 H 
BRANCH  43  46
ATOM     46  C   LIG d   1       3.169  -1.215  -2.547  0.00  0.00    -0.042 C 
ATOM     47  H   LIG d   1       2.492  -1.604  -1.786  0.00  0.00     0.027 H 
ATOM     48  H   LIG d   1       2.778  -1.453  -3.536  0.00  0.00     0.027 H 
BRANCH  46  49
ATOM     49  C   LIG d   1       3.288   0.303  -2.397  0.00  0.00    -0.020 C 
ATOM     50  H   LIG d   1       2.434   0.680  -1.834  0.00  0.00     0.032 H 
BRANCH  49  51
ATOM     51  C   LIG d   1       4.580   0.642  -1.649  0.00  0.00    -0.060 C 
ATOM     52  H   LIG d   1       5.091   1.459  -2.158  0.00  0.00     0.023 H 
ATOM     53  H   LIG d   1       4.340   0.942  -0.629  0.00  0.00     0.023 H 
ATOM     54  H   LIG d   1       5.228  -0.234  -1.627  0.00  0.00     0.023 H 
ENDBRANCH  49  51
BRANCH  49  55
ATOM     55  C   LIG d   1       3.315   0.953  -3.781  0.00  0.00     0.047 C 
ATOM     56  H   LIG d   1       2.402   0.698  -4.319  0.00  0.00     0.056 H 
ATOM     57  H   LIG d   1       4.178   0.587  -4.338  0.00  0.00     0.056 H 
BRANCH  55  58
ATOM     58  O   LIG d   1       3.406   2.371  -3.640  0.00  0.00    -0.395 OA
ATOM     59  H   LIG d   1       2.577   2.839  -3.815  0.00  0.00     0.209 HD
ENDBRANCH  55  58
ENDBRANCH  49  55
ENDBRANCH  46  49
ENDBRANCH  43  46
ENDBRANCH   2  43
BRANCH   1  60
ATOM     60  C   LIG d   1       6.918  -0.965  -4.011  0.00  0.00    -0.040 C 
ATOM     61  H   LIG d   1       7.945  -1.220  -4.275  0.00  0.00     0.028 H 
ATOM     62  H   LIG d   1       6.613  -0.073  -4.557  0.00  0.00     0.028 H 
ATOM     63  H   LIG d   1       6.855  -0.775  -2.939  0.00  0.00     0.028 H 
ENDBRANCH   1  60
BRANCH   8  64
ATOM     64  C   LIG d   1       4.363  -1.501  -6.464  0.00  0.00    -0.052 C 
ATOM     65  H   LIG d   1       4.563  -0.490  -6.820  0.00  0.00     0.024 H 
ATOM     66  H   LIG d   1       3.449  -1.874  -6.927  0.00  0.00     0.024 H 
ATOM     67  H   LIG d   1       4.242  -1.487  -5.382  0.00  0.00     0.024 H 
ENDBRANCH   8  64
BRANCH  23  68
ATOM     68  C   LIG d   1       2.735  -1.893 -10.897  0.00  0.00    -0.059 C 
ATOM     69  H   LIG d   1       2.394  -2.928 -10.948  0.00  0.00     0.024 H 
ATOM     70  H   LIG d   1       2.346  -1.426  -9.993  0.00  0.00     0.024 H 
ATOM     71  H   LIG d   1       2.377  -1.349 -11.771  0.00  0.00     0.024 H 
ENDBRANCH  23  68
BRANCH  19  72
ATOM     72  O   LIG d   1       4.362  -1.176 -15.051  0.00  0.00    -0.392 OA
ATOM     73  H   LIG d   1       4.504  -1.932 -15.637  0.00  0.00     0.210 HD
ENDBRANCH  19  72
TORSDOF 10
ENDMDL
MODEL 2
REMARK VINA RESULT:      -5.9      3.942      7.590
REMARK  10 active torsions:
REMARK  status: ('A' for Active; 'I' for Inactive)
REMARK    1  A    between atoms: C_1  and  C_2 
REMARK    2  A    between atoms: C_3  and  C_33 
REMARK    3  A    between atoms: C_9  and  C_32 
REMARK    4  A    between atoms: C_20  and  O_31 
REMARK    5  A    between atoms: C_24  and  C_30 
REMARK    6  A    between atoms: C_33  and  C_34 
REMARK    7  A    between atoms: C_34  and  C_35 
REMARK    8  A    between atoms: C_35  and  C_37 
REMARK    9  A    between atoms: C_35  and  C_38 
REMARK   10  A    between atoms: C_38  and  O_39 
ROOT
ATOM      1  C   LIG d   1       5.062  -1.403  -6.213  0.00  0.00    -0.028 C 
ATOM      2  C   LIG d   1       4.791  -0.407  -5.394  0.00  0.00     0.098 C 
ATOM      3  O   LIG d   1       5.889   0.145  -4.832  0.00  0.00    -0.492 OA
ATOM      4  C   LIG d   1       7.047  -0.233  -5.592  0.00  0.00     0.107 C 
ATOM      5  H   LIG d   1       7.361   0.539  -6.299  0.00  0.00     0.074 H 
ATOM      6  C   LIG d   1       6.561  -1.544  -6.296  0.00  0.00     0.033 C 
ATOM      7  H   LIG d   1       6.933  -1.648  -7.322  0.00  0.00     0.039 H 
ATOM      8  C   LIG d   1       7.087  -2.658  -5.373  0.00  0.00     0.039 C 
ATOM      9  C   LIG d   1       8.488  -2.093  -5.056  0.00  0.00    -0.022 C 
ATOM     10  H   LIG d   1       9.034  -2.027  -6.015  0.00  0.00     0.031 H 
ATOM     11  C   LIG d   1       8.187  -0.658  -4.635  0.00  0.00    -0.011 C 
ATOM     12  C   LIG d   1       9.312  -2.960  -4.141  0.00  0.00    -0.034 C 
ATOM     13  H   LIG d   1       9.316  -2.515  -3.142  0.00  0.00     0.031 H 
ATOM     14  C   LIG d   1      10.750  -2.946  -4.684  0.00  0.00    -0.049 C 
ATOM     15  C   LIG d   1      11.655  -3.858  -3.864  0.00  0.00    -0.049 C 
ATOM     16  C   LIG d   1      11.113  -5.285  -3.945  0.00  0.00    -0.033 C 
ATOM     17  H   LIG d   1      11.065  -5.579  -5.003  0.00  0.00     0.031 H 
ATOM     18  C   LIG d   1      12.049  -6.247  -3.219  0.00  0.00    -0.024 C 
ATOM     19  C   LIG d   1      11.511  -7.675  -3.329  0.00  0.00     0.056 C 
ATOM     20  H   LIG d   1      11.496  -7.976  -4.378  0.00  0.00     0.059 H 
ATOM     21  C   LIG d   1      10.096  -7.752  -2.759  0.00  0.00    -0.026 C 
ATOM     22  C   LIG d   1       9.175  -6.773  -3.481  0.00  0.00    -0.045 C 
ATOM     23  C   LIG d   1       9.711  -5.343  -3.355  0.00  0.00    -0.026 C 
ATOM     24  C   LIG d   1       8.770  -4.375  -4.072  0.00  0.00    -0.026 C 
ATOM     25  H   LIG d   1       7.887  -4.363  -3.417  0.00  0.00     0.031 H 
ATOM     26  C   LIG d   1       8.328  -4.911  -5.425  0.00  0.00     0.010 C 
ATOM     27  C   LIG d   1       7.299  -3.978  -6.058  0.00  0.00     0.140 C 
ATOM     28  O   LIG d   1       6.685  -4.286  -7.065  0.00  0.00    -0.297 OA
ATOM     29  H   LIG d   1       9.065  -0.030  -4.786  0.00  0.00     0.030 H 
ATOM     30  H   LIG d   1       7.860  -0.618  -3.600  0.00  0.00     0.030 H 
ATOM     31  H   LIG d   1      10.739  -3.284  -5.722  0.00  0.00     0.027 H 
ATOM     32  H   LIG d   1      11.133  -1.925  -4.647  0.00  0.00     0.027 H 
ATOM     33  H   LIG d   1      12.664  -3.837  -4.293  0.00  0.00     0.027 H 
ATOM     34  H   LIG d   1      11.710  -3.516  -2.836  0.00  0.00     0.027 H 
ATOM     35  H   LIG d   1      13.037  -6.208  -3.692  0.00  0.00     0.029 H 
ATOM     36  H   LIG d   1      12.160  -5.971  -2.174  0.00  0.00     0.029 H 
ATOM     37  H   LIG d   1      10.114  -7.552  -1.690  0.00  0.00     0.029 H 
ATOM     38  H   LIG d   1       9.713  -8.770  -2.906  0.00  0.00     0.029 H 
ATOM     39  H   LIG d   1       8.175  -6.822  -3.049  0.00  0.00     0.027 H 
ATOM     40  H   LIG d   1       9.125  -7.046  -4.537  0.00  0.00     0.027 H 
ATOM     41  H   LIG d   1       7.911  -5.813  -5.307  0.00  0.00     0.035 H 
ATOM     42  H   LIG d   1       9.192  -5.005  -6.090  0.00  0.00     0.035 H 
ENDROOT
BRANCH   2  43
ATOM     43  C   LIG d   1       3.389   0.060  -5.100  0.00  0.00     0.005 C 
ATOM     44  H   LIG d   1       2.765  -0.800  -4.855  0.00  0.00     0.034 H 
ATOM     45  H   LIG d   1       2.983   0.564  -5.977  0.00  0.00     0.034 H 
BRANCH  43  46
ATOM     46  C   LIG d   1       3.411   1.030  -3.918  0.00  0.00    -0.042 C 
ATOM     47  H   LIG d   1       2.607   1.758  -4.030  0.00  0.00     0.027 H 
ATOM     48  H   LIG d   1       4.369   1.549  -3.892  0.00  0.00     0.027 H 
BRANCH  46  49
ATOM     49  C   LIG d   1       3.215   0.251  -2.615  0.00  0.00    -0.020 C 
ATOM     50  H   LIG d   1       2.386   0.683  -2.056  0.00  0.00     0.032 H 
BRANCH  49  51
ATOM     51  C   LIG d   1       2.905  -1.212  -2.938  0.00  0.00    -0.060 C 
ATOM     52  H   LIG d   1       2.315  -1.645  -2.130  0.00  0.00     0.023 H 
ATOM     53  H   LIG d   1       2.341  -1.267  -3.868  0.00  0.00     0.023 H 
ATOM     54  H   LIG d   1       3.838  -1.767  -3.044  0.00  0.00     0.023 H 
ENDBRANCH  49  51
BRANCH  49  55
ATOM     55  C   LIG d   1       4.493   0.330  -1.777  0.00  0.00     0.047 C 
ATOM     56  H   LIG d   1       5.033  -0.614  -1.849  0.00  0.00     0.056 H 
ATOM     57  H   LIG d   1       4.232   0.521  -0.736  0.00  0.00     0.056 H 
BRANCH  55  58
ATOM     58  O   LIG d   1       5.317   1.390  -2.263  0.00  0.00    -0.395 OA
ATOM     59  H   LIG d   1       5.867   1.146  -3.020  0.00  0.00     0.209 HD
ENDBRANCH  55  58
ENDBRANCH  49  55
ENDBRANCH  46  49
ENDBRANCH  43  46
ENDBRANCH   2  43
BRANCH   1  60
ATOM     60  C   LIG d   1       4.036  -2.226  -6.954  0.00  0.00    -0.040 C 
ATOM     61  H   LIG d   1       3.208  -2.462  -6.285  0.00  0.00     0.028 H 
ATOM     62  H   LIG d   1       3.665  -1.660  -7.808  0.00  0.00     0.028 H 
ATOM     63  H   LIG d   1       4.497  -3.151  -7.302  0.00  0.00     0.028 H 
ENDBRANCH   1  60
BRANCH   8  64
ATOM     64  C   LIG d   1       6.193  -2.786  -4.148  0.00  0.00    -0.052 C 
ATOM     65  H   LIG d   1       5.279  -3.317  -4.419  0.00  0.00     0.024 H 
ATOM     66  H   LIG d   1       6.718  -3.342  -3.371  0.00  0.00     0.024 H 
ATOM     67  H   LIG d   1       5.939  -1.794  -3.777  0.00  0.00     0.024 H 
ENDBRANCH   8  64
BRANCH  23  68
ATOM     68  C   LIG d   1       9.736  -4.959  -1.872  0.00  0.00    -0.059 C 
ATOM     69  H   LIG d   1       9.729  -3.872  -1.779  0.00  0.00     0.024 H 
ATOM     70  H   LIG d   1       8.859  -5.372  -1.375  0.00  0.00     0.024 H 
ATOM     71  H   LIG d   1      10.638  -5.357  -1.409  0.00  0.00     0.024 H 
ENDBRANCH  23  68
BRANCH  19  72
ATOM     72  O   LIG d   1      12.365  -8.561  -2.599  0.00  0.00    -0.392 OA
ATOM     73  H   LIG d   1      11.959  -9.411  -2.385  0.00  0.00     0.210 HD
ENDBRANCH  19  72
TORSDOF 10
ENDMDL
MODEL 3
REMARK VINA RESULT:      -5.9      1.749      3.141
REMARK  10 active torsions:
REMARK  status: ('A' for Active; 'I' for Inactive)
REMARK    1  A    between atoms: C_1  and  C_2 
REMARK    2  A    between atoms: C_3  and  C_33 
REMARK    3  A    between atoms: C_9  and  C_32 
REMARK    4  A    between atoms: C_20  and  O_31 
REMARK    5  A    between atoms: C_24  and  C_30 
REMARK    6  A    between atoms: C_33  and  C_34 
REMARK    7  A    between atoms: C_34  and  C_35 
REMARK    8  A    between atoms: C_35  and  C_37 
REMARK    9  A    between atoms: C_35  and  C_38 
REMARK   10  A    between atoms: C_38  and  O_39 
ROOT
ATOM      1  C   LIG d   1       5.223  -1.861  -5.582  0.00  0.00    -0.028 C 
ATOM      2  C   LIG d   1       5.589  -0.634  -5.274  0.00  0.00     0.098 C 
ATOM      3  O   LIG d   1       4.766   0.317  -5.768  0.00  0.00    -0.492 OA
ATOM      4  C   LIG d   1       3.517  -0.288  -6.134  0.00  0.00     0.107 C 
ATOM      5  H   LIG d   1       2.746  -0.164  -5.369  0.00  0.00     0.074 H 
ATOM      6  C   LIG d   1       3.928  -1.783  -6.351  0.00  0.00     0.033 C 
ATOM      7  H   LIG d   1       3.171  -2.495  -6.003  0.00  0.00     0.039 H 
ATOM      8  C   LIG d   1       4.153  -1.872  -7.871  0.00  0.00     0.039 C 
ATOM      9  C   LIG d   1       2.957  -1.031  -8.361  0.00  0.00    -0.022 C 
ATOM     10  H   LIG d   1       2.039  -1.547  -8.025  0.00  0.00     0.031 H 
ATOM     11  C   LIG d   1       3.066   0.237  -7.519  0.00  0.00    -0.011 C 
ATOM     12  C   LIG d   1       2.863  -0.901  -9.858  0.00  0.00    -0.034 C 
ATOM     13  H   LIG d   1       3.204   0.097 -10.149  0.00  0.00     0.031 H 
ATOM     14  C   LIG d   1       1.377  -1.033 -10.229  0.00  0.00    -0.049 C 
ATOM     15  C   LIG d   1       1.182  -0.987 -11.740  0.00  0.00    -0.049 C 
ATOM     16  C   LIG d   1       1.949  -2.151 -12.366  0.00  0.00    -0.033 C 
ATOM     17  H   LIG d   1       1.584  -3.089 -11.922  0.00  0.00     0.031 H 
ATOM     18  C   LIG d   1       1.698  -2.201 -13.871  0.00  0.00    -0.024 C 
ATOM     19  C   LIG d   1       2.448  -3.385 -14.483  0.00  0.00     0.056 C 
ATOM     20  H   LIG d   1       2.061  -4.315 -14.064  0.00  0.00     0.059 H 
ATOM     21  C   LIG d   1       3.942  -3.276 -14.181  0.00  0.00    -0.026 C 
ATOM     22  C   LIG d   1       4.179  -3.210 -12.675  0.00  0.00    -0.045 C 
ATOM     23  C   LIG d   1       3.436  -2.014 -12.069  0.00  0.00    -0.026 C 
ATOM     24  C   LIG d   1       3.696  -1.955 -10.565  0.00  0.00    -0.026 C 
ATOM     25  H   LIG d   1       4.748  -1.641 -10.510  0.00  0.00     0.031 H 
ATOM     26  C   LIG d   1       3.594  -3.328  -9.917  0.00  0.00     0.010 C 
ATOM     27  C   LIG d   1       3.975  -3.251  -8.441  0.00  0.00     0.140 C 
ATOM     28  O   LIG d   1       4.123  -4.251  -7.762  0.00  0.00    -0.297 OA
ATOM     29  H   LIG d   1       2.094   0.723  -7.444  0.00  0.00     0.030 H 
ATOM     30  H   LIG d   1       3.804   0.916  -7.936  0.00  0.00     0.030 H 
ATOM     31  H   LIG d   1       0.999  -1.981  -9.843  0.00  0.00     0.027 H 
ATOM     32  H   LIG d   1       0.823  -0.215  -9.766  0.00  0.00     0.027 H 
ATOM     33  H   LIG d   1       0.115  -1.105 -11.964  0.00  0.00     0.027 H 
ATOM     34  H   LIG d   1       1.517  -0.036 -12.139  0.00  0.00     0.027 H 
ATOM     35  H   LIG d   1       0.624  -2.338 -14.048  0.00  0.00     0.029 H 
ATOM     36  H   LIG d   1       2.007  -1.276 -14.350  0.00  0.00     0.029 H 
ATOM     37  H   LIG d   1       4.361  -2.405 -14.679  0.00  0.00     0.029 H 
ATOM     38  H   LIG d   1       4.446  -4.167 -14.578  0.00  0.00     0.029 H 
ATOM     39  H   LIG d   1       5.246  -3.110 -12.475  0.00  0.00     0.027 H 
ATOM     40  H   LIG d   1       3.811  -4.131 -12.217  0.00  0.00     0.027 H 
ATOM     41  H   LIG d   1       4.220  -3.960 -10.376  0.00  0.00     0.035 H 
ATOM     42  H   LIG d   1       2.572  -3.710 -10.010  0.00  0.00     0.035 H 
ENDROOT
BRANCH   2  43
ATOM     43  C   LIG d   1       6.819  -0.321  -4.461  0.00  0.00     0.005 C 
ATOM     44  H   LIG d   1       7.157   0.690  -4.689  0.00  0.00     0.034 H 
ATOM     45  H   LIG d   1       7.607  -1.032  -4.708  0.00  0.00     0.034 H 
BRANCH  43  46
ATOM     46  C   LIG d   1       6.487  -0.426  -2.972  0.00  0.00    -0.042 C 
ATOM     47  H   LIG d   1       7.009   0.361  -2.426  0.00  0.00     0.027 H 
ATOM     48  H   LIG d   1       6.804  -1.398  -2.596  0.00  0.00     0.027 H 
BRANCH  46  49
ATOM     49  C   LIG d   1       4.978  -0.268  -2.773  0.00  0.00    -0.020 C 
ATOM     50  H   LIG d   1       4.474  -0.355  -3.735  0.00  0.00     0.032 H 
BRANCH  49  51
ATOM     51  C   LIG d   1       4.472  -1.364  -1.831  0.00  0.00    -0.060 C 
ATOM     52  H   LIG d   1       3.820  -2.044  -2.382  0.00  0.00     0.023 H 
ATOM     53  H   LIG d   1       5.320  -1.919  -1.431  0.00  0.00     0.023 H 
ATOM     54  H   LIG d   1       3.914  -0.911  -1.012  0.00  0.00     0.023 H 
ENDBRANCH  49  51
BRANCH  49  55
ATOM     55  C   LIG d   1       4.683   1.104  -2.164  0.00  0.00     0.047 C 
ATOM     56  H   LIG d   1       5.598   1.516  -1.738  0.00  0.00     0.056 H 
ATOM     57  H   LIG d   1       3.933   1.000  -1.380  0.00  0.00     0.056 H 
BRANCH  55  58
ATOM     58  O   LIG d   1       4.193   1.980  -3.179  0.00  0.00    -0.395 OA
ATOM     59  H   LIG d   1       4.862   2.578  -3.540  0.00  0.00     0.209 HD
ENDBRANCH  55  58
ENDBRANCH  49  55
ENDBRANCH  46  49
ENDBRANCH  43  46
ENDBRANCH   2  43
BRANCH   1  60
ATOM     60  C   LIG d   1       5.967  -3.116  -5.196  0.00  0.00    -0.040 C 
ATOM     61  H   LIG d   1       5.379  -3.989  -5.480  0.00  0.00     0.028 H 
ATOM     62  H   LIG d   1       6.928  -3.142  -5.710  0.00  0.00     0.028 H 
ATOM     63  H   LIG d   1       6.132  -3.124  -4.118  0.00  0.00     0.028 H 
ENDBRANCH   1  60
BRANCH   8  64
ATOM     64  C   LIG d   1       5.505  -1.274  -8.234  0.00  0.00    -0.052 C 
ATOM     65  H   LIG d   1       5.466  -0.190  -8.121  0.00  0.00     0.024 H 
ATOM     66  H   LIG d   1       6.272  -1.679  -7.573  0.00  0.00     0.024 H 
ATOM     67  H   LIG d   1       5.747  -1.522  -9.267  0.00  0.00     0.024 H 
ENDBRANCH   8  64
BRANCH  23  68
ATOM     68  C   LIG d   1       3.991  -0.728 -12.690  0.00  0.00    -0.059 C 
ATOM     69  H   LIG d   1       3.179  -0.174 -13.162  0.00  0.00     0.024 H 
ATOM     70  H   LIG d   1       4.446  -0.116 -11.912  0.00  0.00     0.024 H 
ATOM     71  H   LIG d   1       4.742  -0.981 -13.439  0.00  0.00     0.024 H 
ENDBRANCH  23  68
BRANCH  19  72
ATOM     72  O   LIG d   1       2.251  -3.390 -15.900  0.00  0.00    -0.392 OA
ATOM     73  H   LIG d   1       2.174  -4.274 -16.283  0.00  0.00     0.210 HD
ENDBRANCH  19  72
TORSDOF 10
ENDMDL
MODEL 4
REMARK VINA RESULT:      -5.8      2.163      3.499
REMARK  10 active torsions:
REMARK  status: ('A' for Active; 'I' for Inactive)
REMARK    1  A    between atoms: C_1  and  C_2 
REMARK    2  A    between atoms: C_3  and  C_33 
REMARK    3  A    between atoms: C_9  and  C_32 
REMARK    4  A    between atoms: C_20  and  O_31 
REMARK    5  A    between atoms: C_24  and  C_30 
REMARK    6  A    between atoms: C_33  and  C_34 
REMARK    7  A    between atoms: C_34  and  C_35 
REMARK    8  A    between atoms: C_35  and  C_37 
REMARK    9  A    between atoms: C_35  and  C_38 
REMARK   10  A    between atoms: C_38  and  O_39 
ROOT
ATOM      1  C   LIG d   1       5.665  -1.199  -4.572  0.00  0.00    -0.028 C 
ATOM      2  C   LIG d   1       5.574   0.011  -4.059  0.00  0.00     0.098 C 
ATOM      3  O   LIG d   1       4.473   0.686  -4.455  0.00  0.00    -0.492 OA
ATOM      4  C   LIG d   1       3.518  -0.244  -4.988  0.00  0.00     0.107 C 
ATOM      5  H   LIG d   1       2.748  -0.521  -4.264  0.00  0.00     0.074 H 
ATOM      6  C   LIG d   1       4.429  -1.448  -5.401  0.00  0.00     0.033 C 
ATOM      7  H   LIG d   1       3.968  -2.424  -5.214  0.00  0.00     0.039 H 
ATOM      8  C   LIG d   1       4.682  -1.203  -6.900  0.00  0.00     0.039 C 
ATOM      9  C   LIG d   1       3.270  -0.758  -7.333  0.00  0.00    -0.022 C 
ATOM     10  H   LIG d   1       2.590  -1.608  -7.137  0.00  0.00     0.031 H 
ATOM     11  C   LIG d   1       2.921   0.313  -6.304  0.00  0.00    -0.011 C 
ATOM     12  C   LIG d   1       3.147  -0.426  -8.796  0.00  0.00    -0.034 C 
ATOM     13  H   LIG d   1       3.117   0.662  -8.910  0.00  0.00     0.031 H 
ATOM     14  C   LIG d   1       1.804  -1.000  -9.276  0.00  0.00    -0.049 C 
ATOM     15  C   LIG d   1       1.616  -0.777 -10.772  0.00  0.00    -0.049 C 
ATOM     16  C   LIG d   1       2.747  -1.485 -11.517  0.00  0.00    -0.033 C 
ATOM     17  H   LIG d   1       2.731  -2.550 -11.244  0.00  0.00     0.031 H 
ATOM     18  C   LIG d   1       2.539  -1.371 -13.025  0.00  0.00    -0.024 C 
ATOM     19  C   LIG d   1       3.662  -2.105 -13.759  0.00  0.00     0.056 C 
ATOM     20  H   LIG d   1       3.623  -3.168 -13.512  0.00  0.00     0.059 H 
ATOM     21  C   LIG d   1       5.021  -1.538 -13.350  0.00  0.00    -0.026 C 
ATOM     22  C   LIG d   1       5.208  -1.642 -11.839  0.00  0.00    -0.045 C 
ATOM     23  C   LIG d   1       4.089  -0.894 -11.109  0.00  0.00    -0.026 C 
ATOM     24  C   LIG d   1       4.301  -0.996  -9.599  0.00  0.00    -0.026 C 
ATOM     25  H   LIG d   1       5.176  -0.351  -9.431  0.00  0.00     0.031 H 
ATOM     26  C   LIG d   1       4.684  -2.406  -9.174  0.00  0.00     0.010 C 
ATOM     27  C   LIG d   1       5.003  -2.445  -7.682  0.00  0.00     0.140 C 
ATOM     28  O   LIG d   1       5.489  -3.430  -7.154  0.00  0.00    -0.297 OA
ATOM     29  H   LIG d   1       1.839   0.414  -6.218  0.00  0.00     0.030 H 
ATOM     30  H   LIG d   1       3.376   1.263  -6.565  0.00  0.00     0.030 H 
ATOM     31  H   LIG d   1       1.780  -2.070  -9.063  0.00  0.00     0.027 H 
ATOM     32  H   LIG d   1       0.995  -0.512  -8.731  0.00  0.00     0.027 H 
ATOM     33  H   LIG d   1       0.659  -1.218 -11.080  0.00  0.00     0.027 H 
ATOM     34  H   LIG d   1       1.597   0.283 -11.000  0.00  0.00     0.027 H 
ATOM     35  H   LIG d   1       1.584  -1.839 -13.289  0.00  0.00     0.029 H 
ATOM     36  H   LIG d   1       2.507  -0.331 -13.338  0.00  0.00     0.029 H 
ATOM     37  H   LIG d   1       5.109  -0.507 -13.683  0.00  0.00     0.029 H 
ATOM     38  H   LIG d   1       5.808  -2.123 -13.844  0.00  0.00     0.029 H 
ATOM     39  H   LIG d   1       6.171  -1.214 -11.558  0.00  0.00     0.027 H 
ATOM     40  H   LIG d   1       5.184  -2.695 -11.550  0.00  0.00     0.027 H 
ATOM     41  H   LIG d   1       5.495  -2.699  -9.682  0.00  0.00     0.035 H 
ATOM     42  H   LIG d   1       3.862  -3.096  -9.389  0.00  0.00     0.035 H 
ENDROOT
BRANCH   2  43
ATOM     43  C   LIG d   1       6.610   0.591  -3.131  0.00  0.00     0.005 C 
ATOM     44  H   LIG d   1       7.338  -0.178  -2.873  0.00  0.00     0.034 H 
ATOM     45  H   LIG d   1       6.125   0.950  -2.224  0.00  0.00     0.034 H 
BRANCH  43  46
ATOM     46  C   LIG d   1       7.321   1.755  -3.824  0.00  0.00    -0.042 C 
ATOM     47  H   LIG d   1       7.464   2.569  -3.113  0.00  0.00     0.027 H 
ATOM     48  H   LIG d   1       6.715   2.105  -4.659  0.00  0.00     0.027 H 
BRANCH  46  49
ATOM     49  C   LIG d   1       8.683   1.286  -4.342  0.00  0.00    -0.020 C 
ATOM     50  H   LIG d   1       8.820   0.232  -4.100  0.00  0.00     0.032 H 
BRANCH  49  51
ATOM     51  C   LIG d   1       8.742   1.472  -5.860  0.00  0.00    -0.060 C 
ATOM     52  H   LIG d   1       9.776   1.632  -6.166  0.00  0.00     0.023 H 
ATOM     53  H   LIG d   1       8.352   0.581  -6.350  0.00  0.00     0.023 H 
ATOM     54  H   LIG d   1       8.141   2.336  -6.144  0.00  0.00     0.023 H 
ENDBRANCH  49  51
BRANCH  49  55
ATOM     55  C   LIG d   1       9.791   2.110  -3.683  0.00  0.00     0.047 C 
ATOM     56  H   LIG d   1      10.507   2.427  -4.441  0.00  0.00     0.056 H 
ATOM     57  H   LIG d   1      10.300   1.501  -2.935  0.00  0.00     0.056 H 
BRANCH  55  58
ATOM     58  O   LIG d   1       9.221   3.258  -3.054  0.00  0.00    -0.395 OA
ATOM     59  H   LIG d   1       8.374   3.535  -3.432  0.00  0.00     0.209 HD
ENDBRANCH  55  58
ENDBRANCH  49  55
ENDBRANCH  46  49
ENDBRANCH  43  46
ENDBRANCH   2  43
BRANCH   1  60
ATOM     60  C   LIG d   1       6.800  -2.165  -4.334  0.00  0.00    -0.040 C 
ATOM     61  H   LIG d   1       7.446  -2.190  -5.212  0.00  0.00     0.028 H 
ATOM     62  H   LIG d   1       7.376  -1.841  -3.468  0.00  0.00     0.028 H 
ATOM     63  H   LIG d   1       6.396  -3.161  -4.150  0.00  0.00     0.028 H 
ENDBRANCH   1  60
BRANCH   8  64
ATOM     64  C   LIG d   1       5.740  -0.124  -7.081  0.00  0.00    -0.052 C 
ATOM     65  H   LIG d   1       5.389   0.808  -6.636  0.00  0.00     0.024 H 
ATOM     66  H   LIG d   1       6.664  -0.434  -6.592  0.00  0.00     0.024 H 
ATOM     67  H   LIG d   1       5.925   0.029  -8.144  0.00  0.00     0.024 H 
ENDBRANCH   8  64
BRANCH  23  68
ATOM     68  C   LIG d   1       4.161   0.589 -11.491  0.00  0.00    -0.059 C 
ATOM     69  H   LIG d   1       4.887   1.093 -10.852  0.00  0.00     0.024 H 
ATOM     70  H   LIG d   1       4.468   0.681 -12.532  0.00  0.00     0.024 H 
ATOM     71  H   LIG d   1       3.181   1.046 -11.359  0.00  0.00     0.024 H 
ENDBRANCH  23  68
BRANCH  19  72
ATOM     72  O   LIG d   1       3.488  -1.946 -15.171  0.00  0.00    -0.392 OA
ATOM     73  H   LIG d   1       3.896  -2.646 -15.699  0.00  0.00     0.210 HD
ENDBRANCH  19  72
TORSDOF 10
ENDMDL
MODEL 5
REMARK VINA RESULT:      -5.8      4.987      7.610
REMARK  10 active torsions:
REMARK  status: ('A' for Active; 'I' for Inactive)
REMARK    1  A    between atoms: C_1  and  C_2 
REMARK    2  A    between atoms: C_3  and  C_33 
REMARK    3  A    between atoms: C_9  and  C_32 
REMARK    4  A    between atoms: C_20  and  O_31 
REMARK    5  A    between atoms: C_24  and  C_30 
REMARK    6  A    between atoms: C_33  and  C_34 
REMARK    7  A    between atoms: C_34  and  C_35 
REMARK    8  A    between atoms: C_35  and  C_37 
REMARK    9  A    between atoms: C_35  and  C_38 
REMARK   10  A    between atoms: C_38  and  O_39 
ROOT
ATOM      1  C   LIG d   1      10.869   2.683  -6.357  0.00  0.00    -0.028 C 
ATOM      2  C   LIG d   1      10.456   3.890  -6.030  0.00  0.00     0.098 C 
ATOM      3  O   LIG d   1       9.658   3.912  -4.940  0.00  0.00    -0.492 OA
ATOM      4  C   LIG d   1       9.820   2.684  -4.214  0.00  0.00     0.107 C 
ATOM      5  H   LIG d   1      10.508   2.778  -3.370  0.00  0.00     0.074 H 
ATOM      6  C   LIG d   1      10.347   1.714  -5.326  0.00  0.00     0.033 C 
ATOM      7  H   LIG d   1      11.106   1.012  -4.963  0.00  0.00     0.039 H 
ATOM      8  C   LIG d   1       9.072   0.996  -5.803  0.00  0.00     0.039 C 
ATOM      9  C   LIG d   1       8.382   0.759  -4.443  0.00  0.00    -0.022 C 
ATOM     10  H   LIG d   1       9.053   0.110  -3.850  0.00  0.00     0.031 H 
ATOM     11  C   LIG d   1       8.435   2.137  -3.791  0.00  0.00    -0.011 C 
ATOM     12  C   LIG d   1       7.057   0.050  -4.537  0.00  0.00    -0.034 C 
ATOM     13  H   LIG d   1       6.255   0.781  -4.394  0.00  0.00     0.031 H 
ATOM     14  C   LIG d   1       7.005  -0.961  -3.380  0.00  0.00    -0.049 C 
ATOM     15  C   LIG d   1       5.724  -1.785  -3.428  0.00  0.00    -0.049 C 
ATOM     16  C   LIG d   1       5.686  -2.550  -4.751  0.00  0.00    -0.033 C 
ATOM     17  H   LIG d   1       6.591  -3.172  -4.819  0.00  0.00     0.031 H 
ATOM     18  C   LIG d   1       4.467  -3.468  -4.796  0.00  0.00    -0.024 C 
ATOM     19  C   LIG d   1       4.455  -4.248  -6.112  0.00  0.00     0.056 C 
ATOM     20  H   LIG d   1       5.337  -4.889  -6.161  0.00  0.00     0.059 H 
ATOM     21  C   LIG d   1       4.459  -3.284  -7.297  0.00  0.00    -0.026 C 
ATOM     22  C   LIG d   1       5.673  -2.362  -7.231  0.00  0.00    -0.045 C 
ATOM     23  C   LIG d   1       5.673  -1.573  -5.918  0.00  0.00    -0.026 C 
ATOM     24  C   LIG d   1       6.887  -0.645  -5.875  0.00  0.00    -0.026 C 
ATOM     25  H   LIG d   1       6.634   0.122  -6.620  0.00  0.00     0.031 H 
ATOM     26  C   LIG d   1       8.153  -1.344  -6.349  0.00  0.00     0.010 C 
ATOM     27  C   LIG d   1       9.317  -0.358  -6.406  0.00  0.00     0.140 C 
ATOM     28  O   LIG d   1      10.386  -0.654  -6.910  0.00  0.00    -0.297 OA
ATOM     29  H   LIG d   1       8.377   2.043  -2.708  0.00  0.00     0.030 H 
ATOM     30  H   LIG d   1       7.636   2.772  -4.164  0.00  0.00     0.030 H 
ATOM     31  H   LIG d   1       7.867  -1.625  -3.451  0.00  0.00     0.027 H 
ATOM     32  H   LIG d   1       7.053  -0.418  -2.434  0.00  0.00     0.027 H 
ATOM     33  H   LIG d   1       5.734  -2.506  -2.602  0.00  0.00     0.027 H 
ATOM     34  H   LIG d   1       4.855  -1.145  -3.319  0.00  0.00     0.027 H 
ATOM     35  H   LIG d   1       4.528  -4.181  -3.966  0.00  0.00     0.029 H 
ATOM     36  H   LIG d   1       3.547  -2.900  -4.691  0.00  0.00     0.029 H 
ATOM     37  H   LIG d   1       3.535  -2.711  -7.315  0.00  0.00     0.029 H 
ATOM     38  H   LIG d   1       4.511  -3.870  -8.225  0.00  0.00     0.029 H 
ATOM     39  H   LIG d   1       5.652  -1.666  -8.070  0.00  0.00     0.027 H 
ATOM     40  H   LIG d   1       6.581  -2.966  -7.287  0.00  0.00     0.027 H 
ATOM     41  H   LIG d   1       8.004  -1.717  -7.266  0.00  0.00     0.035 H 
ATOM     42  H   LIG d   1       8.403  -2.164  -5.669  0.00  0.00     0.035 H 
ENDROOT
BRANCH   2  43
ATOM     43  C   LIG d   1      10.825   5.126  -6.810  0.00  0.00     0.005 C 
ATOM     44  H   LIG d   1      10.992   4.860  -7.853  0.00  0.00     0.034 H 
ATOM     45  H   LIG d   1      11.735   5.558  -6.395  0.00  0.00     0.034 H 
BRANCH  43  46
ATOM     46  C   LIG d   1       9.688   6.144  -6.718  0.00  0.00    -0.042 C 
ATOM     47  H   LIG d   1       9.764   6.692  -5.779  0.00  0.00     0.027 H 
ATOM     48  H   LIG d   1       8.730   5.625  -6.758  0.00  0.00     0.027 H 
BRANCH  46  49
ATOM     49  C   LIG d   1       9.786   7.125  -7.889  0.00  0.00    -0.020 C 
ATOM     50  H   LIG d   1      10.834   7.304  -8.126  0.00  0.00     0.032 H 
BRANCH  49  51
ATOM     51  C   LIG d   1       9.082   6.531  -9.111  0.00  0.00    -0.060 C 
ATOM     52  H   LIG d   1       8.363   5.778  -8.786  0.00  0.00     0.023 H 
ATOM     53  H   LIG d   1       8.560   7.322  -9.649  0.00  0.00     0.023 H 
ATOM     54  H   LIG d   1       9.819   6.069  -9.768  0.00  0.00     0.023 H 
ENDBRANCH  49  51
BRANCH  49  55
ATOM     55  C   LIG d   1       9.116   8.446  -7.506  0.00  0.00     0.047 C 
ATOM     56  H   LIG d   1       9.879   9.174  -7.233  0.00  0.00     0.056 H 
ATOM     57  H   LIG d   1       8.450   8.283  -6.659  0.00  0.00     0.056 H 
BRANCH  55  58
ATOM     58  O   LIG d   1       8.363   8.938  -8.616  0.00  0.00    -0.395 OA
ATOM     59  H   LIG d   1       7.596   8.394  -8.843  0.00  0.00     0.209 HD
ENDBRANCH  55  58
ENDBRANCH  49  55
ENDBRANCH  46  49
ENDBRANCH  43  46
ENDBRANCH   2  43
BRANCH   1  60
ATOM     60  C   LIG d   1      11.741   2.351  -7.544  0.00  0.00    -0.040 C 
ATOM     61  H   LIG d   1      11.337   1.479  -8.059  0.00  0.00     0.028 H 
ATOM     62  H   LIG d   1      11.763   3.199  -8.227  0.00  0.00     0.028 H 
ATOM     63  H   LIG d   1      12.754   2.135  -7.201  0.00  0.00     0.028 H 
ENDBRANCH   1  60
BRANCH   8  64
ATOM     64  C   LIG d   1       8.280   1.902  -6.735  0.00  0.00    -0.052 C 
ATOM     65  H   LIG d   1       8.651   1.789  -7.754  0.00  0.00     0.024 H 
ATOM     66  H   LIG d   1       7.226   1.628  -6.701  0.00  0.00     0.024 H 
ATOM     67  H   LIG d   1       8.396   2.939  -6.420  0.00  0.00     0.024 H 
ENDBRANCH   8  64
BRANCH  23  68
ATOM     68  C   LIG d   1       4.415  -0.699  -5.872  0.00  0.00    -0.059 C 
ATOM     69  H   LIG d   1       4.180  -0.349  -6.878  0.00  0.00     0.024 H 
ATOM     70  H   LIG d   1       3.581  -1.284  -5.486  0.00  0.00     0.024 H 
ATOM     71  H   LIG d   1       4.591   0.157  -5.221  0.00  0.00     0.024 H 
ENDBRANCH  23  68
BRANCH  19  72
ATOM     72  O   LIG d   1       3.280  -5.062  -6.168  0.00  0.00    -0.392 OA
ATOM     73  H   LIG d   1       3.406  -5.904  -6.627  0.00  0.00     0.210 HD
ENDBRANCH  19  72
TORSDOF 10
ENDMDL
MODEL 6
REMARK VINA RESULT:      -5.7      2.008      3.264
REMARK  10 active torsions:
REMARK  status: ('A' for Active; 'I' for Inactive)
REMARK    1  A    between atoms: C_1  and  C_2 
REMARK    2  A    between atoms: C_3  and  C_33 
REMARK    3  A    between atoms: C_9  and  C_32 
REMARK    4  A    between atoms: C_20  and  O_31 
REMARK    5  A    between atoms: C_24  and  C_30 
REMARK    6  A    between atoms: C_33  and  C_34 
REMARK    7  A    between atoms: C_34  and  C_35 
REMARK    8  A    between atoms: C_35  and  C_37 
REMARK    9  A    between atoms: C_35  and  C_38 
REMARK   10  A    between atoms: C_38  and  O_39 
ROOT
ATOM      1  C   LIG d   1       3.823  -0.251  -5.961  0.00  0.00    -0.028 C 
ATOM      2  C   LIG d   1       4.485  -1.176  -5.298  0.00  0.00     0.098 C 
ATOM      3  O   LIG d   1       5.633  -1.556  -5.899  0.00  0.00    -0.492 OA
ATOM      4  C   LIG d   1       6.008  -0.563  -6.866  0.00  0.00     0.107 C 
ATOM      5  H   LIG d   1       6.762   0.133  -6.489  0.00  0.00     0.074 H 
ATOM      6  C   LIG d   1       4.637   0.128  -7.173  0.00  0.00     0.033 C 
ATOM      7  H   LIG d   1       4.722   1.211  -7.320  0.00  0.00     0.039 H 
ATOM      8  C   LIG d   1       4.152  -0.594  -8.443  0.00  0.00     0.039 C 
ATOM      9  C   LIG d   1       5.483  -0.678  -9.219  0.00  0.00    -0.022 C 
ATOM     10  H   LIG d   1       5.813   0.361  -9.407  0.00  0.00     0.031 H 
ATOM     11  C   LIG d   1       6.444  -1.251  -8.183  0.00  0.00    -0.011 C 
ATOM     12  C   LIG d   1       5.375  -1.352 -10.561  0.00  0.00    -0.034 C 
ATOM     13  H   LIG d   1       5.788  -2.362 -10.483  0.00  0.00     0.031 H 
ATOM     14  C   LIG d   1       6.244  -0.547 -11.540  0.00  0.00    -0.049 C 
ATOM     15  C   LIG d   1       6.145  -1.111 -12.953  0.00  0.00    -0.049 C 
ATOM     16  C   LIG d   1       4.689  -1.031 -13.409  0.00  0.00    -0.033 C 
ATOM     17  H   LIG d   1       4.362   0.017 -13.349  0.00  0.00     0.031 H 
ATOM     18  C   LIG d   1       4.563  -1.493 -14.859  0.00  0.00    -0.024 C 
ATOM     19  C   LIG d   1       3.107  -1.384 -15.313  0.00  0.00     0.056 C 
ATOM     20  H   LIG d   1       2.795  -0.338 -15.284  0.00  0.00     0.059 H 
ATOM     21  C   LIG d   1       2.204  -2.208 -14.395  0.00  0.00    -0.026 C 
ATOM     22  C   LIG d   1       2.352  -1.748 -12.948  0.00  0.00    -0.045 C 
ATOM     23  C   LIG d   1       3.810  -1.872 -12.494  0.00  0.00    -0.026 C 
ATOM     24  C   LIG d   1       3.936  -1.421 -11.039  0.00  0.00    -0.026 C 
ATOM     25  H   LIG d   1       3.439  -2.232 -10.488  0.00  0.00     0.031 H 
ATOM     26  C   LIG d   1       3.158  -0.142 -10.772  0.00  0.00     0.010 C 
ATOM     27  C   LIG d   1       3.208   0.213  -9.288  0.00  0.00     0.140 C 
ATOM     28  O   LIG d   1       2.523   1.104  -8.817  0.00  0.00    -0.297 OA
ATOM     29  H   LIG d   1       7.470  -0.981  -8.432  0.00  0.00     0.030 H 
ATOM     30  H   LIG d   1       6.338  -2.330  -8.111  0.00  0.00     0.030 H 
ATOM     31  H   LIG d   1       5.908   0.492 -11.540  0.00  0.00     0.027 H 
ATOM     32  H   LIG d   1       7.282  -0.584 -11.206  0.00  0.00     0.027 H 
ATOM     33  H   LIG d   1       6.760  -0.498 -13.624  0.00  0.00     0.027 H 
ATOM     34  H   LIG d   1       6.512  -2.131 -12.982  0.00  0.00     0.027 H 
ATOM     35  H   LIG d   1       5.177  -0.844 -15.494  0.00  0.00     0.029 H 
ATOM     36  H   LIG d   1       4.914  -2.515 -14.975  0.00  0.00     0.029 H 
ATOM     37  H   LIG d   1       2.439  -3.265 -14.494  0.00  0.00     0.029 H 
ATOM     38  H   LIG d   1       1.161  -2.062 -14.707  0.00  0.00     0.029 H 
ATOM     39  H   LIG d   1       1.720  -2.358 -12.302  0.00  0.00     0.027 H 
ATOM     40  H   LIG d   1       2.041  -0.704 -12.874  0.00  0.00     0.027 H 
ATOM     41  H   LIG d   1       2.201  -0.272 -11.037  0.00  0.00     0.035 H 
ATOM     42  H   LIG d   1       3.579   0.681 -11.358  0.00  0.00     0.035 H 
ENDROOT
BRANCH   2  43
ATOM     43  C   LIG d   1       3.997  -1.765  -4.000  0.00  0.00     0.005 C 
ATOM     44  H   LIG d   1       4.008  -2.853  -4.069  0.00  0.00     0.034 H 
ATOM     45  H   LIG d   1       2.981  -1.424  -3.805  0.00  0.00     0.034 H 
BRANCH  43  46
ATOM     46  C   LIG d   1       4.913  -1.318  -2.860  0.00  0.00    -0.042 C 
ATOM     47  H   LIG d   1       5.872  -1.831  -2.940  0.00  0.00     0.027 H 
ATOM     48  H   LIG d   1       4.450  -1.562  -1.904  0.00  0.00     0.027 H 
BRANCH  46  49
ATOM     49  C   LIG d   1       5.136   0.194  -2.947  0.00  0.00    -0.020 C 
ATOM     50  H   LIG d   1       4.603   0.590  -3.811  0.00  0.00     0.032 H 
BRANCH  49  51
ATOM     51  C   LIG d   1       4.609   0.861  -1.674  0.00  0.00    -0.060 C 
ATOM     52  H   LIG d   1       4.467   0.106  -0.901  0.00  0.00     0.023 H 
ATOM     53  H   LIG d   1       5.329   1.603  -1.329  0.00  0.00     0.023 H 
ATOM     54  H   LIG d   1       3.658   1.348  -1.886  0.00  0.00     0.023 H 
ENDBRANCH  49  51
BRANCH  49  55
ATOM     55  C   LIG d   1       6.631   0.482  -3.093  0.00  0.00     0.047 C 
ATOM     56  H   LIG d   1       7.001   0.952  -2.182  0.00  0.00     0.056 H 
ATOM     57  H   LIG d   1       6.791   1.152  -3.938  0.00  0.00     0.056 H 
BRANCH  55  58
ATOM     58  O   LIG d   1       7.333  -0.742  -3.318  0.00  0.00    -0.395 OA
ATOM     59  H   LIG d   1       7.105  -1.446  -2.695  0.00  0.00     0.209 HD
ENDBRANCH  55  58
ENDBRANCH  49  55
ENDBRANCH  46  49
ENDBRANCH  43  46
ENDBRANCH   2  43
BRANCH   1  60
ATOM     60  C   LIG d   1       2.496   0.339  -5.548  0.00  0.00    -0.040 C 
ATOM     61  H   LIG d   1       1.727   0.037  -6.260  0.00  0.00     0.028 H 
ATOM     62  H   LIG d   1       2.233  -0.021  -4.554  0.00  0.00     0.028 H 
ATOM     63  H   LIG d   1       2.571   1.426  -5.533  0.00  0.00     0.028 H 
ENDBRANCH   1  60
BRANCH   8  64
ATOM     64  C   LIG d   1       3.574  -1.954  -8.081  0.00  0.00    -0.052 C 
ATOM     65  H   LIG d   1       4.276  -2.737  -8.372  0.00  0.00     0.024 H 
ATOM     66  H   LIG d   1       3.404  -2.003  -7.005  0.00  0.00     0.024 H 
ATOM     67  H   LIG d   1       2.630  -2.100  -8.605  0.00  0.00     0.024 H 
ENDBRANCH   8  64
BRANCH  23  68
ATOM     68  C   LIG d   1       4.220  -3.347 -12.563  0.00  0.00    -0.059 C 
ATOM     69  H   LIG d   1       5.225  -3.425 -12.979  0.00  0.00     0.024 H 
ATOM     70  H   LIG d   1       4.206  -3.775 -11.562  0.00  0.00     0.024 H 
ATOM     71  H   LIG d   1       3.520  -3.889 -13.199  0.00  0.00     0.024 H 
ENDBRANCH  23  68
BRANCH  19  72
ATOM     72  O   LIG d   1       2.991  -1.871 -16.653  0.00  0.00    -0.392 OA
ATOM     73  H   LIG d   1       2.317  -1.419 -17.179  0.00  0.00     0.210 HD
ENDBRANCH  19  72
TORSDOF 10
ENDMDL
MODEL 7
REMARK VINA RESULT:      -5.5      4.937      7.792
REMARK  10 active torsions:
REMARK  status: ('A' for Active; 'I' for Inactive)
REMARK    1  A    between atoms: C_1  and  C_2 
REMARK    2  A    between atoms: C_3  and  C_33 
REMARK    3  A    between atoms: C_9  and  C_32 
REMARK    4  A    between atoms: C_20  and  O_31 
REMARK    5  A    between atoms: C_24  and  C_30 
REMARK    6  A    between atoms: C_33  and  C_34 
REMARK    7  A    between atoms: C_34  and  C_35 
REMARK    8  A    between atoms: C_35  and  C_37 
REMARK    9  A    between atoms: C_35  and  C_38 
REMARK   10  A    between atoms: C_38  and  O_39 
ROOT
ATOM      1  C   LIG d   1       6.670  -1.445  -5.176  0.00  0.00    -0.028 C 
ATOM      2  C   LIG d   1       5.409  -1.087  -5.313  0.00  0.00     0.098 C 
ATOM      3  O   LIG d   1       5.216  -0.137  -6.254  0.00  0.00    -0.492 OA
ATOM      4  C   LIG d   1       6.365  -0.085  -7.113  0.00  0.00     0.107 C 
ATOM      5  H   LIG d   1       6.225  -0.642  -8.043  0.00  0.00     0.074 H 
ATOM      6  C   LIG d   1       7.483  -0.693  -6.200  0.00  0.00     0.033 C 
ATOM      7  H   LIG d   1       8.190  -1.328  -6.746  0.00  0.00     0.039 H 
ATOM      8  C   LIG d   1       8.163   0.549  -5.598  0.00  0.00     0.039 C 
ATOM      9  C   LIG d   1       8.204   1.455  -6.846  0.00  0.00    -0.022 C 
ATOM     10  H   LIG d   1       8.827   0.938  -7.599  0.00  0.00     0.031 H 
ATOM     11  C   LIG d   1       6.769   1.389  -7.360  0.00  0.00    -0.011 C 
ATOM     12  C   LIG d   1       8.829   2.804  -6.612  0.00  0.00    -0.034 C 
ATOM     13  H   LIG d   1       8.036   3.556  -6.553  0.00  0.00     0.031 H 
ATOM     14  C   LIG d   1       9.702   3.115  -7.839  0.00  0.00    -0.049 C 
ATOM     15  C   LIG d   1      10.440   4.437  -7.667  0.00  0.00    -0.049 C 
ATOM     16  C   LIG d   1      11.341   4.336  -6.436  0.00  0.00    -0.033 C 
ATOM     17  H   LIG d   1      12.025   3.486  -6.574  0.00  0.00     0.031 H 
ATOM     18  C   LIG d   1      12.175   5.606  -6.286  0.00  0.00    -0.024 C 
ATOM     19  C   LIG d   1      13.092   5.482  -5.068  0.00  0.00     0.056 C 
ATOM     20  H   LIG d   1      13.791   4.659  -5.223  0.00  0.00     0.059 H 
ATOM     21  C   LIG d   1      12.266   5.218  -3.810  0.00  0.00    -0.026 C 
ATOM     22  C   LIG d   1      11.424   3.957  -3.980  0.00  0.00    -0.045 C 
ATOM     23  C   LIG d   1      10.498   4.091  -5.192  0.00  0.00    -0.026 C 
ATOM     24  C   LIG d   1       9.654   2.826  -5.338  0.00  0.00    -0.026 C 
ATOM     25  H   LIG d   1       8.957   2.898  -4.490  0.00  0.00     0.031 H 
ATOM     26  C   LIG d   1      10.482   1.565  -5.143  0.00  0.00     0.010 C 
ATOM     27  C   LIG d   1       9.588   0.328  -5.177  0.00  0.00     0.140 C 
ATOM     28  O   LIG d   1      10.007  -0.777  -4.881  0.00  0.00    -0.297 OA
ATOM     29  H   LIG d   1       6.740   1.618  -8.425  0.00  0.00     0.030 H 
ATOM     30  H   LIG d   1       6.127   2.066  -6.805  0.00  0.00     0.030 H 
ATOM     31  H   LIG d   1      10.426   2.309  -7.971  0.00  0.00     0.027 H 
ATOM     32  H   LIG d   1       9.064   3.167  -8.722  0.00  0.00     0.027 H 
ATOM     33  H   LIG d   1      11.065   4.613  -8.550  0.00  0.00     0.027 H 
ATOM     34  H   LIG d   1       9.736   5.257  -7.572  0.00  0.00     0.027 H 
ATOM     35  H   LIG d   1      12.796   5.731  -7.181  0.00  0.00     0.029 H 
ATOM     36  H   LIG d   1      11.539   6.481  -6.187  0.00  0.00     0.029 H 
ATOM     37  H   LIG d   1      11.638   6.078  -3.589  0.00  0.00     0.029 H 
ATOM     38  H   LIG d   1      12.952   5.074  -2.965  0.00  0.00     0.029 H 
ATOM     39  H   LIG d   1      10.824   3.793  -3.084  0.00  0.00     0.027 H 
ATOM     40  H   LIG d   1      12.090   3.104  -4.128  0.00  0.00     0.027 H 
ATOM     41  H   LIG d   1      10.943   1.602  -4.255  0.00  0.00     0.035 H 
ATOM     42  H   LIG d   1      11.238   1.489  -5.931  0.00  0.00     0.035 H 
ENDROOT
BRANCH   2  43
ATOM     43  C   LIG d   1       4.293  -1.671  -4.486  0.00  0.00     0.005 C 
ATOM     44  H   LIG d   1       4.710  -2.141  -3.595  0.00  0.00     0.034 H 
ATOM     45  H   LIG d   1       3.758  -2.416  -5.073  0.00  0.00     0.034 H 
BRANCH  43  46
ATOM     46  C   LIG d   1       3.329  -0.559  -4.073  0.00  0.00    -0.042 C 
ATOM     47  H   LIG d   1       2.308  -0.850  -4.323  0.00  0.00     0.027 H 
ATOM     48  H   LIG d   1       3.583   0.359  -4.603  0.00  0.00     0.027 H 
BRANCH  46  49
ATOM     49  C   LIG d   1       3.436  -0.324  -2.564  0.00  0.00    -0.020 C 
ATOM     50  H   LIG d   1       2.440  -0.343  -2.122  0.00  0.00     0.032 H 
BRANCH  49  51
ATOM     51  C   LIG d   1       4.293  -1.426  -1.937  0.00  0.00    -0.060 C 
ATOM     52  H   LIG d   1       3.647  -2.222  -1.566  0.00  0.00     0.023 H 
ATOM     53  H   LIG d   1       4.971  -1.829  -2.688  0.00  0.00     0.023 H 
ATOM     54  H   LIG d   1       4.870  -1.012  -1.110  0.00  0.00     0.023 H 
ENDBRANCH  49  51
BRANCH  49  55
ATOM     55  C   LIG d   1       4.084   1.037  -2.304  0.00  0.00     0.047 C 
ATOM     56  H   LIG d   1       5.152   0.904  -2.132  0.00  0.00     0.056 H 
ATOM     57  H   LIG d   1       3.629   1.494  -1.425  0.00  0.00     0.056 H 
BRANCH  55  58
ATOM     58  O   LIG d   1       3.885   1.884  -3.437  0.00  0.00    -0.395 OA
ATOM     59  H   LIG d   1       4.422   2.689  -3.427  0.00  0.00     0.209 HD
ENDBRANCH  55  58
ENDBRANCH  49  55
ENDBRANCH  46  49
ENDBRANCH  43  46
ENDBRANCH   2  43
BRANCH   1  60
ATOM     60  C   LIG d   1       7.186  -2.457  -4.182  0.00  0.00    -0.040 C 
ATOM     61  H   LIG d   1       8.205  -2.740  -4.448  0.00  0.00     0.028 H 
ATOM     62  H   LIG d   1       7.179  -2.021  -3.183  0.00  0.00     0.028 H 
ATOM     63  H   LIG d   1       6.547  -3.340  -4.198  0.00  0.00     0.028 H 
ENDBRANCH   1  60
BRANCH   8  64
ATOM     64  C   LIG d   1       7.313   1.112  -4.467  0.00  0.00    -0.052 C 
ATOM     65  H   LIG d   1       6.278   1.199  -4.798  0.00  0.00     0.024 H 
ATOM     66  H   LIG d   1       7.364   0.445  -3.607  0.00  0.00     0.024 H 
ATOM     67  H   LIG d   1       7.688   2.096  -4.186  0.00  0.00     0.024 H 
ENDBRANCH   8  64
BRANCH  23  68
ATOM     68  C   LIG d   1       9.543   5.265  -4.951  0.00  0.00    -0.059 C 
ATOM     69  H   LIG d   1       9.982   5.944  -4.220  0.00  0.00     0.024 H 
ATOM     70  H   LIG d   1       9.377   5.796  -5.887  0.00  0.00     0.024 H 
ATOM     71  H   LIG d   1       8.593   4.888  -4.573  0.00  0.00     0.024 H 
ENDBRANCH  23  68
BRANCH  19  72
ATOM     72  O   LIG d   1      13.828   6.698  -4.905  0.00  0.00    -0.392 OA
ATOM     73  H   LIG d   1      14.326   6.965  -5.689  0.00  0.00     0.210 HD
ENDBRANCH  19  72
TORSDOF 10
ENDMDL
MODEL 8
REMARK VINA RESULT:      -5.5      4.051      7.988
REMARK  10 active torsions:
REMARK  status: ('A' for Active; 'I' for Inactive)
REMARK    1  A    between atoms: C_1  and  C_2 
REMARK    2  A    between atoms: C_3  and  C_33 
REMARK    3  A    between atoms: C_9  and  C_32 
REMARK    4  A    between atoms: C_20  and  O_31 
REMARK    5  A    between atoms: C_24  and  C_30 
REMARK    6  A    between atoms: C_33  and  C_34 
REMARK    7  A    between atoms: C_34  and  C_35 
REMARK    8  A    between atoms: C_35  and  C_37 
REMARK    9  A    between atoms: C_35  and  C_38 
REMARK   10  A    between atoms: C_38  and  O_39 
ROOT
ATOM      1  C   LIG d   1       0.524  -5.173 -12.372  0.00  0.00    -0.028 C 
ATOM      2  C   LIG d   1      -0.749  -4.836 -12.369  0.00  0.00     0.098 C 
ATOM      3  O   LIG d   1      -0.961  -3.521 -12.599  0.00  0.00    -0.492 OA
ATOM      4  C   LIG d   1       0.219  -2.950 -13.183  0.00  0.00     0.107 C 
ATOM      5  H   LIG d   1       0.157  -2.866 -14.271  0.00  0.00     0.074 H 
ATOM      6  C   LIG d   1       1.332  -3.945 -12.710  0.00  0.00     0.033 C 
ATOM      7  H   LIG d   1       2.102  -4.125 -13.469  0.00  0.00     0.039 H 
ATOM      8  C   LIG d   1       1.904  -3.266 -11.453  0.00  0.00     0.039 C 
ATOM      9  C   LIG d   1       1.942  -1.803 -11.941  0.00  0.00    -0.022 C 
ATOM     10  H   LIG d   1       2.630  -1.770 -12.806  0.00  0.00     0.031 H 
ATOM     11  C   LIG d   1       0.539  -1.596 -12.503  0.00  0.00    -0.011 C 
ATOM     12  C   LIG d   1       2.468  -0.825 -10.925  0.00  0.00    -0.034 C 
ATOM     13  H   LIG d   1       1.627  -0.269 -10.501  0.00  0.00     0.031 H 
ATOM     14  C   LIG d   1       3.373   0.164 -11.678  0.00  0.00    -0.049 C 
ATOM     15  C   LIG d   1       4.016   1.159 -10.720  0.00  0.00    -0.049 C 
ATOM     16  C   LIG d   1       4.866   0.386  -9.712  0.00  0.00    -0.033 C 
ATOM     17  H   LIG d   1       5.608  -0.207 -10.266  0.00  0.00     0.031 H 
ATOM     18  C   LIG d   1       5.609   1.354  -8.795  0.00  0.00    -0.024 C 
ATOM     19  C   LIG d   1       6.477   0.571  -7.809  0.00  0.00     0.056 C 
ATOM     20  H   LIG d   1       7.234   0.009  -8.360  0.00  0.00     0.059 H 
ATOM     21  C   LIG d   1       5.615  -0.397  -7.000  0.00  0.00    -0.026 C 
ATOM     22  C   LIG d   1       4.865  -1.347  -7.929  0.00  0.00    -0.045 C 
ATOM     23  C   LIG d   1       3.986  -0.558  -8.905  0.00  0.00    -0.026 C 
ATOM     24  C   LIG d   1       3.232  -1.525  -9.816  0.00  0.00    -0.026 C 
ATOM     25  H   LIG d   1       2.496  -1.977  -9.137  0.00  0.00     0.031 H 
ATOM     26  C   LIG d   1       4.131  -2.642 -10.326  0.00  0.00     0.010 C 
ATOM     27  C   LIG d   1       3.320  -3.653 -11.133  0.00  0.00     0.140 C 
ATOM     28  O   LIG d   1       3.796  -4.712 -11.501  0.00  0.00    -0.297 OA
ATOM     29  H   LIG d   1       0.543  -0.792 -13.238  0.00  0.00     0.030 H 
ATOM     30  H   LIG d   1      -0.170  -1.385 -11.707  0.00  0.00     0.030 H 
ATOM     31  H   LIG d   1       4.152  -0.396 -12.198  0.00  0.00     0.027 H 
ATOM     32  H   LIG d   1       2.772   0.703 -12.413  0.00  0.00     0.027 H 
ATOM     33  H   LIG d   1       4.667   1.832 -11.291  0.00  0.00     0.027 H 
ATOM     34  H   LIG d   1       3.258   1.753 -10.221  0.00  0.00     0.027 H 
ATOM     35  H   LIG d   1       6.261   1.992  -9.405  0.00  0.00     0.029 H 
ATOM     36  H   LIG d   1       4.915   1.992  -8.255  0.00  0.00     0.029 H 
ATOM     37  H   LIG d   1       4.924   0.158  -6.370  0.00  0.00     0.029 H 
ATOM     38  H   LIG d   1       6.270  -0.987  -6.346  0.00  0.00     0.029 H 
ATOM     39  H   LIG d   1       4.237  -2.017  -7.340  0.00  0.00     0.027 H 
ATOM     40  H   LIG d   1       5.590  -1.937  -8.493  0.00  0.00     0.027 H 
ATOM     41  H   LIG d   1       4.548  -3.115  -9.548  0.00  0.00     0.035 H 
ATOM     42  H   LIG d   1       4.924  -2.226 -10.954  0.00  0.00     0.035 H 
ENDROOT
BRANCH   2  43
ATOM     43  C   LIG d   1      -1.861  -5.821 -12.116  0.00  0.00     0.005 C 
ATOM     44  H   LIG d   1      -1.521  -6.578 -11.410  0.00  0.00     0.034 H 
ATOM     45  H   LIG d   1      -2.142  -6.299 -13.054  0.00  0.00     0.034 H 
BRANCH  43  46
ATOM     46  C   LIG d   1      -3.070  -5.087 -11.536  0.00  0.00    -0.042 C 
ATOM     47  H   LIG d   1      -3.982  -5.627 -11.792  0.00  0.00     0.027 H 
ATOM     48  H   LIG d   1      -3.119  -4.080 -11.950  0.00  0.00     0.027 H 
BRANCH  46  49
ATOM     49  C   LIG d   1      -2.936  -5.006 -10.013  0.00  0.00    -0.020 C 
ATOM     50  H   LIG d   1      -2.193  -4.253  -9.753  0.00  0.00     0.032 H 
BRANCH  49  51
ATOM     51  C   LIG d   1      -4.286  -4.621  -9.403  0.00  0.00    -0.060 C 
ATOM     52  H   LIG d   1      -4.943  -5.492  -9.394  0.00  0.00     0.023 H 
ATOM     53  H   LIG d   1      -4.136  -4.270  -8.382  0.00  0.00     0.023 H 
ATOM     54  H   LIG d   1      -4.741  -3.829  -9.997  0.00  0.00     0.023 H 
ENDBRANCH  49  51
BRANCH  49  55
ATOM     55  C   LIG d   1      -2.498  -6.366  -9.466  0.00  0.00     0.047 C 
ATOM     56  H   LIG d   1      -1.942  -6.904 -10.234  0.00  0.00     0.056 H 
ATOM     57  H   LIG d   1      -3.378  -6.944  -9.184  0.00  0.00     0.056 H 
BRANCH  55  58
ATOM     58  O   LIG d   1      -1.667  -6.173  -8.321  0.00  0.00    -0.395 OA
ATOM     59  H   LIG d   1      -1.313  -5.277  -8.237  0.00  0.00     0.209 HD
ENDBRANCH  55  58
ENDBRANCH  49  55
ENDBRANCH  46  49
ENDBRANCH  43  46
ENDBRANCH   2  43
BRANCH   1  60
ATOM     60  C   LIG d   1       1.060  -6.560 -12.111  0.00  0.00    -0.040 C 
ATOM     61  H   LIG d   1       0.314  -7.140 -11.566  0.00  0.00     0.028 H 
ATOM     62  H   LIG d   1       1.280  -7.049 -13.059  0.00  0.00     0.028 H 
ATOM     63  H   LIG d   1       1.972  -6.491 -11.517  0.00  0.00     0.028 H 
ENDBRANCH   1  60
BRANCH   8  64
ATOM     64  C   LIG d   1       0.970  -3.487 -10.271  0.00  0.00    -0.052 C 
ATOM     65  H   LIG d   1       1.413  -3.055  -9.372  0.00  0.00     0.024 H 
ATOM     66  H   LIG d   1       0.012  -3.007 -10.469  0.00  0.00     0.024 H 
ATOM     67  H   LIG d   1       0.818  -4.556 -10.122  0.00  0.00     0.024 H 
ENDBRANCH   8  64
BRANCH  23  68
ATOM     68  C   LIG d   1       2.948   0.232  -8.100  0.00  0.00    -0.059 C 
ATOM     69  H   LIG d   1       2.214   0.663  -8.781  0.00  0.00     0.024 H 
ATOM     70  H   LIG d   1       2.447  -0.436  -7.400  0.00  0.00     0.024 H 
ATOM     71  H   LIG d   1       3.446   1.029  -7.550  0.00  0.00     0.024 H 
ENDBRANCH  23  68
BRANCH  19  72
ATOM     72  O   LIG d   1       7.126   1.485  -6.920  0.00  0.00    -0.392 OA
ATOM     73  H   LIG d   1       7.119   1.205  -5.995  0.00  0.00     0.210 HD
ENDBRANCH  19  72
TORSDOF 10
ENDMDL
MODEL 9
REMARK VINA RESULT:      -5.5      9.729     13.143
REMARK  10 active torsions:
REMARK  status: ('A' for Active; 'I' for Inactive)
REMARK    1  A    between atoms: C_1  and  C_2 
REMARK    2  A    between atoms: C_3  and  C_33 
REMARK    3  A    between atoms: C_9  and  C_32 
REMARK    4  A    between atoms: C_20  and  O_31 
REMARK    5  A    between atoms: C_24  and  C_30 
REMARK    6  A    between atoms: C_33  and  C_34 
REMARK    7  A    between atoms: C_34  and  C_35 
REMARK    8  A    between atoms: C_35  and  C_37 
REMARK    9  A    between atoms: C_35  and  C_38 
REMARK   10  A    between atoms: C_38  and  O_39 
ROOT
ATOM      1  C   LIG d   1      10.885   9.314   0.069  0.00  0.00    -0.028 C 
ATOM      2  C   LIG d   1      10.182  10.145  -0.674  0.00  0.00     0.098 C 
ATOM      3  O   LIG d   1       9.294   9.528  -1.484  0.00  0.00    -0.492 OA
ATOM      4  C   LIG d   1       9.081   8.188  -1.014  0.00  0.00     0.107 C 
ATOM      5  H   LIG d   1       8.176   8.090  -0.409  0.00  0.00     0.074 H 
ATOM      6  C   LIG d   1      10.391   7.914  -0.201  0.00  0.00     0.033 C 
ATOM      7  H   LIG d   1      10.221   7.329   0.710  0.00  0.00     0.039 H 
ATOM      8  C   LIG d   1      11.286   7.173  -1.210  0.00  0.00     0.039 C 
ATOM      9  C   LIG d   1      10.237   6.243  -1.854  0.00  0.00    -0.022 C 
ATOM     10  H   LIG d   1       9.849   5.589  -1.051  0.00  0.00     0.031 H 
ATOM     11  C   LIG d   1       9.105   7.202  -2.208  0.00  0.00    -0.011 C 
ATOM     12  C   LIG d   1      10.785   5.340  -2.927  0.00  0.00    -0.034 C 
ATOM     13  H   LIG d   1      10.489   5.733  -3.904  0.00  0.00     0.031 H 
ATOM     14  C   LIG d   1      10.125   3.965  -2.737  0.00  0.00    -0.049 C 
ATOM     15  C   LIG d   1      10.671   2.952  -3.738  0.00  0.00    -0.049 C 
ATOM     16  C   LIG d   1      12.177   2.810  -3.516  0.00  0.00    -0.033 C 
ATOM     17  H   LIG d   1      12.348   2.507  -2.473  0.00  0.00     0.031 H 
ATOM     18  C   LIG d   1      12.746   1.729  -4.432  0.00  0.00    -0.024 C 
ATOM     19  C   LIG d   1      14.247   1.577  -4.182  0.00  0.00     0.056 C 
ATOM     20  H   LIG d   1      14.412   1.244  -3.156  0.00  0.00     0.059 H 
ATOM     21  C   LIG d   1      14.957   2.912  -4.403  0.00  0.00    -0.026 C 
ATOM     22  C   LIG d   1      14.368   3.987  -3.495  0.00  0.00    -0.045 C 
ATOM     23  C   LIG d   1      12.867   4.145  -3.759  0.00  0.00    -0.026 C 
ATOM     24  C   LIG d   1      12.297   5.235  -2.852  0.00  0.00    -0.026 C 
ATOM     25  H   LIG d   1      12.718   6.155  -3.281  0.00  0.00     0.031 H 
ATOM     26  C   LIG d   1      12.815   5.115  -1.426  0.00  0.00     0.010 C 
ATOM     27  C   LIG d   1      12.321   6.285  -0.579  0.00  0.00     0.140 C 
ATOM     28  O   LIG d   1      12.741   6.486   0.547  0.00  0.00    -0.297 OA
ATOM     29  H   LIG d   1       8.161   6.662  -2.274  0.00  0.00     0.030 H 
ATOM     30  H   LIG d   1       9.315   7.723  -3.137  0.00  0.00     0.030 H 
ATOM     31  H   LIG d   1      10.322   3.615  -1.723  0.00  0.00     0.027 H 
ATOM     32  H   LIG d   1       9.048   4.067  -2.875  0.00  0.00     0.027 H 
ATOM     33  H   LIG d   1      10.193   1.982  -3.558  0.00  0.00     0.027 H 
ATOM     34  H   LIG d   1      10.451   3.263  -4.753  0.00  0.00     0.027 H 
ATOM     35  H   LIG d   1      12.254   0.776  -4.205  0.00  0.00     0.029 H 
ATOM     36  H   LIG d   1      12.564   1.966  -5.476  0.00  0.00     0.029 H 
ATOM     37  H   LIG d   1      14.886   3.203  -5.449  0.00  0.00     0.029 H 
ATOM     38  H   LIG d   1      16.021   2.788  -4.159  0.00  0.00     0.029 H 
ATOM     39  H   LIG d   1      14.868   4.938  -3.679  0.00  0.00     0.027 H 
ATOM     40  H   LIG d   1      14.521   3.694  -2.454  0.00  0.00     0.027 H 
ATOM     41  H   LIG d   1      13.816   5.126  -1.434  0.00  0.00     0.035 H 
ATOM     42  H   LIG d   1      12.474   4.175  -0.983  0.00  0.00     0.035 H 
ENDROOT
BRANCH   2  43
ATOM     43  C   LIG d   1      10.364  11.640  -0.634  0.00  0.00     0.005 C 
ATOM     44  H   LIG d   1      11.200  11.886   0.020  0.00  0.00     0.034 H 
ATOM     45  H   LIG d   1       9.456  12.106  -0.254  0.00  0.00     0.034 H 
BRANCH  43  46
ATOM     46  C   LIG d   1      10.651  12.156  -2.045  0.00  0.00    -0.042 C 
ATOM     47  H   LIG d   1      10.824  11.313  -2.713  0.00  0.00     0.027 H 
ATOM     48  H   LIG d   1      11.537  12.791  -2.027  0.00  0.00     0.027 H 
BRANCH  46  49
ATOM     49  C   LIG d   1       9.453  12.966  -2.546  0.00  0.00    -0.020 C 
ATOM     50  H   LIG d   1       8.786  13.181  -1.712  0.00  0.00     0.032 H 
BRANCH  49  51
ATOM     51  C   LIG d   1       9.947  14.281  -3.155  0.00  0.00    -0.060 C 
ATOM     52  H   LIG d   1       9.812  14.254  -4.237  0.00  0.00     0.023 H 
ATOM     53  H   LIG d   1       9.375  15.110  -2.739  0.00  0.00     0.023 H 
ATOM     54  H   LIG d   1      11.003  14.415  -2.924  0.00  0.00     0.023 H 
ENDBRANCH  49  51
BRANCH  49  55
ATOM     55  C   LIG d   1       8.701  12.162  -3.608  0.00  0.00     0.047 C 
ATOM     56  H   LIG d   1       9.362  11.400  -4.021  0.00  0.00     0.056 H 
ATOM     57  H   LIG d   1       8.374  12.830  -4.405  0.00  0.00     0.056 H 
BRANCH  55  58
ATOM     58  O   LIG d   1       7.563  11.537  -3.014  0.00  0.00    -0.395 OA
ATOM     59  H   LIG d   1       7.548  11.582  -2.048  0.00  0.00     0.209 HD
ENDBRANCH  55  58
ENDBRANCH  49  55
ENDBRANCH  46  49
ENDBRANCH  43  46
ENDBRANCH   2  43
BRANCH   1  60
ATOM     60  C   LIG d   1      11.969   9.716   1.039  0.00  0.00    -0.040 C 
ATOM     61  H   LIG d   1      12.465   8.822   1.420  0.00  0.00     0.028 H 
ATOM     62  H   LIG d   1      12.697  10.347   0.530  0.00  0.00     0.028 H 
ATOM     63  H   LIG d   1      11.527  10.268   1.869  0.00  0.00     0.028 H 
ENDBRANCH   1  60
BRANCH   8  64
ATOM     64  C   LIG d   1      11.901   8.163  -2.189  0.00  0.00    -0.052 C 
ATOM     65  H   LIG d   1      11.142   8.492  -2.899  0.00  0.00     0.024 H 
ATOM     66  H   LIG d   1      12.284   9.025  -1.642  0.00  0.00     0.024 H 
ATOM     67  H   LIG d   1      12.718   7.682  -2.727  0.00  0.00     0.024 H 
ENDBRANCH   8  64
BRANCH  23  68
ATOM     68  C   LIG d   1      12.670   4.595  -5.210  0.00  0.00    -0.059 C 
ATOM     69  H   LIG d   1      11.954   5.417  -5.241  0.00  0.00     0.024 H 
ATOM     70  H   LIG d   1      13.623   4.928  -5.620  0.00  0.00     0.024 H 
ATOM     71  H   LIG d   1      12.292   3.761  -5.801  0.00  0.00     0.024 H 
ENDBRANCH  23  68
BRANCH  19  72
ATOM     72  O   LIG d   1      14.780   0.602  -5.083  0.00  0.00    -0.392 OA
ATOM     73  H   LIG d   1      14.232  -0.189  -5.176  0.00  0.00     0.210 HD
ENDBRANCH  19  72
TORSDOF 10
ENDMDL
MODEL 10
REMARK VINA RESULT:      -5.5      2.800      7.701
REMARK  10 active torsions:
REMARK  status: ('A' for Active; 'I' for Inactive)
REMARK    1  A    between atoms: C_1  and  C_2 
REMARK    2  A    between atoms: C_3  and  C_33 
REMARK    3  A    between atoms: C_9  and  C_32 
REMARK    4  A    between atoms: C_20  and  O_31 
REMARK    5  A    between atoms: C_24  and  C_30 
REMARK    6  A    between atoms: C_33  and  C_34 
REMARK    7  A    between atoms: C_34  and  C_35 
REMARK    8  A    between atoms: C_35  and  C_37 
REMARK    9  A    between atoms: C_35  and  C_38 
REMARK   10  A    between atoms: C_38  and  O_39 
ROOT
ATOM      1  C   LIG d   1       4.697  -6.831  -8.583  0.00  0.00    -0.028 C 
ATOM      2  C   LIG d   1       4.271  -6.502  -9.785  0.00  0.00     0.098 C 
ATOM      3  O   LIG d   1       4.777  -5.333 -10.237  0.00  0.00    -0.492 OA
ATOM      4  C   LIG d   1       5.937  -4.993  -9.464  0.00  0.00     0.107 C 
ATOM      5  H   LIG d   1       6.872  -5.268  -9.958  0.00  0.00     0.074 H 
ATOM      6  C   LIG d   1       5.691  -5.787  -8.137  0.00  0.00     0.033 C 
ATOM      7  H   LIG d   1       6.606  -6.211  -7.710  0.00  0.00     0.039 H 
ATOM      8  C   LIG d   1       5.049  -4.739  -7.210  0.00  0.00     0.039 C 
ATOM      9  C   LIG d   1       5.924  -3.517  -7.554  0.00  0.00    -0.022 C 
ATOM     10  H   LIG d   1       6.962  -3.773  -7.271  0.00  0.00     0.031 H 
ATOM     11  C   LIG d   1       5.891  -3.493  -9.079  0.00  0.00    -0.011 C 
ATOM     12  C   LIG d   1       5.562  -2.264  -6.802  0.00  0.00    -0.034 C 
ATOM     13  H   LIG d   1       5.017  -1.593  -7.473  0.00  0.00     0.031 H 
ATOM     14  C   LIG d   1       6.880  -1.583  -6.400  0.00  0.00    -0.049 C 
ATOM     15  C   LIG d   1       6.620  -0.334  -5.565  0.00  0.00    -0.049 C 
ATOM     16  C   LIG d   1       5.872  -0.742  -4.297  0.00  0.00    -0.033 C 
ATOM     17  H   LIG d   1       6.476  -1.490  -3.762  0.00  0.00     0.031 H 
ATOM     18  C   LIG d   1       5.681   0.467  -3.384  0.00  0.00    -0.024 C 
ATOM     19  C   LIG d   1       4.955   0.042  -2.107  0.00  0.00     0.056 C 
ATOM     20  H   LIG d   1       5.572  -0.675  -1.561  0.00  0.00     0.059 H 
ATOM     21  C   LIG d   1       3.613  -0.602  -2.451  0.00  0.00    -0.026 C 
ATOM     22  C   LIG d   1       3.816  -1.798  -3.377  0.00  0.00    -0.045 C 
ATOM     23  C   LIG d   1       4.531  -1.364  -4.661  0.00  0.00    -0.026 C 
ATOM     24  C   LIG d   1       4.713  -2.570  -5.581  0.00  0.00    -0.026 C 
ATOM     25  H   LIG d   1       3.689  -2.769  -5.928  0.00  0.00     0.031 H 
ATOM     26  C   LIG d   1       5.186  -3.799  -4.819  0.00  0.00     0.010 C 
ATOM     27  C   LIG d   1       5.242  -5.011  -5.745  0.00  0.00     0.140 C 
ATOM     28  O   LIG d   1       5.436  -6.137  -5.320  0.00  0.00    -0.297 OA
ATOM     29  H   LIG d   1       6.766  -2.974  -9.467  0.00  0.00     0.030 H 
ATOM     30  H   LIG d   1       4.978  -3.028  -9.439  0.00  0.00     0.030 H 
ATOM     31  H   LIG d   1       7.480  -2.287  -5.822  0.00  0.00     0.027 H 
ATOM     32  H   LIG d   1       7.427  -1.309  -7.304  0.00  0.00     0.027 H 
ATOM     33  H   LIG d   1       7.582   0.110  -5.282  0.00  0.00     0.027 H 
ATOM     34  H   LIG d   1       6.057   0.396  -6.137  0.00  0.00     0.027 H 
ATOM     35  H   LIG d   1       6.665   0.866  -3.112  0.00  0.00     0.029 H 
ATOM     36  H   LIG d   1       5.122   1.251  -3.887  0.00  0.00     0.029 H 
ATOM     37  H   LIG d   1       2.953   0.134  -2.904  0.00  0.00     0.029 H 
ATOM     38  H   LIG d   1       3.143  -0.951  -1.522  0.00  0.00     0.029 H 
ATOM     39  H   LIG d   1       2.850  -2.233  -3.632  0.00  0.00     0.027 H 
ATOM     40  H   LIG d   1       4.424  -2.545  -2.862  0.00  0.00     0.027 H 
ATOM     41  H   LIG d   1       4.547  -3.995  -4.074  0.00  0.00     0.035 H 
ATOM     42  H   LIG d   1       6.179  -3.617  -4.397  0.00  0.00     0.035 H 
ENDROOT
BRANCH   2  43
ATOM     43  C   LIG d   1       3.299  -7.341 -10.573  0.00  0.00     0.005 C 
ATOM     44  H   LIG d   1       2.767  -8.010  -9.897  0.00  0.00     0.034 H 
ATOM     45  H   LIG d   1       3.843  -7.929 -11.312  0.00  0.00     0.034 H 
BRANCH  43  46
ATOM     46  C   LIG d   1       2.296  -6.430 -11.283  0.00  0.00    -0.042 C 
ATOM     47  H   LIG d   1       1.696  -7.020 -11.976  0.00  0.00     0.027 H 
ATOM     48  H   LIG d   1       2.833  -5.659 -11.835  0.00  0.00     0.027 H 
BRANCH  46  49
ATOM     49  C   LIG d   1       1.381  -5.773 -10.247  0.00  0.00    -0.020 C 
ATOM     50  H   LIG d   1       1.837  -5.846  -9.260  0.00  0.00     0.032 H 
BRANCH  49  51
ATOM     51  C   LIG d   1       1.179  -4.300 -10.607  0.00  0.00    -0.060 C 
ATOM     52  H   LIG d   1       0.340  -3.898 -10.039  0.00  0.00     0.023 H 
ATOM     53  H   LIG d   1       2.083  -3.740 -10.365  0.00  0.00     0.023 H 
ATOM     54  H   LIG d   1       0.971  -4.211 -11.674  0.00  0.00     0.023 H 
ENDBRANCH  49  51
BRANCH  49  55
ATOM     55  C   LIG d   1       0.027  -6.486 -10.237  0.00  0.00     0.047 C 
ATOM     56  H   LIG d   1       0.184  -7.562 -10.159  0.00  0.00     0.056 H 
ATOM     57  H   LIG d   1      -0.507  -6.263 -11.161  0.00  0.00     0.056 H 
BRANCH  55  58
ATOM     58  O   LIG d   1      -0.742  -6.033  -9.122  0.00  0.00    -0.395 OA
ATOM     59  H   LIG d   1      -1.692  -6.194  -9.207  0.00  0.00     0.209 HD
ENDBRANCH  55  58
ENDBRANCH  49  55
ENDBRANCH  46  49
ENDBRANCH  43  46
ENDBRANCH   2  43
BRANCH   1  60
ATOM     60  C   LIG d   1       4.276  -8.061  -7.815  0.00  0.00    -0.040 C 
ATOM     61  H   LIG d   1       4.032  -7.782  -6.790  0.00  0.00     0.028 H 
ATOM     62  H   LIG d   1       3.402  -8.504  -8.290  0.00  0.00     0.028 H 
ATOM     63  H   LIG d   1       5.093  -8.783  -7.811  0.00  0.00     0.028 H 
ENDBRANCH   1  60
BRANCH   8  64
ATOM     64  C   LIG d   1       3.581  -4.555  -7.569  0.00  0.00    -0.052 C 
ATOM     65  H   LIG d   1       2.987  -5.330  -7.083  0.00  0.00     0.024 H 
ATOM     66  H   LIG d   1       3.244  -3.575  -7.230  0.00  0.00     0.024 H 
ATOM     67  H   LIG d   1       3.458  -4.627  -8.649  0.00  0.00     0.024 H 
ENDBRANCH   8  64
BRANCH  23  68
ATOM     68  C   LIG d   1       3.648  -0.347  -5.392  0.00  0.00    -0.059 C 
ATOM     69  H   LIG d   1       2.843  -0.025  -4.731  0.00  0.00     0.024 H 
ATOM     70  H   LIG d   1       4.249   0.516  -5.679  0.00  0.00     0.024 H 
ATOM     71  H   LIG d   1       3.225  -0.808  -6.284  0.00  0.00     0.024 H 
ENDBRANCH  23  68
BRANCH  19  72
ATOM     72  O   LIG d   1       4.733   1.191  -1.284  0.00  0.00    -0.392 OA
ATOM     73  H   LIG d   1       5.435   1.853  -1.335  0.00  0.00     0.210 HD
ENDBRANCH  19  72
TORSDOF 10
ENDMDL
