MODEL 1
REMARK VINA RESULT:      -4.9      0.000      0.000
REMARK  1 active torsions:
REMARK  status: ('A' for Active; 'I' for Inactive)
REMARK    1  A    between atoms: C_8  and  O_12 
ROOT
ATOM      1  C   LIG d   1       4.416  -0.142  -1.666  0.00  0.00    -0.036 A 
ATOM      2  C   LIG d   1       4.599   1.132  -2.046  0.00  0.00     0.003 A 
ATOM      3  N   LIG d   1       4.789   1.193  -3.399  0.00  0.00    -0.361 N 
ATOM      4  H   LIG d   1       4.938   2.007  -3.906  0.00  0.00     0.165 HD
ATOM      5  C   LIG d   1       4.742  -0.077  -3.937  0.00  0.00     0.048 A 
ATOM      6  C   LIG d   1       4.502  -0.966  -2.875  0.00  0.00     0.003 A 
ATOM      7  C   LIG d   1       4.397  -2.337  -3.122  0.00  0.00    -0.010 A 
ATOM      8  C   LIG d   1       4.531  -2.809  -4.412  0.00  0.00     0.131 A 
ATOM      9  C   LIG d   1       4.769  -1.925  -5.462  0.00  0.00     0.061 A 
ATOM     10  C   LIG d   1       4.873  -0.571  -5.229  0.00  0.00    -0.020 A 
ATOM     11 BR   LIG d   1       4.949  -2.589  -7.224  0.00  0.00    -0.046 Br
ATOM     12  H   LIG d   1       4.239  -0.494  -0.661  0.00  0.00     0.064 H 
ATOM     13  H   LIG d   1       4.592   1.984  -1.382  0.00  0.00     0.081 H 
ATOM     14  H   LIG d   1       4.214  -3.023  -2.309  0.00  0.00     0.066 H 
ATOM     15  H   LIG d   1       5.057   0.106  -6.051  0.00  0.00     0.065 H 
ENDROOT
BRANCH   8  16
ATOM     16  O   LIG d   1       4.430  -4.142  -4.659  0.00  0.00    -0.506 OA
ATOM     17  H   LIG d   1       3.582  -4.527  -4.401  0.00  0.00     0.292 HD
ENDBRANCH   8  16
TORSDOF 1
ENDMDL
MODEL 2
REMARK VINA RESULT:      -4.8      3.098      3.920
REMARK  1 active torsions:
REMARK  status: ('A' for Active; 'I' for Inactive)
REMARK    1  A    between atoms: C_8  and  O_12 
ROOT
ATOM      1  C   LIG d   1       7.052  -3.668  -4.662  0.00  0.00    -0.036 A 
ATOM      2  C   LIG d   1       8.268  -3.215  -4.316  0.00  0.00     0.003 A 
ATOM      3  N   LIG d   1       8.150  -2.021  -3.659  0.00  0.00    -0.361 N 
ATOM      4  H   LIG d   1       8.891  -1.502  -3.308  0.00  0.00     0.165 HD
ATOM      5  C   LIG d   1       6.821  -1.662  -3.572  0.00  0.00     0.048 A 
ATOM      6  C   LIG d   1       6.077  -2.680  -4.193  0.00  0.00     0.003 A 
ATOM      7  C   LIG d   1       4.685  -2.590  -4.253  0.00  0.00    -0.010 A 
ATOM      8  C   LIG d   1       4.047  -1.497  -3.700  0.00  0.00     0.131 A 
ATOM      9  C   LIG d   1       4.788  -0.490  -3.086  0.00  0.00     0.061 A 
ATOM     10  C   LIG d   1       6.162  -0.569  -3.021  0.00  0.00    -0.020 A 
ATOM     11 BR   LIG d   1       3.899   1.000  -2.333  0.00  0.00    -0.046 Br
ATOM     12  H   LIG d   1       6.834  -4.587  -5.186  0.00  0.00     0.064 H 
ATOM     13  H   LIG d   1       9.199  -3.721  -4.521  0.00  0.00     0.081 H 
ATOM     14  H   LIG d   1       4.110  -3.370  -4.729  0.00  0.00     0.066 H 
ATOM     15  H   LIG d   1       6.727   0.218  -2.542  0.00  0.00     0.065 H 
ENDROOT
BRANCH   8  16
ATOM     16  O   LIG d   1       2.692  -1.403  -3.755  0.00  0.00    -0.506 OA
ATOM     17  H   LIG d   1       2.290  -1.041  -2.954  0.00  0.00     0.292 HD
ENDBRANCH   8  16
TORSDOF 1
ENDMDL
MODEL 3
REMARK VINA RESULT:      -4.8      2.035      2.391
REMARK  1 active torsions:
REMARK  status: ('A' for Active; 'I' for Inactive)
REMARK    1  A    between atoms: C_8  and  O_12 
ROOT
ATOM      1  C   LIG d   1       3.496   1.183  -2.395  0.00  0.00    -0.036 A 
ATOM      2  C   LIG d   1       4.640   0.931  -1.739  0.00  0.00     0.003 A 
ATOM      3  N   LIG d   1       5.493   0.227  -2.543  0.00  0.00    -0.361 N 
ATOM      4  H   LIG d   1       6.383  -0.067  -2.289  0.00  0.00     0.165 HD
ATOM      5  C   LIG d   1       4.900  -0.006  -3.766  0.00  0.00     0.048 A 
ATOM      6  C   LIG d   1       3.626   0.586  -3.727  0.00  0.00     0.003 A 
ATOM      7  C   LIG d   1       2.788   0.514  -4.842  0.00  0.00    -0.010 A 
ATOM      8  C   LIG d   1       3.220  -0.141  -5.979  0.00  0.00     0.131 A 
ATOM      9  C   LIG d   1       4.483  -0.727  -6.014  0.00  0.00     0.061 A 
ATOM     10  C   LIG d   1       5.318  -0.661  -4.919  0.00  0.00    -0.020 A 
ATOM     11 BR   LIG d   1       5.059  -1.620  -7.578  0.00  0.00    -0.046 Br
ATOM     12  H   LIG d   1       2.642   1.724  -2.015  0.00  0.00     0.064 H 
ATOM     13  H   LIG d   1       4.855   1.243  -0.728  0.00  0.00     0.081 H 
ATOM     14  H   LIG d   1       1.809   0.968  -4.816  0.00  0.00     0.066 H 
ATOM     15  H   LIG d   1       6.296  -1.119  -4.957  0.00  0.00     0.065 H 
ENDROOT
BRANCH   8  16
ATOM     16  O   LIG d   1       2.409  -0.214  -7.067  0.00  0.00    -0.506 OA
ATOM     17  H   LIG d   1       2.672   0.368  -7.793  0.00  0.00     0.292 HD
ENDBRANCH   8  16
TORSDOF 1
ENDMDL
MODEL 4
REMARK VINA RESULT:      -4.8      3.394      4.072
REMARK  1 active torsions:
REMARK  status: ('A' for Active; 'I' for Inactive)
REMARK    1  A    between atoms: C_8  and  O_12 
ROOT
ATOM      1  C   LIG d   1       8.039   1.962  -3.973  0.00  0.00    -0.036 A 
ATOM      2  C   LIG d   1       8.933   1.087  -4.459  0.00  0.00     0.003 A 
ATOM      3  N   LIG d   1       8.445  -0.186  -4.352  0.00  0.00    -0.361 N 
ATOM      4  H   LIG d   1       8.910  -0.988  -4.640  0.00  0.00     0.165 HD
ATOM      5  C   LIG d   1       7.195  -0.162  -3.768  0.00  0.00     0.048 A 
ATOM      6  C   LIG d   1       6.886   1.185  -3.510  0.00  0.00     0.003 A 
ATOM      7  C   LIG d   1       5.665   1.521  -2.921  0.00  0.00    -0.010 A 
ATOM      8  C   LIG d   1       4.768   0.523  -2.594  0.00  0.00     0.131 A 
ATOM      9  C   LIG d   1       5.078  -0.811  -2.851  0.00  0.00     0.061 A 
ATOM     10  C   LIG d   1       6.279  -1.152  -3.433  0.00  0.00    -0.020 A 
ATOM     11 BR   LIG d   1       3.838  -2.164  -2.398  0.00  0.00    -0.046 Br
ATOM     12  H   LIG d   1       8.148   3.036  -3.931  0.00  0.00     0.064 H 
ATOM     13  H   LIG d   1       9.893   1.350  -4.878  0.00  0.00     0.081 H 
ATOM     14  H   LIG d   1       5.424   2.554  -2.721  0.00  0.00     0.066 H 
ATOM     15  H   LIG d   1       6.510  -2.190  -3.629  0.00  0.00     0.065 H 
ENDROOT
BRANCH   8  16
ATOM     16  O   LIG d   1       3.578   0.843  -2.020  0.00  0.00    -0.506 OA
ATOM     17  H   LIG d   1       2.820   0.381  -2.402  0.00  0.00     0.292 HD
ENDBRANCH   8  16
TORSDOF 1
ENDMDL
MODEL 5
REMARK VINA RESULT:      -4.7      2.448      2.747
REMARK  1 active torsions:
REMARK  status: ('A' for Active; 'I' for Inactive)
REMARK    1  A    between atoms: C_8  and  O_12 
ROOT
ATOM      1  C   LIG d   1       4.309  -0.433  -2.374  0.00  0.00    -0.036 A 
ATOM      2  C   LIG d   1       3.085  -0.756  -2.819  0.00  0.00     0.003 A 
ATOM      3  N   LIG d   1       3.171  -1.790  -3.710  0.00  0.00    -0.361 N 
ATOM      4  H   LIG d   1       2.418  -2.200  -4.163  0.00  0.00     0.165 HD
ATOM      5  C   LIG d   1       4.490  -2.161  -3.872  0.00  0.00     0.048 A 
ATOM      6  C   LIG d   1       5.258  -1.329  -3.039  0.00  0.00     0.003 A 
ATOM      7  C   LIG d   1       6.646  -1.480  -2.989  0.00  0.00    -0.010 A 
ATOM      8  C   LIG d   1       7.254  -2.449  -3.763  0.00  0.00     0.131 A 
ATOM      9  C   LIG d   1       6.490  -3.271  -4.587  0.00  0.00     0.061 A 
ATOM     10  C   LIG d   1       5.121  -3.131  -4.643  0.00  0.00    -0.020 A 
ATOM     11 BR   LIG d   1       7.340  -4.593  -5.639  0.00  0.00    -0.046 Br
ATOM     12  H   LIG d   1       4.550   0.341  -1.660  0.00  0.00     0.064 H 
ATOM     13  H   LIG d   1       2.168  -0.274  -2.515  0.00  0.00     0.081 H 
ATOM     14  H   LIG d   1       7.239  -0.844  -2.351  0.00  0.00     0.066 H 
ATOM     15  H   LIG d   1       4.537  -3.774  -5.286  0.00  0.00     0.065 H 
ENDROOT
BRANCH   8  16
ATOM     16  O   LIG d   1       8.605  -2.601  -3.719  0.00  0.00    -0.506 OA
ATOM     17  H   LIG d   1       9.044  -2.460  -4.568  0.00  0.00     0.292 HD
ENDBRANCH   8  16
TORSDOF 1
ENDMDL
MODEL 6
REMARK VINA RESULT:      -4.6      2.900      3.292
REMARK  1 active torsions:
REMARK  status: ('A' for Active; 'I' for Inactive)
REMARK    1  A    between atoms: C_8  and  O_12 
ROOT
ATOM      1  C   LIG d   1       3.358   0.254  -2.699  0.00  0.00    -0.036 A 
ATOM      2  C   LIG d   1       2.593  -0.797  -3.032  0.00  0.00     0.003 A 
ATOM      3  N   LIG d   1       3.349  -1.742  -3.669  0.00  0.00    -0.361 N 
ATOM      4  H   LIG d   1       3.017  -2.591  -4.001  0.00  0.00     0.165 HD
ATOM      5  C   LIG d   1       4.653  -1.306  -3.773  0.00  0.00     0.048 A 
ATOM      6  C   LIG d   1       4.715  -0.039  -3.167  0.00  0.00     0.003 A 
ATOM      7  C   LIG d   1       5.928   0.653  -3.116  0.00  0.00    -0.010 A 
ATOM      8  C   LIG d   1       7.060   0.085  -3.665  0.00  0.00     0.131 A 
ATOM      9  C   LIG d   1       6.995  -1.170  -4.266  0.00  0.00     0.061 A 
ATOM     10  C   LIG d   1       5.805  -1.861  -4.320  0.00  0.00    -0.020 A 
ATOM     11 BR   LIG d   1       8.556  -1.933  -5.012  0.00  0.00    -0.046 Br
ATOM     12  H   LIG d   1       3.035   1.147  -2.183  0.00  0.00     0.064 H 
ATOM     13  H   LIG d   1       1.536  -0.885  -2.823  0.00  0.00     0.081 H 
ATOM     14  H   LIG d   1       5.979   1.625  -2.651  0.00  0.00     0.066 H 
ATOM     15  H   LIG d   1       5.765  -2.835  -4.788  0.00  0.00     0.065 H 
ENDROOT
BRANCH   8  16
ATOM     16  O   LIG d   1       8.243   0.753  -3.619  0.00  0.00    -0.506 OA
ATOM     17  H   LIG d   1       8.437   1.266  -4.415  0.00  0.00     0.292 HD
ENDBRANCH   8  16
TORSDOF 1
ENDMDL
MODEL 7
REMARK VINA RESULT:      -4.3      3.333      4.429
REMARK  1 active torsions:
REMARK  status: ('A' for Active; 'I' for Inactive)
REMARK    1  A    between atoms: C_8  and  O_12 
ROOT
ATOM      1  C   LIG d   1       6.406  -3.645  -5.201  0.00  0.00    -0.036 A 
ATOM      2  C   LIG d   1       5.266  -4.353  -5.222  0.00  0.00     0.003 A 
ATOM      3  N   LIG d   1       4.285  -3.679  -4.549  0.00  0.00    -0.361 N 
ATOM      4  H   LIG d   1       3.373  -3.990  -4.433  0.00  0.00     0.165 HD
ATOM      5  C   LIG d   1       4.785  -2.491  -4.057  0.00  0.00     0.048 A 
ATOM      6  C   LIG d   1       6.133  -2.418  -4.448  0.00  0.00     0.003 A 
ATOM      7  C   LIG d   1       6.904  -1.308  -4.093  0.00  0.00    -0.010 A 
ATOM      8  C   LIG d   1       6.333  -0.289  -3.356  0.00  0.00     0.131 A 
ATOM      9  C   LIG d   1       4.997  -0.365  -2.971  0.00  0.00     0.061 A 
ATOM     10  C   LIG d   1       4.228  -1.454  -3.317  0.00  0.00    -0.020 A 
ATOM     11 BR   LIG d   1       4.231   1.040  -1.964  0.00  0.00    -0.046 Br
ATOM     12  H   LIG d   1       7.345  -3.925  -5.654  0.00  0.00     0.064 H 
ATOM     13  H   LIG d   1       5.141  -5.312  -5.703  0.00  0.00     0.081 H 
ATOM     14  H   LIG d   1       7.940  -1.248  -4.391  0.00  0.00     0.066 H 
ATOM     15  H   LIG d   1       3.191  -1.504  -3.013  0.00  0.00     0.065 H 
ENDROOT
BRANCH   8  16
ATOM     16  O   LIG d   1       7.078   0.794  -3.007  0.00  0.00    -0.506 OA
ATOM     17  H   LIG d   1       6.582   1.623  -2.990  0.00  0.00     0.292 HD
ENDBRANCH   8  16
TORSDOF 1
ENDMDL
MODEL 8
REMARK VINA RESULT:      -4.3      9.447     10.586
REMARK  1 active torsions:
REMARK  status: ('A' for Active; 'I' for Inactive)
REMARK    1  A    between atoms: C_8  and  O_12 
ROOT
ATOM      1  C   LIG d   1      10.284   9.423   0.191  0.00  0.00    -0.036 A 
ATOM      2  C   LIG d   1       9.534  10.136  -0.664  0.00  0.00     0.003 A 
ATOM      3  N   LIG d   1       9.132   9.344  -1.704  0.00  0.00    -0.361 N 
ATOM      4  H   LIG d   1       8.578   9.635  -2.445  0.00  0.00     0.165 HD
ATOM      5  C   LIG d   1       9.635   8.069  -1.544  0.00  0.00     0.048 A 
ATOM      6  C   LIG d   1      10.374   8.064  -0.349  0.00  0.00     0.003 A 
ATOM      7  C   LIG d   1      11.002   6.891   0.079  0.00  0.00    -0.010 A 
ATOM      8  C   LIG d   1      10.891   5.743  -0.680  0.00  0.00     0.131 A 
ATOM      9  C   LIG d   1      10.158   5.752  -1.864  0.00  0.00     0.061 A 
ATOM     10  C   LIG d   1       9.535   6.903  -2.294  0.00  0.00    -0.020 A 
ATOM     11 BR   LIG d   1      10.017   4.170  -2.891  0.00  0.00    -0.046 Br
ATOM     12  H   LIG d   1      10.735   9.782   1.105  0.00  0.00     0.064 H 
ATOM     13  H   LIG d   1       9.283  11.179  -0.546  0.00  0.00     0.081 H 
ATOM     14  H   LIG d   1      11.570   6.883   0.997  0.00  0.00     0.066 H 
ATOM     15  H   LIG d   1       8.968   6.900  -3.215  0.00  0.00     0.065 H 
ENDROOT
BRANCH   8  16
ATOM     16  O   LIG d   1      11.500   4.599  -0.269  0.00  0.00    -0.506 OA
ATOM     17  H   LIG d   1      12.465   4.653  -0.247  0.00  0.00     0.292 HD
ENDBRANCH   8  16
TORSDOF 1
ENDMDL
MODEL 9
REMARK VINA RESULT:      -4.3      8.616      9.415
REMARK  1 active torsions:
REMARK  status: ('A' for Active; 'I' for Inactive)
REMARK    1  A    between atoms: C_8  and  O_12 
ROOT
ATOM      1  C   LIG d   1      10.691   6.844   0.151  0.00  0.00    -0.036 A 
ATOM      2  C   LIG d   1      11.347   5.816   0.711  0.00  0.00     0.003 A 
ATOM      3  N   LIG d   1      11.418   4.773  -0.170  0.00  0.00    -0.361 N 
ATOM      4  H   LIG d   1      11.848   3.921   0.007  0.00  0.00     0.165 HD
ATOM      5  C   LIG d   1      10.784   5.110  -1.348  0.00  0.00     0.048 A 
ATOM      6  C   LIG d   1      10.305   6.423  -1.198  0.00  0.00     0.003 A 
ATOM      7  C   LIG d   1       9.618   7.039  -2.246  0.00  0.00    -0.010 A 
ATOM      8  C   LIG d   1       9.411   6.351  -3.425  0.00  0.00     0.131 A 
ATOM      9  C   LIG d   1       9.887   5.050  -3.570  0.00  0.00     0.061 A 
ATOM     10  C   LIG d   1      10.568   4.433  -2.543  0.00  0.00    -0.020 A 
ATOM     11 BR   LIG d   1       9.597   4.122  -5.192  0.00  0.00    -0.046 Br
ATOM     12  H   LIG d   1      10.487   7.802   0.608  0.00  0.00     0.064 H 
ATOM     13  H   LIG d   1      11.762   5.815   1.708  0.00  0.00     0.081 H 
ATOM     14  H   LIG d   1       9.248   8.048  -2.135  0.00  0.00     0.066 H 
ATOM     15  H   LIG d   1      10.933   3.423  -2.666  0.00  0.00     0.065 H 
ENDROOT
BRANCH   8  16
ATOM     16  O   LIG d   1       8.743   6.946  -4.448  0.00  0.00    -0.506 OA
ATOM     17  H   LIG d   1       8.041   7.547  -4.163  0.00  0.00     0.292 HD
ENDBRANCH   8  16
TORSDOF 1
ENDMDL
