MODEL 1
REMARK VINA RESULT:      -4.9      0.000      0.000
REMARK  11 active torsions:
REMARK  status: ('A' for Active; 'I' for Inactive)
REMARK    1  A    between atoms: C_1  and  C_2 
REMARK    2  A    between atoms: C_7  and  N_9 
REMARK    3  A    between atoms: N_9  and  C_10 
REMARK    4  A    between atoms: C_12  and  C_32 
REMARK    5  A    between atoms: C_15  and  O_31 
REMARK    6  A    between atoms: C_17  and  C_21 
REMARK    7  A    between atoms: C_21  and  C_23 
REMARK    8  A    between atoms: C_21  and  C_24 
REMARK       I    between atoms: C_24  and  N_26 
REMARK    9  A    between atoms: N_26  and  C_27 
REMARK   10  A    between atoms: N_26  and  C_28 
REMARK   11  A    between atoms: C_28  and  C_29 
ROOT
ATOM      1  C   LIG d   1       7.060   0.573  -4.105  0.00  0.00     0.005 C 
ATOM      2  H   LIG d   1       7.540  -0.342  -3.760  0.00  0.00     0.036 H 
ATOM      3  C   LIG d   1       8.112   1.653  -4.304  0.00  0.00     0.057 A 
ATOM      4  C   LIG d   1       8.562   1.944  -5.551  0.00  0.00     0.015 A 
ATOM      5  S   LIG d   1       9.750   3.224  -5.248  0.00  0.00    -0.057 SA
ATOM      6  C   LIG d   1       9.565   3.282  -3.521  0.00  0.00     0.158 A 
ATOM      7  N   LIG d   1       8.650   2.359  -3.310  0.00  0.00    -0.229 NA
ATOM      8  C   LIG d   1       8.142   1.325  -6.837  0.00  0.00    -0.014 C 
ATOM      9  C   LIG d   1       7.363   0.029  -6.540  0.00  0.00    -0.022 C 
ATOM     10  C   LIG d   1       6.343   0.290  -5.430  0.00  0.00    -0.001 C 
ATOM     11  H   LIG d   1       5.728   1.151  -5.694  0.00  0.00     0.034 H 
ATOM     12  C   LIG d   1       5.438  -0.920  -5.229  0.00  0.00     0.063 C 
ATOM     13  H   LIG d   1       6.046  -1.765  -4.908  0.00  0.00     0.060 H 
ATOM     14  C   LIG d   1       4.728  -1.275  -6.534  0.00  0.00    -0.004 C 
ATOM     15  H   LIG d   1       4.082  -2.138  -6.374  0.00  0.00     0.033 H 
ATOM     16  C   LIG d   1       5.779  -1.609  -7.597  0.00  0.00    -0.047 C 
ATOM     17  C   LIG d   1       6.647  -0.375  -7.833  0.00  0.00    -0.047 C 
ATOM     18  H   LIG d   1       9.024   1.092  -7.434  0.00  0.00     0.032 H 
ATOM     19  H   LIG d   1       7.503   2.018  -7.383  0.00  0.00     0.032 H 
ATOM     20  H   LIG d   1       6.402  -2.432  -7.248  0.00  0.00     0.027 H 
ATOM     21  H   LIG d   1       5.283  -1.890  -8.525  0.00  0.00     0.027 H 
ATOM     22  H   LIG d   1       7.388  -0.597  -8.601  0.00  0.00     0.027 H 
ATOM     23  H   LIG d   1       6.019   0.449  -8.169  0.00  0.00     0.027 H 
ENDROOT
BRANCH  14  24
ATOM     24  C   LIG d   1       3.887  -0.085  -7.000  0.00  0.00     0.038 C 
ATOM     25  H   LIG d   1       4.512   0.807  -7.044  0.00  0.00     0.040 H 
BRANCH  24  26
ATOM     26  C   LIG d   1       2.738   0.145  -6.016  0.00  0.00    -0.054 C 
ATOM     27  H   LIG d   1       2.106   0.955  -6.377  0.00  0.00     0.024 H 
ATOM     28  H   LIG d   1       2.146  -0.767  -5.929  0.00  0.00     0.024 H 
ATOM     29  H   LIG d   1       3.145   0.408  -5.039  0.00  0.00     0.024 H 
ENDBRANCH  24  26
BRANCH  24  30
ATOM     30  C   LIG d   1       3.326  -0.372  -8.369  0.00  0.00     0.219 C 
ATOM     31  O   LIG d   1       2.793  -1.438  -8.595  0.00  0.00    -0.275 OA
ATOM     32  N   LIG d   1       3.417   0.554  -9.343  0.00  0.00    -0.301 N 
BRANCH  32  33
ATOM     33  C   LIG d   1       4.062   1.842  -9.072  0.00  0.00     0.004 C 
ATOM     34  H   LIG d   1       5.108   1.796  -9.379  0.00  0.00     0.043 H 
ATOM     35  H   LIG d   1       3.553   2.627  -9.629  0.00  0.00     0.043 H 
ATOM     36  H   LIG d   1       4.006   2.059  -8.005  0.00  0.00     0.043 H 
ENDBRANCH  32  33
BRANCH  32  37
ATOM     37  C   LIG d   1       2.872   0.275 -10.673  0.00  0.00     0.032 C 
ATOM     38  H   LIG d   1       2.395  -0.704 -10.673  0.00  0.00     0.051 H 
ATOM     39  H   LIG d   1       2.137   1.037 -10.932  0.00  0.00     0.051 H 
BRANCH  37  40
ATOM     40  C   LIG d   1       3.988   0.290 -11.687  0.00  0.00    -0.074 C 
ATOM     41  C   LIG d   1       4.873  -0.675 -11.700  0.00  0.00    -0.101 C 
ATOM     42  H   LIG d   1       5.674  -0.664 -12.426  0.00  0.00     0.053 H 
ATOM     43  H   LIG d   1       4.805  -1.481 -10.984  0.00  0.00     0.053 H 
ATOM     44  H   LIG d   1       4.056   1.096 -12.402  0.00  0.00     0.058 H 
ENDBRANCH  37  40
ENDBRANCH  32  37
ENDBRANCH  24  30
ENDBRANCH  14  24
BRANCH  12  45
ATOM     45  O   LIG d   1       4.465  -0.632  -4.224  0.00  0.00    -0.391 OA
ATOM     46  H   LIG d   1       4.361   0.312  -4.035  0.00  0.00     0.210 HD
ENDBRANCH  12  45
BRANCH   1  47
ATOM     47  C   LIG d   1       6.042   1.040  -3.062  0.00  0.00    -0.057 C 
ATOM     48  H   LIG d   1       5.252   1.608  -3.553  0.00  0.00     0.024 H 
ATOM     49  H   LIG d   1       5.611   0.172  -2.563  0.00  0.00     0.024 H 
ATOM     50  H   LIG d   1       6.540   1.671  -2.326  0.00  0.00     0.024 H 
ENDBRANCH   1  47
BRANCH   9  51
ATOM     51  C   LIG d   1       8.331  -1.076  -6.111  0.00  0.00    -0.059 C 
ATOM     52  H   LIG d   1       8.537  -1.729  -6.960  0.00  0.00     0.024 H 
ATOM     53  H   LIG d   1       9.261  -0.629  -5.762  0.00  0.00     0.024 H 
ATOM     54  H   LIG d   1       7.882  -1.659  -5.306  0.00  0.00     0.024 H 
ENDBRANCH   9  51
BRANCH   6  55
ATOM     55  N   LIG d   1      10.214   4.092  -2.601  0.00  0.00    -0.327 N 
ATOM     56  H   LIG d   1      10.864   3.709  -1.991  0.00  0.00     0.148 HD
BRANCH  55  57
ATOM     57  C   LIG d   1       9.918   5.526  -2.551  0.00  0.00    -0.001 C 
ATOM     58  H   LIG d   1      10.770   6.087  -2.934  0.00  0.00     0.043 H 
ATOM     59  H   LIG d   1       9.040   5.737  -3.161  0.00  0.00     0.043 H 
ATOM     60  H   LIG d   1       9.724   5.821  -1.520  0.00  0.00     0.043 H 
ENDBRANCH  55  57
ENDBRANCH   6  55
TORSDOF 11
ENDMDL
MODEL 2
REMARK VINA RESULT:      -4.8      4.279      8.787
REMARK  11 active torsions:
REMARK  status: ('A' for Active; 'I' for Inactive)
REMARK    1  A    between atoms: C_1  and  C_2 
REMARK    2  A    between atoms: C_7  and  N_9 
REMARK    3  A    between atoms: N_9  and  C_10 
REMARK    4  A    between atoms: C_12  and  C_32 
REMARK    5  A    between atoms: C_15  and  O_31 
REMARK    6  A    between atoms: C_17  and  C_21 
REMARK    7  A    between atoms: C_21  and  C_23 
REMARK    8  A    between atoms: C_21  and  C_24 
REMARK       I    between atoms: C_24  and  N_26 
REMARK    9  A    between atoms: N_26  and  C_27 
REMARK   10  A    between atoms: N_26  and  C_28 
REMARK   11  A    between atoms: C_28  and  C_29 
ROOT
ATOM      1  C   LIG d   1       2.519  -1.893 -10.198  0.00  0.00     0.005 C 
ATOM      2  H   LIG d   1       3.184  -1.660 -11.030  0.00  0.00     0.036 H 
ATOM      3  C   LIG d   1       1.872  -3.250 -10.430  0.00  0.00     0.057 A 
ATOM      4  C   LIG d   1       2.342  -4.347  -9.784  0.00  0.00     0.015 A 
ATOM      5  S   LIG d   1       1.286  -5.636 -10.389  0.00  0.00    -0.057 SA
ATOM      6  C   LIG d   1       0.315  -4.644 -11.434  0.00  0.00     0.158 A 
ATOM      7  N   LIG d   1       0.844  -3.452 -11.254  0.00  0.00    -0.229 NA
ATOM      8  C   LIG d   1       3.466  -4.419  -8.812  0.00  0.00    -0.014 C 
ATOM      9  C   LIG d   1       4.285  -3.116  -8.894  0.00  0.00    -0.022 C 
ATOM     10  C   LIG d   1       3.335  -1.917  -8.901  0.00  0.00    -0.001 C 
ATOM     11  H   LIG d   1       2.654  -1.984  -8.053  0.00  0.00     0.034 H 
ATOM     12  C   LIG d   1       4.113  -0.609  -8.808  0.00  0.00     0.063 C 
ATOM     13  H   LIG d   1       4.750  -0.514  -9.687  0.00  0.00     0.060 H 
ATOM     14  C   LIG d   1       4.980  -0.595  -7.550  0.00  0.00    -0.004 C 
ATOM     15  H   LIG d   1       5.526   0.346  -7.495  0.00  0.00     0.033 H 
ATOM     16  C   LIG d   1       5.971  -1.761  -7.618  0.00  0.00    -0.047 C 
ATOM     17  C   LIG d   1       5.186  -3.071  -7.655  0.00  0.00    -0.047 C 
ATOM     18  H   LIG d   1       4.104  -5.268  -9.056  0.00  0.00     0.032 H 
ATOM     19  H   LIG d   1       3.068  -4.538  -7.804  0.00  0.00     0.032 H 
ATOM     20  H   LIG d   1       6.578  -1.673  -8.519  0.00  0.00     0.027 H 
ATOM     21  H   LIG d   1       6.614  -1.746  -6.738  0.00  0.00     0.027 H 
ATOM     22  H   LIG d   1       5.883  -3.908  -7.686  0.00  0.00     0.027 H 
ATOM     23  H   LIG d   1       4.571  -3.149  -6.759  0.00  0.00     0.027 H 
ENDROOT
BRANCH  14  24
ATOM     24  C   LIG d   1       4.093  -0.747  -6.313  0.00  0.00     0.038 C 
ATOM     25  H   LIG d   1       3.703  -1.764  -6.269  0.00  0.00     0.040 H 
BRANCH  24  26
ATOM     26  C   LIG d   1       2.929   0.242  -6.396  0.00  0.00    -0.054 C 
ATOM     27  H   LIG d   1       2.901   0.847  -5.491  0.00  0.00     0.024 H 
ATOM     28  H   LIG d   1       3.064   0.890  -7.263  0.00  0.00     0.024 H 
ATOM     29  H   LIG d   1       1.992  -0.307  -6.496  0.00  0.00     0.024 H 
ENDBRANCH  24  26
BRANCH  24  30
ATOM     30  C   LIG d   1       4.905  -0.466  -5.076  0.00  0.00     0.219 C 
ATOM     31  O   LIG d   1       5.609   0.520  -5.023  0.00  0.00    -0.275 OA
ATOM     32  N   LIG d   1       4.850  -1.310  -4.027  0.00  0.00    -0.301 N 
BRANCH  32  33
ATOM     33  C   LIG d   1       4.000  -2.502  -4.090  0.00  0.00     0.004 C 
ATOM     34  H   LIG d   1       2.979  -2.208  -4.335  0.00  0.00     0.043 H 
ATOM     35  H   LIG d   1       4.377  -3.177  -4.858  0.00  0.00     0.043 H 
ATOM     36  H   LIG d   1       4.010  -3.008  -3.125  0.00  0.00     0.043 H 
ENDBRANCH  32  33
BRANCH  32  37
ATOM     37  C   LIG d   1       5.638  -1.037  -2.823  0.00  0.00     0.032 C 
ATOM     38  H   LIG d   1       6.088  -1.963  -2.465  0.00  0.00     0.051 H 
ATOM     39  H   LIG d   1       6.423  -0.319  -3.058  0.00  0.00     0.051 H 
BRANCH  37  40
ATOM     40  C   LIG d   1       4.741  -0.467  -1.754  0.00  0.00    -0.074 C 
ATOM     41  C   LIG d   1       4.557   0.827  -1.674  0.00  0.00    -0.101 C 
ATOM     42  H   LIG d   1       3.915   1.235  -0.907  0.00  0.00     0.053 H 
ATOM     43  H   LIG d   1       5.048   1.487  -2.374  0.00  0.00     0.053 H 
ATOM     44  H   LIG d   1       4.251  -1.127  -1.054  0.00  0.00     0.058 H 
ENDBRANCH  37  40
ENDBRANCH  32  37
ENDBRANCH  24  30
ENDBRANCH  14  24
BRANCH  12  45
ATOM     45  O   LIG d   1       3.202   0.491  -8.766  0.00  0.00    -0.391 OA
ATOM     46  H   LIG d   1       3.592   1.335  -9.031  0.00  0.00     0.210 HD
ENDBRANCH  12  45
BRANCH   1  47
ATOM     47  C   LIG d   1       1.432  -0.821 -10.099  0.00  0.00    -0.057 C 
ATOM     48  H   LIG d   1       1.479  -0.173 -10.974  0.00  0.00     0.024 H 
ATOM     49  H   LIG d   1       0.454  -1.299 -10.052  0.00  0.00     0.024 H 
ATOM     50  H   LIG d   1       1.588  -0.227  -9.198  0.00  0.00     0.024 H 
ENDBRANCH   1  47
BRANCH   9  51
ATOM     51  C   LIG d   1       5.139  -3.115 -10.163  0.00  0.00    -0.059 C 
ATOM     52  H   LIG d   1       5.644  -2.154 -10.261  0.00  0.00     0.024 H 
ATOM     53  H   LIG d   1       5.882  -3.911 -10.102  0.00  0.00     0.024 H 
ATOM     54  H   LIG d   1       4.500  -3.280 -11.031  0.00  0.00     0.024 H 
ENDBRANCH   9  51
BRANCH   6  55
ATOM     55  N   LIG d   1      -0.745  -5.012 -12.249  0.00  0.00    -0.327 N 
ATOM     56  H   LIG d   1      -0.845  -5.937 -12.526  0.00  0.00     0.148 HD
BRANCH  55  57
ATOM     57  C   LIG d   1      -1.714  -4.006 -12.689  0.00  0.00    -0.001 C 
ATOM     58  H   LIG d   1      -1.675  -3.146 -12.021  0.00  0.00     0.043 H 
ATOM     59  H   LIG d   1      -1.473  -3.689 -13.703  0.00  0.00     0.043 H 
ATOM     60  H   LIG d   1      -2.716  -4.434 -12.671  0.00  0.00     0.043 H 
ENDBRANCH  55  57
ENDBRANCH   6  55
TORSDOF 11
ENDMDL
MODEL 3
REMARK VINA RESULT:      -4.6      5.483      7.531
REMARK  11 active torsions:
REMARK  status: ('A' for Active; 'I' for Inactive)
REMARK    1  A    between atoms: C_1  and  C_2 
REMARK    2  A    between atoms: C_7  and  N_9 
REMARK    3  A    between atoms: N_9  and  C_10 
REMARK    4  A    between atoms: C_12  and  C_32 
REMARK    5  A    between atoms: C_15  and  O_31 
REMARK    6  A    between atoms: C_17  and  C_21 
REMARK    7  A    between atoms: C_21  and  C_23 
REMARK    8  A    between atoms: C_21  and  C_24 
REMARK       I    between atoms: C_24  and  N_26 
REMARK    9  A    between atoms: N_26  and  C_27 
REMARK   10  A    between atoms: N_26  and  C_28 
REMARK   11  A    between atoms: C_28  and  C_29 
ROOT
ATOM      1  C   LIG d   1       8.682  -5.655  -5.194  0.00  0.00     0.005 C 
ATOM      2  H   LIG d   1       9.445  -5.348  -5.908  0.00  0.00     0.036 H 
ATOM      3  C   LIG d   1       9.350  -6.208  -3.944  0.00  0.00     0.057 A 
ATOM      4  C   LIG d   1       9.454  -5.439  -2.830  0.00  0.00     0.015 A 
ATOM      5  S   LIG d   1      10.294  -6.509  -1.695  0.00  0.00    -0.057 SA
ATOM      6  C   LIG d   1      10.442  -7.876  -2.759  0.00  0.00     0.158 A 
ATOM      7  N   LIG d   1       9.865  -7.434  -3.857  0.00  0.00    -0.229 NA
ATOM      8  C   LIG d   1       8.971  -4.045  -2.639  0.00  0.00    -0.014 C 
ATOM      9  C   LIG d   1       8.637  -3.436  -4.015  0.00  0.00    -0.022 C 
ATOM     10  C   LIG d   1       7.822  -4.439  -4.833  0.00  0.00    -0.001 C 
ATOM     11  H   LIG d   1       6.961  -4.771  -4.252  0.00  0.00     0.034 H 
ATOM     12  C   LIG d   1       7.328  -3.808  -6.129  0.00  0.00     0.063 C 
ATOM     13  H   LIG d   1       8.189  -3.530  -6.736  0.00  0.00     0.060 H 
ATOM     14  C   LIG d   1       6.496  -2.562  -5.831  0.00  0.00    -0.004 C 
ATOM     15  H   LIG d   1       6.147  -2.124  -6.766  0.00  0.00     0.033 H 
ATOM     16  C   LIG d   1       7.370  -1.549  -5.084  0.00  0.00    -0.047 C 
ATOM     17  C   LIG d   1       7.815  -2.168  -3.760  0.00  0.00    -0.047 C 
ATOM     18  H   LIG d   1       9.748  -3.453  -2.156  0.00  0.00     0.032 H 
ATOM     19  H   LIG d   1       8.076  -4.052  -2.017  0.00  0.00     0.032 H 
ATOM     20  H   LIG d   1       8.245  -1.307  -5.687  0.00  0.00     0.027 H 
ATOM     21  H   LIG d   1       6.795  -0.644  -4.889  0.00  0.00     0.027 H 
ATOM     22  H   LIG d   1       8.424  -1.447  -3.213  0.00  0.00     0.027 H 
ATOM     23  H   LIG d   1       6.938  -2.420  -3.166  0.00  0.00     0.027 H 
ENDROOT
BRANCH  14  24
ATOM     24  C   LIG d   1       5.296  -2.942  -4.963  0.00  0.00     0.038 C 
ATOM     25  H   LIG d   1       5.642  -3.242  -3.974  0.00  0.00     0.040 H 
BRANCH  24  26
ATOM     26  C   LIG d   1       4.544  -4.105  -5.613  0.00  0.00    -0.054 C 
ATOM     27  H   LIG d   1       3.475  -3.992  -5.437  0.00  0.00     0.024 H 
ATOM     28  H   LIG d   1       4.738  -4.108  -6.687  0.00  0.00     0.024 H 
ATOM     29  H   LIG d   1       4.886  -5.046  -5.180  0.00  0.00     0.024 H 
ENDBRANCH  24  26
BRANCH  24  30
ATOM     30  C   LIG d   1       4.373  -1.757  -4.834  0.00  0.00     0.219 C 
ATOM     31  O   LIG d   1       4.150  -1.055  -5.797  0.00  0.00    -0.275 OA
ATOM     32  N   LIG d   1       3.798  -1.477  -3.648  0.00  0.00    -0.301 N 
BRANCH  32  33
ATOM     33  C   LIG d   1       4.068  -2.324  -2.484  0.00  0.00     0.004 C 
ATOM     34  H   LIG d   1       5.105  -2.192  -2.173  0.00  0.00     0.043 H 
ATOM     35  H   LIG d   1       3.405  -2.041  -1.667  0.00  0.00     0.043 H 
ATOM     36  H   LIG d   1       3.898  -3.368  -2.746  0.00  0.00     0.043 H 
ENDBRANCH  32  33
BRANCH  32  37
ATOM     37  C   LIG d   1       2.901  -0.325  -3.523  0.00  0.00     0.032 C 
ATOM     38  H   LIG d   1       2.868   0.214  -4.469  0.00  0.00     0.051 H 
ATOM     39  H   LIG d   1       1.900  -0.670  -3.265  0.00  0.00     0.051 H 
BRANCH  37  40
ATOM     40  C   LIG d   1       3.410   0.592  -2.441  0.00  0.00    -0.074 C 
ATOM     41  C   LIG d   1       4.477   1.324  -2.650  0.00  0.00    -0.101 C 
ATOM     42  H   LIG d   1       4.842   1.981  -1.874  0.00  0.00     0.053 H 
ATOM     43  H   LIG d   1       4.992   1.270  -3.598  0.00  0.00     0.053 H 
ATOM     44  H   LIG d   1       2.896   0.646  -1.493  0.00  0.00     0.058 H 
ENDBRANCH  37  40
ENDBRANCH  32  37
ENDBRANCH  24  30
ENDBRANCH  14  24
BRANCH  12  45
ATOM     45  O   LIG d   1       6.529  -4.748  -6.849  0.00  0.00    -0.391 OA
ATOM     46  H   LIG d   1       6.848  -5.660  -6.794  0.00  0.00     0.210 HD
ENDBRANCH  12  45
BRANCH   1  47
ATOM     47  C   LIG d   1       7.801  -6.737  -5.822  0.00  0.00    -0.057 C 
ATOM     48  H   LIG d   1       7.598  -7.514  -5.084  0.00  0.00     0.024 H 
ATOM     49  H   LIG d   1       6.862  -6.294  -6.152  0.00  0.00     0.024 H 
ATOM     50  H   LIG d   1       8.317  -7.174  -6.677  0.00  0.00     0.024 H 
ENDBRANCH   1  47
BRANCH   9  51
ATOM     51  C   LIG d   1       9.928  -3.082  -4.757  0.00  0.00    -0.059 C 
ATOM     52  H   LIG d   1      10.716  -3.777  -4.467  0.00  0.00     0.024 H 
ATOM     53  H   LIG d   1       9.760  -3.151  -5.832  0.00  0.00     0.024 H 
ATOM     54  H   LIG d   1      10.227  -2.066  -4.500  0.00  0.00     0.024 H 
ENDBRANCH   9  51
BRANCH   6  55
ATOM     55  N   LIG d   1      11.020  -9.112  -2.515  0.00  0.00    -0.327 N 
ATOM     56  H   LIG d   1      10.980  -9.808  -3.190  0.00  0.00     0.148 HD
BRANCH  55  57
ATOM     57  C   LIG d   1      11.690  -9.368  -1.238  0.00  0.00    -0.001 C 
ATOM     58  H   LIG d   1      11.755 -10.443  -1.070  0.00  0.00     0.043 H 
ATOM     59  H   LIG d   1      12.694  -8.943  -1.263  0.00  0.00     0.043 H 
ATOM     60  H   LIG d   1      11.121  -8.909  -0.430  0.00  0.00     0.043 H 
ENDBRANCH  55  57
ENDBRANCH   6  55
TORSDOF 11
ENDMDL
MODEL 4
REMARK VINA RESULT:      -4.5      3.587      5.460
REMARK  11 active torsions:
REMARK  status: ('A' for Active; 'I' for Inactive)
REMARK    1  A    between atoms: C_1  and  C_2 
REMARK    2  A    between atoms: C_7  and  N_9 
REMARK    3  A    between atoms: N_9  and  C_10 
REMARK    4  A    between atoms: C_12  and  C_32 
REMARK    5  A    between atoms: C_15  and  O_31 
REMARK    6  A    between atoms: C_17  and  C_21 
REMARK    7  A    between atoms: C_21  and  C_23 
REMARK    8  A    between atoms: C_21  and  C_24 
REMARK       I    between atoms: C_24  and  N_26 
REMARK    9  A    between atoms: N_26  and  C_27 
REMARK   10  A    between atoms: N_26  and  C_28 
REMARK   11  A    between atoms: C_28  and  C_29 
ROOT
ATOM      1  C   LIG d   1       5.513  -0.243  -7.748  0.00  0.00     0.005 C 
ATOM      2  H   LIG d   1       5.904   0.736  -8.021  0.00  0.00     0.036 H 
ATOM      3  C   LIG d   1       4.785  -0.145  -6.416  0.00  0.00     0.057 A 
ATOM      4  C   LIG d   1       3.430  -0.084  -6.383  0.00  0.00     0.015 A 
ATOM      5  S   LIG d   1       3.086   0.029  -4.648  0.00  0.00    -0.057 SA
ATOM      6  C   LIG d   1       4.736  -0.015  -4.101  0.00  0.00     0.158 A 
ATOM      7  N   LIG d   1       5.400  -0.108  -5.234  0.00  0.00    -0.229 NA
ATOM      8  C   LIG d   1       2.490  -0.108  -7.536  0.00  0.00    -0.014 C 
ATOM      9  C   LIG d   1       3.280   0.148  -8.834  0.00  0.00    -0.022 C 
ATOM     10  C   LIG d   1       4.544  -0.713  -8.840  0.00  0.00    -0.001 C 
ATOM     11  H   LIG d   1       4.279  -1.754  -8.656  0.00  0.00     0.034 H 
ATOM     12  C   LIG d   1       5.261  -0.615 -10.181  0.00  0.00     0.063 C 
ATOM     13  H   LIG d   1       5.579   0.415 -10.336  0.00  0.00     0.060 H 
ATOM     14  C   LIG d   1       4.327  -1.033 -11.315  0.00  0.00    -0.004 C 
ATOM     15  H   LIG d   1       4.853  -0.962 -12.266  0.00  0.00     0.033 H 
ATOM     16  C   LIG d   1       3.114  -0.098 -11.328  0.00  0.00    -0.047 C 
ATOM     17  C   LIG d   1       2.368  -0.242 -10.002  0.00  0.00    -0.047 C 
ATOM     18  H   LIG d   1       1.736   0.668  -7.408  0.00  0.00     0.032 H 
ATOM     19  H   LIG d   1       2.005  -1.083  -7.590  0.00  0.00     0.032 H 
ATOM     20  H   LIG d   1       3.448   0.933 -11.449  0.00  0.00     0.027 H 
ATOM     21  H   LIG d   1       2.452  -0.369 -12.150  0.00  0.00     0.027 H 
ATOM     22  H   LIG d   1       1.493   0.408 -10.009  0.00  0.00     0.027 H 
ATOM     23  H   LIG d   1       2.047  -1.275  -9.880  0.00  0.00     0.027 H 
ENDROOT
BRANCH  14  24
ATOM     24  C   LIG d   1       3.861  -2.473 -11.092  0.00  0.00     0.038 C 
ATOM     25  H   LIG d   1       3.362  -2.548 -10.126  0.00  0.00     0.040 H 
BRANCH  24  26
ATOM     26  C   LIG d   1       5.072  -3.409 -11.115  0.00  0.00    -0.054 C 
ATOM     27  H   LIG d   1       5.017  -4.053 -11.991  0.00  0.00     0.024 H 
ATOM     28  H   LIG d   1       5.987  -2.817 -11.155  0.00  0.00     0.024 H 
ATOM     29  H   LIG d   1       5.074  -4.021 -10.213  0.00  0.00     0.024 H 
ENDBRANCH  24  26
BRANCH  24  30
ATOM     30  C   LIG d   1       2.902  -2.866 -12.186  0.00  0.00     0.219 C 
ATOM     31  O   LIG d   1       3.192  -2.667 -13.347  0.00  0.00    -0.275 OA
ATOM     32  N   LIG d   1       1.722  -3.436 -11.875  0.00  0.00    -0.301 N 
BRANCH  32  33
ATOM     33  C   LIG d   1       1.371  -3.674 -10.472  0.00  0.00     0.004 C 
ATOM     34  H   LIG d   1       0.292  -3.817 -10.387  0.00  0.00     0.043 H 
ATOM     35  H   LIG d   1       1.884  -4.567 -10.116  0.00  0.00     0.043 H 
ATOM     36  H   LIG d   1       1.672  -2.817  -9.871  0.00  0.00     0.043 H 
ENDBRANCH  32  33
BRANCH  32  37
ATOM     37  C   LIG d   1       0.789  -3.818 -12.937  0.00  0.00     0.032 C 
ATOM     38  H   LIG d   1       1.239  -3.609 -13.908  0.00  0.00     0.051 H 
ATOM     39  H   LIG d   1       0.567  -4.882 -12.861  0.00  0.00     0.051 H 
BRANCH  37  40
ATOM     40  C   LIG d   1      -0.487  -3.027 -12.794  0.00  0.00    -0.074 C 
ATOM     41  C   LIG d   1      -0.506  -1.754 -13.103  0.00  0.00    -0.101 C 
ATOM     42  H   LIG d   1      -1.421  -1.188 -13.000  0.00  0.00     0.053 H 
ATOM     43  H   LIG d   1       0.391  -1.271 -13.460  0.00  0.00     0.053 H 
ATOM     44  H   LIG d   1      -1.384  -3.511 -12.437  0.00  0.00     0.058 H 
ENDBRANCH  37  40
ENDBRANCH  32  37
ENDBRANCH  24  30
ENDBRANCH  14  24
BRANCH  12  45
ATOM     45  O   LIG d   1       6.409  -1.466 -10.177  0.00  0.00    -0.391 OA
ATOM     46  H   LIG d   1       6.282  -2.301 -10.648  0.00  0.00     0.210 HD
ENDBRANCH  12  45
BRANCH   1  47
ATOM     47  C   LIG d   1       6.668  -1.239  -7.625  0.00  0.00    -0.057 C 
ATOM     48  H   LIG d   1       7.214  -1.281  -8.567  0.00  0.00     0.024 H 
ATOM     49  H   LIG d   1       7.339  -0.919  -6.828  0.00  0.00     0.024 H 
ATOM     50  H   LIG d   1       6.272  -2.227  -7.390  0.00  0.00     0.024 H 
ENDBRANCH   1  47
BRANCH   9  51
ATOM     51  C   LIG d   1       3.655   1.628  -8.934  0.00  0.00    -0.059 C 
ATOM     52  H   LIG d   1       3.453   1.988  -9.943  0.00  0.00     0.024 H 
ATOM     53  H   LIG d   1       3.064   2.202  -8.220  0.00  0.00     0.024 H 
ATOM     54  H   LIG d   1       4.715   1.750  -8.710  0.00  0.00     0.024 H 
ENDBRANCH   9  51
BRANCH   6  55
ATOM     55  N   LIG d   1       5.226   0.034  -2.805  0.00  0.00    -0.327 N 
ATOM     56  H   LIG d   1       6.002  -0.494  -2.559  0.00  0.00     0.148 HD
BRANCH  55  57
ATOM     57  C   LIG d   1       4.574   0.885  -1.807  0.00  0.00    -0.001 C 
ATOM     58  H   LIG d   1       4.490   1.901  -2.194  0.00  0.00     0.043 H 
ATOM     59  H   LIG d   1       3.579   0.496  -1.592  0.00  0.00     0.043 H 
ATOM     60  H   LIG d   1       5.167   0.894  -0.893  0.00  0.00     0.043 H 
ENDBRANCH  55  57
ENDBRANCH   6  55
TORSDOF 11
ENDMDL
MODEL 5
REMARK VINA RESULT:      -4.4      3.325      5.535
REMARK  11 active torsions:
REMARK  status: ('A' for Active; 'I' for Inactive)
REMARK    1  A    between atoms: C_1  and  C_2 
REMARK    2  A    between atoms: C_7  and  N_9 
REMARK    3  A    between atoms: N_9  and  C_10 
REMARK    4  A    between atoms: C_12  and  C_32 
REMARK    5  A    between atoms: C_15  and  O_31 
REMARK    6  A    between atoms: C_17  and  C_21 
REMARK    7  A    between atoms: C_21  and  C_23 
REMARK    8  A    between atoms: C_21  and  C_24 
REMARK       I    between atoms: C_24  and  N_26 
REMARK    9  A    between atoms: N_26  and  C_27 
REMARK   10  A    between atoms: N_26  and  C_28 
REMARK   11  A    between atoms: C_28  and  C_29 
ROOT
ATOM      1  C   LIG d   1       5.518   0.736  -9.064  0.00  0.00     0.005 C 
ATOM      2  H   LIG d   1       5.210   1.779  -9.129  0.00  0.00     0.036 H 
ATOM      3  C   LIG d   1       5.857   0.398  -7.620  0.00  0.00     0.057 A 
ATOM      4  C   LIG d   1       4.965  -0.278  -6.852  0.00  0.00     0.015 A 
ATOM      5  S   LIG d   1       5.808  -0.408  -5.299  0.00  0.00    -0.057 SA
ATOM      6  C   LIG d   1       7.258   0.425  -5.773  0.00  0.00     0.158 A 
ATOM      7  N   LIG d   1       7.003   0.730  -7.028  0.00  0.00    -0.229 NA
ATOM      8  C   LIG d   1       3.619  -0.776  -7.245  0.00  0.00    -0.014 C 
ATOM      9  C   LIG d   1       3.202  -0.105  -8.569  0.00  0.00    -0.022 C 
ATOM     10  C   LIG d   1       4.370  -0.154  -9.555  0.00  0.00    -0.001 C 
ATOM     11  H   LIG d   1       4.729  -1.179  -9.647  0.00  0.00     0.034 H 
ATOM     12  C   LIG d   1       3.941   0.345 -10.929  0.00  0.00     0.063 C 
ATOM     13  H   LIG d   1       3.639   1.389 -10.847  0.00  0.00     0.060 H 
ATOM     14  C   LIG d   1       2.767  -0.482 -11.452  0.00  0.00    -0.004 C 
ATOM     15  H   LIG d   1       2.474  -0.117 -12.436  0.00  0.00     0.033 H 
ATOM     16  C   LIG d   1       1.591  -0.343 -10.480  0.00  0.00    -0.047 C 
ATOM     17  C   LIG d   1       2.010  -0.895  -9.119  0.00  0.00    -0.047 C 
ATOM     18  H   LIG d   1       2.898  -0.528  -6.466  0.00  0.00     0.032 H 
ATOM     19  H   LIG d   1       3.655  -1.857  -7.379  0.00  0.00     0.032 H 
ATOM     20  H   LIG d   1       1.322   0.709 -10.381  0.00  0.00     0.027 H 
ATOM     21  H   LIG d   1       0.738  -0.907 -10.856  0.00  0.00     0.027 H 
ATOM     22  H   LIG d   1       1.174  -0.817  -8.426  0.00  0.00     0.027 H 
ATOM     23  H   LIG d   1       2.291  -1.943  -9.226  0.00  0.00     0.027 H 
ENDROOT
BRANCH  14  24
ATOM     24  C   LIG d   1       3.179  -1.951 -11.551  0.00  0.00     0.038 C 
ATOM     25  H   LIG d   1       3.560  -2.289 -10.587  0.00  0.00     0.040 H 
BRANCH  24  26
ATOM     26  C   LIG d   1       4.271  -2.104 -12.612  0.00  0.00    -0.054 C 
ATOM     27  H   LIG d   1       5.066  -1.384 -12.422  0.00  0.00     0.024 H 
ATOM     28  H   LIG d   1       4.679  -3.115 -12.570  0.00  0.00     0.024 H 
ATOM     29  H   LIG d   1       3.846  -1.925 -13.600  0.00  0.00     0.024 H 
ENDBRANCH  24  26
BRANCH  24  30
ATOM     30  C   LIG d   1       1.983  -2.783 -11.938  0.00  0.00     0.219 C 
ATOM     31  O   LIG d   1       1.295  -2.454 -12.881  0.00  0.00    -0.275 OA
ATOM     32  N   LIG d   1       1.677  -3.891 -11.235  0.00  0.00    -0.301 N 
BRANCH  32  33
ATOM     33  C   LIG d   1       2.507  -4.288 -10.095  0.00  0.00     0.004 C 
ATOM     34  H   LIG d   1       2.908  -5.288 -10.269  0.00  0.00     0.043 H 
ATOM     35  H   LIG d   1       3.329  -3.582  -9.981  0.00  0.00     0.043 H 
ATOM     36  H   LIG d   1       1.903  -4.293  -9.189  0.00  0.00     0.043 H 
ENDBRANCH  32  33
BRANCH  32  37
ATOM     37  C   LIG d   1       0.515  -4.700 -11.611  0.00  0.00     0.032 C 
ATOM     38  H   LIG d   1       0.130  -4.358 -12.571  0.00  0.00     0.051 H 
ATOM     39  H   LIG d   1       0.810  -5.746 -11.689  0.00  0.00     0.051 H 
BRANCH  37  40
ATOM     40  C   LIG d   1      -0.556  -4.558 -10.561  0.00  0.00    -0.074 C 
ATOM     41  C   LIG d   1      -1.146  -5.623 -10.077  0.00  0.00    -0.101 C 
ATOM     42  H   LIG d   1      -1.914  -5.521  -9.325  0.00  0.00     0.053 H 
ATOM     43  H   LIG d   1      -0.864  -6.604 -10.431  0.00  0.00     0.053 H 
ATOM     44  H   LIG d   1      -0.838  -3.577 -10.207  0.00  0.00     0.058 H 
ENDBRANCH  37  40
ENDBRANCH  32  37
ENDBRANCH  24  30
ENDBRANCH  14  24
BRANCH  12  45
ATOM     45  O   LIG d   1       5.035   0.243 -11.843  0.00  0.00    -0.391 OA
ATOM     46  H   LIG d   1       5.107   0.988 -12.455  0.00  0.00     0.210 HD
ENDBRANCH  12  45
BRANCH   1  47
ATOM     47  C   LIG d   1       6.751   0.512  -9.942  0.00  0.00    -0.057 C 
ATOM     48  H   LIG d   1       6.573  -0.328 -10.612  0.00  0.00     0.024 H 
ATOM     49  H   LIG d   1       6.946   1.410 -10.528  0.00  0.00     0.024 H 
ATOM     50  H   LIG d   1       7.613   0.297  -9.310  0.00  0.00     0.024 H 
ENDBRANCH   1  47
BRANCH   9  51
ATOM     51  C   LIG d   1       2.793   1.347  -8.312  0.00  0.00    -0.059 C 
ATOM     52  H   LIG d   1       2.346   1.764  -9.214  0.00  0.00     0.024 H 
ATOM     53  H   LIG d   1       2.070   1.383  -7.498  0.00  0.00     0.024 H 
ATOM     54  H   LIG d   1       3.675   1.929  -8.041  0.00  0.00     0.024 H 
ENDBRANCH   9  51
BRANCH   6  55
ATOM     55  N   LIG d   1       8.391   0.700  -5.022  0.00  0.00    -0.327 N 
ATOM     56  H   LIG d   1       9.205   0.193  -5.169  0.00  0.00     0.148 HD
BRANCH  55  57
ATOM     57  C   LIG d   1       8.359   1.755  -4.007  0.00  0.00    -0.001 C 
ATOM     58  H   LIG d   1       8.135   2.710  -4.482  0.00  0.00     0.043 H 
ATOM     59  H   LIG d   1       7.590   1.528  -3.270  0.00  0.00     0.043 H 
ATOM     60  H   LIG d   1       9.329   1.815  -3.514  0.00  0.00     0.043 H 
ENDBRANCH  55  57
ENDBRANCH   6  55
TORSDOF 11
ENDMDL
MODEL 6
REMARK VINA RESULT:      -4.3      3.603      5.542
REMARK  11 active torsions:
REMARK  status: ('A' for Active; 'I' for Inactive)
REMARK    1  A    between atoms: C_1  and  C_2 
REMARK    2  A    between atoms: C_7  and  N_9 
REMARK    3  A    between atoms: N_9  and  C_10 
REMARK    4  A    between atoms: C_12  and  C_32 
REMARK    5  A    between atoms: C_15  and  O_31 
REMARK    6  A    between atoms: C_17  and  C_21 
REMARK    7  A    between atoms: C_21  and  C_23 
REMARK    8  A    between atoms: C_21  and  C_24 
REMARK       I    between atoms: C_24  and  N_26 
REMARK    9  A    between atoms: N_26  and  C_27 
REMARK   10  A    between atoms: N_26  and  C_28 
REMARK   11  A    between atoms: C_28  and  C_29 
ROOT
ATOM      1  C   LIG d   1       9.914   3.920  -6.330  0.00  0.00     0.005 C 
ATOM      2  H   LIG d   1      10.984   3.716  -6.352  0.00  0.00     0.036 H 
ATOM      3  C   LIG d   1       9.514   4.662  -7.596  0.00  0.00     0.057 A 
ATOM      4  C   LIG d   1       8.917   3.995  -8.616  0.00  0.00     0.015 A 
ATOM      5  S   LIG d   1       8.670   5.269  -9.823  0.00  0.00    -0.057 SA
ATOM      6  C   LIG d   1       9.361   6.572  -8.903  0.00  0.00     0.158 A 
ATOM      7  N   LIG d   1       9.715   5.965  -7.789  0.00  0.00    -0.229 NA
ATOM      8  C   LIG d   1       8.568   2.550  -8.678  0.00  0.00    -0.014 C 
ATOM      9  C   LIG d   1       9.304   1.807  -7.546  0.00  0.00    -0.022 C 
ATOM     10  C   LIG d   1       9.157   2.590  -6.241  0.00  0.00    -0.001 C 
ATOM     11  H   LIG d   1       8.102   2.793  -6.053  0.00  0.00     0.034 H 
ATOM     12  C   LIG d   1       9.724   1.801  -5.067  0.00  0.00     0.063 C 
ATOM     13  H   LIG d   1      10.792   1.651  -5.227  0.00  0.00     0.060 H 
ATOM     14  C   LIG d   1       9.033   0.444  -4.955  0.00  0.00    -0.004 C 
ATOM     15  H   LIG d   1       9.446  -0.107  -4.110  0.00  0.00     0.033 H 
ATOM     16  C   LIG d   1       9.271  -0.343  -6.248  0.00  0.00    -0.047 C 
ATOM     17  C   LIG d   1       8.652   0.427  -7.412  0.00  0.00    -0.047 C 
ATOM     18  H   LIG d   1       8.872   2.142  -9.641  0.00  0.00     0.032 H 
ATOM     19  H   LIG d   1       7.492   2.430  -8.553  0.00  0.00     0.032 H 
ATOM     20  H   LIG d   1      10.343  -0.456  -6.413  0.00  0.00     0.027 H 
ATOM     21  H   LIG d   1       8.805  -1.325  -6.169  0.00  0.00     0.027 H 
ATOM     22  H   LIG d   1       8.801  -0.134  -8.335  0.00  0.00     0.027 H 
ATOM     23  H   LIG d   1       7.583   0.549  -7.236  0.00  0.00     0.027 H 
ENDROOT
BRANCH  14  24
ATOM     24  C   LIG d   1       7.531   0.648  -4.750  0.00  0.00     0.038 C 
ATOM     25  H   LIG d   1       7.074   0.958  -5.690  0.00  0.00     0.040 H 
BRANCH  24  26
ATOM     26  C   LIG d   1       7.304   1.731  -3.692  0.00  0.00    -0.054 C 
ATOM     27  H   LIG d   1       6.779   1.302  -2.839  0.00  0.00     0.024 H 
ATOM     28  H   LIG d   1       8.266   2.127  -3.366  0.00  0.00     0.024 H 
ATOM     29  H   LIG d   1       6.706   2.536  -4.120  0.00  0.00     0.024 H 
ENDBRANCH  24  26
BRANCH  24  30
ATOM     30  C   LIG d   1       6.906  -0.643  -4.288  0.00  0.00     0.219 C 
ATOM     31  O   LIG d   1       7.376  -1.240  -3.343  0.00  0.00    -0.275 OA
ATOM     32  N   LIG d   1       5.827  -1.136  -4.928  0.00  0.00    -0.301 N 
BRANCH  32  33
ATOM     33  C   LIG d   1       5.260  -0.416  -6.070  0.00  0.00     0.004 C 
ATOM     34  H   LIG d   1       4.308   0.031  -5.782  0.00  0.00     0.043 H 
ATOM     35  H   LIG d   1       5.949   0.368  -6.384  0.00  0.00     0.043 H 
ATOM     36  H   LIG d   1       5.100  -1.110  -6.895  0.00  0.00     0.043 H 
ENDBRANCH  32  33
BRANCH  32  37
ATOM     37  C   LIG d   1       5.220  -2.391  -4.479  0.00  0.00     0.032 C 
ATOM     38  H   LIG d   1       4.967  -3.002  -5.346  0.00  0.00     0.051 H 
ATOM     39  H   LIG d   1       5.923  -2.930  -3.847  0.00  0.00     0.051 H 
BRANCH  37  40
ATOM     40  C   LIG d   1       3.968  -2.091  -3.695  0.00  0.00    -0.074 C 
ATOM     41  C   LIG d   1       4.001  -2.082  -2.386  0.00  0.00    -0.101 C 
ATOM     42  H   LIG d   1       3.104  -1.868  -1.824  0.00  0.00     0.053 H 
ATOM     43  H   LIG d   1       4.926  -2.290  -1.868  0.00  0.00     0.053 H 
ATOM     44  H   LIG d   1       3.043  -1.884  -4.213  0.00  0.00     0.058 H 
ENDBRANCH  37  40
ENDBRANCH  32  37
ENDBRANCH  24  30
ENDBRANCH  14  24
BRANCH  12  45
ATOM     45  O   LIG d   1       9.529   2.533  -3.855  0.00  0.00    -0.391 OA
ATOM     46  H   LIG d   1       9.223   1.992  -3.114  0.00  0.00     0.210 HD
ENDBRANCH  12  45
BRANCH   1  47
ATOM     47  C   LIG d   1       9.583   4.781  -5.109  0.00  0.00    -0.057 C 
ATOM     48  H   LIG d   1      10.505   5.170  -4.678  0.00  0.00     0.024 H 
ATOM     49  H   LIG d   1       8.945   5.610  -5.412  0.00  0.00     0.024 H 
ATOM     50  H   LIG d   1       9.063   4.175  -4.367  0.00  0.00     0.024 H 
ENDBRANCH   1  47
BRANCH   9  51
ATOM     51  C   LIG d   1      10.785   1.653  -7.899  0.00  0.00    -0.059 C 
ATOM     52  H   LIG d   1      11.321   2.563  -7.629  0.00  0.00     0.024 H 
ATOM     53  H   LIG d   1      11.204   0.808  -7.352  0.00  0.00     0.024 H 
ATOM     54  H   LIG d   1      10.886   1.477  -8.971  0.00  0.00     0.024 H 
ENDBRANCH   9  51
BRANCH   6  55
ATOM     55  N   LIG d   1       9.502   7.906  -9.251  0.00  0.00    -0.327 N 
ATOM     56  H   LIG d   1       8.805   8.352  -9.758  0.00  0.00     0.148 HD
BRANCH  55  57
ATOM     57  C   LIG d   1      10.704   8.643  -8.854  0.00  0.00    -0.001 C 
ATOM     58  H   LIG d   1      10.495   9.220  -7.953  0.00  0.00     0.043 H 
ATOM     59  H   LIG d   1      11.512   7.940  -8.655  0.00  0.00     0.043 H 
ATOM     60  H   LIG d   1      10.999   9.318  -9.656  0.00  0.00     0.043 H 
ENDBRANCH  55  57
ENDBRANCH   6  55
TORSDOF 11
ENDMDL
MODEL 7
REMARK VINA RESULT:      -4.2      3.255      5.029
REMARK  11 active torsions:
REMARK  status: ('A' for Active; 'I' for Inactive)
REMARK    1  A    between atoms: C_1  and  C_2 
REMARK    2  A    between atoms: C_7  and  N_9 
REMARK    3  A    between atoms: N_9  and  C_10 
REMARK    4  A    between atoms: C_12  and  C_32 
REMARK    5  A    between atoms: C_15  and  O_31 
REMARK    6  A    between atoms: C_17  and  C_21 
REMARK    7  A    between atoms: C_21  and  C_23 
REMARK    8  A    between atoms: C_21  and  C_24 
REMARK       I    between atoms: C_24  and  N_26 
REMARK    9  A    between atoms: N_26  and  C_27 
REMARK   10  A    between atoms: N_26  and  C_28 
REMARK   11  A    between atoms: C_28  and  C_29 
ROOT
ATOM      1  C   LIG d   1      11.474   1.351  -4.957  0.00  0.00     0.005 C 
ATOM      2  H   LIG d   1      11.887   1.452  -5.960  0.00  0.00     0.036 H 
ATOM      3  C   LIG d   1      11.599   2.676  -4.221  0.00  0.00     0.057 A 
ATOM      4  C   LIG d   1      10.523   3.493  -4.102  0.00  0.00     0.015 A 
ATOM      5  S   LIG d   1      11.177   4.870  -3.198  0.00  0.00    -0.057 SA
ATOM      6  C   LIG d   1      12.801   4.272  -3.042  0.00  0.00     0.158 A 
ATOM      7  N   LIG d   1      12.729   3.114  -3.666  0.00  0.00    -0.229 NA
ATOM      8  C   LIG d   1       9.145   3.263  -4.614  0.00  0.00    -0.014 C 
ATOM      9  C   LIG d   1       9.174   2.106  -5.631  0.00  0.00    -0.022 C 
ATOM     10  C   LIG d   1       9.998   0.949  -5.064  0.00  0.00    -0.001 C 
ATOM     11  H   LIG d   1       9.628   0.687  -4.073  0.00  0.00     0.034 H 
ATOM     12  C   LIG d   1       9.907  -0.276  -5.966  0.00  0.00     0.063 C 
ATOM     13  H   LIG d   1      10.333  -0.030  -6.939  0.00  0.00     0.060 H 
ATOM     14  C   LIG d   1       8.449  -0.697  -6.144  0.00  0.00    -0.004 C 
ATOM     15  H   LIG d   1       8.399  -1.575  -6.787  0.00  0.00     0.033 H 
ATOM     16  C   LIG d   1       7.674   0.457  -6.788  0.00  0.00    -0.047 C 
ATOM     17  C   LIG d   1       7.724   1.664  -5.854  0.00  0.00    -0.047 C 
ATOM     18  H   LIG d   1       8.782   4.169  -5.101  0.00  0.00     0.032 H 
ATOM     19  H   LIG d   1       8.487   3.004  -3.785  0.00  0.00     0.032 H 
ATOM     20  H   LIG d   1       8.132   0.715  -7.744  0.00  0.00     0.027 H 
ATOM     21  H   LIG d   1       6.638   0.158  -6.945  0.00  0.00     0.027 H 
ATOM     22  H   LIG d   1       7.160   2.485  -6.296  0.00  0.00     0.027 H 
ATOM     23  H   LIG d   1       7.277   1.397  -4.896  0.00  0.00     0.027 H 
ENDROOT
BRANCH  14  24
ATOM     24  C   LIG d   1       7.840  -1.025  -4.780  0.00  0.00     0.038 C 
ATOM     25  H   LIG d   1       8.076  -0.227  -4.075  0.00  0.00     0.040 H 
BRANCH  24  26
ATOM     26  C   LIG d   1       8.418  -2.345  -4.267  0.00  0.00    -0.054 C 
ATOM     27  H   LIG d   1       8.391  -2.356  -3.178  0.00  0.00     0.024 H 
ATOM     28  H   LIG d   1       7.826  -3.176  -4.653  0.00  0.00     0.024 H 
ATOM     29  H   LIG d   1       9.449  -2.446  -4.607  0.00  0.00     0.024 H 
ENDBRANCH  24  26
BRANCH  24  30
ATOM     30  C   LIG d   1       6.344  -1.150  -4.915  0.00  0.00     0.219 C 
ATOM     31  O   LIG d   1       5.870  -1.876  -5.763  0.00  0.00    -0.275 OA
ATOM     32  N   LIG d   1       5.533  -0.455  -4.094  0.00  0.00    -0.301 N 
BRANCH  32  33
ATOM     33  C   LIG d   1       6.104   0.423  -3.070  0.00  0.00     0.004 C 
ATOM     34  H   LIG d   1       5.451   1.284  -2.924  0.00  0.00     0.043 H 
ATOM     35  H   LIG d   1       6.199  -0.125  -2.133  0.00  0.00     0.043 H 
ATOM     36  H   LIG d   1       7.088   0.765  -3.391  0.00  0.00     0.043 H 
ENDBRANCH  32  33
BRANCH  32  37
ATOM     37  C   LIG d   1       4.079  -0.577  -4.225  0.00  0.00     0.032 C 
ATOM     38  H   LIG d   1       3.658   0.387  -4.511  0.00  0.00     0.051 H 
ATOM     39  H   LIG d   1       3.843  -1.318  -4.987  0.00  0.00     0.051 H 
BRANCH  37  40
ATOM     40  C   LIG d   1       3.491  -1.009  -2.906  0.00  0.00    -0.074 C 
ATOM     41  C   LIG d   1       3.773  -2.192  -2.419  0.00  0.00    -0.101 C 
ATOM     42  H   LIG d   1       3.351  -2.502  -1.474  0.00  0.00     0.053 H 
ATOM     43  H   LIG d   1       4.427  -2.858  -2.962  0.00  0.00     0.053 H 
ATOM     44  H   LIG d   1       2.837  -0.344  -2.363  0.00  0.00     0.058 H 
ENDBRANCH  37  40
ENDBRANCH  32  37
ENDBRANCH  24  30
ENDBRANCH  14  24
BRANCH  12  45
ATOM     45  O   LIG d   1      10.644  -1.355  -5.389  0.00  0.00    -0.391 OA
ATOM     46  H   LIG d   1      11.026  -1.153  -4.524  0.00  0.00     0.210 HD
ENDBRANCH  12  45
BRANCH   1  47
ATOM     47  C   LIG d   1      12.244   0.270  -4.195  0.00  0.00    -0.057 C 
ATOM     48  H   LIG d   1      11.803  -0.705  -4.401  0.00  0.00     0.024 H 
ATOM     49  H   LIG d   1      13.286   0.273  -4.515  0.00  0.00     0.024 H 
ATOM     50  H   LIG d   1      12.194   0.474  -3.125  0.00  0.00     0.024 H 
ENDBRANCH   1  47
BRANCH   9  51
ATOM     51  C   LIG d   1       9.783   2.585  -6.951  0.00  0.00    -0.059 C 
ATOM     52  H   LIG d   1      10.537   1.872  -7.284  0.00  0.00     0.024 H 
ATOM     53  H   LIG d   1       9.000   2.665  -7.705  0.00  0.00     0.024 H 
ATOM     54  H   LIG d   1      10.246   3.561  -6.803  0.00  0.00     0.024 H 
ENDBRANCH   9  51
BRANCH   6  55
ATOM     55  N   LIG d   1      13.892   4.861  -2.422  0.00  0.00    -0.327 N 
ATOM     56  H   LIG d   1      14.755   4.870  -2.864  0.00  0.00     0.148 HD
BRANCH  55  57
ATOM     57  C   LIG d   1      13.741   5.470  -1.098  0.00  0.00    -0.001 C 
ATOM     58  H   LIG d   1      13.004   6.272  -1.149  0.00  0.00     0.043 H 
ATOM     59  H   LIG d   1      13.406   4.715  -0.387  0.00  0.00     0.043 H 
ATOM     60  H   LIG d   1      14.698   5.876  -0.773  0.00  0.00     0.043 H 
ENDBRANCH  55  57
ENDBRANCH   6  55
TORSDOF 11
ENDMDL
MODEL 8
REMARK VINA RESULT:      -4.1      5.037      8.407
REMARK  11 active torsions:
REMARK  status: ('A' for Active; 'I' for Inactive)
REMARK    1  A    between atoms: C_1  and  C_2 
REMARK    2  A    between atoms: C_7  and  N_9 
REMARK    3  A    between atoms: N_9  and  C_10 
REMARK    4  A    between atoms: C_12  and  C_32 
REMARK    5  A    between atoms: C_15  and  O_31 
REMARK    6  A    between atoms: C_17  and  C_21 
REMARK    7  A    between atoms: C_21  and  C_23 
REMARK    8  A    between atoms: C_21  and  C_24 
REMARK       I    between atoms: C_24  and  N_26 
REMARK    9  A    between atoms: N_26  and  C_27 
REMARK   10  A    between atoms: N_26  and  C_28 
REMARK   11  A    between atoms: C_28  and  C_29 
ROOT
ATOM      1  C   LIG d   1       5.422  -5.374  -8.076  0.00  0.00     0.005 C 
ATOM      2  H   LIG d   1       6.202  -5.434  -8.835  0.00  0.00     0.036 H 
ATOM      3  C   LIG d   1       5.408  -6.658  -7.261  0.00  0.00     0.057 A 
ATOM      4  C   LIG d   1       5.985  -6.691  -6.033  0.00  0.00     0.015 A 
ATOM      5  S   LIG d   1       5.715  -8.367  -5.521  0.00  0.00    -0.057 SA
ATOM      6  C   LIG d   1       4.870  -8.892  -6.946  0.00  0.00     0.158 A 
ATOM      7  N   LIG d   1       4.856  -7.797  -7.678  0.00  0.00    -0.229 NA
ATOM      8  C   LIG d   1       6.667  -5.579  -5.318  0.00  0.00    -0.014 C 
ATOM      9  C   LIG d   1       6.956  -4.442  -6.317  0.00  0.00    -0.022 C 
ATOM     10  C   LIG d   1       5.709  -4.177  -7.163  0.00  0.00    -0.001 C 
ATOM     11  H   LIG d   1       4.852  -4.014  -6.509  0.00  0.00     0.034 H 
ATOM     12  C   LIG d   1       5.901  -2.947  -8.042  0.00  0.00     0.063 C 
ATOM     13  H   LIG d   1       6.720  -3.134  -8.735  0.00  0.00     0.060 H 
ATOM     14  C   LIG d   1       6.232  -1.727  -7.184  0.00  0.00    -0.004 C 
ATOM     15  H   LIG d   1       6.363  -0.856  -7.825  0.00  0.00     0.033 H 
ATOM     16  C   LIG d   1       7.529  -1.999  -6.415  0.00  0.00    -0.047 C 
ATOM     17  C   LIG d   1       7.312  -3.199  -5.495  0.00  0.00    -0.047 C 
ATOM     18  H   LIG d   1       7.604  -5.940  -4.893  0.00  0.00     0.032 H 
ATOM     19  H   LIG d   1       6.022  -5.210  -4.520  0.00  0.00     0.032 H 
ATOM     20  H   LIG d   1       8.332  -2.218  -7.119  0.00  0.00     0.027 H 
ATOM     21  H   LIG d   1       7.791  -1.124  -5.819  0.00  0.00     0.027 H 
ATOM     22  H   LIG d   1       8.225  -3.389  -4.931  0.00  0.00     0.027 H 
ATOM     23  H   LIG d   1       6.501  -2.980  -4.802  0.00  0.00     0.027 H 
ENDROOT
BRANCH  14  24
ATOM     24  C   LIG d   1       5.094  -1.471  -6.195  0.00  0.00     0.038 C 
ATOM     25  H   LIG d   1       4.823  -2.405  -5.702  0.00  0.00     0.040 H 
BRANCH  24  26
ATOM     26  C   LIG d   1       3.880  -0.920  -6.946  0.00  0.00    -0.054 C 
ATOM     27  H   LIG d   1       2.998  -0.985  -6.309  0.00  0.00     0.024 H 
ATOM     28  H   LIG d   1       4.061   0.122  -7.213  0.00  0.00     0.024 H 
ATOM     29  H   LIG d   1       3.718  -1.505  -7.852  0.00  0.00     0.024 H 
ENDBRANCH  24  26
BRANCH  24  30
ATOM     30  C   LIG d   1       5.542  -0.470  -5.162  0.00  0.00     0.219 C 
ATOM     31  O   LIG d   1       6.081   0.560  -5.508  0.00  0.00    -0.275 OA
ATOM     32  N   LIG d   1       5.346  -0.719  -3.852  0.00  0.00    -0.301 N 
BRANCH  32  33
ATOM     33  C   LIG d   1       4.697  -1.964  -3.432  0.00  0.00     0.004 C 
ATOM     34  H   LIG d   1       3.623  -1.797  -3.331  0.00  0.00     0.043 H 
ATOM     35  H   LIG d   1       4.876  -2.737  -4.179  0.00  0.00     0.043 H 
ATOM     36  H   LIG d   1       5.106  -2.282  -2.474  0.00  0.00     0.043 H 
ENDBRANCH  32  33
BRANCH  32  37
ATOM     37  C   LIG d   1       5.781   0.254  -2.847  0.00  0.00     0.032 C 
ATOM     38  H   LIG d   1       6.579  -0.179  -2.244  0.00  0.00     0.051 H 
ATOM     39  H   LIG d   1       6.148   1.151  -3.345  0.00  0.00     0.051 H 
BRANCH  37  40
ATOM     40  C   LIG d   1       4.618   0.613  -1.959  0.00  0.00    -0.074 C 
ATOM     41  C   LIG d   1       3.654   1.373  -2.416  0.00  0.00    -0.101 C 
ATOM     42  H   LIG d   1       2.821   1.631  -1.779  0.00  0.00     0.053 H 
ATOM     43  H   LIG d   1       3.693   1.743  -3.430  0.00  0.00     0.053 H 
ATOM     44  H   LIG d   1       4.579   0.243  -0.945  0.00  0.00     0.058 H 
ENDBRANCH  37  40
ENDBRANCH  32  37
ENDBRANCH  24  30
ENDBRANCH  14  24
BRANCH  12  45
ATOM     45  O   LIG d   1       4.706  -2.693  -8.783  0.00  0.00    -0.391 OA
ATOM     46  H   LIG d   1       4.787  -2.866  -9.731  0.00  0.00     0.210 HD
ENDBRANCH  12  45
BRANCH   1  47
ATOM     47  C   LIG d   1       4.063  -5.187  -8.755  0.00  0.00    -0.057 C 
ATOM     48  H   LIG d   1       3.426  -4.565  -8.126  0.00  0.00     0.024 H 
ATOM     49  H   LIG d   1       4.204  -4.704  -9.721  0.00  0.00     0.024 H 
ATOM     50  H   LIG d   1       3.593  -6.159  -8.900  0.00  0.00     0.024 H 
ENDBRANCH   1  47
BRANCH   9  51
ATOM     51  C   LIG d   1       8.129  -4.826  -7.221  0.00  0.00    -0.059 C 
ATOM     52  H   LIG d   1       8.902  -5.315  -6.627  0.00  0.00     0.024 H 
ATOM     53  H   LIG d   1       7.782  -5.508  -7.997  0.00  0.00     0.024 H 
ATOM     54  H   LIG d   1       8.540  -3.928  -7.683  0.00  0.00     0.024 H 
ENDBRANCH   9  51
BRANCH   6  55
ATOM     55  N   LIG d   1       4.345 -10.142  -7.238  0.00  0.00    -0.327 N 
ATOM     56  H   LIG d   1       3.700 -10.549  -6.638  0.00  0.00     0.148 HD
BRANCH  55  57
ATOM     57  C   LIG d   1       4.763 -10.846  -8.452  0.00  0.00    -0.001 C 
ATOM     58  H   LIG d   1       5.817 -10.647  -8.643  0.00  0.00     0.043 H 
ATOM     59  H   LIG d   1       4.614 -11.917  -8.320  0.00  0.00     0.043 H 
ATOM     60  H   LIG d   1       4.169 -10.498  -9.297  0.00  0.00     0.043 H 
ENDBRANCH  55  57
ENDBRANCH   6  55
TORSDOF 11
ENDMDL
MODEL 9
REMARK VINA RESULT:      -4.1      4.753      6.813
REMARK  11 active torsions:
REMARK  status: ('A' for Active; 'I' for Inactive)
REMARK    1  A    between atoms: C_1  and  C_2 
REMARK    2  A    between atoms: C_7  and  N_9 
REMARK    3  A    between atoms: N_9  and  C_10 
REMARK    4  A    between atoms: C_12  and  C_32 
REMARK    5  A    between atoms: C_15  and  O_31 
REMARK    6  A    between atoms: C_17  and  C_21 
REMARK    7  A    between atoms: C_21  and  C_23 
REMARK    8  A    between atoms: C_21  and  C_24 
REMARK       I    between atoms: C_24  and  N_26 
REMARK    9  A    between atoms: N_26  and  C_27 
REMARK   10  A    between atoms: N_26  and  C_28 
REMARK   11  A    between atoms: C_28  and  C_29 
ROOT
ATOM      1  C   LIG d   1       7.320  -4.160  -5.058  0.00  0.00     0.005 C 
ATOM      2  H   LIG d   1       7.258  -3.957  -3.990  0.00  0.00     0.036 H 
ATOM      3  C   LIG d   1       6.598  -5.462  -5.370  0.00  0.00     0.057 A 
ATOM      4  C   LIG d   1       5.347  -5.438  -5.896  0.00  0.00     0.015 A 
ATOM      5  S   LIG d   1       4.959  -7.159  -6.058  0.00  0.00    -0.057 SA
ATOM      6  C   LIG d   1       6.457  -7.776  -5.429  0.00  0.00     0.158 A 
ATOM      7  N   LIG d   1       7.117  -6.670  -5.153  0.00  0.00    -0.229 NA
ATOM      8  C   LIG d   1       4.529  -4.244  -6.243  0.00  0.00    -0.014 C 
ATOM      9  C   LIG d   1       5.156  -2.998  -5.588  0.00  0.00    -0.022 C 
ATOM     10  C   LIG d   1       6.667  -3.003  -5.823  0.00  0.00    -0.001 C 
ATOM     11  H   LIG d   1       6.871  -3.119  -6.887  0.00  0.00     0.034 H 
ATOM     12  C   LIG d   1       7.296  -1.702  -5.339  0.00  0.00     0.063 C 
ATOM     13  H   LIG d   1       7.143  -1.616  -4.263  0.00  0.00     0.060 H 
ATOM     14  C   LIG d   1       6.651  -0.508  -6.039  0.00  0.00    -0.004 C 
ATOM     15  H   LIG d   1       7.113   0.415  -5.686  0.00  0.00     0.033 H 
ATOM     16  C   LIG d   1       5.154  -0.490  -5.714  0.00  0.00    -0.047 C 
ATOM     17  C   LIG d   1       4.520  -1.772  -6.251  0.00  0.00    -0.047 C 
ATOM     18  H   LIG d   1       3.513  -4.380  -5.874  0.00  0.00     0.032 H 
ATOM     19  H   LIG d   1       4.512  -4.117  -7.326  0.00  0.00     0.032 H 
ATOM     20  H   LIG d   1       5.016  -0.438  -4.634  0.00  0.00     0.027 H 
ATOM     21  H   LIG d   1       4.688   0.374  -6.186  0.00  0.00     0.027 H 
ATOM     22  H   LIG d   1       3.451  -1.760  -6.039  0.00  0.00     0.027 H 
ATOM     23  H   LIG d   1       4.672  -1.825  -7.328  0.00  0.00     0.027 H 
ENDROOT
BRANCH  14  24
ATOM     24  C   LIG d   1       6.846  -0.633  -7.551  0.00  0.00     0.038 C 
ATOM     25  H   LIG d   1       6.358  -1.540  -7.907  0.00  0.00     0.040 H 
BRANCH  24  26
ATOM     26  C   LIG d   1       8.341  -0.700  -7.869  0.00  0.00    -0.054 C 
ATOM     27  H   LIG d   1       8.638   0.194  -8.415  0.00  0.00     0.024 H 
ATOM     28  H   LIG d   1       8.907  -0.763  -6.939  0.00  0.00     0.024 H 
ATOM     29  H   LIG d   1       8.543  -1.582  -8.477  0.00  0.00     0.024 H 
ENDBRANCH  24  26
BRANCH  24  30
ATOM     30  C   LIG d   1       6.240   0.565  -8.236  0.00  0.00     0.219 C 
ATOM     31  O   LIG d   1       6.541   1.684  -7.880  0.00  0.00    -0.275 OA
ATOM     32  N   LIG d   1       5.363   0.393  -9.245  0.00  0.00    -0.301 N 
BRANCH  32  33
ATOM     33  C   LIG d   1       4.999  -0.959  -9.675  0.00  0.00     0.004 C 
ATOM     34  H   LIG d   1       5.221  -1.668  -8.876  0.00  0.00     0.043 H 
ATOM     35  H   LIG d   1       3.934  -0.993  -9.904  0.00  0.00     0.043 H 
ATOM     36  H   LIG d   1       5.570  -1.225 -10.565  0.00  0.00     0.043 H 
ENDBRANCH  32  33
BRANCH  32  37
ATOM     37  C   LIG d   1       4.775   1.556  -9.911  0.00  0.00     0.032 C 
ATOM     38  H   LIG d   1       5.255   2.465  -9.548  0.00  0.00     0.051 H 
ATOM     39  H   LIG d   1       4.922   1.473 -10.987  0.00  0.00     0.051 H 
BRANCH  37  40
ATOM     40  C   LIG d   1       3.299   1.614  -9.610  0.00  0.00    -0.074 C 
ATOM     41  C   LIG d   1       2.886   1.997  -8.427  0.00  0.00    -0.101 C 
ATOM     42  H   LIG d   1       1.828   2.038  -8.211  0.00  0.00     0.053 H 
ATOM     43  H   LIG d   1       3.603   2.271  -7.667  0.00  0.00     0.053 H 
ATOM     44  H   LIG d   1       2.582   1.341 -10.370  0.00  0.00     0.058 H 
ENDBRANCH  37  40
ENDBRANCH  32  37
ENDBRANCH  24  30
ENDBRANCH  14  24
BRANCH  12  45
ATOM     45  O   LIG d   1       8.697  -1.712  -5.615  0.00  0.00    -0.391 OA
ATOM     46  H   LIG d   1       9.246  -1.404  -4.880  0.00  0.00     0.210 HD
ENDBRANCH  12  45
BRANCH   1  47
ATOM     47  C   LIG d   1       8.789  -4.282  -5.470  0.00  0.00    -0.057 C 
ATOM     48  H   LIG d   1       9.426  -3.976  -4.640  0.00  0.00     0.024 H 
ATOM     49  H   LIG d   1       9.007  -5.316  -5.736  0.00  0.00     0.024 H 
ATOM     50  H   LIG d   1       8.979  -3.639  -6.330  0.00  0.00     0.024 H 
ENDBRANCH   1  47
BRANCH   9  51
ATOM     51  C   LIG d   1       4.860  -2.993  -4.086  0.00  0.00    -0.059 C 
ATOM     52  H   LIG d   1       5.751  -3.299  -3.539  0.00  0.00     0.024 H 
ATOM     53  H   LIG d   1       4.569  -1.989  -3.776  0.00  0.00     0.024 H 
ATOM     54  H   LIG d   1       4.046  -3.688  -3.875  0.00  0.00     0.024 H 
ENDBRANCH   9  51
BRANCH   6  55
ATOM     55  N   LIG d   1       6.856  -9.093  -5.261  0.00  0.00    -0.327 N 
ATOM     56  H   LIG d   1       7.735  -9.376  -5.559  0.00  0.00     0.148 HD
BRANCH  55  57
ATOM     57  C   LIG d   1       5.951 -10.058  -4.633  0.00  0.00    -0.001 C 
ATOM     58  H   LIG d   1       5.165  -9.525  -4.099  0.00  0.00     0.043 H 
ATOM     59  H   LIG d   1       5.504 -10.690  -5.400  0.00  0.00     0.043 H 
ATOM     60  H   LIG d   1       6.510 -10.678  -3.932  0.00  0.00     0.043 H 
ENDBRANCH  55  57
ENDBRANCH   6  55
TORSDOF 11
ENDMDL
MODEL 10
REMARK VINA RESULT:      -4.1      6.281      7.955
REMARK  11 active torsions:
REMARK  status: ('A' for Active; 'I' for Inactive)
REMARK    1  A    between atoms: C_1  and  C_2 
REMARK    2  A    between atoms: C_7  and  N_9 
REMARK    3  A    between atoms: N_9  and  C_10 
REMARK    4  A    between atoms: C_12  and  C_32 
REMARK    5  A    between atoms: C_15  and  O_31 
REMARK    6  A    between atoms: C_17  and  C_21 
REMARK    7  A    between atoms: C_21  and  C_23 
REMARK    8  A    between atoms: C_21  and  C_24 
REMARK       I    between atoms: C_24  and  N_26 
REMARK    9  A    between atoms: N_26  and  C_27 
REMARK   10  A    between atoms: N_26  and  C_28 
REMARK   11  A    between atoms: C_28  and  C_29 
ROOT
ATOM      1  C   LIG d   1       7.551  -3.334  -4.622  0.00  0.00     0.005 C 
ATOM      2  H   LIG d   1       8.047  -2.795  -5.429  0.00  0.00     0.036 H 
ATOM      3  C   LIG d   1       6.328  -2.552  -4.167  0.00  0.00     0.057 A 
ATOM      4  C   LIG d   1       5.090  -2.924  -4.581  0.00  0.00     0.015 A 
ATOM      5  S   LIG d   1       4.043  -1.723  -3.806  0.00  0.00    -0.057 SA
ATOM      6  C   LIG d   1       5.299  -0.832  -3.001  0.00  0.00     0.158 A 
ATOM      7  N   LIG d   1       6.381  -1.488  -3.367  0.00  0.00    -0.229 NA
ATOM      8  C   LIG d   1       4.731  -4.065  -5.467  0.00  0.00    -0.014 C 
ATOM      9  C   LIG d   1       6.006  -4.581  -6.162  0.00  0.00    -0.022 C 
ATOM     10  C   LIG d   1       7.130  -4.716  -5.133  0.00  0.00    -0.001 C 
ATOM     11  H   LIG d   1       6.784  -5.317  -4.292  0.00  0.00     0.034 H 
ATOM     12  C   LIG d   1       8.352  -5.385  -5.749  0.00  0.00     0.063 C 
ATOM     13  H   LIG d   1       8.732  -4.754  -6.552  0.00  0.00     0.060 H 
ATOM     14  C   LIG d   1       7.980  -6.754  -6.315  0.00  0.00    -0.004 C 
ATOM     15  H   LIG d   1       8.864  -7.222  -6.748  0.00  0.00     0.033 H 
ATOM     16  C   LIG d   1       6.913  -6.570  -7.398  0.00  0.00    -0.047 C 
ATOM     17  C   LIG d   1       5.670  -5.950  -6.763  0.00  0.00    -0.047 C 
ATOM     18  H   LIG d   1       4.015  -3.731  -6.218  0.00  0.00     0.032 H 
ATOM     19  H   LIG d   1       4.291  -4.864  -4.871  0.00  0.00     0.032 H 
ATOM     20  H   LIG d   1       7.294  -5.910  -8.177  0.00  0.00     0.027 H 
ATOM     21  H   LIG d   1       6.659  -7.539  -7.829  0.00  0.00     0.027 H 
ATOM     22  H   LIG d   1       4.898  -5.831  -7.523  0.00  0.00     0.027 H 
ATOM     23  H   LIG d   1       5.301  -6.608  -5.976  0.00  0.00     0.027 H 
ENDROOT
BRANCH  14  24
ATOM     24  C   LIG d   1       7.428  -7.639  -5.196  0.00  0.00     0.038 C 
ATOM     25  H   LIG d   1       6.530  -7.182  -4.780  0.00  0.00     0.040 H 
BRANCH  24  26
ATOM     26  C   LIG d   1       8.481  -7.786  -4.096  0.00  0.00    -0.054 C 
ATOM     27  H   LIG d   1       8.413  -8.782  -3.659  0.00  0.00     0.024 H 
ATOM     28  H   LIG d   1       9.474  -7.643  -4.522  0.00  0.00     0.024 H 
ATOM     29  H   LIG d   1       8.306  -7.037  -3.323  0.00  0.00     0.024 H 
ENDBRANCH  24  26
BRANCH  24  30
ATOM     30  C   LIG d   1       7.088  -8.998  -5.752  0.00  0.00     0.219 C 
ATOM     31  O   LIG d   1       7.911  -9.613  -6.396  0.00  0.00    -0.275 OA
ATOM     32  N   LIG d   1       5.869  -9.530  -5.534  0.00  0.00    -0.301 N 
BRANCH  32  33
ATOM     33  C   LIG d   1       4.874  -8.787  -4.756  0.00  0.00     0.004 C 
ATOM     34  H   LIG d   1       4.816  -7.762  -5.126  0.00  0.00     0.043 H 
ATOM     35  H   LIG d   1       3.901  -9.266  -4.859  0.00  0.00     0.043 H 
ATOM     36  H   LIG d   1       5.165  -8.778  -3.706  0.00  0.00     0.043 H 
ENDBRANCH  32  33
BRANCH  32  37
ATOM     37  C   LIG d   1       5.539 -10.851  -6.073  0.00  0.00     0.032 C 
ATOM     38  H   LIG d   1       5.197 -10.748  -7.103  0.00  0.00     0.051 H 
ATOM     39  H   LIG d   1       6.423 -11.487  -6.046  0.00  0.00     0.051 H 
BRANCH  37  40
ATOM     40  C   LIG d   1       4.447 -11.474  -5.242  0.00  0.00    -0.074 C 
ATOM     41  C   LIG d   1       3.498 -12.167  -5.820  0.00  0.00    -0.101 C 
ATOM     42  H   LIG d   1       2.715 -12.613  -5.224  0.00  0.00     0.053 H 
ATOM     43  H   LIG d   1       3.497 -12.292  -6.893  0.00  0.00     0.053 H 
ATOM     44  H   LIG d   1       4.448 -11.350  -4.169  0.00  0.00     0.058 H 
ENDBRANCH  37  40
ENDBRANCH  32  37
ENDBRANCH  24  30
ENDBRANCH  14  24
BRANCH  12  45
ATOM     45  O   LIG d   1       9.367  -5.544  -4.755  0.00  0.00    -0.391 OA
ATOM     46  H   LIG d   1       9.026  -5.610  -3.852  0.00  0.00     0.210 HD
ENDBRANCH  12  45
BRANCH   1  47
ATOM     47  C   LIG d   1       8.518  -3.495  -3.447  0.00  0.00    -0.057 C 
ATOM     48  H   LIG d   1       9.542  -3.368  -3.797  0.00  0.00     0.024 H 
ATOM     49  H   LIG d   1       8.296  -2.744  -2.689  0.00  0.00     0.024 H 
ATOM     50  H   LIG d   1       8.402  -4.490  -3.015  0.00  0.00     0.024 H 
ENDBRANCH   1  47
BRANCH   9  51
ATOM     51  C   LIG d   1       6.425  -3.613  -7.271  0.00  0.00    -0.059 C 
ATOM     52  H   LIG d   1       7.364  -3.948  -7.712  0.00  0.00     0.024 H 
ATOM     53  H   LIG d   1       5.653  -3.583  -8.039  0.00  0.00     0.024 H 
ATOM     54  H   LIG d   1       6.558  -2.615  -6.850  0.00  0.00     0.024 H 
ENDBRANCH   9  51
BRANCH   6  55
ATOM     55  N   LIG d   1       5.191   0.282  -2.183  0.00  0.00    -0.327 N 
ATOM     56  H   LIG d   1       5.877   0.467  -1.522  0.00  0.00     0.148 HD
BRANCH  55  57
ATOM     57  C   LIG d   1       4.042   1.180  -2.317  0.00  0.00    -0.001 C 
ATOM     58  H   LIG d   1       3.280   0.706  -2.935  0.00  0.00     0.043 H 
ATOM     59  H   LIG d   1       3.630   1.393  -1.331  0.00  0.00     0.043 H 
ATOM     60  H   LIG d   1       4.361   2.111  -2.786  0.00  0.00     0.043 H 
ENDBRANCH  55  57
ENDBRANCH   6  55
TORSDOF 11
ENDMDL
