MODEL 1
REMARK VINA RESULT:      -6.0      0.000      0.000
REMARK  7 active torsions:
REMARK  status: ('A' for Active; 'I' for Inactive)
REMARK    1  A    between atoms: C_1  and  C_2 
REMARK    2  A    between atoms: C_10  and  C_27 
REMARK    3  A    between atoms: N_16  and  C_21 
REMARK    4  A    between atoms: C_21  and  C_22 
REMARK    5  A    between atoms: C_22  and  O_23 
REMARK    6  A    between atoms: O_23  and  C_24 
REMARK    7  A    between atoms: C_24  and  C_26 
ROOT
ATOM      1  C   LIG d   1       5.302   0.633  -8.670  0.00  0.00     0.018 C 
ATOM      2  H   LIG d   1       6.190   0.225  -9.152  0.00  0.00     0.092 H 
ATOM      3  C   LIG d   1       4.120  -0.256  -8.960  0.00  0.00     0.089 A 
ATOM      4  C   LIG d   1       2.905   0.310  -9.299  0.00  0.00    -0.035 A 
ATOM      5  C   LIG d   1       1.824  -0.516  -9.564  0.00  0.00    -0.058 A 
ATOM      6  C   LIG d   1       2.007  -1.888  -9.477  0.00  0.00    -0.039 A 
ATOM      7  C   LIG d   1       3.250  -2.382  -9.132  0.00  0.00     0.058 A 
ATOM      8  N   LIG d   1       4.256  -1.565  -8.887  0.00  0.00    -0.249 NA
ATOM      9  C   LIG d   1       3.458  -3.872  -9.033  0.00  0.00     0.047 C 
ATOM     10  H   LIG d   1       2.663  -4.386  -9.574  0.00  0.00     0.052 H 
ATOM     11  N   LIG d   1       3.434  -4.278  -7.622  0.00  0.00    -0.308 N 
ATOM     12  C   LIG d   1       4.781  -4.621  -7.149  0.00  0.00    -0.002 C 
ATOM     13  C   LIG d   1       4.800  -4.625  -5.620  0.00  0.00    -0.028 C 
ATOM     14  C   LIG d   1       6.149  -4.102  -5.124  0.00  0.00     0.000 C 
ATOM     15  N   LIG d   1       5.969  -2.769  -4.530  0.00  0.00    -0.299 N 
ATOM     16  C   LIG d   1       7.051  -1.863  -4.936  0.00  0.00     0.004 C 
ATOM     17  C   LIG d   1       6.463  -0.499  -5.303  0.00  0.00     0.000 C 
ATOM     18  C   LIG d   1       6.498  -0.321  -6.822  0.00  0.00    -0.032 C 
ATOM     19  N   LIG d   1       5.519   0.701  -7.219  0.00  0.00     0.233 N 
ATOM     20  H   LIG d   1       2.800   1.384  -9.356  0.00  0.00     0.064 H 
ATOM     21  H   LIG d   1       0.864  -0.101  -9.831  0.00  0.00     0.062 H 
ATOM     22  H   LIG d   1       1.186  -2.562  -9.677  0.00  0.00     0.064 H 
ATOM     23  H   LIG d   1       5.055  -5.610  -7.518  0.00  0.00     0.043 H 
ATOM     24  H   LIG d   1       5.495  -3.884  -7.519  0.00  0.00     0.043 H 
ATOM     25  H   LIG d   1       4.001  -3.984  -5.245  0.00  0.00     0.029 H 
ATOM     26  H   LIG d   1       4.650  -5.642  -5.257  0.00  0.00     0.029 H 
ATOM     27  H   LIG d   1       6.549  -4.783  -4.374  0.00  0.00     0.043 H 
ATOM     28  H   LIG d   1       6.843  -4.035  -5.962  0.00  0.00     0.043 H 
ATOM     29  H   LIG d   1       7.754  -1.744  -4.111  0.00  0.00     0.043 H 
ATOM     30  H   LIG d   1       7.570  -2.279  -5.799  0.00  0.00     0.043 H 
ATOM     31  H   LIG d   1       5.431  -0.442  -4.955  0.00  0.00     0.033 H 
ATOM     32  H   LIG d   1       7.049   0.290  -4.831  0.00  0.00     0.033 H 
ATOM     33  H   LIG d   1       7.496  -0.007  -7.128  0.00  0.00     0.081 H 
ATOM     34  H   LIG d   1       6.250  -1.267  -7.304  0.00  0.00     0.081 H 
ATOM     35  H   LIG d   1       5.870   1.614  -6.974  0.00  0.00     0.202 HD
ATOM     36  H   LIG d   1       3.021  -3.559  -7.047  0.00  0.00     0.122 HD
ATOM     37  H   LIG d   1       4.647   0.534  -6.740  0.00  0.00     0.202 HD
ENDROOT
BRANCH  15  38
ATOM     38  C   LIG d   1       4.656  -2.211  -4.878  0.00  0.00     0.033 C 
ATOM     39  H   LIG d   1       4.790  -1.307  -5.471  0.00  0.00     0.046 H 
ATOM     40  H   LIG d   1       4.091  -2.944  -5.455  0.00  0.00     0.046 H 
BRANCH  38  41
ATOM     41  C   LIG d   1       3.891  -1.872  -3.597  0.00  0.00     0.105 C 
ATOM     42  H   LIG d   1       3.410  -2.772  -3.213  0.00  0.00     0.071 H 
ATOM     43  H   LIG d   1       4.584  -1.483  -2.852  0.00  0.00     0.071 H 
BRANCH  41  44
ATOM     44  O   LIG d   1       2.895  -0.888  -3.884  0.00  0.00    -0.464 OA
BRANCH  44  45
ATOM     45  C   LIG d   1       3.267   0.398  -3.794  0.00  0.00     0.304 C 
ATOM     46  O   LIG d   1       3.307   1.088  -4.786  0.00  0.00    -0.251 OA
BRANCH  45  47
ATOM     47  C   LIG d   1       3.634   0.984  -2.454  0.00  0.00     0.033 C 
ATOM     48  H   LIG d   1       3.336   2.032  -2.423  0.00  0.00     0.034 H 
ATOM     49  H   LIG d   1       3.120   0.436  -1.665  0.00  0.00     0.034 H 
ATOM     50  H   LIG d   1       4.712   0.908  -2.308  0.00  0.00     0.034 H 
ENDBRANCH  45  47
ENDBRANCH  44  45
ENDBRANCH  41  44
ENDBRANCH  38  41
ENDBRANCH  15  38
BRANCH   9  51
ATOM     51  C   LIG d   1       4.811  -4.238  -9.647  0.00  0.00    -0.044 C 
ATOM     52  H   LIG d   1       4.653  -4.731 -10.606  0.00  0.00     0.025 H 
ATOM     53  H   LIG d   1       5.399  -3.332  -9.796  0.00  0.00     0.025 H 
ATOM     54  H   LIG d   1       5.345  -4.911  -8.977  0.00  0.00     0.025 H 
ENDBRANCH   9  51
BRANCH   1  55
ATOM     55  C   LIG d   1       5.027   2.038  -9.210  0.00  0.00    -0.016 C 
ATOM     56  H   LIG d   1       4.487   2.616  -8.461  0.00  0.00     0.029 H 
ATOM     57  H   LIG d   1       5.974   2.530  -9.437  0.00  0.00     0.029 H 
ATOM     58  H   LIG d   1       4.428   1.968 -10.118  0.00  0.00     0.029 H 
ENDBRANCH   1  55
TORSDOF 7
ENDMDL
MODEL 2
REMARK VINA RESULT:      -5.6      2.246      5.438
REMARK  7 active torsions:
REMARK  status: ('A' for Active; 'I' for Inactive)
REMARK    1  A    between atoms: C_1  and  C_2 
REMARK    2  A    between atoms: C_10  and  C_27 
REMARK    3  A    between atoms: N_16  and  C_21 
REMARK    4  A    between atoms: C_21  and  C_22 
REMARK    5  A    between atoms: C_22  and  O_23 
REMARK    6  A    between atoms: O_23  and  C_24 
REMARK    7  A    between atoms: C_24  and  C_26 
ROOT
ATOM      1  C   LIG d   1       4.270  -0.653  -3.510  0.00  0.00     0.018 C 
ATOM      2  H   LIG d   1       3.339  -1.192  -3.336  0.00  0.00     0.092 H 
ATOM      3  C   LIG d   1       5.372  -1.636  -3.811  0.00  0.00     0.089 A 
ATOM      4  C   LIG d   1       6.615  -1.469  -3.230  0.00  0.00    -0.035 A 
ATOM      5  C   LIG d   1       7.621  -2.380  -3.513  0.00  0.00    -0.058 A 
ATOM      6  C   LIG d   1       7.338  -3.429  -4.374  0.00  0.00    -0.039 A 
ATOM      7  C   LIG d   1       6.071  -3.532  -4.918  0.00  0.00     0.058 A 
ATOM      8  N   LIG d   1       5.139  -2.646  -4.626  0.00  0.00    -0.249 NA
ATOM      9  C   LIG d   1       5.754  -4.668  -5.856  0.00  0.00     0.047 C 
ATOM     10  H   LIG d   1       6.490  -5.461  -5.728  0.00  0.00     0.052 H 
ATOM     11  N   LIG d   1       5.790  -4.184  -7.242  0.00  0.00    -0.308 N 
ATOM     12  C   LIG d   1       4.436  -4.081  -7.800  0.00  0.00    -0.002 C 
ATOM     13  C   LIG d   1       4.464  -3.199  -9.049  0.00  0.00    -0.028 C 
ATOM     14  C   LIG d   1       3.174  -2.380  -9.125  0.00  0.00     0.000 C 
ATOM     15  N   LIG d   1       3.472  -0.969  -8.841  0.00  0.00    -0.299 N 
ATOM     16  C   LIG d   1       2.451  -0.381  -7.966  0.00  0.00     0.004 C 
ATOM     17  C   LIG d   1       3.130   0.467  -6.889  0.00  0.00     0.000 C 
ATOM     18  C   LIG d   1       3.062  -0.264  -5.546  0.00  0.00    -0.032 C 
ATOM     19  N   LIG d   1       4.103   0.258  -4.650  0.00  0.00     0.233 N 
ATOM     20  H   LIG d   1       6.800  -0.639  -2.565  0.00  0.00     0.064 H 
ATOM     21  H   LIG d   1       8.602  -2.274  -3.074  0.00  0.00     0.062 H 
ATOM     22  H   LIG d   1       8.098  -4.157  -4.617  0.00  0.00     0.064 H 
ATOM     23  H   LIG d   1       4.076  -5.076  -8.066  0.00  0.00     0.043 H 
ATOM     24  H   LIG d   1       3.770  -3.640  -7.059  0.00  0.00     0.043 H 
ATOM     25  H   LIG d   1       5.319  -2.525  -9.000  0.00  0.00     0.029 H 
ATOM     26  H   LIG d   1       4.547  -3.827  -9.936  0.00  0.00     0.029 H 
ATOM     27  H   LIG d   1       2.746  -2.467 -10.123  0.00  0.00     0.043 H 
ATOM     28  H   LIG d   1       2.462  -2.755  -8.390  0.00  0.00     0.043 H 
ATOM     29  H   LIG d   1       1.784   0.248  -8.556  0.00  0.00     0.043 H 
ATOM     30  H   LIG d   1       1.876  -1.176  -7.493  0.00  0.00     0.043 H 
ATOM     31  H   LIG d   1       4.173   0.632  -7.159  0.00  0.00     0.033 H 
ATOM     32  H   LIG d   1       2.620   1.427  -6.805  0.00  0.00     0.033 H 
ATOM     33  H   LIG d   1       2.082  -0.106  -5.095  0.00  0.00     0.081 H 
ATOM     34  H   LIG d   1       3.222  -1.330  -5.705  0.00  0.00     0.081 H 
ATOM     35  H   LIG d   1       3.831   1.170  -4.315  0.00  0.00     0.202 HD
ATOM     36  H   LIG d   1       6.274  -3.300  -7.304  0.00  0.00     0.122 HD
ATOM     37  H   LIG d   1       4.974   0.331  -5.154  0.00  0.00     0.202 HD
ENDROOT
BRANCH  15  38
ATOM     38  C   LIG d   1       4.813  -0.822  -8.261  0.00  0.00     0.033 C 
ATOM     39  H   LIG d   1       4.761  -0.174  -7.385  0.00  0.00     0.046 H 
ATOM     40  H   LIG d   1       5.191  -1.801  -7.966  0.00  0.00     0.046 H 
BRANCH  38  41
ATOM     41  C   LIG d   1       5.753  -0.203  -9.297  0.00  0.00     0.105 C 
ATOM     42  H   LIG d   1       6.620   0.224  -8.792  0.00  0.00     0.071 H 
ATOM     43  H   LIG d   1       6.082  -0.973  -9.995  0.00  0.00     0.071 H 
BRANCH  41  44
ATOM     44  O   LIG d   1       5.064   0.826 -10.011  0.00  0.00    -0.464 OA
BRANCH  44  45
ATOM     45  C   LIG d   1       5.133   2.067  -9.506  0.00  0.00     0.304 C 
ATOM     46  O   LIG d   1       6.204   2.541  -9.209  0.00  0.00    -0.251 OA
BRANCH  45  47
ATOM     47  C   LIG d   1       3.873   2.872  -9.310  0.00  0.00     0.033 C 
ATOM     48  H   LIG d   1       3.396   3.038 -10.276  0.00  0.00     0.034 H 
ATOM     49  H   LIG d   1       3.193   2.328  -8.657  0.00  0.00     0.034 H 
ATOM     50  H   LIG d   1       4.123   3.832  -8.858  0.00  0.00     0.034 H 
ENDBRANCH  45  47
ENDBRANCH  44  45
ENDBRANCH  41  44
ENDBRANCH  38  41
ENDBRANCH  15  38
BRANCH   9  51
ATOM     51  C   LIG d   1       4.358  -5.212  -5.542  0.00  0.00    -0.044 C 
ATOM     52  H   LIG d   1       4.344  -5.609  -4.526  0.00  0.00     0.025 H 
ATOM     53  H   LIG d   1       3.628  -4.408  -5.628  0.00  0.00     0.025 H 
ATOM     54  H   LIG d   1       4.110  -6.005  -6.245  0.00  0.00     0.025 H 
ENDBRANCH   9  51
BRANCH   1  55
ATOM     55  C   LIG d   1       4.634   0.154  -2.262  0.00  0.00    -0.016 C 
ATOM     56  H   LIG d   1       5.345  -0.410  -1.659  0.00  0.00     0.029 H 
ATOM     57  H   LIG d   1       5.081   1.103  -2.561  0.00  0.00     0.029 H 
ATOM     58  H   LIG d   1       3.734   0.346  -1.678  0.00  0.00     0.029 H 
ENDBRANCH   1  55
TORSDOF 7
ENDMDL
MODEL 3
REMARK VINA RESULT:      -5.6      1.903      2.870
REMARK  7 active torsions:
REMARK  status: ('A' for Active; 'I' for Inactive)
REMARK    1  A    between atoms: C_1  and  C_2 
REMARK    2  A    between atoms: C_10  and  C_27 
REMARK    3  A    between atoms: N_16  and  C_21 
REMARK    4  A    between atoms: C_21  and  C_22 
REMARK    5  A    between atoms: C_22  and  O_23 
REMARK    6  A    between atoms: O_23  and  C_24 
REMARK    7  A    between atoms: C_24  and  C_26 
ROOT
ATOM      1  C   LIG d   1       7.949   0.607  -8.892  0.00  0.00     0.018 C 
ATOM      2  H   LIG d   1       8.083  -0.387  -9.317  0.00  0.00     0.092 H 
ATOM      3  C   LIG d   1       6.478   0.916  -8.789  0.00  0.00     0.089 A 
ATOM      4  C   LIG d   1       6.014   2.164  -9.159  0.00  0.00    -0.035 A 
ATOM      5  C   LIG d   1       4.659   2.438  -9.062  0.00  0.00    -0.058 A 
ATOM      6  C   LIG d   1       3.817   1.441  -8.593  0.00  0.00    -0.039 A 
ATOM      7  C   LIG d   1       4.353   0.217  -8.241  0.00  0.00     0.058 A 
ATOM      8  N   LIG d   1       5.648  -0.008  -8.347  0.00  0.00    -0.249 NA
ATOM      9  C   LIG d   1       3.447  -0.873  -7.728  0.00  0.00     0.047 C 
ATOM     10  H   LIG d   1       2.417  -0.653  -8.012  0.00  0.00     0.052 H 
ATOM     11  N   LIG d   1       3.546  -0.946  -6.265  0.00  0.00    -0.308 N 
ATOM     12  C   LIG d   1       4.293  -2.139  -5.847  0.00  0.00    -0.002 C 
ATOM     13  C   LIG d   1       4.742  -1.977  -4.393  0.00  0.00    -0.028 C 
ATOM     14  C   LIG d   1       6.118  -2.621  -4.209  0.00  0.00     0.000 C 
ATOM     15  N   LIG d   1       7.128  -1.571  -4.020  0.00  0.00    -0.299 N 
ATOM     16  C   LIG d   1       8.349  -1.874  -4.778  0.00  0.00     0.004 C 
ATOM     17  C   LIG d   1       8.846  -0.603  -5.472  0.00  0.00     0.000 C 
ATOM     18  C   LIG d   1       8.559  -0.695  -6.972  0.00  0.00    -0.032 C 
ATOM     19  N   LIG d   1       8.554   0.654  -7.554  0.00  0.00     0.233 N 
ATOM     20  H   LIG d   1       6.699   2.918  -9.519  0.00  0.00     0.064 H 
ATOM     21  H   LIG d   1       4.268   3.405  -9.344  0.00  0.00     0.062 H 
ATOM     22  H   LIG d   1       2.755   1.619  -8.503  0.00  0.00     0.064 H 
ATOM     23  H   LIG d   1       3.653  -3.017  -5.933  0.00  0.00     0.043 H 
ATOM     24  H   LIG d   1       5.168  -2.263  -6.485  0.00  0.00     0.043 H 
ATOM     25  H   LIG d   1       4.802  -0.916  -4.147  0.00  0.00     0.029 H 
ATOM     26  H   LIG d   1       4.022  -2.463  -3.734  0.00  0.00     0.029 H 
ATOM     27  H   LIG d   1       6.100  -3.270  -3.334  0.00  0.00     0.043 H 
ATOM     28  H   LIG d   1       6.365  -3.208  -5.093  0.00  0.00     0.043 H 
ATOM     29  H   LIG d   1       9.118  -2.240  -4.098  0.00  0.00     0.043 H 
ATOM     30  H   LIG d   1       8.132  -2.635  -5.527  0.00  0.00     0.043 H 
ATOM     31  H   LIG d   1       8.331   0.264  -5.056  0.00  0.00     0.033 H 
ATOM     32  H   LIG d   1       9.920  -0.498  -5.314  0.00  0.00     0.033 H 
ATOM     33  H   LIG d   1       9.330  -1.297  -7.453  0.00  0.00     0.081 H 
ATOM     34  H   LIG d   1       7.585  -1.161  -7.127  0.00  0.00     0.081 H 
ATOM     35  H   LIG d   1       9.502   0.992  -7.624  0.00  0.00     0.202 HD
ATOM     36  H   LIG d   1       3.964  -0.108  -5.889  0.00  0.00     0.122 HD
ATOM     37  H   LIG d   1       8.018   1.272  -6.964  0.00  0.00     0.202 HD
ENDROOT
BRANCH  15  38
ATOM     38  C   LIG d   1       6.593  -0.253  -4.385  0.00  0.00     0.033 C 
ATOM     39  H   LIG d   1       7.140   0.136  -5.244  0.00  0.00     0.046 H 
ATOM     40  H   LIG d   1       5.538  -0.348  -4.641  0.00  0.00     0.046 H 
BRANCH  38  41
ATOM     41  C   LIG d   1       6.747   0.706  -3.204  0.00  0.00     0.105 C 
ATOM     42  H   LIG d   1       6.627   0.155  -2.271  0.00  0.00     0.071 H 
ATOM     43  H   LIG d   1       7.736   1.163  -3.233  0.00  0.00     0.071 H 
BRANCH  41  44
ATOM     44  O   LIG d   1       5.748   1.725  -3.285  0.00  0.00    -0.464 OA
BRANCH  44  45
ATOM     45  C   LIG d   1       4.524   1.415  -2.830  0.00  0.00     0.304 C 
ATOM     46  O   LIG d   1       3.543   1.777  -3.437  0.00  0.00    -0.251 OA
BRANCH  45  47
ATOM     47  C   LIG d   1       4.371   0.614  -1.562  0.00  0.00     0.033 C 
ATOM     48  H   LIG d   1       3.412   0.097  -1.573  0.00  0.00     0.034 H 
ATOM     49  H   LIG d   1       5.178  -0.115  -1.494  0.00  0.00     0.034 H 
ATOM     50  H   LIG d   1       4.413   1.284  -0.703  0.00  0.00     0.034 H 
ENDBRANCH  45  47
ENDBRANCH  44  45
ENDBRANCH  41  44
ENDBRANCH  38  41
ENDBRANCH  15  38
BRANCH   9  51
ATOM     51  C   LIG d   1       3.868  -2.213  -8.336  0.00  0.00    -0.044 C 
ATOM     52  H   LIG d   1       4.543  -2.035  -9.174  0.00  0.00     0.025 H 
ATOM     53  H   LIG d   1       4.378  -2.810  -7.580  0.00  0.00     0.025 H 
ATOM     54  H   LIG d   1       2.986  -2.747  -8.687  0.00  0.00     0.025 H 
ENDBRANCH   9  51
BRANCH   1  55
ATOM     55  C   LIG d   1       8.626   1.643  -9.793  0.00  0.00    -0.016 C 
ATOM     56  H   LIG d   1       9.574   1.946  -9.349  0.00  0.00     0.029 H 
ATOM     57  H   LIG d   1       8.807   1.206 -10.775  0.00  0.00     0.029 H 
ATOM     58  H   LIG d   1       7.978   2.513  -9.896  0.00  0.00     0.029 H 
ENDBRANCH   1  55
TORSDOF 7
ENDMDL
MODEL 4
REMARK VINA RESULT:      -5.5      2.173      5.615
REMARK  7 active torsions:
REMARK  status: ('A' for Active; 'I' for Inactive)
REMARK    1  A    between atoms: C_1  and  C_2 
REMARK    2  A    between atoms: C_10  and  C_27 
REMARK    3  A    between atoms: N_16  and  C_21 
REMARK    4  A    between atoms: C_21  and  C_22 
REMARK    5  A    between atoms: C_22  and  O_23 
REMARK    6  A    between atoms: O_23  and  C_24 
REMARK    7  A    between atoms: C_24  and  C_26 
ROOT
ATOM      1  C   LIG d   1       4.831  -2.403  -3.513  0.00  0.00     0.018 C 
ATOM      2  H   LIG d   1       5.516  -3.238  -3.367  0.00  0.00     0.092 H 
ATOM      3  C   LIG d   1       5.618  -1.123  -3.631  0.00  0.00     0.089 A 
ATOM      4  C   LIG d   1       5.185   0.010  -2.968  0.00  0.00    -0.035 A 
ATOM      5  C   LIG d   1       5.916   1.182  -3.083  0.00  0.00    -0.058 A 
ATOM      6  C   LIG d   1       7.060   1.171  -3.865  0.00  0.00    -0.039 A 
ATOM      7  C   LIG d   1       7.432   0.000  -4.499  0.00  0.00     0.058 A 
ATOM      8  N   LIG d   1       6.711  -1.096  -4.366  0.00  0.00    -0.249 NA
ATOM      9  C   LIG d   1       8.674  -0.022  -5.352  0.00  0.00     0.047 C 
ATOM     10  H   LIG d   1       9.309   0.825  -5.093  0.00  0.00     0.052 H 
ATOM     11  N   LIG d   1       8.297   0.064  -6.769  0.00  0.00    -0.308 N 
ATOM     12  C   LIG d   1       8.484  -1.227  -7.444  0.00  0.00    -0.002 C 
ATOM     13  C   LIG d   1       7.708  -1.232  -8.762  0.00  0.00    -0.028 C 
ATOM     14  C   LIG d   1       7.145  -2.631  -9.017  0.00  0.00     0.000 C 
ATOM     15  N   LIG d   1       5.686  -2.612  -8.840  0.00  0.00    -0.299 N 
ATOM     16  C   LIG d   1       5.230  -3.801  -8.109  0.00  0.00     0.004 C 
ATOM     17  C   LIG d   1       4.194  -3.387  -7.061  0.00  0.00     0.000 C 
ATOM     18  C   LIG d   1       4.821  -3.457  -5.668  0.00  0.00    -0.032 C 
ATOM     19  N   LIG d   1       4.053  -2.614  -4.741  0.00  0.00     0.233 N 
ATOM     20  H   LIG d   1       4.286  -0.018  -2.368  0.00  0.00     0.064 H 
ATOM     21  H   LIG d   1       5.601   2.082  -2.576  0.00  0.00     0.062 H 
ATOM     22  H   LIG d   1       7.655   2.066  -3.978  0.00  0.00     0.064 H 
ATOM     23  H   LIG d   1       9.545  -1.380  -7.646  0.00  0.00     0.043 H 
ATOM     24  H   LIG d   1       8.118  -2.029  -6.803  0.00  0.00     0.043 H 
ATOM     25  H   LIG d   1       6.889  -0.516  -8.704  0.00  0.00     0.029 H 
ATOM     26  H   LIG d   1       8.376  -0.955  -9.578  0.00  0.00     0.029 H 
ATOM     27  H   LIG d   1       7.384  -2.938 -10.035  0.00  0.00     0.043 H 
ATOM     28  H   LIG d   1       7.587  -3.335  -8.312  0.00  0.00     0.043 H 
ATOM     29  H   LIG d   1       4.778  -4.506  -8.807  0.00  0.00     0.043 H 
ATOM     30  H   LIG d   1       6.078  -4.271  -7.614  0.00  0.00     0.043 H 
ATOM     31  H   LIG d   1       3.863  -2.367  -7.260  0.00  0.00     0.033 H 
ATOM     32  H   LIG d   1       3.339  -4.062  -7.108  0.00  0.00     0.033 H 
ATOM     33  H   LIG d   1       4.811  -4.489  -5.315  0.00  0.00     0.081 H 
ATOM     34  H   LIG d   1       5.851  -3.099  -5.715  0.00  0.00     0.081 H 
ATOM     35  H   LIG d   1       3.184  -3.072  -4.514  0.00  0.00     0.202 HD
ATOM     36  H   LIG d   1       7.348   0.390  -6.871  0.00  0.00     0.122 HD
ATOM     37  H   LIG d   1       3.862  -1.725  -5.176  0.00  0.00     0.202 HD
ENDROOT
BRANCH  15  38
ATOM     38  C   LIG d   1       5.255  -1.380  -8.167  0.00  0.00     0.033 C 
ATOM     39  H   LIG d   1       4.788  -1.631  -7.215  0.00  0.00     0.046 H 
ATOM     40  H   LIG d   1       6.119  -0.741  -7.990  0.00  0.00     0.046 H 
BRANCH  38  41
ATOM     41  C   LIG d   1       4.247  -0.642  -9.051  0.00  0.00     0.105 C 
ATOM     42  H   LIG d   1       4.669   0.314  -9.362  0.00  0.00     0.071 H 
ATOM     43  H   LIG d   1       4.026  -1.245  -9.931  0.00  0.00     0.071 H 
BRANCH  41  44
ATOM     44  O   LIG d   1       3.045  -0.413  -8.313  0.00  0.00    -0.464 OA
BRANCH  44  45
ATOM     45  C   LIG d   1       3.048   0.613  -7.448  0.00  0.00     0.304 C 
ATOM     46  O   LIG d   1       3.264   1.735  -7.840  0.00  0.00    -0.251 OA
BRANCH  45  47
ATOM     47  C   LIG d   1       2.781   0.365  -5.985  0.00  0.00     0.033 C 
ATOM     48  H   LIG d   1       2.864   1.304  -5.437  0.00  0.00     0.034 H 
ATOM     49  H   LIG d   1       1.777  -0.040  -5.862  0.00  0.00     0.034 H 
ATOM     50  H   LIG d   1       3.511  -0.347  -5.598  0.00  0.00     0.034 H 
ENDBRANCH  45  47
ENDBRANCH  44  45
ENDBRANCH  41  44
ENDBRANCH  38  41
ENDBRANCH  15  38
BRANCH   9  51
ATOM     51  C   LIG d   1       9.438  -1.325  -5.106  0.00  0.00    -0.044 C 
ATOM     52  H   LIG d   1       8.807  -2.173  -5.376  0.00  0.00     0.025 H 
ATOM     53  H   LIG d   1      10.341  -1.337  -5.715  0.00  0.00     0.025 H 
ATOM     54  H   LIG d   1       9.708  -1.395  -4.053  0.00  0.00     0.025 H 
ENDBRANCH   9  51
BRANCH   1  55
ATOM     55  C   LIG d   1       3.879  -2.308  -2.318  0.00  0.00    -0.016 C 
ATOM     56  H   LIG d   1       3.317  -1.376  -2.374  0.00  0.00     0.029 H 
ATOM     57  H   LIG d   1       3.189  -3.152  -2.336  0.00  0.00     0.029 H 
ATOM     58  H   LIG d   1       4.455  -2.330  -1.392  0.00  0.00     0.029 H 
ENDBRANCH   1  55
TORSDOF 7
ENDMDL
MODEL 5
REMARK VINA RESULT:      -5.3      2.523      4.754
REMARK  7 active torsions:
REMARK  status: ('A' for Active; 'I' for Inactive)
REMARK    1  A    between atoms: C_1  and  C_2 
REMARK    2  A    between atoms: C_10  and  C_27 
REMARK    3  A    between atoms: N_16  and  C_21 
REMARK    4  A    between atoms: C_21  and  C_22 
REMARK    5  A    between atoms: C_22  and  O_23 
REMARK    6  A    between atoms: O_23  and  C_24 
REMARK    7  A    between atoms: C_24  and  C_26 
ROOT
ATOM      1  C   LIG d   1       5.486   0.032  -3.180  0.00  0.00     0.018 C 
ATOM      2  H   LIG d   1       6.324   0.709  -3.345  0.00  0.00     0.092 H 
ATOM      3  C   LIG d   1       4.585   0.044  -4.388  0.00  0.00     0.089 A 
ATOM      4  C   LIG d   1       3.214   0.089  -4.218  0.00  0.00    -0.035 A 
ATOM      5  C   LIG d   1       2.394   0.101  -5.335  0.00  0.00    -0.058 A 
ATOM      6  C   LIG d   1       2.987   0.065  -6.588  0.00  0.00    -0.039 A 
ATOM      7  C   LIG d   1       4.365   0.020  -6.681  0.00  0.00     0.058 A 
ATOM      8  N   LIG d   1       5.113   0.011  -5.595  0.00  0.00    -0.249 NA
ATOM      9  C   LIG d   1       5.019  -0.020  -8.038  0.00  0.00     0.047 C 
ATOM     10  H   LIG d   1       4.312   0.324  -8.792  0.00  0.00     0.052 H 
ATOM     11  N   LIG d   1       5.431  -1.396  -8.343  0.00  0.00    -0.308 N 
ATOM     12  C   LIG d   1       6.889  -1.542  -8.253  0.00  0.00    -0.002 C 
ATOM     13  C   LIG d   1       7.249  -3.026  -8.154  0.00  0.00    -0.028 C 
ATOM     14  C   LIG d   1       8.459  -3.198  -7.234  0.00  0.00     0.000 C 
ATOM     15  N   LIG d   1       8.032  -3.823  -5.974  0.00  0.00    -0.299 N 
ATOM     16  C   LIG d   1       8.680  -3.182  -4.823  0.00  0.00     0.004 C 
ATOM     17  C   LIG d   1       7.650  -2.968  -3.712  0.00  0.00     0.000 C 
ATOM     18  C   LIG d   1       7.291  -1.483  -3.629  0.00  0.00    -0.032 C 
ATOM     19  N   LIG d   1       5.992  -1.329  -2.960  0.00  0.00     0.233 N 
ATOM     20  H   LIG d   1       2.787   0.115  -3.225  0.00  0.00     0.064 H 
ATOM     21  H   LIG d   1       1.320   0.135  -5.232  0.00  0.00     0.062 H 
ATOM     22  H   LIG d   1       2.379   0.072  -7.481  0.00  0.00     0.064 H 
ATOM     23  H   LIG d   1       7.353  -1.115  -9.143  0.00  0.00     0.043 H 
ATOM     24  H   LIG d   1       7.253  -1.021  -7.367  0.00  0.00     0.043 H 
ATOM     25  H   LIG d   1       6.402  -3.579  -7.747  0.00  0.00     0.029 H 
ATOM     26  H   LIG d   1       7.490  -3.408  -9.146  0.00  0.00     0.029 H 
ATOM     27  H   LIG d   1       9.199  -3.831  -7.722  0.00  0.00     0.043 H 
ATOM     28  H   LIG d   1       8.897  -2.221  -7.024  0.00  0.00     0.043 H 
ATOM     29  H   LIG d   1       9.483  -3.822  -4.454  0.00  0.00     0.043 H 
ATOM     30  H   LIG d   1       9.092  -2.220  -5.126  0.00  0.00     0.043 H 
ATOM     31  H   LIG d   1       6.752  -3.547  -3.933  0.00  0.00     0.033 H 
ATOM     32  H   LIG d   1       8.067  -3.295  -2.760  0.00  0.00     0.033 H 
ATOM     33  H   LIG d   1       8.057  -0.955  -3.061  0.00  0.00     0.081 H 
ATOM     34  H   LIG d   1       7.232  -1.067  -4.635  0.00  0.00     0.081 H 
ATOM     35  H   LIG d   1       6.103  -1.491  -1.970  0.00  0.00     0.202 HD
ATOM     36  H   LIG d   1       4.964  -2.056  -7.738  0.00  0.00     0.122 HD
ATOM     37  H   LIG d   1       5.338  -1.997  -3.339  0.00  0.00     0.202 HD
ENDROOT
BRANCH  15  38
ATOM     38  C   LIG d   1       6.570  -3.793  -5.842  0.00  0.00     0.033 C 
ATOM     39  H   LIG d   1       6.297  -3.203  -4.966  0.00  0.00     0.046 H 
ATOM     40  H   LIG d   1       6.134  -3.343  -6.733  0.00  0.00     0.046 H 
BRANCH  38  41
ATOM     41  C   LIG d   1       6.042  -5.219  -5.680  0.00  0.00     0.105 C 
ATOM     42  H   LIG d   1       6.878  -5.898  -5.510  0.00  0.00     0.071 H 
ATOM     43  H   LIG d   1       5.360  -5.261  -4.832  0.00  0.00     0.071 H 
BRANCH  41  44
ATOM     44  O   LIG d   1       5.350  -5.608  -6.869  0.00  0.00    -0.464 OA
BRANCH  44  45
ATOM     45  C   LIG d   1       4.083  -5.187  -7.000  0.00  0.00     0.304 C 
ATOM     46  O   LIG d   1       3.303  -5.321  -6.087  0.00  0.00    -0.251 OA
BRANCH  45  47
ATOM     47  C   LIG d   1       3.631  -4.546  -8.288  0.00  0.00     0.033 C 
ATOM     48  H   LIG d   1       4.477  -4.046  -8.760  0.00  0.00     0.034 H 
ATOM     49  H   LIG d   1       3.241  -5.311  -8.957  0.00  0.00     0.034 H 
ATOM     50  H   LIG d   1       2.850  -3.815  -8.075  0.00  0.00     0.034 H 
ENDBRANCH  45  47
ENDBRANCH  44  45
ENDBRANCH  41  44
ENDBRANCH  38  41
ENDBRANCH  15  38
BRANCH   9  51
ATOM     51  C   LIG d   1       6.248   0.892  -8.038  0.00  0.00    -0.044 C 
ATOM     52  H   LIG d   1       6.310   1.417  -7.084  0.00  0.00     0.025 H 
ATOM     53  H   LIG d   1       7.146   0.291  -8.180  0.00  0.00     0.025 H 
ATOM     54  H   LIG d   1       6.163   1.617  -8.846  0.00  0.00     0.025 H 
ENDBRANCH   9  51
BRANCH   1  55
ATOM     55  C   LIG d   1       4.697   0.487  -1.950  0.00  0.00    -0.016 C 
ATOM     56  H   LIG d   1       3.651   0.628  -2.221  0.00  0.00     0.029 H 
ATOM     57  H   LIG d   1       4.771  -0.272  -1.170  0.00  0.00     0.029 H 
ATOM     58  H   LIG d   1       5.107   1.427  -1.582  0.00  0.00     0.029 H 
ENDBRANCH   1  55
TORSDOF 7
ENDMDL
MODEL 6
REMARK VINA RESULT:      -5.2      3.106      4.851
REMARK  7 active torsions:
REMARK  status: ('A' for Active; 'I' for Inactive)
REMARK    1  A    between atoms: C_1  and  C_2 
REMARK    2  A    between atoms: C_10  and  C_27 
REMARK    3  A    between atoms: N_16  and  C_21 
REMARK    4  A    between atoms: C_21  and  C_22 
REMARK    5  A    between atoms: C_22  and  O_23 
REMARK    6  A    between atoms: O_23  and  C_24 
REMARK    7  A    between atoms: C_24  and  C_26 
ROOT
ATOM      1  C   LIG d   1       3.897   0.205  -7.882  0.00  0.00     0.018 C 
ATOM      2  H   LIG d   1       4.067  -0.726  -8.420  0.00  0.00     0.092 H 
ATOM      3  C   LIG d   1       3.582  -0.098  -6.440  0.00  0.00     0.089 A 
ATOM      4  C   LIG d   1       2.556   0.578  -5.807  0.00  0.00    -0.035 A 
ATOM      5  C   LIG d   1       2.273   0.291  -4.481  0.00  0.00    -0.058 A 
ATOM      6  C   LIG d   1       3.037  -0.670  -3.837  0.00  0.00    -0.039 A 
ATOM      7  C   LIG d   1       4.048  -1.306  -4.534  0.00  0.00     0.058 A 
ATOM      8  N   LIG d   1       4.287  -1.006  -5.796  0.00  0.00    -0.249 NA
ATOM      9  C   LIG d   1       4.885  -2.352  -3.844  0.00  0.00     0.047 C 
ATOM     10  H   LIG d   1       4.362  -2.708  -2.956  0.00  0.00     0.052 H 
ATOM     11  N   LIG d   1       6.174  -1.767  -3.452  0.00  0.00    -0.308 N 
ATOM     12  C   LIG d   1       7.259  -2.264  -4.307  0.00  0.00    -0.002 C 
ATOM     13  C   LIG d   1       8.478  -1.351  -4.167  0.00  0.00    -0.028 C 
ATOM     14  C   LIG d   1       9.191  -1.240  -5.517  0.00  0.00     0.000 C 
ATOM     15  N   LIG d   1       8.983   0.104  -6.072  0.00  0.00    -0.299 N 
ATOM     16  C   LIG d   1       8.701   0.041  -7.511  0.00  0.00     0.004 C 
ATOM     17  C   LIG d   1       7.550   0.993  -7.847  0.00  0.00     0.000 C 
ATOM     18  C   LIG d   1       6.283   0.183  -8.128  0.00  0.00    -0.032 C 
ATOM     19  N   LIG d   1       5.103   1.041  -7.953  0.00  0.00     0.233 N 
ATOM     20  H   LIG d   1       1.982   1.323  -6.340  0.00  0.00     0.064 H 
ATOM     21  H   LIG d   1       1.478   0.804  -3.961  0.00  0.00     0.062 H 
ATOM     22  H   LIG d   1       2.846  -0.920  -2.804  0.00  0.00     0.064 H 
ATOM     23  H   LIG d   1       7.528  -3.277  -4.002  0.00  0.00     0.043 H 
ATOM     24  H   LIG d   1       6.929  -2.273  -5.345  0.00  0.00     0.043 H 
ATOM     25  H   LIG d   1       8.155  -0.360  -3.846  0.00  0.00     0.029 H 
ATOM     26  H   LIG d   1       9.162  -1.768  -3.428  0.00  0.00     0.029 H 
ATOM     27  H   LIG d   1      10.257  -1.417  -5.379  0.00  0.00     0.043 H 
ATOM     28  H   LIG d   1       8.785  -1.984  -6.203  0.00  0.00     0.043 H 
ATOM     29  H   LIG d   1       9.589   0.335  -8.070  0.00  0.00     0.043 H 
ATOM     30  H   LIG d   1       8.420  -0.976  -7.782  0.00  0.00     0.043 H 
ATOM     31  H   LIG d   1       7.374   1.661  -7.004  0.00  0.00     0.033 H 
ATOM     32  H   LIG d   1       7.809   1.580  -8.728  0.00  0.00     0.033 H 
ATOM     33  H   LIG d   1       6.311  -0.193  -9.152  0.00  0.00     0.081 H 
ATOM     34  H   LIG d   1       6.227  -0.657  -7.435  0.00  0.00     0.081 H 
ATOM     35  H   LIG d   1       5.029   1.673  -8.736  0.00  0.00     0.202 HD
ATOM     36  H   LIG d   1       6.134  -0.760  -3.468  0.00  0.00     0.122 HD
ATOM     37  H   LIG d   1       5.197   1.570  -7.100  0.00  0.00     0.202 HD
ENDROOT
BRANCH  15  38
ATOM     38  C   LIG d   1       7.914   0.810  -5.354  0.00  0.00     0.033 C 
ATOM     39  H   LIG d   1       7.053   0.931  -6.012  0.00  0.00     0.046 H 
ATOM     40  H   LIG d   1       7.623   0.233  -4.477  0.00  0.00     0.046 H 
BRANCH  38  41
ATOM     41  C   LIG d   1       8.417   2.187  -4.915  0.00  0.00     0.105 C 
ATOM     42  H   LIG d   1       9.252   2.487  -5.548  0.00  0.00     0.071 H 
ATOM     43  H   LIG d   1       7.611   2.914  -5.005  0.00  0.00     0.071 H 
BRANCH  41  44
ATOM     44  O   LIG d   1       8.852   2.122  -3.555  0.00  0.00    -0.464 OA
BRANCH  44  45
ATOM     45  C   LIG d   1      10.092   2.563  -3.291  0.00  0.00     0.304 C 
ATOM     46  O   LIG d   1      11.048   1.866  -3.539  0.00  0.00    -0.251 OA
BRANCH  45  47
ATOM     47  C   LIG d   1      10.293   3.929  -2.686  0.00  0.00     0.033 C 
ATOM     48  H   LIG d   1      11.043   4.473  -3.261  0.00  0.00     0.034 H 
ATOM     49  H   LIG d   1       9.352   4.477  -2.705  0.00  0.00     0.034 H 
ATOM     50  H   LIG d   1      10.633   3.823  -1.655  0.00  0.00     0.034 H 
ENDBRANCH  45  47
ENDBRANCH  44  45
ENDBRANCH  41  44
ENDBRANCH  38  41
ENDBRANCH  15  38
BRANCH   9  51
ATOM     51  C   LIG d   1       5.125  -3.524  -4.798  0.00  0.00    -0.044 C 
ATOM     52  H   LIG d   1       6.080  -3.389  -5.306  0.00  0.00     0.025 H 
ATOM     53  H   LIG d   1       5.143  -4.455  -4.232  0.00  0.00     0.025 H 
ATOM     54  H   LIG d   1       4.324  -3.562  -5.536  0.00  0.00     0.025 H 
ENDBRANCH   9  51
BRANCH   1  55
ATOM     55  C   LIG d   1       2.721   0.954  -8.514  0.00  0.00    -0.016 C 
ATOM     56  H   LIG d   1       2.268   1.611  -7.773  0.00  0.00     0.029 H 
ATOM     57  H   LIG d   1       3.080   1.548  -9.355  0.00  0.00     0.029 H 
ATOM     58  H   LIG d   1       1.981   0.236  -8.867  0.00  0.00     0.029 H 
ENDBRANCH   1  55
TORSDOF 7
ENDMDL
MODEL 7
REMARK VINA RESULT:      -5.2      2.751      5.046
REMARK  7 active torsions:
REMARK  status: ('A' for Active; 'I' for Inactive)
REMARK    1  A    between atoms: C_1  and  C_2 
REMARK    2  A    between atoms: C_10  and  C_27 
REMARK    3  A    between atoms: N_16  and  C_21 
REMARK    4  A    between atoms: C_21  and  C_22 
REMARK    5  A    between atoms: C_22  and  O_23 
REMARK    6  A    between atoms: O_23  and  C_24 
REMARK    7  A    between atoms: C_24  and  C_26 
ROOT
ATOM      1  C   LIG d   1       8.357   1.673  -3.911  0.00  0.00     0.018 C 
ATOM      2  H   LIG d   1       8.711   1.204  -2.993  0.00  0.00     0.092 H 
ATOM      3  C   LIG d   1       8.654   0.772  -5.082  0.00  0.00     0.089 A 
ATOM      4  C   LIG d   1       9.160   1.312  -6.249  0.00  0.00    -0.035 A 
ATOM      5  C   LIG d   1       9.430   0.474  -7.320  0.00  0.00    -0.058 A 
ATOM      6  C   LIG d   1       9.180  -0.882  -7.176  0.00  0.00    -0.039 A 
ATOM      7  C   LIG d   1       8.673  -1.350  -5.978  0.00  0.00     0.058 A 
ATOM      8  N   LIG d   1       8.429  -0.523  -4.981  0.00  0.00    -0.249 NA
ATOM      9  C   LIG d   1       8.397  -2.822  -5.811  0.00  0.00     0.047 C 
ATOM     10  H   LIG d   1       8.947  -3.383  -6.566  0.00  0.00     0.052 H 
ATOM     11  N   LIG d   1       6.958  -3.071  -5.968  0.00  0.00    -0.308 N 
ATOM     12  C   LIG d   1       6.332  -3.376  -4.675  0.00  0.00    -0.002 C 
ATOM     13  C   LIG d   1       4.815  -3.214  -4.791  0.00  0.00    -0.028 C 
ATOM     14  C   LIG d   1       4.260  -2.655  -3.479  0.00  0.00     0.000 C 
ATOM     15  N   LIG d   1       3.832  -1.264  -3.682  0.00  0.00    -0.299 N 
ATOM     16  C   LIG d   1       4.234  -0.420  -2.549  0.00  0.00     0.004 C 
ATOM     17  C   LIG d   1       4.797   0.903  -3.075  0.00  0.00     0.000 C 
ATOM     18  C   LIG d   1       6.318   0.913  -2.902  0.00  0.00    -0.032 C 
ATOM     19  N   LIG d   1       6.909   1.897  -3.821  0.00  0.00     0.233 N 
ATOM     20  H   LIG d   1       9.341   2.374  -6.327  0.00  0.00     0.064 H 
ATOM     21  H   LIG d   1       9.825   0.868  -8.245  0.00  0.00     0.062 H 
ATOM     22  H   LIG d   1       9.378  -1.565  -7.990  0.00  0.00     0.064 H 
ATOM     23  H   LIG d   1       6.566  -4.403  -4.391  0.00  0.00     0.043 H 
ATOM     24  H   LIG d   1       6.713  -2.693  -3.916  0.00  0.00     0.043 H 
ATOM     25  H   LIG d   1       4.585  -2.526  -5.605  0.00  0.00     0.029 H 
ATOM     26  H   LIG d   1       4.360  -4.183  -4.994  0.00  0.00     0.029 H 
ATOM     27  H   LIG d   1       3.408  -3.255  -3.161  0.00  0.00     0.043 H 
ATOM     28  H   LIG d   1       5.035  -2.689  -2.714  0.00  0.00     0.043 H 
ATOM     29  H   LIG d   1       3.367  -0.220  -1.919  0.00  0.00     0.043 H 
ATOM     30  H   LIG d   1       4.997  -0.933  -1.966  0.00  0.00     0.043 H 
ATOM     31  H   LIG d   1       4.551   1.009  -4.131  0.00  0.00     0.033 H 
ATOM     32  H   LIG d   1       4.363   1.731  -2.515  0.00  0.00     0.033 H 
ATOM     33  H   LIG d   1       6.566   1.181  -1.875  0.00  0.00     0.081 H 
ATOM     34  H   LIG d   1       6.716  -0.077  -3.127  0.00  0.00     0.081 H 
ATOM     35  H   LIG d   1       6.732   2.827  -3.474  0.00  0.00     0.202 HD
ATOM     36  H   LIG d   1       6.502  -2.290  -6.414  0.00  0.00     0.122 HD
ATOM     37  H   LIG d   1       6.494   1.794  -4.734  0.00  0.00     0.202 HD
ENDROOT
BRANCH  15  38
ATOM     38  C   LIG d   1       4.354  -0.732  -4.948  0.00  0.00     0.033 C 
ATOM     39  H   LIG d   1       5.096   0.039  -4.740  0.00  0.00     0.046 H 
ATOM     40  H   LIG d   1       4.817  -1.538  -5.517  0.00  0.00     0.046 H 
BRANCH  38  41
ATOM     41  C   LIG d   1       3.206  -0.130  -5.760  0.00  0.00     0.105 C 
ATOM     42  H   LIG d   1       2.566  -0.930  -6.133  0.00  0.00     0.071 H 
ATOM     43  H   LIG d   1       2.623   0.537  -5.125  0.00  0.00     0.071 H 
BRANCH  41  44
ATOM     44  O   LIG d   1       3.738   0.606  -6.864  0.00  0.00    -0.464 OA
BRANCH  44  45
ATOM     45  C   LIG d   1       2.949   0.745  -7.940  0.00  0.00     0.304 C 
ATOM     46  O   LIG d   1       2.285  -0.188  -8.329  0.00  0.00    -0.251 OA
BRANCH  45  47
ATOM     47  C   LIG d   1       2.888   2.065  -8.665  0.00  0.00     0.033 C 
ATOM     48  H   LIG d   1       2.120   2.692  -8.212  0.00  0.00     0.034 H 
ATOM     49  H   LIG d   1       3.854   2.564  -8.592  0.00  0.00     0.034 H 
ATOM     50  H   LIG d   1       2.645   1.893  -9.714  0.00  0.00     0.034 H 
ENDBRANCH  45  47
ENDBRANCH  44  45
ENDBRANCH  41  44
ENDBRANCH  38  41
ENDBRANCH  15  38
BRANCH   9  51
ATOM     51  C   LIG d   1       8.843  -3.269  -4.418  0.00  0.00    -0.044 C 
ATOM     52  H   LIG d   1       7.973  -3.585  -3.841  0.00  0.00     0.025 H 
ATOM     53  H   LIG d   1       9.539  -4.103  -4.510  0.00  0.00     0.025 H 
ATOM     54  H   LIG d   1       9.334  -2.441  -3.909  0.00  0.00     0.025 H 
ENDBRANCH   9  51
BRANCH   1  55
ATOM     55  C   LIG d   1       9.068   3.014  -4.107  0.00  0.00    -0.016 C 
ATOM     56  H   LIG d   1       8.765   3.450  -5.059  0.00  0.00     0.029 H 
ATOM     57  H   LIG d   1       8.798   3.690  -3.295  0.00  0.00     0.029 H 
ATOM     58  H   LIG d   1      10.147   2.858  -4.105  0.00  0.00     0.029 H 
ENDBRANCH   1  55
TORSDOF 7
ENDMDL
MODEL 8
REMARK VINA RESULT:      -5.1      2.227      5.974
REMARK  7 active torsions:
REMARK  status: ('A' for Active; 'I' for Inactive)
REMARK    1  A    between atoms: C_1  and  C_2 
REMARK    2  A    between atoms: C_10  and  C_27 
REMARK    3  A    between atoms: N_16  and  C_21 
REMARK    4  A    between atoms: C_21  and  C_22 
REMARK    5  A    between atoms: C_22  and  O_23 
REMARK    6  A    between atoms: O_23  and  C_24 
REMARK    7  A    between atoms: C_24  and  C_26 
ROOT
ATOM      1  C   LIG d   1       5.748  -3.128  -5.686  0.00  0.00     0.018 C 
ATOM      2  H   LIG d   1       6.710  -3.570  -5.942  0.00  0.00     0.092 H 
ATOM      3  C   LIG d   1       5.966  -1.922  -4.809  0.00  0.00     0.089 A 
ATOM      4  C   LIG d   1       5.161  -1.725  -3.704  0.00  0.00    -0.035 A 
ATOM      5  C   LIG d   1       5.370  -0.613  -2.903  0.00  0.00    -0.058 A 
ATOM      6  C   LIG d   1       6.387   0.264  -3.248  0.00  0.00    -0.039 A 
ATOM      7  C   LIG d   1       7.153   0.003  -4.369  0.00  0.00     0.058 A 
ATOM      8  N   LIG d   1       6.924  -1.066  -5.106  0.00  0.00    -0.249 NA
ATOM      9  C   LIG d   1       8.260   0.950  -4.752  0.00  0.00     0.047 C 
ATOM     10  H   LIG d   1       8.526   1.565  -3.892  0.00  0.00     0.052 H 
ATOM     11  N   LIG d   1       7.807   1.815  -5.850  0.00  0.00    -0.308 N 
ATOM     12  C   LIG d   1       8.448   1.437  -7.116  0.00  0.00    -0.002 C 
ATOM     13  C   LIG d   1       7.668   2.045  -8.284  0.00  0.00    -0.028 C 
ATOM     14  C   LIG d   1       7.683   1.075  -9.467  0.00  0.00     0.000 C 
ATOM     15  N   LIG d   1       6.343   0.497  -9.642  0.00  0.00    -0.299 N 
ATOM     16  C   LIG d   1       6.424  -0.941  -9.928  0.00  0.00     0.004 C 
ATOM     17  C   LIG d   1       5.363  -1.683  -9.111  0.00  0.00     0.000 C 
ATOM     18  C   LIG d   1       6.039  -2.439  -7.965  0.00  0.00    -0.032 C 
ATOM     19  N   LIG d   1       5.052  -2.721  -6.914  0.00  0.00     0.233 N 
ATOM     20  H   LIG d   1       4.376  -2.430  -3.466  0.00  0.00     0.064 H 
ATOM     21  H   LIG d   1       4.756  -0.434  -2.034  0.00  0.00     0.062 H 
ATOM     22  H   LIG d   1       6.579   1.142  -2.647  0.00  0.00     0.064 H 
ATOM     23  H   LIG d   1       9.472   1.811  -7.130  0.00  0.00     0.043 H 
ATOM     24  H   LIG d   1       8.455   0.352  -7.210  0.00  0.00     0.043 H 
ATOM     25  H   LIG d   1       6.638   2.229  -7.977  0.00  0.00     0.029 H 
ATOM     26  H   LIG d   1       8.133   2.986  -8.580  0.00  0.00     0.029 H 
ATOM     27  H   LIG d   1       7.969   1.610 -10.371  0.00  0.00     0.043 H 
ATOM     28  H   LIG d   1       8.400   0.277  -9.273  0.00  0.00     0.043 H 
ATOM     29  H   LIG d   1       6.247  -1.112 -10.990  0.00  0.00     0.043 H 
ATOM     30  H   LIG d   1       7.413  -1.310  -9.659  0.00  0.00     0.043 H 
ATOM     31  H   LIG d   1       4.652  -0.965  -8.701  0.00  0.00     0.033 H 
ATOM     32  H   LIG d   1       4.838  -2.390  -9.752  0.00  0.00     0.033 H 
ATOM     33  H   LIG d   1       6.450  -3.376  -8.340  0.00  0.00     0.081 H 
ATOM     34  H   LIG d   1       6.844  -1.829  -7.552  0.00  0.00     0.081 H 
ATOM     35  H   LIG d   1       4.443  -3.466  -7.218  0.00  0.00     0.202 HD
ATOM     36  H   LIG d   1       6.802   1.795  -5.934  0.00  0.00     0.122 HD
ATOM     37  H   LIG d   1       4.508  -1.892  -6.733  0.00  0.00     0.202 HD
ENDROOT
BRANCH  15  38
ATOM     38  C   LIG d   1       5.500   0.756  -8.468  0.00  0.00     0.033 C 
ATOM     39  H   LIG d   1       5.234  -0.190  -7.996  0.00  0.00     0.046 H 
ATOM     40  H   LIG d   1       6.048   1.374  -7.757  0.00  0.00     0.046 H 
BRANCH  38  41
ATOM     41  C   LIG d   1       4.228   1.486  -8.903  0.00  0.00     0.105 C 
ATOM     42  H   LIG d   1       4.487   2.480  -9.269  0.00  0.00     0.071 H 
ATOM     43  H   LIG d   1       3.739   0.922  -9.696  0.00  0.00     0.071 H 
BRANCH  41  44
ATOM     44  O   LIG d   1       3.343   1.606  -7.787  0.00  0.00    -0.464 OA
BRANCH  44  45
ATOM     45  C   LIG d   1       2.817   0.471  -7.302  0.00  0.00     0.304 C 
ATOM     46  O   LIG d   1       2.277  -0.313  -8.048  0.00  0.00    -0.251 OA
BRANCH  45  47
ATOM     47  C   LIG d   1       2.899   0.172  -5.827  0.00  0.00     0.033 C 
ATOM     48  H   LIG d   1       2.188   0.801  -5.290  0.00  0.00     0.034 H 
ATOM     49  H   LIG d   1       2.659  -0.877  -5.655  0.00  0.00     0.034 H 
ATOM     50  H   LIG d   1       3.908   0.378  -5.470  0.00  0.00     0.034 H 
ENDBRANCH  45  47
ENDBRANCH  44  45
ENDBRANCH  41  44
ENDBRANCH  38  41
ENDBRANCH  15  38
BRANCH   9  51
ATOM     51  C   LIG d   1       9.482   0.149  -5.204  0.00  0.00    -0.044 C 
ATOM     52  H   LIG d   1       9.420  -0.864  -4.805  0.00  0.00     0.025 H 
ATOM     53  H   LIG d   1       9.507   0.109  -6.293  0.00  0.00     0.025 H 
ATOM     54  H   LIG d   1      10.389   0.629  -4.838  0.00  0.00     0.025 H 
ENDBRANCH   9  51
BRANCH   1  55
ATOM     55  C   LIG d   1       4.897  -4.156  -4.936  0.00  0.00    -0.016 C 
ATOM     56  H   LIG d   1       5.378  -4.405  -3.990  0.00  0.00     0.029 H 
ATOM     57  H   LIG d   1       3.909  -3.738  -4.744  0.00  0.00     0.029 H 
ATOM     58  H   LIG d   1       4.798  -5.057  -5.541  0.00  0.00     0.029 H 
ENDBRANCH   1  55
TORSDOF 7
ENDMDL
MODEL 9
REMARK VINA RESULT:      -5.1      1.636      2.232
REMARK  7 active torsions:
REMARK  status: ('A' for Active; 'I' for Inactive)
REMARK    1  A    between atoms: C_1  and  C_2 
REMARK    2  A    between atoms: C_10  and  C_27 
REMARK    3  A    between atoms: N_16  and  C_21 
REMARK    4  A    between atoms: C_21  and  C_22 
REMARK    5  A    between atoms: C_22  and  O_23 
REMARK    6  A    between atoms: O_23  and  C_24 
REMARK    7  A    between atoms: C_24  and  C_26 
ROOT
ATOM      1  C   LIG d   1       4.736  -0.800 -11.050  0.00  0.00     0.018 C 
ATOM      2  H   LIG d   1       5.714  -1.258 -11.194  0.00  0.00     0.092 H 
ATOM      3  C   LIG d   1       3.731  -1.863 -10.686  0.00  0.00     0.089 A 
ATOM      4  C   LIG d   1       2.479  -1.850 -11.272  0.00  0.00    -0.035 A 
ATOM      5  C   LIG d   1       1.563  -2.832 -10.932  0.00  0.00    -0.058 A 
ATOM      6  C   LIG d   1       1.942  -3.796 -10.010  0.00  0.00    -0.039 A 
ATOM      7  C   LIG d   1       3.211  -3.745  -9.465  0.00  0.00     0.058 A 
ATOM      8  N   LIG d   1       4.057  -2.795  -9.813  0.00  0.00    -0.249 NA
ATOM      9  C   LIG d   1       3.633  -4.787  -8.461  0.00  0.00     0.047 C 
ATOM     10  H   LIG d   1       2.975  -5.653  -8.537  0.00  0.00     0.052 H 
ATOM     11  N   LIG d   1       3.547  -4.225  -7.106  0.00  0.00    -0.308 N 
ATOM     12  C   LIG d   1       4.884  -3.961  -6.560  0.00  0.00    -0.002 C 
ATOM     13  C   LIG d   1       4.770  -3.012  -5.366  0.00  0.00    -0.028 C 
ATOM     14  C   LIG d   1       5.976  -2.071  -5.344  0.00  0.00     0.000 C 
ATOM     15  N   LIG d   1       5.546  -0.715  -5.712  0.00  0.00    -0.299 N 
ATOM     16  C   LIG d   1       6.510  -0.087  -6.625  0.00  0.00     0.004 C 
ATOM     17  C   LIG d   1       5.756   0.627  -7.750  0.00  0.00     0.000 C 
ATOM     18  C   LIG d   1       5.896  -0.175  -9.046  0.00  0.00    -0.032 C 
ATOM     19  N   LIG d   1       4.812   0.191  -9.968  0.00  0.00     0.233 N 
ATOM     20  H   LIG d   1       2.218  -1.082 -11.986  0.00  0.00     0.064 H 
ATOM     21  H   LIG d   1       0.578  -2.847 -11.374  0.00  0.00     0.062 H 
ATOM     22  H   LIG d   1       1.254  -4.577  -9.720  0.00  0.00     0.064 H 
ATOM     23  H   LIG d   1       5.335  -4.900  -6.235  0.00  0.00     0.043 H 
ATOM     24  H   LIG d   1       5.508  -3.505  -7.328  0.00  0.00     0.043 H 
ATOM     25  H   LIG d   1       3.854  -2.426  -5.454  0.00  0.00     0.029 H 
ATOM     26  H   LIG d   1       4.744  -3.590  -4.442  0.00  0.00     0.029 H 
ATOM     27  H   LIG d   1       6.408  -2.057  -4.344  0.00  0.00     0.043 H 
ATOM     28  H   LIG d   1       6.722  -2.421  -6.058  0.00  0.00     0.043 H 
ATOM     29  H   LIG d   1       7.112   0.638  -6.076  0.00  0.00     0.043 H 
ATOM     30  H   LIG d   1       7.158  -0.851  -7.051  0.00  0.00     0.043 H 
ATOM     31  H   LIG d   1       4.701   0.708  -7.486  0.00  0.00     0.033 H 
ATOM     32  H   LIG d   1       6.173   1.624  -7.893  0.00  0.00     0.033 H 
ATOM     33  H   LIG d   1       6.858   0.047  -9.508  0.00  0.00     0.081 H 
ATOM     34  H   LIG d   1       5.838  -1.240  -8.822  0.00  0.00     0.081 H 
ATOM     35  H   LIG d   1       4.998   1.103 -10.359  0.00  0.00     0.202 HD
ATOM     36  H   LIG d   1       2.982  -3.390  -7.097  0.00  0.00     0.122 HD
ATOM     37  H   LIG d   1       3.938   0.211  -9.467  0.00  0.00     0.202 HD
ENDROOT
BRANCH  15  38
ATOM     38  C   LIG d   1       4.198  -0.730  -6.296  0.00  0.00     0.033 C 
ATOM     39  H   LIG d   1       4.218  -0.236  -7.268  0.00  0.00     0.046 H 
ATOM     40  H   LIG d   1       3.868  -1.762  -6.420  0.00  0.00     0.046 H 
BRANCH  38  41
ATOM     41  C   LIG d   1       3.231   0.006  -5.368  0.00  0.00     0.105 C 
ATOM     42  H   LIG d   1       2.745   0.814  -5.917  0.00  0.00     0.071 H 
ATOM     43  H   LIG d   1       2.477  -0.690  -5.002  0.00  0.00     0.071 H 
BRANCH  41  44
ATOM     44  O   LIG d   1       3.954   0.552  -4.263  0.00  0.00    -0.464 OA
BRANCH  44  45
ATOM     45  C   LIG d   1       3.485   0.281  -3.035  0.00  0.00     0.304 C 
ATOM     46  O   LIG d   1       3.432   1.154  -2.201  0.00  0.00    -0.251 OA
BRANCH  45  47
ATOM     47  C   LIG d   1       3.024  -1.114  -2.696  0.00  0.00     0.033 C 
ATOM     48  H   LIG d   1       2.046  -1.065  -2.215  0.00  0.00     0.034 H 
ATOM     49  H   LIG d   1       2.952  -1.705  -3.608  0.00  0.00     0.034 H 
ATOM     50  H   LIG d   1       3.740  -1.578  -2.016  0.00  0.00     0.034 H 
ENDBRANCH  45  47
ENDBRANCH  44  45
ENDBRANCH  41  44
ENDBRANCH  38  41
ENDBRANCH  15  38
BRANCH   9  51
ATOM     51  C   LIG d   1       5.074  -5.215  -8.745  0.00  0.00    -0.044 C 
ATOM     52  H   LIG d   1       5.746  -4.717  -8.045  0.00  0.00     0.025 H 
ATOM     53  H   LIG d   1       5.162  -6.295  -8.627  0.00  0.00     0.025 H 
ATOM     54  H   LIG d   1       5.342  -4.938  -9.764  0.00  0.00     0.025 H 
ENDBRANCH   9  51
BRANCH   1  55
ATOM     55  C   LIG d   1       4.300  -0.107 -12.344  0.00  0.00    -0.016 C 
ATOM     56  H   LIG d   1       5.179   0.123 -12.946  0.00  0.00     0.029 H 
ATOM     57  H   LIG d   1       3.638  -0.769 -12.904  0.00  0.00     0.029 H 
ATOM     58  H   LIG d   1       3.772   0.815 -12.103  0.00  0.00     0.029 H 
ENDBRANCH   1  55
TORSDOF 7
ENDMDL
MODEL 10
REMARK VINA RESULT:      -5.0      2.545      4.608
REMARK  7 active torsions:
REMARK  status: ('A' for Active; 'I' for Inactive)
REMARK    1  A    between atoms: C_1  and  C_2 
REMARK    2  A    between atoms: C_10  and  C_27 
REMARK    3  A    between atoms: N_16  and  C_21 
REMARK    4  A    between atoms: C_21  and  C_22 
REMARK    5  A    between atoms: C_22  and  O_23 
REMARK    6  A    between atoms: O_23  and  C_24 
REMARK    7  A    between atoms: C_24  and  C_26 
ROOT
ATOM      1  C   LIG d   1       3.597  -0.204  -5.108  0.00  0.00     0.018 C 
ATOM      2  H   LIG d   1       4.271   0.461  -4.568  0.00  0.00     0.092 H 
ATOM      3  C   LIG d   1       3.720   0.051  -6.588  0.00  0.00     0.089 A 
ATOM      4  C   LIG d   1       2.581   0.115  -7.368  0.00  0.00    -0.035 A 
ATOM      5  C   LIG d   1       2.704   0.351  -8.728  0.00  0.00    -0.058 A 
ATOM      6  C   LIG d   1       3.976   0.514  -9.256  0.00  0.00    -0.039 A 
ATOM      7  C   LIG d   1       5.070   0.436  -8.415  0.00  0.00     0.058 A 
ATOM      8  N   LIG d   1       4.913   0.211  -7.125  0.00  0.00    -0.249 NA
ATOM      9  C   LIG d   1       6.456   0.611  -8.978  0.00  0.00     0.047 C 
ATOM     10  H   LIG d   1       6.395   1.106  -9.948  0.00  0.00     0.052 H 
ATOM     11  N   LIG d   1       7.089  -0.705  -9.140  0.00  0.00    -0.308 N 
ATOM     12  C   LIG d   1       8.131  -0.916  -8.128  0.00  0.00    -0.002 C 
ATOM     13  C   LIG d   1       8.468  -2.406  -8.045  0.00  0.00    -0.028 C 
ATOM     14  C   LIG d   1       8.781  -2.779  -6.595  0.00  0.00     0.000 C 
ATOM     15  N   LIG d   1       7.688  -3.599  -6.054  0.00  0.00    -0.299 N 
ATOM     16  C   LIG d   1       7.355  -3.194  -4.682  0.00  0.00     0.004 C 
ATOM     17  C   LIG d   1       5.834  -3.140  -4.522  0.00  0.00     0.000 C 
ATOM     18  C   LIG d   1       5.377  -1.681  -4.471  0.00  0.00    -0.032 C 
ATOM     19  N   LIG d   1       3.952  -1.600  -4.821  0.00  0.00     0.233 N 
ATOM     20  H   LIG d   1       1.605  -0.018  -6.922  0.00  0.00     0.064 H 
ATOM     21  H   LIG d   1       1.831   0.405  -9.361  0.00  0.00     0.062 H 
ATOM     22  H   LIG d   1       4.110   0.699 -10.312  0.00  0.00     0.064 H 
ATOM     23  H   LIG d   1       9.026  -0.356  -8.405  0.00  0.00     0.043 H 
ATOM     24  H   LIG d   1       7.772  -0.571  -7.158  0.00  0.00     0.043 H 
ATOM     25  H   LIG d   1       7.618  -2.991  -8.395  0.00  0.00     0.029 H 
ATOM     26  H   LIG d   1       9.337  -2.617  -8.669  0.00  0.00     0.029 H 
ATOM     27  H   LIG d   1       9.712  -3.343  -6.557  0.00  0.00     0.043 H 
ATOM     28  H   LIG d   1       8.882  -1.871  -6.000  0.00  0.00     0.043 H 
ATOM     29  H   LIG d   1       7.768  -3.916  -3.978  0.00  0.00     0.043 H 
ATOM     30  H   LIG d   1       7.775  -2.209  -4.482  0.00  0.00     0.043 H 
ATOM     31  H   LIG d   1       5.361  -3.639  -5.369  0.00  0.00     0.033 H 
ATOM     32  H   LIG d   1       5.547  -3.643  -3.598  0.00  0.00     0.033 H 
ATOM     33  H   LIG d   1       5.527  -1.288  -3.465  0.00  0.00     0.081 H 
ATOM     34  H   LIG d   1       5.959  -1.093  -5.181  0.00  0.00     0.081 H 
ATOM     35  H   LIG d   1       3.398  -1.936  -4.048  0.00  0.00     0.202 HD
ATOM     36  H   LIG d   1       6.402  -1.442  -9.110  0.00  0.00     0.122 HD
ATOM     37  H   LIG d   1       3.774  -2.167  -5.636  0.00  0.00     0.202 HD
ENDROOT
BRANCH  15  38
ATOM     38  C   LIG d   1       6.506  -3.541  -6.924  0.00  0.00     0.033 C 
ATOM     39  H   LIG d   1       5.635  -3.255  -6.334  0.00  0.00     0.046 H 
ATOM     40  H   LIG d   1       6.670  -2.803  -7.709  0.00  0.00     0.046 H 
BRANCH  38  41
ATOM     41  C   LIG d   1       6.268  -4.914  -7.555  0.00  0.00     0.105 C 
ATOM     42  H   LIG d   1       6.685  -4.927  -8.562  0.00  0.00     0.071 H 
ATOM     43  H   LIG d   1       6.752  -5.680  -6.950  0.00  0.00     0.071 H 
BRANCH  41  44
ATOM     44  O   LIG d   1       4.864  -5.171  -7.619  0.00  0.00    -0.464 OA
BRANCH  44  45
ATOM     45  C   LIG d   1       4.305  -5.767  -6.554  0.00  0.00     0.304 C 
ATOM     46  O   LIG d   1       3.335  -5.277  -6.025  0.00  0.00    -0.251 OA
BRANCH  45  47
ATOM     47  C   LIG d   1       4.888  -7.050  -6.017  0.00  0.00     0.033 C 
ATOM     48  H   LIG d   1       5.913  -7.158  -6.371  0.00  0.00     0.034 H 
ATOM     49  H   LIG d   1       4.879  -7.025  -4.928  0.00  0.00     0.034 H 
ATOM     50  H   LIG d   1       4.292  -7.894  -6.367  0.00  0.00     0.034 H 
ENDBRANCH  45  47
ENDBRANCH  44  45
ENDBRANCH  41  44
ENDBRANCH  38  41
ENDBRANCH  15  38
BRANCH   9  51
ATOM     51  C   LIG d   1       7.291   1.465  -8.022  0.00  0.00    -0.044 C 
ATOM     52  H   LIG d   1       8.167   0.899  -7.700  0.00  0.00     0.025 H 
ATOM     53  H   LIG d   1       7.614   2.372  -8.533  0.00  0.00     0.025 H 
ATOM     54  H   LIG d   1       6.691   1.730  -7.152  0.00  0.00     0.025 H 
ENDBRANCH   9  51
BRANCH   1  55
ATOM     55  C   LIG d   1       2.156   0.057  -4.663  0.00  0.00    -0.016 C 
ATOM     56  H   LIG d   1       1.627  -0.892  -4.573  0.00  0.00     0.029 H 
ATOM     57  H   LIG d   1       2.161   0.565  -3.699  0.00  0.00     0.029 H 
ATOM     58  H   LIG d   1       1.656   0.684  -5.401  0.00  0.00     0.029 H 
ENDBRANCH   1  55
TORSDOF 7
ENDMDL
