MODEL 1
REMARK VINA RESULT:      -7.5      0.000      0.000
REMARK  5 active torsions:
REMARK  status: ('A' for Active; 'I' for Inactive)
REMARK    1  A    between atoms: C_1  and  C_2 
REMARK    2  A    between atoms: C_3  and  C_30 
REMARK    3  A    between atoms: C_9  and  O_29 
REMARK    4  A    between atoms: C_10  and  C_13 
REMARK    5  A    between atoms: C_13  and  N_62 
ROOT
ATOM      1  C   LIG d   1       5.403  -2.029  -8.248  0.00  0.00     0.116 A 
ATOM      2  C   LIG d   1       4.858  -2.560  -7.117  0.00  0.00     0.092 A 
ATOM      3  C   LIG d   1       4.304  -3.925  -7.172  0.00  0.00     0.202 A 
ATOM      4  O   LIG d   1       3.805  -4.453  -6.194  0.00  0.00    -0.286 OA
ATOM      5  C   LIG d   1       4.385  -4.622  -8.470  0.00  0.00     0.065 A 
ATOM      6  C   LIG d   1       3.885  -5.916  -8.629  0.00  0.00    -0.044 A 
ATOM      7  C   LIG d   1       3.981  -6.534  -9.842  0.00  0.00    -0.019 A 
ATOM      8  C   LIG d   1       4.564  -5.876 -10.923  0.00  0.00     0.129 A 
ATOM      9  C   LIG d   1       5.060  -4.591 -10.782  0.00  0.00     0.081 A 
ATOM     10  C   LIG d   1       4.975  -3.949  -9.554  0.00  0.00     0.150 A 
ATOM     11  O   LIG d   1       5.453  -2.699  -9.401  0.00  0.00    -0.459 OA
ATOM     12  H   LIG d   1       3.429  -6.427  -7.794  0.00  0.00     0.063 H 
ATOM     13  H   LIG d   1       3.599  -7.537  -9.966  0.00  0.00     0.065 H 
ENDROOT
BRANCH   9  14
ATOM     14  C   LIG d   1       5.689  -3.891 -11.960  0.00  0.00     0.001 C 
ATOM     15  H   LIG d   1       6.643  -3.458 -11.657  0.00  0.00     0.087 H 
ATOM     16  H   LIG d   1       5.853  -4.607 -12.763  0.00  0.00     0.087 H 
BRANCH  14  17
ATOM     17  N   LIG d   1       4.768  -2.837 -12.433  0.00  0.00     0.239 N 
ATOM     18  C   LIG d   1       3.832  -3.395 -13.429  0.00  0.00    -0.027 C 
ATOM     19  C   LIG d   1       2.853  -2.329 -13.899  0.00  0.00     0.018 C 
ATOM     20  H   LIG d   1       4.381  -3.781 -14.287  0.00  0.00     0.082 H 
ATOM     21  H   LIG d   1       3.277  -4.211 -12.965  0.00  0.00     0.082 H 
ATOM     22  H   LIG d   1       2.245  -2.759 -14.695  0.00  0.00     0.037 H 
ATOM     23  C   LIG d   1       1.930  -1.878 -12.780  0.00  0.00     0.034 C 
ATOM     24  C   LIG d   1       3.600  -1.118 -14.463  0.00  0.00    -0.031 C 
ATOM     25  N   LIG d   1       2.598  -0.990 -11.829  0.00  0.00    -0.311 N 
ATOM     26  H   LIG d   1       1.565  -2.756 -12.248  0.00  0.00     0.050 H 
ATOM     27  H   LIG d   1       1.079  -1.353 -13.215  0.00  0.00     0.050 H 
ATOM     28  C   LIG d   1       3.736  -0.317 -12.118  0.00  0.00     0.030 C 
ATOM     29  C   LIG d   1       1.996  -0.811 -10.627  0.00  0.00     0.252 C 
ATOM     30  C   LIG d   1       4.540  -0.602 -13.367  0.00  0.00     0.040 C 
ATOM     31  C   LIG d   1       4.198   0.651 -11.282  0.00  0.00    -0.042 C 
ATOM     32  H   LIG d   1       5.067   0.294 -13.695  0.00  0.00     0.042 H 
ATOM     33  C   LIG d   1       5.538  -1.722 -13.029  0.00  0.00    -0.023 C 
ATOM     34  H   LIG d   1       6.266  -1.360 -12.304  0.00  0.00     0.082 H 
ATOM     35  H   LIG d   1       6.050  -2.046 -13.936  0.00  0.00     0.082 H 
ATOM     36  C   LIG d   1       3.540   0.921 -10.077  0.00  0.00    -0.055 C 
ATOM     37  H   LIG d   1       5.079   1.214 -11.550  0.00  0.00     0.064 H 
ATOM     38  C   LIG d   1       2.444   0.181  -9.745  0.00  0.00     0.003 C 
ATOM     39  H   LIG d   1       3.894   1.703  -9.422  0.00  0.00     0.062 H 
ATOM     40  H   LIG d   1       1.926   0.358  -8.812  0.00  0.00     0.067 H 
ATOM     41  O   LIG d   1       1.055  -1.521 -10.313  0.00  0.00    -0.268 OA
ATOM     42  H   LIG d   1       2.890  -0.339 -14.737  0.00  0.00     0.028 H 
ATOM     43  H   LIG d   1       4.180  -1.415 -15.337  0.00  0.00     0.028 H 
ATOM     44  H   LIG d   1       4.231  -2.481 -11.633  0.00  0.00     0.204 HD
ENDBRANCH  14  17
ENDBRANCH   9  14
BRANCH   8  45
ATOM     45  O   LIG d   1       4.649  -6.501 -12.126  0.00  0.00    -0.506 OA
ATOM     46  H   LIG d   1       4.767  -7.459 -12.063  0.00  0.00     0.292 HD
ENDBRANCH   8  45
BRANCH   1  47
ATOM     47  C   LIG d   1       5.969  -0.635  -8.193  0.00  0.00    -0.005 C 
ATOM     48  H   LIG d   1       5.669  -0.085  -9.086  0.00  0.00     0.031 H 
ATOM     49  H   LIG d   1       5.591  -0.123  -7.308  0.00  0.00     0.031 H 
ATOM     50  H   LIG d   1       7.057  -0.686  -8.147  0.00  0.00     0.031 H 
ENDBRANCH   1  47
BRANCH   2  51
ATOM     51  C   LIG d   1       4.824  -1.784  -5.862  0.00  0.00     0.116 A 
ATOM     52  S   LIG d   1       5.960  -1.831  -4.483  0.00  0.00    -0.067 SA
ATOM     53  C   LIG d   1       5.147  -0.608  -3.483  0.00  0.00     0.040 A 
ATOM     54  C   LIG d   1       4.044  -0.244  -4.290  0.00  0.00     0.079 A 
ATOM     55  C   LIG d   1       5.379  -0.049  -2.251  0.00  0.00    -0.046 A 
ATOM     56  N   LIG d   1       3.952  -0.877  -5.476  0.00  0.00    -0.239 NA
ATOM     57  C   LIG d   1       3.179   0.741  -3.756  0.00  0.00    -0.035 A 
ATOM     58  C   LIG d   1       3.417   1.290  -2.534  0.00  0.00    -0.060 A 
ATOM     59  H   LIG d   1       2.319   1.062  -4.326  0.00  0.00     0.064 H 
ATOM     60  C   LIG d   1       4.510   0.911  -1.766  0.00  0.00    -0.061 A 
ATOM     61  H   LIG d   1       2.740   2.039  -2.152  0.00  0.00     0.062 H 
ATOM     62  H   LIG d   1       4.678   1.361  -0.799  0.00  0.00     0.062 H 
ATOM     63  H   LIG d   1       6.234  -0.355  -1.666  0.00  0.00     0.063 H 
ENDBRANCH   2  51
TORSDOF 5
ENDMDL
MODEL 2
REMARK VINA RESULT:      -7.2      8.371     10.643
REMARK  5 active torsions:
REMARK  status: ('A' for Active; 'I' for Inactive)
REMARK    1  A    between atoms: C_1  and  C_2 
REMARK    2  A    between atoms: C_3  and  C_30 
REMARK    3  A    between atoms: C_9  and  O_29 
REMARK    4  A    between atoms: C_10  and  C_13 
REMARK    5  A    between atoms: C_13  and  N_62 
ROOT
ATOM      1  C   LIG d   1       8.973   2.521  -6.097  0.00  0.00     0.116 A 
ATOM      2  C   LIG d   1       8.840   2.386  -4.748  0.00  0.00     0.092 A 
ATOM      3  C   LIG d   1       9.725   3.169  -3.867  0.00  0.00     0.202 A 
ATOM      4  O   LIG d   1       9.652   3.091  -2.654  0.00  0.00    -0.286 OA
ATOM      5  C   LIG d   1      10.702   4.055  -4.527  0.00  0.00     0.065 A 
ATOM      6  C   LIG d   1      11.590   4.835  -3.784  0.00  0.00    -0.044 A 
ATOM      7  C   LIG d   1      12.478   5.648  -4.426  0.00  0.00    -0.019 A 
ATOM      8  C   LIG d   1      12.511   5.693  -5.818  0.00  0.00     0.129 A 
ATOM      9  C   LIG d   1      11.642   4.922  -6.570  0.00  0.00     0.081 A 
ATOM     10  C   LIG d   1      10.727   4.093  -5.933  0.00  0.00     0.150 A 
ATOM     11  O   LIG d   1       9.874   3.336  -6.650  0.00  0.00    -0.459 OA
ATOM     12  H   LIG d   1      11.569   4.799  -2.705  0.00  0.00     0.063 H 
ATOM     13  H   LIG d   1      13.162   6.256  -3.852  0.00  0.00     0.065 H 
ENDROOT
BRANCH   9  14
ATOM     14  C   LIG d   1      11.687   4.981  -8.075  0.00  0.00     0.001 C 
ATOM     15  H   LIG d   1      12.717   4.855  -8.412  0.00  0.00     0.087 H 
ATOM     16  H   LIG d   1      11.069   4.185  -8.488  0.00  0.00     0.087 H 
BRANCH  14  17
ATOM     17  N   LIG d   1      11.153   6.285  -8.516  0.00  0.00     0.239 N 
ATOM     18  C   LIG d   1       9.773   6.122  -9.017  0.00  0.00    -0.027 C 
ATOM     19  C   LIG d   1       9.196   7.464  -9.441  0.00  0.00     0.018 C 
ATOM     20  H   LIG d   1       9.759   5.440  -9.867  0.00  0.00     0.082 H 
ATOM     21  H   LIG d   1       9.161   5.705  -8.217  0.00  0.00     0.082 H 
ATOM     22  H   LIG d   1       8.218   7.283  -9.886  0.00  0.00     0.037 H 
ATOM     23  C   LIG d   1       9.019   8.402  -8.259  0.00  0.00     0.034 C 
ATOM     24  C   LIG d   1      10.088   8.130 -10.492  0.00  0.00    -0.031 C 
ATOM     25  N   LIG d   1      10.287   8.975  -7.807  0.00  0.00    -0.311 N 
ATOM     26  H   LIG d   1       8.568   7.850  -7.435  0.00  0.00     0.050 H 
ATOM     27  H   LIG d   1       8.350   9.212  -8.548  0.00  0.00     0.050 H 
ATOM     28  C   LIG d   1      11.399   9.015  -8.579  0.00  0.00     0.030 C 
ATOM     29  C   LIG d   1      10.304   9.533  -6.572  0.00  0.00     0.252 C 
ATOM     30  C   LIG d   1      11.491   8.266  -9.889  0.00  0.00     0.040 C 
ATOM     31  C   LIG d   1      12.481   9.741  -8.194  0.00  0.00    -0.042 C 
ATOM     32  H   LIG d   1      12.163   8.779 -10.577  0.00  0.00     0.042 H 
ATOM     33  C   LIG d   1      12.014   6.853  -9.578  0.00  0.00    -0.023 C 
ATOM     34  H   LIG d   1      13.040   6.912  -9.216  0.00  0.00     0.082 H 
ATOM     35  H   LIG d   1      11.976   6.239 -10.478  0.00  0.00     0.082 H 
ATOM     36  C   LIG d   1      12.489  10.406  -6.963  0.00  0.00    -0.055 C 
ATOM     37  H   LIG d   1      13.342   9.805  -8.842  0.00  0.00     0.064 H 
ATOM     38  C   LIG d   1      11.402  10.292  -6.146  0.00  0.00     0.003 C 
ATOM     39  H   LIG d   1      13.340  11.000  -6.664  0.00  0.00     0.062 H 
ATOM     40  H   LIG d   1      11.388  10.782  -5.182  0.00  0.00     0.067 H 
ATOM     41  O   LIG d   1       9.353   9.373  -5.824  0.00  0.00    -0.268 OA
ATOM     42  H   LIG d   1       9.696   9.116 -10.740  0.00  0.00     0.028 H 
ATOM     43  H   LIG d   1      10.129   7.512 -11.389  0.00  0.00     0.028 H 
ATOM     44  H   LIG d   1      11.143   6.929  -7.715  0.00  0.00     0.204 HD
ENDBRANCH  14  17
ENDBRANCH   9  14
BRANCH   8  45
ATOM     45  O   LIG d   1      13.404   6.503  -6.444  0.00  0.00    -0.506 OA
ATOM     46  H   LIG d   1      14.328   6.295  -6.249  0.00  0.00     0.292 HD
ENDBRANCH   8  45
BRANCH   1  47
ATOM     47  C   LIG d   1       8.070   1.721  -6.999  0.00  0.00    -0.005 C 
ATOM     48  H   LIG d   1       8.668   1.028  -7.591  0.00  0.00     0.031 H 
ATOM     49  H   LIG d   1       7.357   1.160  -6.394  0.00  0.00     0.031 H 
ATOM     50  H   LIG d   1       7.531   2.395  -7.665  0.00  0.00     0.031 H 
ENDBRANCH   1  47
BRANCH   2  51
ATOM     51  C   LIG d   1       7.828   1.472  -4.180  0.00  0.00     0.116 A 
ATOM     52  S   LIG d   1       7.764  -0.312  -4.252  0.00  0.00    -0.067 SA
ATOM     53  C   LIG d   1       6.258  -0.518  -3.332  0.00  0.00     0.040 A 
ATOM     54  C   LIG d   1       5.906   0.818  -3.029  0.00  0.00     0.079 A 
ATOM     55  C   LIG d   1       5.502  -1.592  -2.932  0.00  0.00    -0.046 A 
ATOM     56  N   LIG d   1       6.749   1.765  -3.487  0.00  0.00    -0.239 NA
ATOM     57  C   LIG d   1       4.717   0.995  -2.281  0.00  0.00    -0.035 A 
ATOM     58  C   LIG d   1       3.974  -0.075  -1.888  0.00  0.00    -0.060 A 
ATOM     59  H   LIG d   1       4.395   1.992  -2.018  0.00  0.00     0.064 H 
ATOM     60  C   LIG d   1       4.348  -1.375  -2.201  0.00  0.00    -0.061 A 
ATOM     61  H   LIG d   1       3.072   0.090  -1.319  0.00  0.00     0.062 H 
ATOM     62  H   LIG d   1       3.742  -2.209  -1.878  0.00  0.00     0.062 H 
ATOM     63  H   LIG d   1       5.807  -2.597  -3.184  0.00  0.00     0.063 H 
ENDBRANCH   2  51
TORSDOF 5
ENDMDL
MODEL 3
REMARK VINA RESULT:      -7.0      6.542      9.453
REMARK  5 active torsions:
REMARK  status: ('A' for Active; 'I' for Inactive)
REMARK    1  A    between atoms: C_1  and  C_2 
REMARK    2  A    between atoms: C_3  and  C_30 
REMARK    3  A    between atoms: C_9  and  O_29 
REMARK    4  A    between atoms: C_10  and  C_13 
REMARK    5  A    between atoms: C_13  and  N_62 
ROOT
ATOM      1  C   LIG d   1       9.541   4.181  -4.050  0.00  0.00     0.116 A 
ATOM      2  C   LIG d   1       9.761   4.914  -5.177  0.00  0.00     0.092 A 
ATOM      3  C   LIG d   1       9.469   4.303  -6.487  0.00  0.00     0.202 A 
ATOM      4  O   LIG d   1       9.645   4.909  -7.529  0.00  0.00    -0.286 OA
ATOM      5  C   LIG d   1       8.952   2.922  -6.474  0.00  0.00     0.065 A 
ATOM      6  C   LIG d   1       8.650   2.251  -7.660  0.00  0.00    -0.044 A 
ATOM      7  C   LIG d   1       8.168   0.975  -7.613  0.00  0.00    -0.019 A 
ATOM      8  C   LIG d   1       7.988   0.336  -6.388  0.00  0.00     0.129 A 
ATOM      9  C   LIG d   1       8.288   0.985  -5.203  0.00  0.00     0.081 A 
ATOM     10  C   LIG d   1       8.775   2.286  -5.232  0.00  0.00     0.150 A 
ATOM     11  O   LIG d   1       9.071   2.932  -4.088  0.00  0.00    -0.459 OA
ATOM     12  H   LIG d   1       8.792   2.742  -8.612  0.00  0.00     0.063 H 
ATOM     13  H   LIG d   1       7.929   0.456  -8.530  0.00  0.00     0.065 H 
ENDROOT
BRANCH   9  14
ATOM     14  C   LIG d   1       8.089   0.283  -3.884  0.00  0.00     0.001 C 
ATOM     15  H   LIG d   1       8.763  -0.571  -3.822  0.00  0.00     0.087 H 
ATOM     16  H   LIG d   1       8.300   0.974  -3.069  0.00  0.00     0.087 H 
BRANCH  14  17
ATOM     17  N   LIG d   1       6.682  -0.159  -3.790  0.00  0.00     0.239 N 
ATOM     18  C   LIG d   1       5.909   0.792  -2.965  0.00  0.00    -0.027 C 
ATOM     19  C   LIG d   1       4.450   0.369  -2.889  0.00  0.00     0.018 C 
ATOM     20  H   LIG d   1       6.322   0.839  -1.958  0.00  0.00     0.082 H 
ATOM     21  H   LIG d   1       5.972   1.779  -3.423  0.00  0.00     0.082 H 
ATOM     22  H   LIG d   1       3.940   1.042  -2.201  0.00  0.00     0.037 H 
ATOM     23  C   LIG d   1       3.764   0.457  -4.242  0.00  0.00     0.034 C 
ATOM     24  C   LIG d   1       4.326  -1.058  -2.347  0.00  0.00    -0.031 C 
ATOM     25  N   LIG d   1       4.142  -0.642  -5.131  0.00  0.00    -0.311 N 
ATOM     26  H   LIG d   1       4.034   1.401  -4.713  0.00  0.00     0.050 H 
ATOM     27  H   LIG d   1       2.685   0.434  -4.093  0.00  0.00     0.050 H 
ATOM     28  C   LIG d   1       4.680  -1.802  -4.688  0.00  0.00     0.030 C 
ATOM     29  C   LIG d   1       3.879  -0.482  -6.451  0.00  0.00     0.252 C 
ATOM     30  C   LIG d   1       5.149  -1.973  -3.260  0.00  0.00     0.040 C 
ATOM     31  C   LIG d   1       4.816  -2.864  -5.525  0.00  0.00    -0.042 C 
ATOM     32  H   LIG d   1       5.061  -3.015  -2.951  0.00  0.00     0.042 H 
ATOM     33  C   LIG d   1       6.616  -1.514  -3.197  0.00  0.00    -0.023 C 
ATOM     34  H   LIG d   1       7.239  -2.192  -3.781  0.00  0.00     0.082 H 
ATOM     35  H   LIG d   1       6.955  -1.502  -2.161  0.00  0.00     0.082 H 
ATOM     36  C   LIG d   1       4.463  -2.755  -6.874  0.00  0.00    -0.055 C 
ATOM     37  H   LIG d   1       5.200  -3.799  -5.145  0.00  0.00     0.064 H 
ATOM     38  C   LIG d   1       4.005  -1.558  -7.340  0.00  0.00     0.003 C 
ATOM     39  H   LIG d   1       4.552  -3.604  -7.536  0.00  0.00     0.062 H 
ATOM     40  H   LIG d   1       3.740  -1.442  -8.382  0.00  0.00     0.067 H 
ATOM     41  O   LIG d   1       3.529   0.610  -6.869  0.00  0.00    -0.268 OA
ATOM     42  H   LIG d   1       3.282  -1.369  -2.356  0.00  0.00     0.028 H 
ATOM     43  H   LIG d   1       4.716  -1.102  -1.330  0.00  0.00     0.028 H 
ATOM     44  H   LIG d   1       6.279  -0.188  -4.734  0.00  0.00     0.204 HD
ENDBRANCH  14  17
ENDBRANCH   9  14
BRANCH   8  45
ATOM     45  O   LIG d   1       7.512  -0.936  -6.355  0.00  0.00    -0.506 OA
ATOM     46  H   LIG d   1       8.065  -1.549  -5.851  0.00  0.00     0.292 HD
ENDBRANCH   8  45
BRANCH   1  47
ATOM     47  C   LIG d   1       9.838   4.804  -2.711  0.00  0.00    -0.005 C 
ATOM     48  H   LIG d   1       8.925   4.840  -2.116  0.00  0.00     0.031 H 
ATOM     49  H   LIG d   1      10.587   4.207  -2.190  0.00  0.00     0.031 H 
ATOM     50  H   LIG d   1      10.216   5.815  -2.857  0.00  0.00     0.031 H 
ENDBRANCH   1  47
BRANCH   2  51
ATOM     51  C   LIG d   1      10.281   6.293  -5.088  0.00  0.00     0.116 A 
ATOM     52  S   LIG d   1      11.974   6.845  -4.941  0.00  0.00    -0.067 SA
ATOM     53  C   LIG d   1      11.638   8.588  -4.905  0.00  0.00     0.040 A 
ATOM     54  C   LIG d   1      10.228   8.625  -5.011  0.00  0.00     0.079 A 
ATOM     55  C   LIG d   1      12.403   9.725  -4.807  0.00  0.00    -0.046 A 
ATOM     56  N   LIG d   1       9.616   7.428  -5.103  0.00  0.00    -0.239 NA
ATOM     57  C   LIG d   1       9.636   9.912  -5.010  0.00  0.00    -0.035 A 
ATOM     58  C   LIG d   1      10.402  11.031  -4.913  0.00  0.00    -0.060 A 
ATOM     59  H   LIG d   1       8.563  10.005  -5.089  0.00  0.00     0.064 H 
ATOM     60  C   LIG d   1      11.785  10.962  -4.811  0.00  0.00    -0.061 A 
ATOM     61  H   LIG d   1       9.923  11.999  -4.916  0.00  0.00     0.062 H 
ATOM     62  H   LIG d   1      12.372  11.865  -4.735  0.00  0.00     0.062 H 
ATOM     63  H   LIG d   1      13.477   9.653  -4.728  0.00  0.00     0.063 H 
ENDBRANCH   2  51
TORSDOF 5
ENDMDL
MODEL 4
REMARK VINA RESULT:      -6.9      6.517      9.676
REMARK  5 active torsions:
REMARK  status: ('A' for Active; 'I' for Inactive)
REMARK    1  A    between atoms: C_1  and  C_2 
REMARK    2  A    between atoms: C_3  and  C_30 
REMARK    3  A    between atoms: C_9  and  O_29 
REMARK    4  A    between atoms: C_10  and  C_13 
REMARK    5  A    between atoms: C_13  and  N_62 
ROOT
ATOM      1  C   LIG d   1       7.080  -5.004  -5.235  0.00  0.00     0.116 A 
ATOM      2  C   LIG d   1       5.726  -4.857  -5.282  0.00  0.00     0.092 A 
ATOM      3  C   LIG d   1       4.897  -6.035  -5.598  0.00  0.00     0.202 A 
ATOM      4  O   LIG d   1       3.682  -5.965  -5.654  0.00  0.00    -0.286 OA
ATOM      5  C   LIG d   1       5.611  -7.302  -5.842  0.00  0.00     0.065 A 
ATOM      6  C   LIG d   1       4.919  -8.474  -6.155  0.00  0.00    -0.044 A 
ATOM      7  C   LIG d   1       5.609  -9.631  -6.369  0.00  0.00    -0.019 A 
ATOM      8  C   LIG d   1       7.001  -9.645  -6.290  0.00  0.00     0.129 A 
ATOM      9  C   LIG d   1       7.701  -8.491  -5.987  0.00  0.00     0.081 A 
ATOM     10  C   LIG d   1       7.014  -7.305  -5.760  0.00  0.00     0.150 A 
ATOM     11  O   LIG d   1       7.682  -6.173  -5.463  0.00  0.00    -0.459 OA
ATOM     12  H   LIG d   1       3.841  -8.465  -6.221  0.00  0.00     0.063 H 
ATOM     13  H   LIG d   1       5.075 -10.540  -6.606  0.00  0.00     0.065 H 
ENDROOT
BRANCH   9  14
ATOM     14  C   LIG d   1       9.206  -8.520  -5.903  0.00  0.00     0.001 C 
ATOM     15  H   LIG d   1       9.603  -9.129  -6.716  0.00  0.00     0.087 H 
ATOM     16  H   LIG d   1       9.594  -7.505  -5.985  0.00  0.00     0.087 H 
BRANCH  14  17
ATOM     17  N   LIG d   1       9.598  -9.082  -4.595  0.00  0.00     0.239 N 
ATOM     18  C   LIG d   1      10.237  -8.038  -3.768  0.00  0.00    -0.027 C 
ATOM     19  C   LIG d   1      10.614  -8.594  -2.403  0.00  0.00     0.018 C 
ATOM     20  H   LIG d   1      11.133  -7.662  -4.262  0.00  0.00     0.082 H 
ATOM     21  H   LIG d   1       9.531  -7.218  -3.638  0.00  0.00     0.082 H 
ATOM     22  H   LIG d   1      11.161  -7.820  -1.865  0.00  0.00     0.037 H 
ATOM     23  C   LIG d   1       9.389  -8.970  -1.588  0.00  0.00     0.034 C 
ATOM     24  C   LIG d   1      11.525  -9.816  -2.548  0.00  0.00    -0.031 C 
ATOM     25  N   LIG d   1       8.779 -10.220  -2.042  0.00  0.00    -0.311 N 
ATOM     26  H   LIG d   1       8.653  -8.170  -1.666  0.00  0.00     0.050 H 
ATOM     27  H   LIG d   1       9.679  -9.078  -0.543  0.00  0.00     0.050 H 
ATOM     28  C   LIG d   1       9.438 -11.137  -2.787  0.00  0.00     0.030 C 
ATOM     29  C   LIG d   1       7.510 -10.469  -1.634  0.00  0.00     0.252 C 
ATOM     30  C   LIG d   1      10.786 -10.845  -3.409  0.00  0.00     0.040 C 
ATOM     31  C   LIG d   1       8.901 -12.367  -3.003  0.00  0.00    -0.042 C 
ATOM     32  H   LIG d   1      11.367 -11.762  -3.508  0.00  0.00     0.042 H 
ATOM     33  C   LIG d   1      10.531 -10.216  -4.789  0.00  0.00    -0.023 C 
ATOM     34  H   LIG d   1      10.070 -10.950  -5.449  0.00  0.00     0.082 H 
ATOM     35  H   LIG d   1      11.473  -9.874  -5.219  0.00  0.00     0.082 H 
ATOM     36  C   LIG d   1       7.629 -12.683  -2.512  0.00  0.00    -0.055 C 
ATOM     37  H   LIG d   1       9.460 -13.106  -3.557  0.00  0.00     0.064 H 
ATOM     38  C   LIG d   1       6.928 -11.727  -1.836  0.00  0.00     0.003 C 
ATOM     39  H   LIG d   1       7.210 -13.666  -2.664  0.00  0.00     0.062 H 
ATOM     40  H   LIG d   1       5.937 -11.939  -1.460  0.00  0.00     0.067 H 
ATOM     41  O   LIG d   1       6.869  -9.587  -1.086  0.00  0.00    -0.268 OA
ATOM     42  H   LIG d   1      11.736 -10.239  -1.566  0.00  0.00     0.028 H 
ATOM     43  H   LIG d   1      12.457  -9.527  -3.034  0.00  0.00     0.028 H 
ATOM     44  H   LIG d   1       8.757  -9.422  -4.113  0.00  0.00     0.204 HD
ENDBRANCH  14  17
ENDBRANCH   9  14
BRANCH   8  45
ATOM     45  O   LIG d   1       7.676 -10.803  -6.510  0.00  0.00    -0.506 OA
ATOM     46  H   LIG d   1       8.287 -11.043  -5.800  0.00  0.00     0.292 HD
ENDBRANCH   8  45
BRANCH   1  47
ATOM     47  C   LIG d   1       7.929  -3.802  -4.912  0.00  0.00    -0.005 C 
ATOM     48  H   LIG d   1       8.460  -3.974  -3.975  0.00  0.00     0.031 H 
ATOM     49  H   LIG d   1       8.649  -3.640  -5.713  0.00  0.00     0.031 H 
ATOM     50  H   LIG d   1       7.291  -2.924  -4.811  0.00  0.00     0.031 H 
ENDBRANCH   1  47
BRANCH   2  51
ATOM     51  C   LIG d   1       5.102  -3.545  -5.021  0.00  0.00     0.116 A 
ATOM     52  S   LIG d   1       4.829  -2.189  -6.154  0.00  0.00    -0.067 SA
ATOM     53  C   LIG d   1       4.055  -1.086  -4.997  0.00  0.00     0.040 A 
ATOM     54  C   LIG d   1       4.060  -1.847  -3.805  0.00  0.00     0.079 A 
ATOM     55  C   LIG d   1       3.535   0.184  -5.063  0.00  0.00    -0.046 A 
ATOM     56  N   LIG d   1       4.601  -3.077  -3.898  0.00  0.00    -0.239 NA
ATOM     57  C   LIG d   1       3.495  -1.225  -2.666  0.00  0.00    -0.035 A 
ATOM     58  C   LIG d   1       2.982   0.033  -2.740  0.00  0.00    -0.060 A 
ATOM     59  H   LIG d   1       3.469  -1.756  -1.726  0.00  0.00     0.064 H 
ATOM     60  C   LIG d   1       2.991   0.754  -3.926  0.00  0.00    -0.061 A 
ATOM     61  H   LIG d   1       2.557   0.482  -1.855  0.00  0.00     0.062 H 
ATOM     62  H   LIG d   1       2.578   1.751  -3.961  0.00  0.00     0.062 H 
ATOM     63  H   LIG d   1       3.550   0.731  -5.993  0.00  0.00     0.063 H 
ENDBRANCH   2  51
TORSDOF 5
ENDMDL
MODEL 5
REMARK VINA RESULT:      -6.9      4.236      5.755
REMARK  5 active torsions:
REMARK  status: ('A' for Active; 'I' for Inactive)
REMARK    1  A    between atoms: C_1  and  C_2 
REMARK    2  A    between atoms: C_3  and  C_30 
REMARK    3  A    between atoms: C_9  and  O_29 
REMARK    4  A    between atoms: C_10  and  C_13 
REMARK    5  A    between atoms: C_13  and  N_62 
ROOT
ATOM      1  C   LIG d   1       8.327   0.248  -5.554  0.00  0.00     0.116 A 
ATOM      2  C   LIG d   1       7.969   1.113  -4.565  0.00  0.00     0.092 A 
ATOM      3  C   LIG d   1       6.773   0.809  -3.758  0.00  0.00     0.202 A 
ATOM      4  O   LIG d   1       6.403   1.545  -2.860  0.00  0.00    -0.286 OA
ATOM      5  C   LIG d   1       6.046  -0.430  -4.091  0.00  0.00     0.065 A 
ATOM      6  C   LIG d   1       4.898  -0.806  -3.391  0.00  0.00    -0.044 A 
ATOM      7  C   LIG d   1       4.252  -1.962  -3.720  0.00  0.00    -0.019 A 
ATOM      8  C   LIG d   1       4.726  -2.761  -4.758  0.00  0.00     0.129 A 
ATOM      9  C   LIG d   1       5.859  -2.399  -5.466  0.00  0.00     0.081 A 
ATOM     10  C   LIG d   1       6.533  -1.229  -5.140  0.00  0.00     0.150 A 
ATOM     11  O   LIG d   1       7.637  -0.863  -5.819  0.00  0.00    -0.459 OA
ATOM     12  H   LIG d   1       4.526  -0.186  -2.588  0.00  0.00     0.063 H 
ATOM     13  H   LIG d   1       3.366  -2.257  -3.176  0.00  0.00     0.065 H 
ENDROOT
BRANCH   9  14
ATOM     14  C   LIG d   1       6.362  -3.273  -6.586  0.00  0.00     0.001 C 
ATOM     15  H   LIG d   1       7.450  -3.217  -6.630  0.00  0.00     0.087 H 
ATOM     16  H   LIG d   1       6.057  -4.303  -6.408  0.00  0.00     0.087 H 
BRANCH  14  17
ATOM     17  N   LIG d   1       5.768  -2.806  -7.856  0.00  0.00     0.239 N 
ATOM     18  C   LIG d   1       4.901  -3.858  -8.424  0.00  0.00    -0.027 C 
ATOM     19  C   LIG d   1       4.253  -3.378  -9.714  0.00  0.00     0.018 C 
ATOM     20  H   LIG d   1       5.483  -4.756  -8.628  0.00  0.00     0.082 H 
ATOM     21  H   LIG d   1       4.122  -4.095  -7.699  0.00  0.00     0.082 H 
ATOM     22  H   LIG d   1       3.700  -4.212 -10.143  0.00  0.00     0.037 H 
ATOM     23  C   LIG d   1       3.283  -2.235  -9.467  0.00  0.00     0.034 C 
ATOM     24  C   LIG d   1       5.316  -2.935 -10.723  0.00  0.00    -0.031 C 
ATOM     25  N   LIG d   1       3.968  -0.966  -9.219  0.00  0.00    -0.311 N 
ATOM     26  H   LIG d   1       2.664  -2.477  -8.604  0.00  0.00     0.050 H 
ATOM     27  H   LIG d   1       2.640  -2.123 -10.340  0.00  0.00     0.050 H 
ATOM     28  C   LIG d   1       5.252  -0.735  -9.577  0.00  0.00     0.030 C 
ATOM     29  C   LIG d   1       3.238   0.025  -8.650  0.00  0.00     0.252 C 
ATOM     30  C   LIG d   1       6.162  -1.844 -10.056  0.00  0.00     0.040 C 
ATOM     31  C   LIG d   1       5.772   0.520  -9.515  0.00  0.00    -0.042 C 
ATOM     32  H   LIG d   1       6.910  -1.454 -10.746  0.00  0.00     0.042 H 
ATOM     33  C   LIG d   1       6.838  -2.456  -8.818  0.00  0.00    -0.023 C 
ATOM     34  H   LIG d   1       7.504  -1.724  -8.363  0.00  0.00     0.082 H 
ATOM     35  H   LIG d   1       7.405  -3.342  -9.106  0.00  0.00     0.082 H 
ATOM     36  C   LIG d   1       5.007   1.581  -9.019  0.00  0.00    -0.055 C 
ATOM     37  H   LIG d   1       6.783   0.698  -9.850  0.00  0.00     0.064 H 
ATOM     38  C   LIG d   1       3.742   1.331  -8.575  0.00  0.00     0.003 C 
ATOM     39  H   LIG d   1       5.411   2.582  -8.988  0.00  0.00     0.062 H 
ATOM     40  H   LIG d   1       3.135   2.130  -8.172  0.00  0.00     0.067 H 
ATOM     41  O   LIG d   1       2.131  -0.222  -8.200  0.00  0.00    -0.268 OA
ATOM     42  H   LIG d   1       4.836  -2.536 -11.616  0.00  0.00     0.028 H 
ATOM     43  H   LIG d   1       5.949  -3.782 -10.989  0.00  0.00     0.028 H 
ATOM     44  H   LIG d   1       5.201  -1.970  -7.670  0.00  0.00     0.204 HD
ENDBRANCH  14  17
ENDBRANCH   9  14
BRANCH   8  45
ATOM     45  O   LIG d   1       4.071  -3.907  -5.079  0.00  0.00    -0.506 OA
ATOM     46  H   LIG d   1       3.447  -3.810  -5.812  0.00  0.00     0.292 HD
ENDBRANCH   8  45
BRANCH   1  47
ATOM     47  C   LIG d   1       9.549   0.557  -6.379  0.00  0.00    -0.005 C 
ATOM     48  H   LIG d   1      10.064   1.420  -5.958  0.00  0.00     0.031 H 
ATOM     49  H   LIG d   1      10.219  -0.303  -6.373  0.00  0.00     0.031 H 
ATOM     50  H   LIG d   1       9.250   0.778  -7.404  0.00  0.00     0.031 H 
ENDBRANCH   1  47
BRANCH   2  51
ATOM     51  C   LIG d   1       8.762   2.331  -4.306  0.00  0.00     0.116 A 
ATOM     52  S   LIG d   1      10.178   2.540  -3.235  0.00  0.00    -0.067 SA
ATOM     53  C   LIG d   1      10.448   4.266  -3.556  0.00  0.00     0.040 A 
ATOM     54  C   LIG d   1       9.416   4.566  -4.477  0.00  0.00     0.079 A 
ATOM     55  C   LIG d   1      11.351   5.206  -3.124  0.00  0.00    -0.046 A 
ATOM     56  N   LIG d   1       8.611   3.538  -4.809  0.00  0.00    -0.239 NA
ATOM     57  C   LIG d   1       9.361   5.903  -4.937  0.00  0.00    -0.035 A 
ATOM     58  C   LIG d   1      10.260   6.827  -4.504  0.00  0.00    -0.060 A 
ATOM     59  H   LIG d   1       8.596   6.193  -5.643  0.00  0.00     0.064 H 
ATOM     60  C   LIG d   1      11.262   6.502  -3.600  0.00  0.00    -0.061 A 
ATOM     61  H   LIG d   1      10.193   7.840  -4.873  0.00  0.00     0.062 H 
ATOM     62  H   LIG d   1      11.964   7.253  -3.271  0.00  0.00     0.062 H 
ATOM     63  H   LIG d   1      12.123   4.936  -2.421  0.00  0.00     0.063 H 
ENDBRANCH   2  51
TORSDOF 5
ENDMDL
MODEL 6
REMARK VINA RESULT:      -6.6      3.275      5.026
REMARK  5 active torsions:
REMARK  status: ('A' for Active; 'I' for Inactive)
REMARK    1  A    between atoms: C_1  and  C_2 
REMARK    2  A    between atoms: C_3  and  C_30 
REMARK    3  A    between atoms: C_9  and  O_29 
REMARK    4  A    between atoms: C_10  and  C_13 
REMARK    5  A    between atoms: C_13  and  N_62 
ROOT
ATOM      1  C   LIG d   1       3.900  -2.862  -8.120  0.00  0.00     0.116 A 
ATOM      2  C   LIG d   1       3.556  -1.586  -7.789  0.00  0.00     0.092 A 
ATOM      3  C   LIG d   1       2.693  -0.824  -8.709  0.00  0.00     0.202 A 
ATOM      4  O   LIG d   1       2.352   0.320  -8.466  0.00  0.00    -0.286 OA
ATOM      5  C   LIG d   1       2.261  -1.515  -9.938  0.00  0.00     0.065 A 
ATOM      6  C   LIG d   1       1.447  -0.880 -10.878  0.00  0.00    -0.044 A 
ATOM      7  C   LIG d   1       1.060  -1.550 -12.002  0.00  0.00    -0.019 A 
ATOM      8  C   LIG d   1       1.484  -2.859 -12.221  0.00  0.00     0.129 A 
ATOM      9  C   LIG d   1       2.296  -3.500 -11.302  0.00  0.00     0.081 A 
ATOM     10  C   LIG d   1       2.694  -2.835 -10.150  0.00  0.00     0.150 A 
ATOM     11  O   LIG d   1       3.484  -3.446  -9.245  0.00  0.00    -0.459 OA
ATOM     12  H   LIG d   1       1.120   0.137 -10.712  0.00  0.00     0.063 H 
ATOM     13  H   LIG d   1       0.426  -1.061 -12.728  0.00  0.00     0.065 H 
ENDROOT
BRANCH   9  14
ATOM     14  C   LIG d   1       2.747  -4.917 -11.551  0.00  0.00     0.001 C 
ATOM     15  H   LIG d   1       3.236  -4.976 -12.524  0.00  0.00     0.087 H 
ATOM     16  H   LIG d   1       3.448  -5.217 -10.773  0.00  0.00     0.087 H 
BRANCH  14  17
ATOM     17  N   LIG d   1       1.568  -5.806 -11.508  0.00  0.00     0.239 N 
ATOM     18  C   LIG d   1       1.579  -6.599 -10.263  0.00  0.00    -0.027 C 
ATOM     19  C   LIG d   1       0.351  -7.493 -10.187  0.00  0.00     0.018 C 
ATOM     20  H   LIG d   1       2.476  -7.217 -10.218  0.00  0.00     0.082 H 
ATOM     21  H   LIG d   1       1.576  -5.914  -9.415  0.00  0.00     0.082 H 
ATOM     22  H   LIG d   1       0.448  -8.123  -9.303  0.00  0.00     0.037 H 
ATOM     23  C   LIG d   1      -0.929  -6.685 -10.063  0.00  0.00     0.034 C 
ATOM     24  C   LIG d   1       0.264  -8.400 -11.417  0.00  0.00    -0.031 C 
ATOM     25  N   LIG d   1      -1.327  -6.073 -11.331  0.00  0.00    -0.311 N 
ATOM     26  H   LIG d   1      -0.781  -5.900  -9.323  0.00  0.00     0.050 H 
ATOM     27  H   LIG d   1      -1.730  -7.341  -9.722  0.00  0.00     0.050 H 
ATOM     28  C   LIG d   1      -0.878  -6.501 -12.533  0.00  0.00     0.030 C 
ATOM     29  C   LIG d   1      -2.233  -5.065 -11.269  0.00  0.00     0.252 C 
ATOM     30  C   LIG d   1       0.251  -7.499 -12.657  0.00  0.00     0.040 C 
ATOM     31  C   LIG d   1      -1.436  -6.039 -13.684  0.00  0.00    -0.042 C 
ATOM     32  H   LIG d   1       0.141  -8.089 -13.567  0.00  0.00     0.042 H 
ATOM     33  C   LIG d   1       1.569  -6.706 -12.683  0.00  0.00    -0.023 C 
ATOM     34  H   LIG d   1       1.621  -6.110 -13.593  0.00  0.00     0.082 H 
ATOM     35  H   LIG d   1       2.414  -7.394 -12.644  0.00  0.00     0.082 H 
ATOM     36  C   LIG d   1      -2.440  -5.066 -13.645  0.00  0.00    -0.055 C 
ATOM     37  H   LIG d   1      -1.102  -6.427 -14.634  0.00  0.00     0.064 H 
ATOM     38  C   LIG d   1      -2.831  -4.570 -12.435  0.00  0.00     0.003 C 
ATOM     39  H   LIG d   1      -2.900  -4.713 -14.557  0.00  0.00     0.062 H 
ATOM     40  H   LIG d   1      -3.593  -3.805 -12.378  0.00  0.00     0.067 H 
ATOM     41  O   LIG d   1      -2.529  -4.585 -10.187  0.00  0.00    -0.268 OA
ATOM     42  H   LIG d   1      -0.652  -8.989 -11.379  0.00  0.00     0.028 H 
ATOM     43  H   LIG d   1       1.129  -9.063 -11.450  0.00  0.00     0.028 H 
ATOM     44  H   LIG d   1       0.717  -5.230 -11.530  0.00  0.00     0.204 HD
ENDBRANCH  14  17
ENDBRANCH   9  14
BRANCH   8  45
ATOM     45  O   LIG d   1       1.096  -3.512 -13.347  0.00  0.00    -0.506 OA
ATOM     46  H   LIG d   1       1.827  -3.900 -13.848  0.00  0.00     0.292 HD
ENDBRANCH   8  45
BRANCH   1  47
ATOM     47  C   LIG d   1       4.782  -3.642  -7.181  0.00  0.00    -0.005 C 
ATOM     48  H   LIG d   1       4.174  -4.344  -6.611  0.00  0.00     0.031 H 
ATOM     49  H   LIG d   1       5.529  -4.191  -7.754  0.00  0.00     0.031 H 
ATOM     50  H   LIG d   1       5.281  -2.956  -6.497  0.00  0.00     0.031 H 
ENDBRANCH   1  47
BRANCH   2  51
ATOM     51  C   LIG d   1       4.039  -0.979  -6.532  0.00  0.00     0.116 A 
ATOM     52  S   LIG d   1       5.702  -0.502  -6.084  0.00  0.00    -0.067 SA
ATOM     53  C   LIG d   1       5.329   0.110  -4.460  0.00  0.00     0.040 A 
ATOM     54  C   LIG d   1       3.932  -0.097  -4.373  0.00  0.00     0.079 A 
ATOM     55  C   LIG d   1       6.059   0.664  -3.437  0.00  0.00    -0.046 A 
ATOM     56  N   LIG d   1       3.353  -0.646  -5.459  0.00  0.00    -0.239 NA
ATOM     57  C   LIG d   1       3.316   0.301  -3.162  0.00  0.00    -0.035 A 
ATOM     58  C   LIG d   1       4.048   0.849  -2.155  0.00  0.00    -0.060 A 
ATOM     59  H   LIG d   1       2.251   0.169  -3.037  0.00  0.00     0.064 H 
ATOM     60  C   LIG d   1       5.418   1.040  -2.270  0.00  0.00    -0.061 A 
ATOM     61  H   LIG d   1       3.551   1.143  -1.243  0.00  0.00     0.062 H 
ATOM     62  H   LIG d   1       5.978   1.477  -1.457  0.00  0.00     0.062 H 
ATOM     63  H   LIG d   1       7.124   0.805  -3.543  0.00  0.00     0.063 H 
ENDBRANCH   2  51
TORSDOF 5
ENDMDL
MODEL 7
REMARK VINA RESULT:      -6.5      9.661     14.252
REMARK  5 active torsions:
REMARK  status: ('A' for Active; 'I' for Inactive)
REMARK    1  A    between atoms: C_1  and  C_2 
REMARK    2  A    between atoms: C_3  and  C_30 
REMARK    3  A    between atoms: C_9  and  O_29 
REMARK    4  A    between atoms: C_10  and  C_13 
REMARK    5  A    between atoms: C_13  and  N_62 
ROOT
ATOM      1  C   LIG d   1       9.574   5.558  -9.031  0.00  0.00     0.116 A 
ATOM      2  C   LIG d   1       9.758   6.529  -9.969  0.00  0.00     0.092 A 
ATOM      3  C   LIG d   1       9.849   7.932  -9.526  0.00  0.00     0.202 A 
ATOM      4  O   LIG d   1      10.013   8.843 -10.317  0.00  0.00    -0.286 OA
ATOM      5  C   LIG d   1       9.734   8.179  -8.076  0.00  0.00     0.065 A 
ATOM      6  C   LIG d   1       9.803   9.472  -7.554  0.00  0.00    -0.044 A 
ATOM      7  C   LIG d   1       9.698   9.665  -6.207  0.00  0.00    -0.019 A 
ATOM      8  C   LIG d   1       9.512   8.580  -5.353  0.00  0.00     0.129 A 
ATOM      9  C   LIG d   1       9.437   7.292  -5.856  0.00  0.00     0.081 A 
ATOM     10  C   LIG d   1       9.547   7.077  -7.224  0.00  0.00     0.150 A 
ATOM     11  O   LIG d   1       9.475   5.829  -7.728  0.00  0.00    -0.459 OA
ATOM     12  H   LIG d   1       9.943  10.315  -8.214  0.00  0.00     0.063 H 
ATOM     13  H   LIG d   1       9.756  10.664  -5.801  0.00  0.00     0.065 H 
ENDROOT
BRANCH   9  14
ATOM     14  C   LIG d   1       9.236   6.127  -4.921  0.00  0.00     0.001 C 
ATOM     15  H   LIG d   1       8.259   6.209  -4.443  0.00  0.00     0.087 H 
ATOM     16  H   LIG d   1       9.288   5.196  -5.485  0.00  0.00     0.087 H 
BRANCH  14  17
ATOM     17  N   LIG d   1      10.311   6.139  -3.909  0.00  0.00     0.239 N 
ATOM     18  C   LIG d   1      11.574   5.662  -4.508  0.00  0.00    -0.027 C 
ATOM     19  C   LIG d   1      12.700   5.704  -3.486  0.00  0.00     0.018 C 
ATOM     20  H   LIG d   1      11.457   4.642  -4.872  0.00  0.00     0.082 H 
ATOM     21  H   LIG d   1      11.827   6.312  -5.346  0.00  0.00     0.082 H 
ATOM     22  H   LIG d   1      13.584   5.260  -3.943  0.00  0.00     0.037 H 
ATOM     23  C   LIG d   1      13.036   7.126  -3.073  0.00  0.00     0.034 C 
ATOM     24  C   LIG d   1      12.336   4.884  -2.245  0.00  0.00    -0.031 C 
ATOM     25  N   LIG d   1      12.045   7.689  -2.155  0.00  0.00    -0.311 N 
ATOM     26  H   LIG d   1      13.086   7.750  -3.964  0.00  0.00     0.050 H 
ATOM     27  H   LIG d   1      14.010   7.132  -2.585  0.00  0.00     0.050 H 
ATOM     28  C   LIG d   1      11.187   6.929  -1.434  0.00  0.00     0.030 C 
ATOM     29  C   LIG d   1      12.046   9.036  -2.000  0.00  0.00     0.252 C 
ATOM     30  C   LIG d   1      11.024   5.447  -1.687  0.00  0.00     0.040 C 
ATOM     31  C   LIG d   1      10.436   7.484  -0.447  0.00  0.00    -0.042 C 
ATOM     32  H   LIG d   1      10.737   4.933  -0.770  0.00  0.00     0.042 H 
ATOM     33  C   LIG d   1       9.938   5.279  -2.763  0.00  0.00    -0.023 C 
ATOM     34  H   LIG d   1       8.976   5.604  -2.368  0.00  0.00     0.082 H 
ATOM     35  H   LIG d   1       9.878   4.233  -3.066  0.00  0.00     0.082 H 
ATOM     36  C   LIG d   1      10.489   8.861  -0.202  0.00  0.00    -0.055 C 
ATOM     37  H   LIG d   1       9.793   6.858   0.154  0.00  0.00     0.064 H 
ATOM     38  C   LIG d   1      11.287   9.639  -0.988  0.00  0.00     0.003 C 
ATOM     39  H   LIG d   1       9.908   9.300   0.595  0.00  0.00     0.062 H 
ATOM     40  H   LIG d   1      11.334  10.708  -0.832  0.00  0.00     0.067 H 
ATOM     41  O   LIG d   1      12.715   9.729  -2.749  0.00  0.00    -0.268 OA
ATOM     42  H   LIG d   1      13.124   4.974  -1.498  0.00  0.00     0.028 H 
ATOM     43  H   LIG d   1      12.203   3.838  -2.519  0.00  0.00     0.028 H 
ATOM     44  H   LIG d   1      10.442   7.101  -3.574  0.00  0.00     0.204 HD
ENDBRANCH  14  17
ENDBRANCH   9  14
BRANCH   8  45
ATOM     45  O   LIG d   1       9.405   8.786  -4.016  0.00  0.00    -0.506 OA
ATOM     46  H   LIG d   1       8.622   8.381  -3.617  0.00  0.00     0.292 HD
ENDBRANCH   8  45
BRANCH   1  47
ATOM     47  C   LIG d   1       9.480   4.123  -9.482  0.00  0.00    -0.005 C 
ATOM     48  H   LIG d   1       9.868   4.035 -10.497  0.00  0.00     0.031 H 
ATOM     49  H   LIG d   1      10.066   3.493  -8.813  0.00  0.00     0.031 H 
ATOM     50  H   LIG d   1       8.439   3.804  -9.463  0.00  0.00     0.031 H 
ENDBRANCH   1  47
BRANCH   2  51
ATOM     51  C   LIG d   1       9.862   6.182 -11.400  0.00  0.00     0.116 A 
ATOM     52  S   LIG d   1      11.324   5.811 -12.360  0.00  0.00    -0.067 SA
ATOM     53  C   LIG d   1      10.506   5.528 -13.910  0.00  0.00     0.040 A 
ATOM     54  C   LIG d   1       9.147   5.741 -13.578  0.00  0.00     0.079 A 
ATOM     55  C   LIG d   1      10.913   5.189 -15.177  0.00  0.00    -0.046 A 
ATOM     56  N   LIG d   1       8.903   6.063 -12.293  0.00  0.00    -0.239 NA
ATOM     57  C   LIG d   1       8.216   5.585 -14.632  0.00  0.00    -0.035 A 
ATOM     58  C   LIG d   1       8.628   5.250 -15.884  0.00  0.00    -0.060 A 
ATOM     59  H   LIG d   1       7.163   5.734 -14.440  0.00  0.00     0.064 H 
ATOM     60  C   LIG d   1       9.970   5.047 -16.179  0.00  0.00    -0.061 A 
ATOM     61  H   LIG d   1       7.895   5.138 -16.668  0.00  0.00     0.062 H 
ATOM     62  H   LIG d   1      10.273   4.781 -17.180  0.00  0.00     0.062 H 
ATOM     63  H   LIG d   1      11.960   5.036 -15.390  0.00  0.00     0.063 H 
ENDBRANCH   2  51
TORSDOF 5
ENDMDL
MODEL 8
REMARK VINA RESULT:      -6.4     11.894     16.175
REMARK  5 active torsions:
REMARK  status: ('A' for Active; 'I' for Inactive)
REMARK    1  A    between atoms: C_1  and  C_2 
REMARK    2  A    between atoms: C_3  and  C_30 
REMARK    3  A    between atoms: C_9  and  O_29 
REMARK    4  A    between atoms: C_10  and  C_13 
REMARK    5  A    between atoms: C_13  and  N_62 
ROOT
ATOM      1  C   LIG d   1       9.575   9.289  -6.169  0.00  0.00     0.116 A 
ATOM      2  C   LIG d   1      10.109   9.913  -7.257  0.00  0.00     0.092 A 
ATOM      3  C   LIG d   1      10.245  11.380  -7.235  0.00  0.00     0.202 A 
ATOM      4  O   LIG d   1      10.715  11.993  -8.177  0.00  0.00    -0.286 OA
ATOM      5  C   LIG d   1       9.787  12.071  -6.015  0.00  0.00     0.065 A 
ATOM      6  C   LIG d   1       9.868  13.459  -5.896  0.00  0.00    -0.044 A 
ATOM      7  C   LIG d   1       9.440  14.067  -4.751  0.00  0.00    -0.019 A 
ATOM      8  C   LIG d   1       8.913  13.309  -3.707  0.00  0.00     0.129 A 
ATOM      9  C   LIG d   1       8.821  11.932  -3.812  0.00  0.00     0.081 A 
ATOM     10  C   LIG d   1       9.256  11.296  -4.968  0.00  0.00     0.150 A 
ATOM     11  O   LIG d   1       9.174   9.957  -5.086  0.00  0.00    -0.459 OA
ATOM     12  H   LIG d   1      10.273  14.050  -6.704  0.00  0.00     0.063 H 
ATOM     13  H   LIG d   1       9.506  15.141  -4.654  0.00  0.00     0.065 H 
ENDROOT
BRANCH   9  14
ATOM     14  C   LIG d   1       8.249  11.123  -2.676  0.00  0.00     0.001 C 
ATOM     15  H   LIG d   1       7.778  11.793  -1.955  0.00  0.00     0.087 H 
ATOM     16  H   LIG d   1       7.506  10.427  -3.064  0.00  0.00     0.087 H 
BRANCH  14  17
ATOM     17  N   LIG d   1       9.341  10.360  -2.039  0.00  0.00     0.239 N 
ATOM     18  C   LIG d   1       8.821   9.607  -0.880  0.00  0.00    -0.027 C 
ATOM     19  C   LIG d   1       9.928   8.787  -0.235  0.00  0.00     0.018 C 
ATOM     20  H   LIG d   1       8.406  10.293  -0.141  0.00  0.00     0.082 H 
ATOM     21  H   LIG d   1       8.034   8.938  -1.225  0.00  0.00     0.082 H 
ATOM     22  H   LIG d   1       9.523   8.324   0.665  0.00  0.00     0.037 H 
ATOM     23  C   LIG d   1      10.426   7.687  -1.157  0.00  0.00     0.034 C 
ATOM     24  C   LIG d   1      11.101   9.683   0.171  0.00  0.00    -0.031 C 
ATOM     25  N   LIG d   1      11.288   8.201  -2.222  0.00  0.00    -0.311 N 
ATOM     26  H   LIG d   1       9.569   7.188  -1.606  0.00  0.00     0.050 H 
ATOM     27  H   LIG d   1      10.987   6.961  -0.569  0.00  0.00     0.050 H 
ATOM     28  C   LIG d   1      11.907   9.402  -2.159  0.00  0.00     0.030 C 
ATOM     29  C   LIG d   1      11.500   7.388  -3.287  0.00  0.00     0.252 C 
ATOM     30  C   LIG d   1      11.580  10.417  -1.087  0.00  0.00     0.040 C 
ATOM     31  C   LIG d   1      12.857   9.739  -3.072  0.00  0.00    -0.042 C 
ATOM     32  H   LIG d   1      12.449  11.037  -0.869  0.00  0.00     0.042 H 
ATOM     33  C   LIG d   1      10.417  11.280  -1.606  0.00  0.00    -0.023 C 
ATOM     34  H   LIG d   1      10.749  11.871  -2.459  0.00  0.00     0.082 H 
ATOM     35  H   LIG d   1      10.066  11.941  -0.813  0.00  0.00     0.082 H 
ATOM     36  C   LIG d   1      13.163   8.875  -4.129  0.00  0.00    -0.055 C 
ATOM     37  H   LIG d   1      13.378  10.680  -2.981  0.00  0.00     0.064 H 
ATOM     38  C   LIG d   1      12.475   7.703  -4.243  0.00  0.00     0.003 C 
ATOM     39  H   LIG d   1      13.931   9.132  -4.844  0.00  0.00     0.062 H 
ATOM     40  H   LIG d   1      12.680   7.025  -5.059  0.00  0.00     0.067 H 
ATOM     41  O   LIG d   1      10.835   6.372  -3.412  0.00  0.00    -0.268 OA
ATOM     42  H   LIG d   1      11.910   9.074   0.574  0.00  0.00     0.028 H 
ATOM     43  H   LIG d   1      10.774  10.405   0.919  0.00  0.00     0.028 H 
ATOM     44  H   LIG d   1       9.725   9.696  -2.723  0.00  0.00     0.204 HD
ENDBRANCH  14  17
ENDBRANCH   9  14
BRANCH   8  45
ATOM     45  O   LIG d   1       8.486  13.926  -2.575  0.00  0.00    -0.506 OA
ATOM     46  H   LIG d   1       7.842  13.414  -2.067  0.00  0.00     0.292 HD
ENDBRANCH   8  45
BRANCH   1  47
ATOM     47  C   LIG d   1       9.435   7.789  -6.190  0.00  0.00    -0.005 C 
ATOM     48  H   LIG d   1       8.924   7.485  -7.104  0.00  0.00     0.031 H 
ATOM     49  H   LIG d   1      10.423   7.331  -6.157  0.00  0.00     0.031 H 
ATOM     50  H   LIG d   1       8.855   7.467  -5.326  0.00  0.00     0.031 H 
ENDBRANCH   1  47
BRANCH   2  51
ATOM     51  C   LIG d   1      10.540   9.133  -8.434  0.00  0.00     0.116 A 
ATOM     52  S   LIG d   1      12.069   8.244  -8.690  0.00  0.00    -0.067 SA
ATOM     53  C   LIG d   1      11.708   7.644 -10.323  0.00  0.00     0.040 A 
ATOM     54  C   LIG d   1      10.419   8.177 -10.560  0.00  0.00     0.079 A 
ATOM     55  C   LIG d   1      12.370   6.871 -11.244  0.00  0.00    -0.046 A 
ATOM     56  N   LIG d   1       9.896   8.913  -9.560  0.00  0.00    -0.239 NA
ATOM     57  C   LIG d   1       9.838   7.868 -11.814  0.00  0.00    -0.035 A 
ATOM     58  C   LIG d   1      10.502   7.101 -12.720  0.00  0.00    -0.060 A 
ATOM     59  H   LIG d   1       8.855   8.246 -12.054  0.00  0.00     0.064 H 
ATOM     60  C   LIG d   1      11.766   6.592 -12.457  0.00  0.00    -0.061 A 
ATOM     61  H   LIG d   1      10.034   6.882 -13.668  0.00  0.00     0.062 H 
ATOM     62  H   LIG d   1      12.274   5.986 -13.192  0.00  0.00     0.062 H 
ATOM     63  H   LIG d   1      13.353   6.484 -11.023  0.00  0.00     0.063 H 
ENDBRANCH   2  51
TORSDOF 5
ENDMDL
MODEL 9
REMARK VINA RESULT:      -6.4     10.398     14.320
REMARK  5 active torsions:
REMARK  status: ('A' for Active; 'I' for Inactive)
REMARK    1  A    between atoms: C_1  and  C_2 
REMARK    2  A    between atoms: C_3  and  C_30 
REMARK    3  A    between atoms: C_9  and  O_29 
REMARK    4  A    between atoms: C_10  and  C_13 
REMARK    5  A    between atoms: C_13  and  N_62 
ROOT
ATOM      1  C   LIG d   1       9.474   6.486  -3.022  0.00  0.00     0.116 A 
ATOM      2  C   LIG d   1      10.163   5.444  -2.478  0.00  0.00     0.092 A 
ATOM      3  C   LIG d   1      10.905   5.663  -1.224  0.00  0.00     0.202 A 
ATOM      4  O   LIG d   1      11.538   4.770  -0.691  0.00  0.00    -0.286 OA
ATOM      5  C   LIG d   1      10.842   7.018  -0.644  0.00  0.00     0.065 A 
ATOM      6  C   LIG d   1      11.514   7.331   0.538  0.00  0.00    -0.044 A 
ATOM      7  C   LIG d   1      11.430   8.594   1.051  0.00  0.00    -0.019 A 
ATOM      8  C   LIG d   1      10.687   9.572   0.393  0.00  0.00     0.129 A 
ATOM      9  C   LIG d   1      10.020   9.278  -0.783  0.00  0.00     0.081 A 
ATOM     10  C   LIG d   1      10.090   7.998  -1.316  0.00  0.00     0.150 A 
ATOM     11  O   LIG d   1       9.446   7.696  -2.461  0.00  0.00    -0.459 OA
ATOM     12  H   LIG d   1      12.093   6.576   1.049  0.00  0.00     0.063 H 
ATOM     13  H   LIG d   1      11.945   8.837   1.969  0.00  0.00     0.065 H 
ENDROOT
BRANCH   9  14
ATOM     14  C   LIG d   1       9.220  10.346  -1.485  0.00  0.00     0.001 C 
ATOM     15  H   LIG d   1       8.225   9.962  -1.714  0.00  0.00     0.087 H 
ATOM     16  H   LIG d   1       9.133  11.218  -0.839  0.00  0.00     0.087 H 
BRANCH  14  17
ATOM     17  N   LIG d   1       9.925  10.731  -2.724  0.00  0.00     0.239 N 
ATOM     18  C   LIG d   1      11.036  11.650  -2.407  0.00  0.00    -0.027 C 
ATOM     19  C   LIG d   1      11.795  12.028  -3.671  0.00  0.00     0.018 C 
ATOM     20  H   LIG d   1      10.653  12.556  -1.936  0.00  0.00     0.082 H 
ATOM     21  H   LIG d   1      11.715  11.150  -1.718  0.00  0.00     0.082 H 
ATOM     22  H   LIG d   1      12.543  12.774  -3.404  0.00  0.00     0.037 H 
ATOM     23  C   LIG d   1      12.507  10.832  -4.280  0.00  0.00     0.034 C 
ATOM     24  C   LIG d   1      10.851  12.641  -4.708  0.00  0.00    -0.031 C 
ATOM     25  N   LIG d   1      11.589   9.932  -4.978  0.00  0.00    -0.311 N 
ATOM     26  H   LIG d   1      13.010  10.279  -3.487  0.00  0.00     0.050 H 
ATOM     27  H   LIG d   1      13.256  11.189  -4.987  0.00  0.00     0.050 H 
ATOM     28  C   LIG d   1      10.359  10.309  -5.398  0.00  0.00     0.030 C 
ATOM     29  C   LIG d   1      12.041   8.683  -5.250  0.00  0.00     0.252 C 
ATOM     30  C   LIG d   1       9.738  11.623  -4.981  0.00  0.00     0.040 C 
ATOM     31  C   LIG d   1       9.634   9.505  -6.221  0.00  0.00    -0.042 C 
ATOM     32  H   LIG d   1       9.057  11.985  -5.751  0.00  0.00     0.042 H 
ATOM     33  C   LIG d   1       8.982  11.380  -3.664  0.00  0.00    -0.023 C 
ATOM     34  H   LIG d   1       8.138  10.714  -3.842  0.00  0.00     0.082 H 
ATOM     35  H   LIG d   1       8.625  12.328  -3.262  0.00  0.00     0.082 H 
ATOM     36  C   LIG d   1      10.120   8.247  -6.594  0.00  0.00    -0.055 C 
ATOM     37  H   LIG d   1       8.676   9.840  -6.589  0.00  0.00     0.064 H 
ATOM     38  C   LIG d   1      11.320   7.831  -6.098  0.00  0.00     0.003 C 
ATOM     39  H   LIG d   1       9.554   7.616  -7.264  0.00  0.00     0.062 H 
ATOM     40  H   LIG d   1      11.711   6.857  -6.357  0.00  0.00     0.067 H 
ATOM     41  O   LIG d   1      13.085   8.297  -4.751  0.00  0.00    -0.268 OA
ATOM     42  H   LIG d   1      11.396  12.848  -5.629  0.00  0.00     0.028 H 
ATOM     43  H   LIG d   1      10.421  13.563  -4.317  0.00  0.00     0.028 H 
ATOM     44  H   LIG d   1      10.307   9.886  -3.166  0.00  0.00     0.204 HD
ENDBRANCH  14  17
ENDBRANCH   9  14
BRANCH   8  45
ATOM     45  O   LIG d   1      10.616  10.825   0.911  0.00  0.00    -0.506 OA
ATOM     46  H   LIG d   1      10.064  10.893   1.702  0.00  0.00     0.292 HD
ENDBRANCH   8  45
BRANCH   1  47
ATOM     47  C   LIG d   1       8.715   6.263  -4.304  0.00  0.00    -0.005 C 
ATOM     48  H   LIG d   1       7.949   5.504  -4.145  0.00  0.00     0.031 H 
ATOM     49  H   LIG d   1       8.242   7.195  -4.614  0.00  0.00     0.031 H 
ATOM     50  H   LIG d   1       9.402   5.928  -5.080  0.00  0.00     0.031 H 
ENDBRANCH   1  47
BRANCH   2  51
ATOM     51  C   LIG d   1      10.166   4.120  -3.133  0.00  0.00     0.116 A 
ATOM     52  S   LIG d   1      11.522   3.262  -3.919  0.00  0.00    -0.067 SA
ATOM     53  C   LIG d   1      10.619   1.808  -4.396  0.00  0.00     0.040 A 
ATOM     54  C   LIG d   1       9.320   2.088  -3.911  0.00  0.00     0.079 A 
ATOM     55  C   LIG d   1      10.929   0.643  -5.054  0.00  0.00    -0.046 A 
ATOM     56  N   LIG d   1       9.172   3.271  -3.283  0.00  0.00    -0.239 NA
ATOM     57  C   LIG d   1       8.341   1.092  -4.142  0.00  0.00    -0.035 A 
ATOM     58  C   LIG d   1       8.656  -0.058  -4.794  0.00  0.00    -0.060 A 
ATOM     59  H   LIG d   1       7.330   1.248  -3.795  0.00  0.00     0.064 H 
ATOM     60  C   LIG d   1       9.942  -0.304  -5.258  0.00  0.00    -0.061 A 
ATOM     61  H   LIG d   1       7.889  -0.800  -4.956  0.00  0.00     0.062 H 
ATOM     62  H   LIG d   1      10.169  -1.226  -5.773  0.00  0.00     0.062 H 
ATOM     63  H   LIG d   1      11.933   0.468  -5.408  0.00  0.00     0.063 H 
ENDBRANCH   2  51
TORSDOF 5
ENDMDL
MODEL 10
REMARK VINA RESULT:      -6.3     10.710     14.983
REMARK  5 active torsions:
REMARK  status: ('A' for Active; 'I' for Inactive)
REMARK    1  A    between atoms: C_1  and  C_2 
REMARK    2  A    between atoms: C_3  and  C_30 
REMARK    3  A    between atoms: C_9  and  O_29 
REMARK    4  A    between atoms: C_10  and  C_13 
REMARK    5  A    between atoms: C_13  and  N_62 
ROOT
ATOM      1  C   LIG d   1       9.747   7.727  -5.307  0.00  0.00     0.116 A 
ATOM      2  C   LIG d   1      10.331   6.721  -6.016  0.00  0.00     0.092 A 
ATOM      3  C   LIG d   1      10.893   5.573  -5.282  0.00  0.00     0.202 A 
ATOM      4  O   LIG d   1      11.427   4.643  -5.860  0.00  0.00    -0.286 OA
ATOM      5  C   LIG d   1      10.774   5.603  -3.812  0.00  0.00     0.065 A 
ATOM      6  C   LIG d   1      11.278   4.566  -3.024  0.00  0.00    -0.044 A 
ATOM      7  C   LIG d   1      11.146   4.622  -1.667  0.00  0.00    -0.019 A 
ATOM      8  C   LIG d   1      10.523   5.714  -1.065  0.00  0.00     0.129 A 
ATOM      9  C   LIG d   1      10.024   6.752  -1.832  0.00  0.00     0.081 A 
ATOM     10  C   LIG d   1      10.144   6.709  -3.215  0.00  0.00     0.150 A 
ATOM     11  O   LIG d   1       9.663   7.711  -3.976  0.00  0.00    -0.459 OA
ATOM     12  H   LIG d   1      11.765   3.721  -3.488  0.00  0.00     0.063 H 
ATOM     13  H   LIG d   1      11.531   3.819  -1.056  0.00  0.00     0.065 H 
ENDROOT
BRANCH   9  14
ATOM     14  C   LIG d   1       9.352   7.926  -1.169  0.00  0.00     0.001 C 
ATOM     15  H   LIG d   1       8.403   8.131  -1.667  0.00  0.00     0.087 H 
ATOM     16  H   LIG d   1       9.169   7.696  -0.120  0.00  0.00     0.087 H 
BRANCH  14  17
ATOM     17  N   LIG d   1      10.246   9.098  -1.257  0.00  0.00     0.239 N 
ATOM     18  C   LIG d   1      10.897   9.336   0.047  0.00  0.00    -0.027 C 
ATOM     19  C   LIG d   1      11.850  10.518  -0.038  0.00  0.00     0.018 C 
ATOM     20  H   LIG d   1      10.146   9.535   0.812  0.00  0.00     0.082 H 
ATOM     21  H   LIG d   1      11.458   8.443   0.323  0.00  0.00     0.082 H 
ATOM     22  H   LIG d   1      12.234  10.713   0.963  0.00  0.00     0.037 H 
ATOM     23  C   LIG d   1      13.026  10.231  -0.956  0.00  0.00     0.034 C 
ATOM     24  C   LIG d   1      11.117  11.771  -0.525  0.00  0.00    -0.031 C 
ATOM     25  N   LIG d   1      12.658  10.295  -2.370  0.00  0.00    -0.311 N 
ATOM     26  H   LIG d   1      13.410   9.236  -0.736  0.00  0.00     0.050 H 
ATOM     27  H   LIG d   1      13.811  10.961  -0.763  0.00  0.00     0.050 H 
ATOM     28  C   LIG d   1      11.552  10.934  -2.820  0.00  0.00     0.030 C 
ATOM     29  C   LIG d   1      13.513   9.724  -3.254  0.00  0.00     0.252 C 
ATOM     30  C   LIG d   1      10.481  11.439  -1.879  0.00  0.00     0.040 C 
ATOM     31  C   LIG d   1      11.369  11.143  -4.150  0.00  0.00    -0.042 C 
ATOM     32  H   LIG d   1       9.983  12.312  -2.301  0.00  0.00     0.042 H 
ATOM     33  C   LIG d   1       9.476  10.295  -1.665  0.00  0.00    -0.023 C 
ATOM     34  H   LIG d   1       8.954  10.085  -2.598  0.00  0.00     0.082 H 
ATOM     35  H   LIG d   1       8.757  10.575  -0.895  0.00  0.00     0.082 H 
ATOM     36  C   LIG d   1      12.287  10.645  -5.081  0.00  0.00    -0.055 C 
ATOM     37  H   LIG d   1      10.508  11.698  -4.491  0.00  0.00     0.064 H 
ATOM     38  C   LIG d   1      13.355   9.924  -4.632  0.00  0.00     0.003 C 
ATOM     39  H   LIG d   1      12.154  10.828  -6.137  0.00  0.00     0.062 H 
ATOM     40  H   LIG d   1      14.070   9.514  -5.331  0.00  0.00     0.067 H 
ATOM     41  O   LIG d   1      14.429   9.029  -2.846  0.00  0.00    -0.268 OA
ATOM     42  H   LIG d   1      11.824  12.593  -0.640  0.00  0.00     0.028 H 
ATOM     43  H   LIG d   1      10.342  12.048   0.190  0.00  0.00     0.028 H 
ATOM     44  H   LIG d   1      10.970   8.911  -1.962  0.00  0.00     0.204 HD
ENDBRANCH  14  17
ENDBRANCH   9  14
BRANCH   8  45
ATOM     45  O   LIG d   1      10.404   5.759   0.287  0.00  0.00    -0.506 OA
ATOM     46  H   LIG d   1       9.679   5.222   0.636  0.00  0.00     0.292 HD
ENDBRANCH   8  45
BRANCH   1  47
ATOM     47  C   LIG d   1       9.173   8.902  -6.056  0.00  0.00    -0.005 C 
ATOM     48  H   LIG d   1       8.174   8.651  -6.415  0.00  0.00     0.031 H 
ATOM     49  H   LIG d   1       9.113   9.763  -5.391  0.00  0.00     0.031 H 
ATOM     50  H   LIG d   1       9.814   9.141  -6.904  0.00  0.00     0.031 H 
ENDBRANCH   1  47
BRANCH   2  51
ATOM     51  C   LIG d   1      10.402   6.781  -7.490  0.00  0.00     0.116 A 
ATOM     52  S   LIG d   1      11.694   7.456  -8.524  0.00  0.00    -0.067 SA
ATOM     53  C   LIG d   1      10.938   7.094 -10.089  0.00  0.00     0.040 A 
ATOM     54  C   LIG d   1       9.728   6.471  -9.703  0.00  0.00     0.079 A 
ATOM     55  C   LIG d   1      11.282   7.290 -11.404  0.00  0.00    -0.046 A 
ATOM     56  N   LIG d   1       9.532   6.345  -8.376  0.00  0.00    -0.239 NA
ATOM     57  C   LIG d   1       8.878   6.052 -10.755  0.00  0.00    -0.035 A 
ATOM     58  C   LIG d   1       9.228   6.251 -12.054  0.00  0.00    -0.060 A 
ATOM     59  H   LIG d   1       7.941   5.569 -10.523  0.00  0.00     0.064 H 
ATOM     60  C   LIG d   1      10.423   6.866 -12.402  0.00  0.00    -0.061 A 
ATOM     61  H   LIG d   1       8.560   5.921 -12.836  0.00  0.00     0.062 H 
ATOM     62  H   LIG d   1      10.679   7.012 -13.441  0.00  0.00     0.062 H 
ATOM     63  H   LIG d   1      12.215   7.771 -11.657  0.00  0.00     0.063 H 
ENDBRANCH   2  51
TORSDOF 5
ENDMDL
