MODEL 1
REMARK VINA RESULT:      -6.1      0.000      0.000
REMARK  7 active torsions:
REMARK  status: ('A' for Active; 'I' for Inactive)
REMARK    1  A    between atoms: C_1  and  C_2 
REMARK    2  A    between atoms: C_2  and  O_4 
REMARK    3  A    between atoms: O_4  and  C_5 
REMARK    4  A    between atoms: C_11  and  C_32 
REMARK    5  A    between atoms: C_22  and  C_31 
REMARK    6  A    between atoms: C_25  and  C_28 
REMARK    7  A    between atoms: C_28  and  C_29 
ROOT
ATOM      1  C   LIG d   1       5.991  -5.823  -8.198  0.00  0.00     0.109 C 
ATOM      2  H   LIG d   1       5.746  -6.530  -7.407  0.00  0.00     0.074 H 
ATOM      3  C   LIG d   1       7.517  -5.675  -8.334  0.00  0.00    -0.015 C 
ATOM      4  C   LIG d   1       7.862  -4.221  -7.951  0.00  0.00    -0.046 C 
ATOM      5  C   LIG d   1       6.632  -3.716  -7.139  0.00  0.00    -0.029 C 
ATOM      6  H   LIG d   1       6.549  -2.629  -7.189  0.00  0.00     0.031 H 
ATOM      7  C   LIG d   1       5.463  -4.425  -7.841  0.00  0.00     0.008 C 
ATOM      8  C   LIG d   1       4.195  -4.481  -7.029  0.00  0.00    -0.044 C 
ATOM      9  C   LIG d   1       4.380  -4.867  -5.577  0.00  0.00    -0.049 C 
ATOM     10  C   LIG d   1       5.535  -4.162  -4.889  0.00  0.00    -0.032 C 
ATOM     11  H   LIG d   1       5.747  -4.766  -3.965  0.00  0.00     0.031 H 
ATOM     12  C   LIG d   1       6.803  -4.231  -5.714  0.00  0.00    -0.034 C 
ATOM     13  H   LIG d   1       7.079  -5.306  -5.794  0.00  0.00     0.031 H 
ATOM     14  C   LIG d   1       7.972  -3.530  -5.028  0.00  0.00    -0.049 C 
ATOM     15  C   LIG d   1       7.582  -2.106  -4.629  0.00  0.00    -0.049 C 
ATOM     16  C   LIG d   1       6.394  -2.170  -3.672  0.00  0.00    -0.035 C 
ATOM     17  H   LIG d   1       6.663  -2.828  -2.833  0.00  0.00     0.031 H 
ATOM     18  C   LIG d   1       5.178  -2.774  -4.379  0.00  0.00    -0.026 C 
ATOM     19  C   LIG d   1       4.048  -2.899  -3.345  0.00  0.00    -0.047 C 
ATOM     20  C   LIG d   1       3.705  -1.536  -2.752  0.00  0.00    -0.049 C 
ATOM     21  C   LIG d   1       4.932  -0.902  -2.101  0.00  0.00    -0.036 C 
ATOM     22  H   LIG d   1       5.259  -1.519  -1.262  0.00  0.00     0.030 H 
ATOM     23  C   LIG d   1       6.070  -0.788  -3.118  0.00  0.00    -0.046 C 
ATOM     24  H   LIG d   1       8.022  -6.371  -7.662  0.00  0.00     0.030 H 
ATOM     25  H   LIG d   1       7.822  -5.871  -9.364  0.00  0.00     0.030 H 
ATOM     26  H   LIG d   1       8.011  -3.611  -8.843  0.00  0.00     0.027 H 
ATOM     27  H   LIG d   1       8.765  -4.198  -7.337  0.00  0.00     0.027 H 
ATOM     28  H   LIG d   1       3.656  -3.539  -7.119  0.00  0.00     0.027 H 
ATOM     29  H   LIG d   1       3.542  -5.241  -7.498  0.00  0.00     0.027 H 
ATOM     30  H   LIG d   1       3.450  -4.672  -5.027  0.00  0.00     0.027 H 
ATOM     31  H   LIG d   1       4.548  -5.957  -5.518  0.00  0.00     0.027 H 
ATOM     32  H   LIG d   1       8.835  -3.494  -5.693  0.00  0.00     0.027 H 
ATOM     33  H   LIG d   1       8.250  -4.088  -4.127  0.00  0.00     0.027 H 
ATOM     34  H   LIG d   1       7.341  -1.525  -5.513  0.00  0.00     0.027 H 
ATOM     35  H   LIG d   1       8.429  -1.636  -4.118  0.00  0.00     0.027 H 
ATOM     36  H   LIG d   1       3.164  -3.314  -3.831  0.00  0.00     0.027 H 
ATOM     37  H   LIG d   1       4.371  -3.574  -2.551  0.00  0.00     0.027 H 
ATOM     38  H   LIG d   1       2.933  -1.673  -1.982  0.00  0.00     0.027 H 
ATOM     39  H   LIG d   1       3.301  -0.872  -3.512  0.00  0.00     0.027 H 
ATOM     40  H   LIG d   1       6.956  -0.392  -2.607  0.00  0.00     0.027 H 
ATOM     41  H   LIG d   1       5.797  -0.098  -3.909  0.00  0.00     0.027 H 
ENDROOT
BRANCH   1  42
ATOM     42  O   LIG d   1       5.415  -6.263  -9.457  0.00  0.00    -0.461 OA
BRANCH  42  43
ATOM     43  C   LIG d   1       4.635  -7.354  -9.422  0.00  0.00     0.304 C 
ATOM     44  O   LIG d   1       4.191  -7.813 -10.448  0.00  0.00    -0.251 OA
BRANCH  43  45
ATOM     45  C   LIG d   1       4.312  -8.008  -8.103  0.00  0.00     0.033 C 
ATOM     46  H   LIG d   1       4.360  -9.091  -8.213  0.00  0.00     0.034 H 
ATOM     47  H   LIG d   1       5.033  -7.687  -7.352  0.00  0.00     0.034 H 
ATOM     48  H   LIG d   1       3.308  -7.718  -7.790  0.00  0.00     0.034 H 
ENDBRANCH  43  45
ENDBRANCH  42  43
ENDBRANCH   1  42
BRANCH   7  49
ATOM     49  C   LIG d   1       5.161  -3.679  -9.149  0.00  0.00    -0.056 C 
ATOM     50  H   LIG d   1       4.581  -4.325  -9.809  0.00  0.00     0.024 H 
ATOM     51  H   LIG d   1       4.588  -2.778  -8.928  0.00  0.00     0.024 H 
ATOM     52  H   LIG d   1       6.096  -3.406  -9.636  0.00  0.00     0.024 H 
ENDBRANCH   7  49
BRANCH  18  53
ATOM     53  C   LIG d   1       4.711  -1.853  -5.503  0.00  0.00    -0.059 C 
ATOM     54  H   LIG d   1       5.483  -1.797  -6.270  0.00  0.00     0.024 H 
ATOM     55  H   LIG d   1       4.524  -0.857  -5.102  0.00  0.00     0.024 H 
ATOM     56  H   LIG d   1       3.794  -2.247  -5.939  0.00  0.00     0.024 H 
ENDBRANCH  18  53
BRANCH  21  57
ATOM     57  C   LIG d   1       4.571   0.495  -1.588  0.00  0.00    -0.010 C 
ATOM     58  H   LIG d   1       3.555   0.486  -1.193  0.00  0.00     0.033 H 
ATOM     59  H   LIG d   1       5.265   0.783  -0.799  0.00  0.00     0.033 H 
BRANCH  57  60
ATOM     60  C   LIG d   1       4.660   1.485  -2.722  0.00  0.00     0.042 C 
ATOM     61  O   LIG d   1       5.722   1.991  -2.999  0.00  0.00    -0.550 OA
ATOM     62  O   LIG d   1       3.560   1.804  -3.421  0.00  0.00    -0.550 OA
ENDBRANCH  57  60
ENDBRANCH  21  57
TORSDOF 7
ENDMDL
MODEL 2
REMARK VINA RESULT:      -6.1      8.739     10.840
REMARK  7 active torsions:
REMARK  status: ('A' for Active; 'I' for Inactive)
REMARK    1  A    between atoms: C_1  and  C_2 
REMARK    2  A    between atoms: C_2  and  O_4 
REMARK    3  A    between atoms: O_4  and  C_5 
REMARK    4  A    between atoms: C_11  and  C_32 
REMARK    5  A    between atoms: C_22  and  C_31 
REMARK    6  A    between atoms: C_25  and  C_28 
REMARK    7  A    between atoms: C_28  and  C_29 
ROOT
ATOM      1  C   LIG d   1       9.641   4.803  -7.931  0.00  0.00     0.109 C 
ATOM      2  H   LIG d   1       8.678   5.257  -7.704  0.00  0.00     0.074 H 
ATOM      3  C   LIG d   1       9.569   3.275  -7.763  0.00  0.00    -0.015 C 
ATOM      4  C   LIG d   1      10.510   2.907  -6.598  0.00  0.00    -0.046 C 
ATOM      5  C   LIG d   1      10.713   4.235  -5.810  0.00  0.00    -0.029 C 
ATOM      6  H   LIG d   1      11.655   4.224  -5.259  0.00  0.00     0.031 H 
ATOM      7  C   LIG d   1      10.703   5.286  -6.931  0.00  0.00     0.008 C 
ATOM      8  C   LIG d   1      10.448   6.694  -6.459  0.00  0.00    -0.044 C 
ATOM      9  C   LIG d   1       9.324   6.839  -5.454  0.00  0.00    -0.049 C 
ATOM     10  C   LIG d   1       9.341   5.799  -4.348  0.00  0.00    -0.032 C 
ATOM     11  H   LIG d   1       8.312   5.827  -3.895  0.00  0.00     0.031 H 
ATOM     12  C   LIG d   1       9.499   4.399  -4.901  0.00  0.00    -0.034 C 
ATOM     13  H   LIG d   1       8.602   4.194  -5.526  0.00  0.00     0.031 H 
ATOM     14  C   LIG d   1       9.511   3.345  -3.796  0.00  0.00    -0.049 C 
ATOM     15  C   LIG d   1      10.549   3.700  -2.730  0.00  0.00    -0.049 C 
ATOM     16  C   LIG d   1      10.196   5.060  -2.132  0.00  0.00    -0.035 C 
ATOM     17  H   LIG d   1       9.157   5.019  -1.773  0.00  0.00     0.031 H 
ATOM     18  C   LIG d   1      10.284   6.148  -3.207  0.00  0.00    -0.026 C 
ATOM     19  C   LIG d   1       9.829   7.472  -2.571  0.00  0.00    -0.047 C 
ATOM     20  C   LIG d   1      10.704   7.825  -1.373  0.00  0.00    -0.049 C 
ATOM     21  C   LIG d   1      10.669   6.712  -0.328  0.00  0.00    -0.036 C 
ATOM     22  H   LIG d   1       9.655   6.611   0.063  0.00  0.00     0.030 H 
ATOM     23  C   LIG d   1      11.104   5.386  -0.953  0.00  0.00    -0.046 C 
ATOM     24  H   LIG d   1       8.546   2.971  -7.530  0.00  0.00     0.030 H 
ATOM     25  H   LIG d   1       9.899   2.782  -8.679  0.00  0.00     0.030 H 
ATOM     26  H   LIG d   1      11.463   2.533  -6.974  0.00  0.00     0.027 H 
ATOM     27  H   LIG d   1      10.045   2.150  -5.963  0.00  0.00     0.027 H 
ATOM     28  H   LIG d   1      11.371   7.130  -6.080  0.00  0.00     0.027 H 
ATOM     29  H   LIG d   1      10.181   7.293  -7.350  0.00  0.00     0.027 H 
ATOM     30  H   LIG d   1       9.358   7.845  -5.014  0.00  0.00     0.027 H 
ATOM     31  H   LIG d   1       8.360   6.770  -5.988  0.00  0.00     0.027 H 
ATOM     32  H   LIG d   1       9.744   2.364  -4.212  0.00  0.00     0.027 H 
ATOM     33  H   LIG d   1       8.522   3.300  -3.329  0.00  0.00     0.027 H 
ATOM     34  H   LIG d   1      11.542   3.710  -3.166  0.00  0.00     0.027 H 
ATOM     35  H   LIG d   1      10.518   2.943  -1.940  0.00  0.00     0.027 H 
ATOM     36  H   LIG d   1       9.898   8.266  -3.316  0.00  0.00     0.027 H 
ATOM     37  H   LIG d   1       8.791   7.370  -2.251  0.00  0.00     0.027 H 
ATOM     38  H   LIG d   1      10.317   8.746  -0.916  0.00  0.00     0.027 H 
ATOM     39  H   LIG d   1      11.729   8.013  -1.682  0.00  0.00     0.027 H 
ATOM     40  H   LIG d   1      11.006   4.595  -0.199  0.00  0.00     0.027 H 
ATOM     41  H   LIG d   1      12.144   5.438  -1.257  0.00  0.00     0.027 H 
ENDROOT
BRANCH   1  42
ATOM     42  O   LIG d   1      10.046   5.141  -9.284  0.00  0.00    -0.461 OA
BRANCH  42  43
ATOM     43  C   LIG d   1       9.324   6.076  -9.920  0.00  0.00     0.304 C 
ATOM     44  O   LIG d   1       8.221   5.809 -10.336  0.00  0.00    -0.251 OA
BRANCH  43  45
ATOM     45  C   LIG d   1       9.888   7.459 -10.117  0.00  0.00     0.033 C 
ATOM     46  H   LIG d   1      10.106   7.617 -11.173  0.00  0.00     0.034 H 
ATOM     47  H   LIG d   1       9.162   8.200  -9.782  0.00  0.00     0.034 H 
ATOM     48  H   LIG d   1      10.806   7.564  -9.538  0.00  0.00     0.034 H 
ENDBRANCH  43  45
ENDBRANCH  42  43
ENDBRANCH   1  42
BRANCH   7  49
ATOM     49  C   LIG d   1      12.069   5.257  -7.632  0.00  0.00    -0.056 C 
ATOM     50  H   LIG d   1      12.793   4.746  -6.997  0.00  0.00     0.024 H 
ATOM     51  H   LIG d   1      11.979   4.726  -8.580  0.00  0.00     0.024 H 
ATOM     52  H   LIG d   1      12.403   6.278  -7.817  0.00  0.00     0.024 H 
ENDBRANCH   7  49
BRANCH  18  53
ATOM     53  C   LIG d   1      11.725   6.304  -3.681  0.00  0.00    -0.059 C 
ATOM     54  H   LIG d   1      11.783   6.083  -4.746  0.00  0.00     0.024 H 
ATOM     55  H   LIG d   1      12.365   5.613  -3.131  0.00  0.00     0.024 H 
ATOM     56  H   LIG d   1      12.058   7.326  -3.503  0.00  0.00     0.024 H 
ENDBRANCH  18  53
BRANCH  21  57
ATOM     57  C   LIG d   1      11.618   7.064   0.822  0.00  0.00    -0.010 C 
ATOM     58  H   LIG d   1      12.615   6.682   0.599  0.00  0.00     0.033 H 
ATOM     59  H   LIG d   1      11.661   8.146   0.939  0.00  0.00     0.033 H 
BRANCH  57  60
ATOM     60  C   LIG d   1      11.115   6.439   2.098  0.00  0.00     0.042 C 
ATOM     61  O   LIG d   1      10.566   5.363   2.068  0.00  0.00    -0.550 OA
ATOM     62  O   LIG d   1      11.275   7.079   3.267  0.00  0.00    -0.550 OA
ENDBRANCH  57  60
ENDBRANCH  21  57
TORSDOF 7
ENDMDL
MODEL 3
REMARK VINA RESULT:      -5.9      3.894      7.902
REMARK  7 active torsions:
REMARK  status: ('A' for Active; 'I' for Inactive)
REMARK    1  A    between atoms: C_1  and  C_2 
REMARK    2  A    between atoms: C_2  and  O_4 
REMARK    3  A    between atoms: O_4  and  C_5 
REMARK    4  A    between atoms: C_11  and  C_32 
REMARK    5  A    between atoms: C_22  and  C_31 
REMARK    6  A    between atoms: C_25  and  C_28 
REMARK    7  A    between atoms: C_28  and  C_29 
ROOT
ATOM      1  C   LIG d   1       6.002   0.212  -4.929  0.00  0.00     0.109 C 
ATOM      2  H   LIG d   1       5.292   1.038  -4.899  0.00  0.00     0.074 H 
ATOM      3  C   LIG d   1       7.340   0.675  -5.534  0.00  0.00    -0.015 C 
ATOM      4  C   LIG d   1       7.525  -0.099  -6.855  0.00  0.00    -0.046 C 
ATOM      5  C   LIG d   1       6.099  -0.603  -7.230  0.00  0.00    -0.029 C 
ATOM      6  H   LIG d   1       6.151  -1.491  -7.862  0.00  0.00     0.031 H 
ATOM      7  C   LIG d   1       5.485  -0.900  -5.854  0.00  0.00     0.008 C 
ATOM      8  C   LIG d   1       3.980  -0.991  -5.854  0.00  0.00    -0.044 C 
ATOM      9  C   LIG d   1       3.272   0.095  -6.634  0.00  0.00    -0.049 C 
ATOM     10  C   LIG d   1       3.883   0.382  -7.995  0.00  0.00    -0.032 C 
ATOM     11  H   LIG d   1       3.479   1.386  -8.298  0.00  0.00     0.031 H 
ATOM     12  C   LIG d   1       5.384   0.563  -7.905  0.00  0.00    -0.034 C 
ATOM     13  H   LIG d   1       5.565   1.459  -7.271  0.00  0.00     0.031 H 
ATOM     14  C   LIG d   1       6.007   0.858  -9.266  0.00  0.00    -0.049 C 
ATOM     15  C   LIG d   1       5.581  -0.196 -10.289  0.00  0.00    -0.049 C 
ATOM     16  C   LIG d   1       4.059  -0.176 -10.412  0.00  0.00    -0.035 C 
ATOM     17  H   LIG d   1       3.745   0.851 -10.647  0.00  0.00     0.031 H 
ATOM     18  C   LIG d   1       3.417  -0.576  -9.080  0.00  0.00    -0.026 C 
ATOM     19  C   LIG d   1       1.893  -0.447  -9.237  0.00  0.00    -0.047 C 
ATOM     20  C   LIG d   1       1.390  -1.339 -10.367  0.00  0.00    -0.049 C 
ATOM     21  C   LIG d   1       2.075  -0.986 -11.685  0.00  0.00    -0.036 C 
ATOM     22  H   LIG d   1       1.813   0.035 -11.970  0.00  0.00     0.030 H 
ATOM     23  C   LIG d   1       3.594  -1.094 -11.536  0.00  0.00    -0.046 C 
ATOM     24  H   LIG d   1       7.312   1.748  -5.728  0.00  0.00     0.030 H 
ATOM     25  H   LIG d   1       8.159   0.446  -4.850  0.00  0.00     0.030 H 
ATOM     26  H   LIG d   1       8.207  -0.940  -6.718  0.00  0.00     0.027 H 
ATOM     27  H   LIG d   1       7.915   0.565  -7.629  0.00  0.00     0.027 H 
ATOM     28  H   LIG d   1       3.670  -1.980  -6.187  0.00  0.00     0.027 H 
ATOM     29  H   LIG d   1       3.650  -0.918  -4.800  0.00  0.00     0.027 H 
ATOM     30  H   LIG d   1       2.214  -0.175  -6.756  0.00  0.00     0.027 H 
ATOM     31  H   LIG d   1       3.284   1.025  -6.040  0.00  0.00     0.027 H 
ATOM     32  H   LIG d   1       7.095   0.866  -9.191  0.00  0.00     0.027 H 
ATOM     33  H   LIG d   1       5.675   1.843  -9.610  0.00  0.00     0.027 H 
ATOM     34  H   LIG d   1       5.936  -1.175  -9.986  0.00  0.00     0.027 H 
ATOM     35  H   LIG d   1       6.022   0.054 -11.260  0.00  0.00     0.027 H 
ATOM     36  H   LIG d   1       1.413  -0.742  -8.303  0.00  0.00     0.027 H 
ATOM     37  H   LIG d   1       1.648   0.594  -9.453  0.00  0.00     0.027 H 
ATOM     38  H   LIG d   1       0.308  -1.181 -10.483  0.00  0.00     0.027 H 
ATOM     39  H   LIG d   1       1.548  -2.389 -10.135  0.00  0.00     0.027 H 
ATOM     40  H   LIG d   1       4.061  -0.772 -12.475  0.00  0.00     0.027 H 
ATOM     41  H   LIG d   1       3.879  -2.124 -11.351  0.00  0.00     0.027 H 
ENDROOT
BRANCH   1  42
ATOM     42  O   LIG d   1       6.212  -0.314  -3.591  0.00  0.00    -0.461 OA
BRANCH  42  43
ATOM     43  C   LIG d   1       5.442   0.187  -2.612  0.00  0.00     0.304 C 
ATOM     44  O   LIG d   1       5.562   1.343  -2.281  0.00  0.00    -0.251 OA
BRANCH  43  45
ATOM     45  C   LIG d   1       4.430  -0.692  -1.925  0.00  0.00     0.033 C 
ATOM     46  H   LIG d   1       4.215  -0.293  -0.934  0.00  0.00     0.034 H 
ATOM     47  H   LIG d   1       3.512  -0.719  -2.513  0.00  0.00     0.034 H 
ATOM     48  H   LIG d   1       4.829  -1.702  -1.831  0.00  0.00     0.034 H 
ENDBRANCH  43  45
ENDBRANCH  42  43
ENDBRANCH   1  42
BRANCH   7  49
ATOM     49  C   LIG d   1       6.045  -2.239  -5.352  0.00  0.00    -0.056 C 
ATOM     50  H   LIG d   1       6.077  -2.233  -4.262  0.00  0.00     0.024 H 
ATOM     51  H   LIG d   1       5.402  -3.051  -5.693  0.00  0.00     0.024 H 
ATOM     52  H   LIG d   1       7.051  -2.381  -5.745  0.00  0.00     0.024 H 
ENDBRANCH   7  49
BRANCH  18  53
ATOM     53  C   LIG d   1       3.753  -2.026  -8.748  0.00  0.00    -0.059 C 
ATOM     54  H   LIG d   1       4.787  -2.232  -9.025  0.00  0.00     0.024 H 
ATOM     55  H   LIG d   1       3.089  -2.690  -9.304  0.00  0.00     0.024 H 
ATOM     56  H   LIG d   1       3.622  -2.195  -7.680  0.00  0.00     0.024 H 
ENDBRANCH  18  53
BRANCH  21  57
ATOM     57  C   LIG d   1       1.605  -1.950 -12.778  0.00  0.00    -0.010 C 
ATOM     58  H   LIG d   1       1.875  -1.551 -13.756  0.00  0.00     0.033 H 
ATOM     59  H   LIG d   1       2.081  -2.920 -12.637  0.00  0.00     0.033 H 
BRANCH  57  60
ATOM     60  C   LIG d   1       0.108  -2.109 -12.698  0.00  0.00     0.042 C 
ATOM     61  O   LIG d   1      -0.610  -1.150 -12.861  0.00  0.00    -0.550 OA
ATOM     62  O   LIG d   1      -0.427  -3.314 -12.444  0.00  0.00    -0.550 OA
ENDBRANCH  57  60
ENDBRANCH  21  57
TORSDOF 7
ENDMDL
MODEL 4
REMARK VINA RESULT:      -5.9      9.915     13.528
REMARK  7 active torsions:
REMARK  status: ('A' for Active; 'I' for Inactive)
REMARK    1  A    between atoms: C_1  and  C_2 
REMARK    2  A    between atoms: C_2  and  O_4 
REMARK    3  A    between atoms: O_4  and  C_5 
REMARK    4  A    between atoms: C_11  and  C_32 
REMARK    5  A    between atoms: C_22  and  C_31 
REMARK    6  A    between atoms: C_25  and  C_28 
REMARK    7  A    between atoms: C_28  and  C_29 
ROOT
ATOM      1  C   LIG d   1      11.042   7.316   0.429  0.00  0.00     0.109 C 
ATOM      2  H   LIG d   1      10.005   6.985   0.458  0.00  0.00     0.074 H 
ATOM      3  C   LIG d   1      11.114   8.853   0.369  0.00  0.00    -0.015 C 
ATOM      4  C   LIG d   1      11.740   9.220  -0.991  0.00  0.00    -0.046 C 
ATOM      5  C   LIG d   1      11.557   7.948  -1.874  0.00  0.00    -0.029 C 
ATOM      6  H   LIG d   1      12.307   7.909  -2.666  0.00  0.00     0.031 H 
ATOM      7  C   LIG d   1      11.724   6.814  -0.853  0.00  0.00     0.008 C 
ATOM      8  C   LIG d   1      11.178   5.485  -1.308  0.00  0.00    -0.044 C 
ATOM      9  C   LIG d   1       9.815   5.541  -1.963  0.00  0.00    -0.049 C 
ATOM     10  C   LIG d   1       9.657   6.664  -2.973  0.00  0.00    -0.032 C 
ATOM     11  H   LIG d   1       8.548   6.781  -3.120  0.00  0.00     0.031 H 
ATOM     12  C   LIG d   1      10.131   7.989  -2.413  0.00  0.00    -0.034 C 
ATOM     13  H   LIG d   1       9.470   8.232  -1.551  0.00  0.00     0.031 H 
ATOM     14  C   LIG d   1       9.970   9.126  -3.419  0.00  0.00    -0.049 C 
ATOM     15  C   LIG d   1      10.626   8.757  -4.751  0.00  0.00    -0.049 C 
ATOM     16  C   LIG d   1       9.960   7.497  -5.297  0.00  0.00    -0.035 C 
ATOM     17  H   LIG d   1       8.876   7.675  -5.348  0.00  0.00     0.031 H 
ATOM     18  C   LIG d   1      10.203   6.318  -4.350  0.00  0.00    -0.026 C 
ATOM     19  C   LIG d   1       9.433   5.108  -4.901  0.00  0.00    -0.047 C 
ATOM     20  C   LIG d   1       9.898   4.769  -6.314  0.00  0.00    -0.049 C 
ATOM     21  C   LIG d   1       9.717   5.964  -7.247  0.00  0.00    -0.036 C 
ATOM     22  H   LIG d   1       8.655   6.202  -7.331  0.00  0.00     0.030 H 
ATOM     23  C   LIG d   1      10.465   7.181  -6.699  0.00  0.00    -0.046 C 
ATOM     24  H   LIG d   1      10.113   9.279   0.449  0.00  0.00     0.030 H 
ATOM     25  H   LIG d   1      11.740   9.229   1.181  0.00  0.00     0.030 H 
ATOM     26  H   LIG d   1      12.798   9.460  -0.879  0.00  0.00     0.027 H 
ATOM     27  H   LIG d   1      11.216  10.071  -1.429  0.00  0.00     0.027 H 
ATOM     28  H   LIG d   1      11.903   4.989  -1.952  0.00  0.00     0.027 H 
ATOM     29  H   LIG d   1      11.094   4.843  -0.410  0.00  0.00     0.027 H 
ATOM     30  H   LIG d   1       9.603   4.579  -2.447  0.00  0.00     0.027 H 
ATOM     31  H   LIG d   1       9.049   5.664  -1.178  0.00  0.00     0.027 H 
ATOM     32  H   LIG d   1      10.426  10.038  -3.034  0.00  0.00     0.027 H 
ATOM     33  H   LIG d   1       8.905   9.312  -3.587  0.00  0.00     0.027 H 
ATOM     34  H   LIG d   1      11.692   8.608  -4.612  0.00  0.00     0.027 H 
ATOM     35  H   LIG d   1      10.475   9.578  -5.460  0.00  0.00     0.027 H 
ATOM     36  H   LIG d   1       9.604   4.250  -4.249  0.00  0.00     0.027 H 
ATOM     37  H   LIG d   1       8.368   5.343  -4.912  0.00  0.00     0.027 H 
ATOM     38  H   LIG d   1       9.292   3.935  -6.692  0.00  0.00     0.027 H 
ATOM     39  H   LIG d   1      10.938   4.450  -6.315  0.00  0.00     0.027 H 
ATOM     40  H   LIG d   1      10.263   8.038  -7.353  0.00  0.00     0.027 H 
ATOM     41  H   LIG d   1      11.534   6.995  -6.703  0.00  0.00     0.027 H 
ENDROOT
BRANCH   1  42
ATOM     42  O   LIG d   1      11.756   6.825   1.595  0.00  0.00    -0.461 OA
BRANCH  42  43
ATOM     43  C   LIG d   1      11.057   6.084   2.469  0.00  0.00     0.304 C 
ATOM     44  O   LIG d   1      10.475   5.094   2.092  0.00  0.00    -0.251 OA
BRANCH  43  45
ATOM     45  C   LIG d   1      10.999   6.485   3.920  0.00  0.00     0.033 C 
ATOM     46  H   LIG d   1      11.886   7.065   4.173  0.00  0.00     0.034 H 
ATOM     47  H   LIG d   1      10.108   7.088   4.095  0.00  0.00     0.034 H 
ATOM     48  H   LIG d   1      10.960   5.591   4.543  0.00  0.00     0.034 H 
ENDBRANCH  43  45
ENDBRANCH  42  43
ENDBRANCH   1  42
BRANCH   7  49
ATOM     49  C   LIG d   1      13.221   6.641  -0.562  0.00  0.00    -0.056 C 
ATOM     50  H   LIG d   1      13.631   7.583  -0.196  0.00  0.00     0.024 H 
ATOM     51  H   LIG d   1      13.358   5.868   0.195  0.00  0.00     0.024 H 
ATOM     52  H   LIG d   1      13.738   6.350  -1.476  0.00  0.00     0.024 H 
ENDBRANCH   7  49
BRANCH  18  53
ATOM     53  C   LIG d   1      11.688   5.975  -4.308  0.00  0.00    -0.059 C 
ATOM     54  H   LIG d   1      11.810   4.893  -4.263  0.00  0.00     0.024 H 
ATOM     55  H   LIG d   1      12.142   6.428  -3.426  0.00  0.00     0.024 H 
ATOM     56  H   LIG d   1      12.176   6.358  -5.204  0.00  0.00     0.024 H 
ENDBRANCH  18  53
BRANCH  21  57
ATOM     57  C   LIG d   1      10.266   5.615  -8.633  0.00  0.00    -0.010 C 
ATOM     58  H   LIG d   1      11.265   6.037  -8.745  0.00  0.00     0.033 H 
ATOM     59  H   LIG d   1      10.315   4.532  -8.743  0.00  0.00     0.033 H 
BRANCH  57  60
ATOM     60  C   LIG d   1       9.358   6.187  -9.692  0.00  0.00     0.042 C 
ATOM     61  O   LIG d   1       9.584   7.281 -10.154  0.00  0.00    -0.550 OA
ATOM     62  O   LIG d   1       8.299   5.482 -10.120  0.00  0.00    -0.550 OA
ENDBRANCH  57  60
ENDBRANCH  21  57
TORSDOF 7
ENDMDL
MODEL 5
REMARK VINA RESULT:      -5.5      3.986      5.645
REMARK  7 active torsions:
REMARK  status: ('A' for Active; 'I' for Inactive)
REMARK    1  A    between atoms: C_1  and  C_2 
REMARK    2  A    between atoms: C_2  and  O_4 
REMARK    3  A    between atoms: O_4  and  C_5 
REMARK    4  A    between atoms: C_11  and  C_32 
REMARK    5  A    between atoms: C_22  and  C_31 
REMARK    6  A    between atoms: C_25  and  C_28 
REMARK    7  A    between atoms: C_28  and  C_29 
ROOT
ATOM      1  C   LIG d   1       5.109  -3.056  -5.057  0.00  0.00     0.109 C 
ATOM      2  H   LIG d   1       4.541  -2.531  -5.824  0.00  0.00     0.074 H 
ATOM      3  C   LIG d   1       4.560  -2.721  -3.659  0.00  0.00    -0.015 C 
ATOM      4  C   LIG d   1       5.675  -1.964  -2.910  0.00  0.00    -0.046 C 
ATOM      5  C   LIG d   1       6.632  -1.448  -4.027  0.00  0.00    -0.029 C 
ATOM      6  H   LIG d   1       7.640  -1.292  -3.639  0.00  0.00     0.031 H 
ATOM      7  C   LIG d   1       6.570  -2.582  -5.060  0.00  0.00     0.008 C 
ATOM      8  C   LIG d   1       7.043  -2.193  -6.437  0.00  0.00    -0.044 C 
ATOM      9  C   LIG d   1       6.529  -0.861  -6.939  0.00  0.00    -0.049 C 
ATOM     10  C   LIG d   1       6.594   0.257  -5.913  0.00  0.00    -0.032 C 
ATOM     11  H   LIG d   1       5.905   1.057  -6.298  0.00  0.00     0.031 H 
ATOM     12  C   LIG d   1       6.010  -0.171  -4.584  0.00  0.00    -0.034 C 
ATOM     13  H   LIG d   1       4.933  -0.390  -4.758  0.00  0.00     0.031 H 
ATOM     14  C   LIG d   1       6.066   0.948  -3.547  0.00  0.00    -0.049 C 
ATOM     15  C   LIG d   1       7.485   1.505  -3.437  0.00  0.00    -0.049 C 
ATOM     16  C   LIG d   1       7.907   2.052  -4.799  0.00  0.00    -0.035 C 
ATOM     17  H   LIG d   1       7.149   2.777  -5.129  0.00  0.00     0.031 H 
ATOM     18  C   LIG d   1       7.960   0.920  -5.829  0.00  0.00    -0.026 C 
ATOM     19  C   LIG d   1       8.296   1.543  -7.193  0.00  0.00    -0.047 C 
ATOM     20  C   LIG d   1       9.629   2.283  -7.136  0.00  0.00    -0.049 C 
ATOM     21  C   LIG d   1       9.601   3.371  -6.065  0.00  0.00    -0.036 C 
ATOM     22  H   LIG d   1       8.853   4.122  -6.328  0.00  0.00     0.030 H 
ATOM     23  C   LIG d   1       9.251   2.765  -4.705  0.00  0.00    -0.046 C 
ATOM     24  H   LIG d   1       3.672  -2.092  -3.745  0.00  0.00     0.030 H 
ATOM     25  H   LIG d   1       4.310  -3.639  -3.125  0.00  0.00     0.030 H 
ATOM     26  H   LIG d   1       6.205  -2.631  -2.228  0.00  0.00     0.027 H 
ATOM     27  H   LIG d   1       5.252  -1.128  -2.349  0.00  0.00     0.027 H 
ATOM     28  H   LIG d   1       8.130  -2.235  -6.480  0.00  0.00     0.027 H 
ATOM     29  H   LIG d   1       6.689  -2.975  -7.136  0.00  0.00     0.027 H 
ATOM     30  H   LIG d   1       7.089  -0.569  -7.837  0.00  0.00     0.027 H 
ATOM     31  H   LIG d   1       5.479  -0.983  -7.259  0.00  0.00     0.027 H 
ATOM     32  H   LIG d   1       5.749   0.577  -2.572  0.00  0.00     0.027 H 
ATOM     33  H   LIG d   1       5.389   1.755  -3.848  0.00  0.00     0.027 H 
ATOM     34  H   LIG d   1       8.165   0.730  -3.100  0.00  0.00     0.027 H 
ATOM     35  H   LIG d   1       7.491   2.321  -2.706  0.00  0.00     0.027 H 
ATOM     36  H   LIG d   1       8.355   0.751  -7.941  0.00  0.00     0.027 H 
ATOM     37  H   LIG d   1       7.502   2.238  -7.468  0.00  0.00     0.027 H 
ATOM     38  H   LIG d   1       9.809   2.756  -8.111  0.00  0.00     0.027 H 
ATOM     39  H   LIG d   1      10.448   1.594  -6.945  0.00  0.00     0.027 H 
ATOM     40  H   LIG d   1       9.172   3.576  -3.970  0.00  0.00     0.027 H 
ATOM     41  H   LIG d   1      10.036   2.089  -4.383  0.00  0.00     0.027 H 
ENDROOT
BRANCH   1  42
ATOM     42  O   LIG d   1       5.053  -4.489  -5.288  0.00  0.00    -0.461 OA
BRANCH  42  43
ATOM     43  C   LIG d   1       4.286  -4.913  -6.305  0.00  0.00     0.304 C 
ATOM     44  O   LIG d   1       3.175  -5.335  -6.089  0.00  0.00    -0.251 OA
BRANCH  43  45
ATOM     45  C   LIG d   1       4.812  -4.864  -7.716  0.00  0.00     0.033 C 
ATOM     46  H   LIG d   1       4.004  -4.594  -8.396  0.00  0.00     0.034 H 
ATOM     47  H   LIG d   1       5.606  -4.119  -7.783  0.00  0.00     0.034 H 
ATOM     48  H   LIG d   1       5.207  -5.842  -7.991  0.00  0.00     0.034 H 
ENDBRANCH  43  45
ENDBRANCH  42  43
ENDBRANCH   1  42
BRANCH   7  49
ATOM     49  C   LIG d   1       7.449  -3.738  -4.562  0.00  0.00    -0.056 C 
ATOM     50  H   LIG d   1       6.899  -4.320  -3.821  0.00  0.00     0.024 H 
ATOM     51  H   LIG d   1       7.716  -4.380  -5.403  0.00  0.00     0.024 H 
ATOM     52  H   LIG d   1       8.355  -3.337  -4.109  0.00  0.00     0.024 H 
ENDBRANCH   7  49
BRANCH  18  53
ATOM     53  C   LIG d   1       9.058  -0.074  -5.462  0.00  0.00    -0.059 C 
ATOM     54  H   LIG d   1       9.363  -0.623  -6.353  0.00  0.00     0.024 H 
ATOM     55  H   LIG d   1       8.681  -0.773  -4.716  0.00  0.00     0.024 H 
ATOM     56  H   LIG d   1       9.914   0.464  -5.056  0.00  0.00     0.024 H 
ENDBRANCH  18  53
BRANCH  21  57
ATOM     57  C   LIG d   1      10.977   4.038  -5.981  0.00  0.00    -0.010 C 
ATOM     58  H   LIG d   1      11.582   3.529  -5.231  0.00  0.00     0.033 H 
ATOM     59  H   LIG d   1      11.471   3.976  -6.950  0.00  0.00     0.033 H 
BRANCH  57  60
ATOM     60  C   LIG d   1      10.810   5.486  -5.594  0.00  0.00     0.042 C 
ATOM     61  O   LIG d   1      11.483   5.954  -4.706  0.00  0.00    -0.550 OA
ATOM     62  O   LIG d   1       9.916   6.253  -6.236  0.00  0.00    -0.550 OA
ENDBRANCH  57  60
ENDBRANCH  21  57
TORSDOF 7
ENDMDL
MODEL 6
REMARK VINA RESULT:      -5.5      4.244      8.453
REMARK  7 active torsions:
REMARK  status: ('A' for Active; 'I' for Inactive)
REMARK    1  A    between atoms: C_1  and  C_2 
REMARK    2  A    between atoms: C_2  and  O_4 
REMARK    3  A    between atoms: O_4  and  C_5 
REMARK    4  A    between atoms: C_11  and  C_32 
REMARK    5  A    between atoms: C_22  and  C_31 
REMARK    6  A    between atoms: C_25  and  C_28 
REMARK    7  A    between atoms: C_28  and  C_29 
ROOT
ATOM      1  C   LIG d   1       3.808  -1.157  -5.683  0.00  0.00     0.109 C 
ATOM      2  H   LIG d   1       3.193  -2.055  -5.722  0.00  0.00     0.074 H 
ATOM      3  C   LIG d   1       2.920   0.101  -5.649  0.00  0.00    -0.015 C 
ATOM      4  C   LIG d   1       3.191   0.875  -6.955  0.00  0.00    -0.046 C 
ATOM      5  C   LIG d   1       3.829  -0.171  -7.918  0.00  0.00    -0.029 C 
ATOM      6  H   LIG d   1       4.446   0.318  -8.674  0.00  0.00     0.031 H 
ATOM      7  C   LIG d   1       4.656  -1.038  -6.958  0.00  0.00     0.008 C 
ATOM      8  C   LIG d   1       5.044  -2.383  -7.515  0.00  0.00    -0.044 C 
ATOM      9  C   LIG d   1       3.934  -3.125  -8.230  0.00  0.00    -0.049 C 
ATOM     10  C   LIG d   1       3.121  -2.262  -9.179  0.00  0.00    -0.032 C 
ATOM     11  H   LIG d   1       2.175  -2.839  -9.371  0.00  0.00     0.031 H 
ATOM     12  C   LIG d   1       2.680  -0.973  -8.521  0.00  0.00    -0.034 C 
ATOM     13  H   LIG d   1       2.008  -1.251  -7.679  0.00  0.00     0.031 H 
ATOM     14  C   LIG d   1       1.856  -0.101  -9.466  0.00  0.00    -0.049 C 
ATOM     15  C   LIG d   1       2.602   0.112 -10.784  0.00  0.00    -0.049 C 
ATOM     16  C   LIG d   1       2.852  -1.247 -11.433  0.00  0.00    -0.035 C 
ATOM     17  H   LIG d   1       1.887  -1.768 -11.526  0.00  0.00     0.031 H 
ATOM     18  C   LIG d   1       3.767  -2.097 -10.546  0.00  0.00    -0.026 C 
ATOM     19  C   LIG d   1       3.904  -3.479 -11.203  0.00  0.00    -0.047 C 
ATOM     20  C   LIG d   1       4.482  -3.354 -12.609  0.00  0.00    -0.049 C 
ATOM     21  C   LIG d   1       3.606  -2.455 -13.479  0.00  0.00    -0.036 C 
ATOM     22  H   LIG d   1       2.622  -2.913 -13.599  0.00  0.00     0.030 H 
ATOM     23  C   LIG d   1       3.447  -1.081 -12.826  0.00  0.00    -0.046 C 
ATOM     24  H   LIG d   1       1.868  -0.184  -5.592  0.00  0.00     0.030 H 
ATOM     25  H   LIG d   1       3.181   0.720  -4.788  0.00  0.00     0.030 H 
ATOM     26  H   LIG d   1       3.878   1.704  -6.778  0.00  0.00     0.027 H 
ATOM     27  H   LIG d   1       2.255   1.257  -7.367  0.00  0.00     0.027 H 
ATOM     28  H   LIG d   1       5.921  -2.281  -8.152  0.00  0.00     0.027 H 
ATOM     29  H   LIG d   1       5.370  -3.008  -6.661  0.00  0.00     0.027 H 
ATOM     30  H   LIG d   1       4.360  -3.976  -8.779  0.00  0.00     0.027 H 
ATOM     31  H   LIG d   1       3.253  -3.557  -7.476  0.00  0.00     0.027 H 
ATOM     32  H   LIG d   1       1.654   0.867  -9.007  0.00  0.00     0.027 H 
ATOM     33  H   LIG d   1       0.901  -0.594  -9.673  0.00  0.00     0.027 H 
ATOM     34  H   LIG d   1       3.534   0.637 -10.604  0.00  0.00     0.027 H 
ATOM     35  H   LIG d   1       1.979   0.718 -11.450  0.00  0.00     0.027 H 
ATOM     36  H   LIG d   1       4.566  -4.098 -10.595  0.00  0.00     0.027 H 
ATOM     37  H   LIG d   1       2.920  -3.946 -11.250  0.00  0.00     0.027 H 
ATOM     38  H   LIG d   1       4.517  -4.354 -13.064  0.00  0.00     0.027 H 
ATOM     39  H   LIG d   1       5.498  -2.968 -12.580  0.00  0.00     0.027 H 
ATOM     40  H   LIG d   1       2.762  -0.481 -13.437  0.00  0.00     0.027 H 
ATOM     41  H   LIG d   1       4.404  -0.571 -12.790  0.00  0.00     0.027 H 
ENDROOT
BRANCH   1  42
ATOM     42  O   LIG d   1       4.671  -1.193  -4.515  0.00  0.00    -0.461 OA
BRANCH  42  43
ATOM     43  C   LIG d   1       4.401  -2.125  -3.587  0.00  0.00     0.304 C 
ATOM     44  O   LIG d   1       4.326  -3.289  -3.904  0.00  0.00    -0.251 OA
BRANCH  43  45
ATOM     45  C   LIG d   1       4.192  -1.721  -2.151  0.00  0.00     0.033 C 
ATOM     46  H   LIG d   1       3.775  -0.715  -2.113  0.00  0.00     0.034 H 
ATOM     47  H   LIG d   1       3.504  -2.418  -1.673  0.00  0.00     0.034 H 
ATOM     48  H   LIG d   1       5.148  -1.738  -1.626  0.00  0.00     0.034 H 
ENDBRANCH  43  45
ENDBRANCH  42  43
ENDBRANCH   1  42
BRANCH   7  49
ATOM     49  C   LIG d   1       5.943  -0.278  -6.607  0.00  0.00    -0.056 C 
ATOM     50  H   LIG d   1       5.690   0.727  -6.267  0.00  0.00     0.024 H 
ATOM     51  H   LIG d   1       6.473  -0.807  -5.813  0.00  0.00     0.024 H 
ATOM     52  H   LIG d   1       6.580  -0.214  -7.489  0.00  0.00     0.024 H 
ENDBRANCH   7  49
BRANCH  18  53
ATOM     53  C   LIG d   1       5.150  -1.460 -10.454  0.00  0.00    -0.059 C 
ATOM     54  H   LIG d   1       5.907  -2.195 -10.725  0.00  0.00     0.024 H 
ATOM     55  H   LIG d   1       5.325  -1.117  -9.434  0.00  0.00     0.024 H 
ATOM     56  H   LIG d   1       5.206  -0.612 -11.136  0.00  0.00     0.024 H 
ENDBRANCH  18  53
BRANCH  21  57
ATOM     57  C   LIG d   1       4.256  -2.289 -14.856  0.00  0.00    -0.010 C 
ATOM     58  H   LIG d   1       5.202  -1.757 -14.749  0.00  0.00     0.033 H 
ATOM     59  H   LIG d   1       4.437  -3.270 -15.293  0.00  0.00     0.033 H 
BRANCH  57  60
ATOM     60  C   LIG d   1       3.336  -1.501 -15.753  0.00  0.00     0.042 C 
ATOM     61  O   LIG d   1       2.245  -1.939 -16.034  0.00  0.00    -0.550 OA
ATOM     62  O   LIG d   1       3.729  -0.314 -16.241  0.00  0.00    -0.550 OA
ENDBRANCH  57  60
ENDBRANCH  21  57
TORSDOF 7
ENDMDL
MODEL 7
REMARK VINA RESULT:      -5.5      4.126      8.119
REMARK  7 active torsions:
REMARK  status: ('A' for Active; 'I' for Inactive)
REMARK    1  A    between atoms: C_1  and  C_2 
REMARK    2  A    between atoms: C_2  and  O_4 
REMARK    3  A    between atoms: O_4  and  C_5 
REMARK    4  A    between atoms: C_11  and  C_32 
REMARK    5  A    between atoms: C_22  and  C_31 
REMARK    6  A    between atoms: C_25  and  C_28 
REMARK    7  A    between atoms: C_28  and  C_29 
ROOT
ATOM      1  C   LIG d   1       5.169  -0.175  -4.859  0.00  0.00     0.109 C 
ATOM      2  H   LIG d   1       4.706   0.796  -5.030  0.00  0.00     0.074 H 
ATOM      3  C   LIG d   1       6.703  -0.040  -4.827  0.00  0.00    -0.015 C 
ATOM      4  C   LIG d   1       7.247  -0.828  -6.035  0.00  0.00    -0.046 C 
ATOM      5  C   LIG d   1       6.032  -0.976  -7.000  0.00  0.00    -0.029 C 
ATOM      6  H   LIG d   1       6.149  -1.847  -7.647  0.00  0.00     0.031 H 
ATOM      7  C   LIG d   1       4.856  -1.126  -6.023  0.00  0.00     0.008 C 
ATOM      8  C   LIG d   1       3.505  -0.857  -6.634  0.00  0.00    -0.044 C 
ATOM      9  C   LIG d   1       3.433   0.371  -7.516  0.00  0.00    -0.049 C 
ATOM     10  C   LIG d   1       4.598   0.512  -8.480  0.00  0.00    -0.032 C 
ATOM     11  H   LIG d   1       4.580   1.586  -8.815  0.00  0.00     0.031 H 
ATOM     12  C   LIG d   1       5.927   0.330  -7.779  0.00  0.00    -0.034 C 
ATOM     13  H   LIG d   1       6.018   1.154  -7.037  0.00  0.00     0.031 H 
ATOM     14  C   LIG d   1       7.105   0.477  -8.740  0.00  0.00    -0.049 C 
ATOM     15  C   LIG d   1       6.924  -0.439  -9.951  0.00  0.00    -0.049 C 
ATOM     16  C   LIG d   1       5.633  -0.057 -10.669  0.00  0.00    -0.035 C 
ATOM     17  H   LIG d   1       5.672   1.017 -10.902  0.00  0.00     0.031 H 
ATOM     18  C   LIG d   1       4.428  -0.301  -9.755  0.00  0.00    -0.026 C 
ATOM     19  C   LIG d   1       3.172   0.188 -10.494  0.00  0.00    -0.047 C 
ATOM     20  C   LIG d   1       3.002  -0.552 -11.817  0.00  0.00    -0.049 C 
ATOM     21  C   LIG d   1       4.229  -0.364 -12.706  0.00  0.00    -0.036 C 
ATOM     22  H   LIG d   1       4.333   0.691 -12.965  0.00  0.00     0.030 H 
ATOM     23  C   LIG d   1       5.489  -0.831 -11.974  0.00  0.00    -0.046 C 
ATOM     24  H   LIG d   1       6.988   1.011  -4.904  0.00  0.00     0.030 H 
ATOM     25  H   LIG d   1       7.096  -0.461  -3.900  0.00  0.00     0.030 H 
ATOM     26  H   LIG d   1       7.613  -1.808  -5.725  0.00  0.00     0.027 H 
ATOM     27  H   LIG d   1       8.054  -0.271  -6.515  0.00  0.00     0.027 H 
ATOM     28  H   LIG d   1       3.156  -1.742  -7.165  0.00  0.00     0.027 H 
ATOM     29  H   LIG d   1       2.793  -0.714  -5.799  0.00  0.00     0.027 H 
ATOM     30  H   LIG d   1       2.489   0.360  -8.078  0.00  0.00     0.027 H 
ATOM     31  H   LIG d   1       3.397   1.268  -6.874  0.00  0.00     0.027 H 
ATOM     32  H   LIG d   1       8.038   0.226  -8.234  0.00  0.00     0.027 H 
ATOM     33  H   LIG d   1       7.164   1.515  -9.084  0.00  0.00     0.027 H 
ATOM     34  H   LIG d   1       6.904  -1.476  -9.634  0.00  0.00     0.027 H 
ATOM     35  H   LIG d   1       7.769  -0.295 -10.633  0.00  0.00     0.027 H 
ATOM     36  H   LIG d   1       2.298   0.010  -9.866  0.00  0.00     0.027 H 
ATOM     37  H   LIG d   1       3.267   1.258 -10.681  0.00  0.00     0.027 H 
ATOM     38  H   LIG d   1       2.127  -0.141 -12.338  0.00  0.00     0.027 H 
ATOM     39  H   LIG d   1       2.822  -1.611 -11.650  0.00  0.00     0.027 H 
ATOM     40  H   LIG d   1       6.359  -0.624 -12.609  0.00  0.00     0.027 H 
ATOM     41  H   LIG d   1       5.444  -1.901 -11.798  0.00  0.00     0.027 H 
ENDROOT
BRANCH   1  42
ATOM     42  O   LIG d   1       4.690  -0.744  -3.611  0.00  0.00    -0.461 OA
BRANCH  42  43
ATOM     43  C   LIG d   1       3.635  -0.147  -3.035  0.00  0.00     0.304 C 
ATOM     44  O   LIG d   1       2.546  -0.670  -3.080  0.00  0.00    -0.251 OA
BRANCH  43  45
ATOM     45  C   LIG d   1       3.806   1.175  -2.333  0.00  0.00     0.033 C 
ATOM     46  H   LIG d   1       4.095   1.001  -1.297  0.00  0.00     0.034 H 
ATOM     47  H   LIG d   1       4.582   1.754  -2.834  0.00  0.00     0.034 H 
ATOM     48  H   LIG d   1       2.866   1.727  -2.361  0.00  0.00     0.034 H 
ENDBRANCH  43  45
ENDBRANCH  42  43
ENDBRANCH   1  42
BRANCH   7  49
ATOM     49  C   LIG d   1       4.858  -2.563  -5.481  0.00  0.00    -0.056 C 
ATOM     50  H   LIG d   1       3.967  -3.085  -5.833  0.00  0.00     0.024 H 
ATOM     51  H   LIG d   1       5.748  -3.084  -5.835  0.00  0.00     0.024 H 
ATOM     52  H   LIG d   1       4.859  -2.540  -4.392  0.00  0.00     0.024 H 
ENDBRANCH   7  49
BRANCH  18  53
ATOM     53  C   LIG d   1       4.278  -1.792  -9.468  0.00  0.00    -0.059 C 
ATOM     54  H   LIG d   1       5.143  -2.325  -9.860  0.00  0.00     0.024 H 
ATOM     55  H   LIG d   1       3.373  -2.164  -9.949  0.00  0.00     0.024 H 
ATOM     56  H   LIG d   1       4.209  -1.950  -8.393  0.00  0.00     0.024 H 
ENDBRANCH  18  53
BRANCH  21  57
ATOM     57  C   LIG d   1       4.058  -1.183 -13.989  0.00  0.00    -0.010 C 
ATOM     58  H   LIG d   1       4.609  -2.119 -13.899  0.00  0.00     0.033 H 
ATOM     59  H   LIG d   1       3.002  -1.395 -14.147  0.00  0.00     0.033 H 
BRANCH  57  60
ATOM     60  C   LIG d   1       4.593  -0.398 -15.161  0.00  0.00     0.042 C 
ATOM     61  O   LIG d   1       3.827   0.132 -15.931  0.00  0.00    -0.550 OA
ATOM     62  O   LIG d   1       5.917  -0.290 -15.347  0.00  0.00    -0.550 OA
ENDBRANCH  57  60
ENDBRANCH  21  57
TORSDOF 7
ENDMDL
MODEL 8
REMARK VINA RESULT:      -5.5      8.063     12.740
REMARK  7 active torsions:
REMARK  status: ('A' for Active; 'I' for Inactive)
REMARK    1  A    between atoms: C_1  and  C_2 
REMARK    2  A    between atoms: C_2  and  O_4 
REMARK    3  A    between atoms: O_4  and  C_5 
REMARK    4  A    between atoms: C_11  and  C_32 
REMARK    5  A    between atoms: C_22  and  C_31 
REMARK    6  A    between atoms: C_25  and  C_28 
REMARK    7  A    between atoms: C_28  and  C_29 
ROOT
ATOM      1  C   LIG d   1      11.032   7.517  -1.060  0.00  0.00     0.109 C 
ATOM      2  H   LIG d   1      10.136   6.981  -0.753  0.00  0.00     0.074 H 
ATOM      3  C   LIG d   1      10.660   8.884  -1.664  0.00  0.00    -0.015 C 
ATOM      4  C   LIG d   1      11.077   8.846  -3.148  0.00  0.00    -0.046 C 
ATOM      5  C   LIG d   1      11.214   7.332  -3.490  0.00  0.00    -0.029 C 
ATOM      6  H   LIG d   1      11.898   7.179  -4.326  0.00  0.00     0.031 H 
ATOM      7  C   LIG d   1      11.755   6.748  -2.176  0.00  0.00     0.008 C 
ATOM      8  C   LIG d   1      11.586   5.256  -2.045  0.00  0.00    -0.044 C 
ATOM      9  C   LIG d   1      10.228   4.726  -2.452  0.00  0.00    -0.049 C 
ATOM     10  C   LIG d   1       9.700   5.306  -3.753  0.00  0.00    -0.032 C 
ATOM     11  H   LIG d   1       8.597   5.084  -3.753  0.00  0.00     0.031 H 
ATOM     12  C   LIG d   1       9.807   6.815  -3.774  0.00  0.00    -0.034 C 
ATOM     13  H   LIG d   1       9.155   7.199  -2.959  0.00  0.00     0.031 H 
ATOM     14  C   LIG d   1       9.272   7.408  -5.076  0.00  0.00    -0.049 C 
ATOM     15  C   LIG d   1       9.929   6.734  -6.280  0.00  0.00    -0.049 C 
ATOM     16  C   LIG d   1       9.620   5.239  -6.238  0.00  0.00    -0.035 C 
ATOM     17  H   LIG d   1       8.529   5.115  -6.175  0.00  0.00     0.031 H 
ATOM     18  C   LIG d   1      10.243   4.606  -4.990  0.00  0.00    -0.026 C 
ATOM     19  C   LIG d   1       9.820   3.129  -4.952  0.00  0.00    -0.047 C 
ATOM     20  C   LIG d   1      10.282   2.404  -6.212  0.00  0.00    -0.049 C 
ATOM     21  C   LIG d   1       9.714   3.071  -7.463  0.00  0.00    -0.036 C 
ATOM     22  H   LIG d   1       8.626   2.992  -7.455  0.00  0.00     0.030 H 
ATOM     23  C   LIG d   1      10.115   4.547  -7.502  0.00  0.00    -0.046 C 
ATOM     24  H   LIG d   1       9.585   9.050  -1.580  0.00  0.00     0.030 H 
ATOM     25  H   LIG d   1      11.197   9.680  -1.146  0.00  0.00     0.030 H 
ATOM     26  H   LIG d   1      12.027   9.361  -3.297  0.00  0.00     0.027 H 
ATOM     27  H   LIG d   1      10.308   9.312  -3.767  0.00  0.00     0.027 H 
ATOM     28  H   LIG d   1      12.384   4.745  -2.582  0.00  0.00     0.027 H 
ATOM     29  H   LIG d   1      11.740   5.004  -0.978  0.00  0.00     0.027 H 
ATOM     30  H   LIG d   1      10.273   3.631  -2.529  0.00  0.00     0.027 H 
ATOM     31  H   LIG d   1       9.505   4.947  -1.649  0.00  0.00     0.027 H 
ATOM     32  H   LIG d   1       9.470   8.480  -5.112  0.00  0.00     0.027 H 
ATOM     33  H   LIG d   1       8.190   7.252  -5.127  0.00  0.00     0.027 H 
ATOM     34  H   LIG d   1      10.999   6.912  -6.270  0.00  0.00     0.027 H 
ATOM     35  H   LIG d   1       9.510   7.160  -7.198  0.00  0.00     0.027 H 
ATOM     36  H   LIG d   1      10.266   2.653  -4.078  0.00  0.00     0.027 H 
ATOM     37  H   LIG d   1       8.733   3.076  -4.875  0.00  0.00     0.027 H 
ATOM     38  H   LIG d   1       9.918   1.367  -6.173  0.00  0.00     0.027 H 
ATOM     39  H   LIG d   1      11.367   2.372  -6.267  0.00  0.00     0.027 H 
ATOM     40  H   LIG d   1       9.640   5.015  -8.373  0.00  0.00     0.027 H 
ATOM     41  H   LIG d   1      11.190   4.640  -7.610  0.00  0.00     0.027 H 
ENDROOT
BRANCH   1  42
ATOM     42  O   LIG d   1      11.921   7.696   0.074  0.00  0.00    -0.461 OA
BRANCH  42  43
ATOM     43  C   LIG d   1      11.477   7.274   1.269  0.00  0.00     0.304 C 
ATOM     44  O   LIG d   1      11.477   8.028   2.214  0.00  0.00    -0.251 OA
BRANCH  43  45
ATOM     45  C   LIG d   1      10.978   5.862   1.432  0.00  0.00     0.033 C 
ATOM     46  H   LIG d   1      10.734   5.447   0.455  0.00  0.00     0.034 H 
ATOM     47  H   LIG d   1      11.752   5.255   1.901  0.00  0.00     0.034 H 
ATOM     48  H   LIG d   1      10.086   5.862   2.060  0.00  0.00     0.034 H 
ENDBRANCH  43  45
ENDBRANCH  42  43
ENDBRANCH   1  42
BRANCH   7  49
ATOM     49  C   LIG d   1      13.254   7.069  -2.085  0.00  0.00    -0.056 C 
ATOM     50  H   LIG d   1      13.545   7.151  -1.037  0.00  0.00     0.024 H 
ATOM     51  H   LIG d   1      13.826   6.271  -2.560  0.00  0.00     0.024 H 
ATOM     52  H   LIG d   1      13.455   8.012  -2.593  0.00  0.00     0.024 H 
ENDBRANCH   7  49
BRANCH  18  53
ATOM     53  C   LIG d   1      11.765   4.677  -5.067  0.00  0.00    -0.059 C 
ATOM     54  H   LIG d   1      12.197   3.966  -4.364  0.00  0.00     0.024 H 
ATOM     55  H   LIG d   1      12.095   5.685  -4.814  0.00  0.00     0.024 H 
ATOM     56  H   LIG d   1      12.089   4.432  -6.078  0.00  0.00     0.024 H 
ENDBRANCH  18  53
BRANCH  21  57
ATOM     57  C   LIG d   1      10.261   2.366  -8.708  0.00  0.00    -0.010 C 
ATOM     58  H   LIG d   1      11.219   2.807  -8.984  0.00  0.00     0.033 H 
ATOM     59  H   LIG d   1      10.395   1.306  -8.497  0.00  0.00     0.033 H 
BRANCH  57  60
ATOM     60  C   LIG d   1       9.287   2.532  -9.847  0.00  0.00     0.042 C 
ATOM     61  O   LIG d   1       9.584   3.212 -10.801  0.00  0.00    -0.550 OA
ATOM     62  O   LIG d   1       8.091   1.925  -9.801  0.00  0.00    -0.550 OA
ENDBRANCH  57  60
ENDBRANCH  21  57
TORSDOF 7
ENDMDL
MODEL 9
REMARK VINA RESULT:      -5.5      9.708     13.838
REMARK  7 active torsions:
REMARK  status: ('A' for Active; 'I' for Inactive)
REMARK    1  A    between atoms: C_1  and  C_2 
REMARK    2  A    between atoms: C_2  and  O_4 
REMARK    3  A    between atoms: O_4  and  C_5 
REMARK    4  A    between atoms: C_11  and  C_32 
REMARK    5  A    between atoms: C_22  and  C_31 
REMARK    6  A    between atoms: C_25  and  C_28 
REMARK    7  A    between atoms: C_28  and  C_29 
ROOT
ATOM      1  C   LIG d   1      11.079   8.533  -0.503  0.00  0.00     0.109 C 
ATOM      2  H   LIG d   1      11.970   8.884  -1.021  0.00  0.00     0.074 H 
ATOM      3  C   LIG d   1      11.396   7.265   0.312  0.00  0.00    -0.015 C 
ATOM      4  C   LIG d   1      10.577   6.117  -0.312  0.00  0.00    -0.046 C 
ATOM      5  C   LIG d   1      10.206   6.616  -1.740  0.00  0.00    -0.029 C 
ATOM      6  H   LIG d   1       9.303   6.124  -2.105  0.00  0.00     0.031 H 
ATOM      7  C   LIG d   1      10.002   8.122  -1.518  0.00  0.00     0.008 C 
ATOM      8  C   LIG d   1      10.057   8.948  -2.777  0.00  0.00    -0.044 C 
ATOM      9  C   LIG d   1      11.189   8.602  -3.721  0.00  0.00    -0.049 C 
ATOM     10  C   LIG d   1      11.384   7.112  -3.938  0.00  0.00    -0.032 C 
ATOM     11  H   LIG d   1      12.415   7.005  -4.373  0.00  0.00     0.031 H 
ATOM     12  C   LIG d   1      11.420   6.357  -2.627  0.00  0.00    -0.034 C 
ATOM     13  H   LIG d   1      12.308   6.723  -2.066  0.00  0.00     0.031 H 
ATOM     14  C   LIG d   1      11.621   4.858  -2.834  0.00  0.00    -0.049 C 
ATOM     15  C   LIG d   1      10.591   4.312  -3.823  0.00  0.00    -0.049 C 
ATOM     16  C   LIG d   1      10.755   5.037  -5.157  0.00  0.00    -0.035 C 
ATOM     17  H   LIG d   1      11.803   4.937  -5.477  0.00  0.00     0.031 H 
ATOM     18  C   LIG d   1      10.451   6.528  -4.988  0.00  0.00    -0.026 C 
ATOM     19  C   LIG d   1      10.724   7.217  -6.335  0.00  0.00    -0.047 C 
ATOM     20  C   LIG d   1       9.860   6.612  -7.436  0.00  0.00    -0.049 C 
ATOM     21  C   LIG d   1      10.114   5.111  -7.564  0.00  0.00    -0.036 C 
ATOM     22  H   LIG d   1      11.148   4.942  -7.869  0.00  0.00     0.030 H 
ATOM     23  C   LIG d   1       9.862   4.417  -6.224  0.00  0.00    -0.046 C 
ATOM     24  H   LIG d   1      12.462   7.040   0.255  0.00  0.00     0.030 H 
ATOM     25  H   LIG d   1      11.104   7.408   1.354  0.00  0.00     0.030 H 
ATOM     26  H   LIG d   1       9.677   5.922   0.273  0.00  0.00     0.027 H 
ATOM     27  H   LIG d   1      11.182   5.210  -0.366  0.00  0.00     0.027 H 
ATOM     28  H   LIG d   1       9.096   8.910  -3.287  0.00  0.00     0.027 H 
ATOM     29  H   LIG d   1      10.187  10.003  -2.469  0.00  0.00     0.027 H 
ATOM     30  H   LIG d   1      11.020   9.096  -4.688  0.00  0.00     0.027 H 
ATOM     31  H   LIG d   1      12.127   9.025  -3.321  0.00  0.00     0.027 H 
ATOM     32  H   LIG d   1      11.525   4.329  -1.886  0.00  0.00     0.027 H 
ATOM     33  H   LIG d   1      12.625   4.680  -3.232  0.00  0.00     0.027 H 
ATOM     34  H   LIG d   1       9.589   4.443  -3.428  0.00  0.00     0.027 H 
ATOM     35  H   LIG d   1      10.774   3.243  -3.971  0.00  0.00     0.027 H 
ATOM     36  H   LIG d   1      10.499   8.281  -6.243  0.00  0.00     0.027 H 
ATOM     37  H   LIG d   1      11.778   7.095  -6.586  0.00  0.00     0.027 H 
ATOM     38  H   LIG d   1      10.119   7.093  -8.390  0.00  0.00     0.027 H 
ATOM     39  H   LIG d   1       8.805   6.796  -7.249  0.00  0.00     0.027 H 
ATOM     40  H   LIG d   1      10.115   3.355  -6.328  0.00  0.00     0.027 H 
ATOM     41  H   LIG d   1       8.814   4.491  -5.956  0.00  0.00     0.027 H 
ENDROOT
BRANCH   1  42
ATOM     42  O   LIG d   1      10.566   9.575   0.370  0.00  0.00    -0.461 OA
BRANCH  42  43
ATOM     43  C   LIG d   1      11.306  10.688   0.490  0.00  0.00     0.304 C 
ATOM     44  O   LIG d   1      11.067  11.480   1.371  0.00  0.00    -0.251 OA
BRANCH  43  45
ATOM     45  C   LIG d   1      12.435  10.951  -0.472  0.00  0.00     0.033 C 
ATOM     46  H   LIG d   1      13.349  11.151   0.085  0.00  0.00     0.034 H 
ATOM     47  H   LIG d   1      12.582  10.077  -1.108  0.00  0.00     0.034 H 
ATOM     48  H   LIG d   1      12.191  11.814  -1.092  0.00  0.00     0.034 H 
ENDBRANCH  43  45
ENDBRANCH  42  43
ENDBRANCH   1  42
BRANCH   7  49
ATOM     49  C   LIG d   1       8.627   8.334  -0.868  0.00  0.00    -0.056 C 
ATOM     50  H   LIG d   1       8.331   9.378  -0.975  0.00  0.00     0.024 H 
ATOM     51  H   LIG d   1       7.891   7.696  -1.359  0.00  0.00     0.024 H 
ATOM     52  H   LIG d   1       8.682   8.078   0.190  0.00  0.00     0.024 H 
ENDBRANCH   7  49
BRANCH  18  53
ATOM     53  C   LIG d   1       8.983   6.728  -4.626  0.00  0.00    -0.059 C 
ATOM     54  H   LIG d   1       8.878   6.762  -3.542  0.00  0.00     0.024 H 
ATOM     55  H   LIG d   1       8.395   5.900  -5.022  0.00  0.00     0.024 H 
ATOM     56  H   LIG d   1       8.626   7.664  -5.055  0.00  0.00     0.024 H 
ENDBRANCH  18  53
BRANCH  21  57
ATOM     57  C   LIG d   1       9.175   4.524  -8.622  0.00  0.00    -0.010 C 
ATOM     58  H   LIG d   1       9.290   3.441  -8.648  0.00  0.00     0.033 H 
ATOM     59  H   LIG d   1       8.144   4.774  -8.372  0.00  0.00     0.033 H 
BRANCH  57  60
ATOM     60  C   LIG d   1       9.518   5.099  -9.973  0.00  0.00     0.042 C 
ATOM     61  O   LIG d   1      10.646   5.009 -10.397  0.00  0.00    -0.550 OA
ATOM     62  O   LIG d   1       8.572   5.709 -10.703  0.00  0.00    -0.550 OA
ENDBRANCH  57  60
ENDBRANCH  21  57
TORSDOF 7
ENDMDL
MODEL 10
REMARK VINA RESULT:      -5.4     10.211     12.145
REMARK  7 active torsions:
REMARK  status: ('A' for Active; 'I' for Inactive)
REMARK    1  A    between atoms: C_1  and  C_2 
REMARK    2  A    between atoms: C_2  and  O_4 
REMARK    3  A    between atoms: O_4  and  C_5 
REMARK    4  A    between atoms: C_11  and  C_32 
REMARK    5  A    between atoms: C_22  and  C_31 
REMARK    6  A    between atoms: C_25  and  C_28 
REMARK    7  A    between atoms: C_28  and  C_29 
ROOT
ATOM      1  C   LIG d   1      10.172   6.891 -11.483  0.00  0.00     0.109 C 
ATOM      2  H   LIG d   1       9.162   7.267 -11.321  0.00  0.00     0.074 H 
ATOM      3  C   LIG d   1      10.156   5.359 -11.634  0.00  0.00    -0.015 C 
ATOM      4  C   LIG d   1      10.935   4.783 -10.434  0.00  0.00    -0.046 C 
ATOM      5  C   LIG d   1      10.952   5.928  -9.377  0.00  0.00    -0.029 C 
ATOM      6  H   LIG d   1      11.802   5.825  -8.702  0.00  0.00     0.031 H 
ATOM      7  C   LIG d   1      11.049   7.183 -10.257  0.00  0.00     0.008 C 
ATOM      8  C   LIG d   1      10.654   8.460  -9.560  0.00  0.00    -0.044 C 
ATOM      9  C   LIG d   1       9.390   8.373  -8.732  0.00  0.00    -0.049 C 
ATOM     10  C   LIG d   1       9.300   7.130  -7.863  0.00  0.00    -0.032 C 
ATOM     11  H   LIG d   1       8.216   7.043  -7.578  0.00  0.00     0.031 H 
ATOM     12  C   LIG d   1       9.611   5.876  -8.651  0.00  0.00    -0.034 C 
ATOM     13  H   LIG d   1       8.827   5.782  -9.435  0.00  0.00     0.031 H 
ATOM     14  C   LIG d   1       9.518   4.620  -7.788  0.00  0.00    -0.049 C 
ATOM     15  C   LIG d   1      10.369   4.774  -6.527  0.00  0.00    -0.049 C 
ATOM     16  C   LIG d   1       9.861   5.975  -5.733  0.00  0.00    -0.035 C 
ATOM     17  H   LIG d   1       8.785   5.839  -5.552  0.00  0.00     0.031 H 
ATOM     18  C   LIG d   1      10.047   7.261  -6.545  0.00  0.00    -0.026 C 
ATOM     19  C   LIG d   1       9.435   8.417  -5.738  0.00  0.00    -0.047 C 
ATOM     20  C   LIG d   1      10.106   8.538  -4.374  0.00  0.00    -0.049 C 
ATOM     21  C   LIG d   1       9.979   7.236  -3.587  0.00  0.00    -0.036 C 
ATOM     22  H   LIG d   1       8.925   7.035  -3.384  0.00  0.00     0.030 H 
ATOM     23  C   LIG d   1      10.570   6.074  -4.388  0.00  0.00    -0.046 C 
ATOM     24  H   LIG d   1       9.128   4.992 -11.625  0.00  0.00     0.030 H 
ATOM     25  H   LIG d   1      10.642   5.070 -12.567  0.00  0.00     0.030 H 
ATOM     26  H   LIG d   1      11.952   4.514 -10.726  0.00  0.00     0.027 H 
ATOM     27  H   LIG d   1      10.424   3.902 -10.041  0.00  0.00     0.027 H 
ATOM     28  H   LIG d   1      11.487   8.831  -8.966  0.00  0.00     0.027 H 
ATOM     29  H   LIG d   1      10.489   9.222 -10.346  0.00  0.00     0.027 H 
ATOM     30  H   LIG d   1       9.306   9.269  -8.102  0.00  0.00     0.027 H 
ATOM     31  H   LIG d   1       8.519   8.392  -9.410  0.00  0.00     0.027 H 
ATOM     32  H   LIG d   1       9.860   3.749  -8.349  0.00  0.00     0.027 H 
ATOM     33  H   LIG d   1       8.475   4.458  -7.497  0.00  0.00     0.027 H 
ATOM     34  H   LIG d   1      11.413   4.894  -6.795  0.00  0.00     0.027 H 
ATOM     35  H   LIG d   1      10.264   3.871  -5.917  0.00  0.00     0.027 H 
ATOM     36  H   LIG d   1       9.570   9.347  -6.291  0.00  0.00     0.027 H 
ATOM     37  H   LIG d   1       8.368   8.229  -5.607  0.00  0.00     0.027 H 
ATOM     38  H   LIG d   1       9.609   9.339  -3.808  0.00  0.00     0.027 H 
ATOM     39  H   LIG d   1      11.154   8.809  -4.479  0.00  0.00     0.027 H 
ATOM     40  H   LIG d   1      10.405   5.145  -3.829  0.00  0.00     0.027 H 
ATOM     41  H   LIG d   1      11.638   6.211  -4.512  0.00  0.00     0.027 H 
ENDROOT
BRANCH   1  42
ATOM     42  O   LIG d   1      10.751   7.506 -12.664  0.00  0.00    -0.461 OA
BRANCH  42  43
ATOM     43  C   LIG d   1       9.956   8.315 -13.382  0.00  0.00     0.304 C 
ATOM     44  O   LIG d   1       9.354   9.210 -12.836  0.00  0.00    -0.251 OA
BRANCH  43  45
ATOM     45  C   LIG d   1       9.813   8.108 -14.868  0.00  0.00     0.033 C 
ATOM     46  H   LIG d   1       8.984   7.430 -15.063  0.00  0.00     0.034 H 
ATOM     47  H   LIG d   1       9.620   9.066 -15.351  0.00  0.00     0.034 H 
ATOM     48  H   LIG d   1      10.734   7.681 -15.265  0.00  0.00     0.034 H 
ENDBRANCH  43  45
ENDBRANCH  42  43
ENDBRANCH   1  42
BRANCH   7  49
ATOM     49  C   LIG d   1      12.502   7.329 -10.732  0.00  0.00    -0.056 C 
ATOM     50  H   LIG d   1      12.678   6.657 -11.573  0.00  0.00     0.024 H 
ATOM     51  H   LIG d   1      12.680   8.358 -11.046  0.00  0.00     0.024 H 
ATOM     52  H   LIG d   1      13.179   7.075  -9.916  0.00  0.00     0.024 H 
ENDBRANCH   7  49
BRANCH  18  53
ATOM     53  C   LIG d   1      11.532   7.542  -6.752  0.00  0.00    -0.059 C 
ATOM     54  H   LIG d   1      11.738   7.638  -7.818  0.00  0.00     0.024 H 
ATOM     55  H   LIG d   1      12.118   6.720  -6.341  0.00  0.00     0.024 H 
ATOM     56  H   LIG d   1      11.801   8.468  -6.245  0.00  0.00     0.024 H 
ENDBRANCH  18  53
BRANCH  21  57
ATOM     57  C   LIG d   1      10.730   7.368  -2.259  0.00  0.00    -0.010 C 
ATOM     58  H   LIG d   1      11.536   6.634  -2.223  0.00  0.00     0.033 H 
ATOM     59  H   LIG d   1      11.147   8.370  -2.175  0.00  0.00     0.033 H 
BRANCH  57  60
ATOM     60  C   LIG d   1       9.778   7.122  -1.116  0.00  0.00     0.042 C 
ATOM     61  O   LIG d   1       8.664   7.591  -1.148  0.00  0.00    -0.550 OA
ATOM     62  O   LIG d   1      10.167   6.385  -0.064  0.00  0.00    -0.550 OA
ENDBRANCH  57  60
ENDBRANCH  21  57
TORSDOF 7
ENDMDL
