MODEL 1
REMARK VINA RESULT:      -4.4      0.000      0.000
REMARK  5 active torsions:
REMARK  status: ('A' for Active; 'I' for Inactive)
REMARK    1  A    between atoms: C_1  and  C_2 
REMARK    2  A    between atoms: C_2  and  C_3 
REMARK    3  A    between atoms: C_3  and  C_5 
REMARK    4  A    between atoms: C_3  and  C_6 
REMARK    5  A    between atoms: C_6  and  C_7 
ROOT
ATOM      1  C   LIG d   1       3.337   0.098  -3.867  0.00  0.00    -0.039 C 
ATOM      2  H   LIG d   1       4.310  -0.258  -4.203  0.00  0.00     0.030 H 
ENDROOT
BRANCH   1   3
ATOM      3  C   LIG d   1       2.680  -0.968  -2.988  0.00  0.00    -0.053 C 
ATOM      4  H   LIG d   1       2.246  -0.495  -2.107  0.00  0.00     0.026 H 
ATOM      5  H   LIG d   1       1.896  -1.471  -3.554  0.00  0.00     0.026 H 
BRANCH   3   6
ATOM      6  C   LIG d   1       3.732  -1.990  -2.553  0.00  0.00    -0.065 C 
ATOM      7  H   LIG d   1       4.572  -1.472  -2.090  0.00  0.00     0.023 H 
ATOM      8  H   LIG d   1       3.291  -2.681  -1.835  0.00  0.00     0.023 H 
ATOM      9  H   LIG d   1       4.082  -2.544  -3.424  0.00  0.00     0.023 H 
ENDBRANCH   3   6
ENDBRANCH   1   3
BRANCH   1  10
ATOM     10  C   LIG d   1       2.449   0.377  -5.081  0.00  0.00    -0.062 C 
ATOM     11  H   LIG d   1       1.403   0.367  -4.775  0.00  0.00     0.023 H 
ATOM     12  H   LIG d   1       2.696   1.354  -5.496  0.00  0.00     0.023 H 
ATOM     13  H   LIG d   1       2.614  -0.390  -5.836  0.00  0.00     0.023 H 
ENDBRANCH   1  10
BRANCH   1  14
ATOM     14  C   LIG d   1       3.517   1.386  -3.059  0.00  0.00    -0.011 C 
ATOM     15  H   LIG d   1       2.728   1.458  -2.310  0.00  0.00     0.033 H 
ATOM     16  H   LIG d   1       3.462   2.244  -3.729  0.00  0.00     0.033 H 
BRANCH  14  17
ATOM     17  C   LIG d   1       4.859   1.367  -2.374  0.00  0.00     0.042 C 
ATOM     18  O   LIG d   1       4.931   1.126  -1.192  0.00  0.00    -0.550 OA
ATOM     19  O   LIG d   1       5.975   1.609  -3.079  0.00  0.00    -0.550 OA
ENDBRANCH  14  17
ENDBRANCH   1  14
TORSDOF 5
ENDMDL
MODEL 2
REMARK VINA RESULT:      -4.3      2.258      3.419
REMARK  5 active torsions:
REMARK  status: ('A' for Active; 'I' for Inactive)
REMARK    1  A    between atoms: C_1  and  C_2 
REMARK    2  A    between atoms: C_2  and  C_3 
REMARK    3  A    between atoms: C_3  and  C_5 
REMARK    4  A    between atoms: C_3  and  C_6 
REMARK    5  A    between atoms: C_6  and  C_7 
ROOT
ATOM      1  C   LIG d   1       3.928  -0.782  -2.968  0.00  0.00    -0.039 C 
ATOM      2  H   LIG d   1       4.694  -0.806  -3.742  0.00  0.00     0.030 H 
ENDROOT
BRANCH   1   3
ATOM      3  C   LIG d   1       4.303   0.259  -1.912  0.00  0.00    -0.053 C 
ATOM      4  H   LIG d   1       3.411   0.810  -1.613  0.00  0.00     0.026 H 
ATOM      5  H   LIG d   1       4.728  -0.242  -1.043  0.00  0.00     0.026 H 
BRANCH   3   6
ATOM      6  C   LIG d   1       5.331   1.231  -2.495  0.00  0.00    -0.065 C 
ATOM      7  H   LIG d   1       5.580   0.927  -3.512  0.00  0.00     0.023 H 
ATOM      8  H   LIG d   1       4.912   2.237  -2.509  0.00  0.00     0.023 H 
ATOM      9  H   LIG d   1       6.231   1.219  -1.880  0.00  0.00     0.023 H 
ENDBRANCH   3   6
ENDBRANCH   1   3
BRANCH   1  10
ATOM     10  C   LIG d   1       3.823  -2.160  -2.311  0.00  0.00    -0.062 C 
ATOM     11  H   LIG d   1       3.514  -2.894  -3.056  0.00  0.00     0.023 H 
ATOM     12  H   LIG d   1       4.793  -2.443  -1.904  0.00  0.00     0.023 H 
ATOM     13  H   LIG d   1       3.088  -2.125  -1.508  0.00  0.00     0.023 H 
ENDBRANCH   1  10
BRANCH   1  14
ATOM     14  C   LIG d   1       2.581  -0.411  -3.595  0.00  0.00    -0.011 C 
ATOM     15  H   LIG d   1       2.014   0.207  -2.898  0.00  0.00     0.033 H 
ATOM     16  H   LIG d   1       2.021  -1.320  -3.814  0.00  0.00     0.033 H 
BRANCH  14  17
ATOM     17  C   LIG d   1       2.815   0.355  -4.871  0.00  0.00     0.042 C 
ATOM     18  O   LIG d   1       3.262  -0.209  -5.841  0.00  0.00    -0.550 OA
ATOM     19  O   LIG d   1       2.519   1.663  -4.931  0.00  0.00    -0.550 OA
ENDBRANCH  14  17
ENDBRANCH   1  14
TORSDOF 5
ENDMDL
MODEL 3
REMARK VINA RESULT:      -4.2      0.924      2.079
REMARK  5 active torsions:
REMARK  status: ('A' for Active; 'I' for Inactive)
REMARK    1  A    between atoms: C_1  and  C_2 
REMARK    2  A    between atoms: C_2  and  C_3 
REMARK    3  A    between atoms: C_3  and  C_5 
REMARK    4  A    between atoms: C_3  and  C_6 
REMARK    5  A    between atoms: C_6  and  C_7 
ROOT
ATOM      1  C   LIG d   1       3.637  -0.739  -2.604  0.00  0.00    -0.039 C 
ATOM      2  H   LIG d   1       3.598  -0.238  -1.637  0.00  0.00     0.030 H 
ENDROOT
BRANCH   1   3
ATOM      3  C   LIG d   1       2.293  -0.577  -3.317  0.00  0.00    -0.053 C 
ATOM      4  H   LIG d   1       1.904  -1.558  -3.587  0.00  0.00     0.026 H 
ATOM      5  H   LIG d   1       1.588  -0.077  -2.652  0.00  0.00     0.026 H 
BRANCH   3   6
ATOM      6  C   LIG d   1       2.484   0.262  -4.582  0.00  0.00    -0.065 C 
ATOM      7  H   LIG d   1       3.006   1.186  -4.329  0.00  0.00     0.023 H 
ATOM      8  H   LIG d   1       3.074  -0.301  -5.305  0.00  0.00     0.023 H 
ATOM      9  H   LIG d   1       1.511   0.500  -5.011  0.00  0.00     0.023 H 
ENDBRANCH   3   6
ENDBRANCH   1   3
BRANCH   1  10
ATOM     10  C   LIG d   1       3.927  -2.228  -2.395  0.00  0.00    -0.062 C 
ATOM     11  H   LIG d   1       3.389  -2.582  -1.516  0.00  0.00     0.023 H 
ATOM     12  H   LIG d   1       3.600  -2.787  -3.271  0.00  0.00     0.023 H 
ATOM     13  H   LIG d   1       4.996  -2.373  -2.250  0.00  0.00     0.023 H 
ENDBRANCH   1  10
BRANCH   1  14
ATOM     14  C   LIG d   1       4.746  -0.118  -3.457  0.00  0.00    -0.011 C 
ATOM     15  H   LIG d   1       4.317   0.276  -4.379  0.00  0.00     0.033 H 
ATOM     16  H   LIG d   1       5.488  -0.879  -3.696  0.00  0.00     0.033 H 
BRANCH  14  17
ATOM     17  C   LIG d   1       5.402   1.001  -2.690  0.00  0.00     0.042 C 
ATOM     18  O   LIG d   1       5.016   1.279  -1.579  0.00  0.00    -0.550 OA
ATOM     19  O   LIG d   1       6.419   1.683  -3.238  0.00  0.00    -0.550 OA
ENDBRANCH  14  17
ENDBRANCH   1  14
TORSDOF 5
ENDMDL
MODEL 4
REMARK VINA RESULT:      -4.2      2.471      3.192
REMARK  5 active torsions:
REMARK  status: ('A' for Active; 'I' for Inactive)
REMARK    1  A    between atoms: C_1  and  C_2 
REMARK    2  A    between atoms: C_2  and  C_3 
REMARK    3  A    between atoms: C_3  and  C_5 
REMARK    4  A    between atoms: C_3  and  C_6 
REMARK    5  A    between atoms: C_6  and  C_7 
ROOT
ATOM      1  C   LIG d   1       3.099  -0.019  -3.382  0.00  0.00    -0.039 C 
ATOM      2  H   LIG d   1       2.401  -0.619  -2.798  0.00  0.00     0.030 H 
ENDROOT
BRANCH   1   3
ATOM      3  C   LIG d   1       3.488   1.228  -2.587  0.00  0.00    -0.053 C 
ATOM      4  H   LIG d   1       3.813   2.010  -3.273  0.00  0.00     0.026 H 
ATOM      5  H   LIG d   1       2.627   1.580  -2.018  0.00  0.00     0.026 H 
BRANCH   3   6
ATOM      6  C   LIG d   1       4.629   0.886  -1.626  0.00  0.00    -0.065 C 
ATOM      7  H   LIG d   1       4.440  -0.086  -1.171  0.00  0.00     0.023 H 
ATOM      8  H   LIG d   1       5.569   0.852  -2.177  0.00  0.00     0.023 H 
ATOM      9  H   LIG d   1       4.690   1.647  -0.849  0.00  0.00     0.023 H 
ENDBRANCH   3   6
ENDBRANCH   1   3
BRANCH   1  10
ATOM     10  C   LIG d   1       2.435   0.400  -4.696  0.00  0.00    -0.062 C 
ATOM     11  H   LIG d   1       2.625  -0.358  -5.456  0.00  0.00     0.023 H 
ATOM     12  H   LIG d   1       1.361   0.501  -4.544  0.00  0.00     0.023 H 
ATOM     13  H   LIG d   1       2.846   1.354  -5.022  0.00  0.00     0.023 H 
ENDBRANCH   1  10
BRANCH   1  14
ATOM     14  C   LIG d   1       4.352  -0.844  -3.684  0.00  0.00    -0.011 C 
ATOM     15  H   LIG d   1       5.179  -0.486  -3.070  0.00  0.00     0.033 H 
ATOM     16  H   LIG d   1       4.610  -0.738  -4.738  0.00  0.00     0.033 H 
BRANCH  14  17
ATOM     17  C   LIG d   1       4.086  -2.294  -3.374  0.00  0.00     0.042 C 
ATOM     18  O   LIG d   1       3.607  -2.606  -2.309  0.00  0.00    -0.550 OA
ATOM     19  O   LIG d   1       4.375  -3.238  -4.283  0.00  0.00    -0.550 OA
ENDBRANCH  14  17
ENDBRANCH   1  14
TORSDOF 5
ENDMDL
MODEL 5
REMARK VINA RESULT:      -4.2      2.389      3.210
REMARK  5 active torsions:
REMARK  status: ('A' for Active; 'I' for Inactive)
REMARK    1  A    between atoms: C_1  and  C_2 
REMARK    2  A    between atoms: C_2  and  C_3 
REMARK    3  A    between atoms: C_3  and  C_5 
REMARK    4  A    between atoms: C_3  and  C_6 
REMARK    5  A    between atoms: C_6  and  C_7 
ROOT
ATOM      1  C   LIG d   1       3.600  -0.251  -2.515  0.00  0.00    -0.039 C 
ATOM      2  H   LIG d   1       2.551  -0.079  -2.278  0.00  0.00     0.030 H 
ENDROOT
BRANCH   1   3
ATOM      3  C   LIG d   1       3.983  -1.681  -2.126  0.00  0.00    -0.053 C 
ATOM      4  H   LIG d   1       4.794  -1.654  -1.399  0.00  0.00     0.026 H 
ATOM      5  H   LIG d   1       3.119  -2.181  -1.689  0.00  0.00     0.026 H 
BRANCH   3   6
ATOM      6  C   LIG d   1       4.439  -2.444  -3.371  0.00  0.00    -0.065 C 
ATOM      7  H   LIG d   1       3.663  -3.148  -3.670  0.00  0.00     0.023 H 
ATOM      8  H   LIG d   1       4.621  -1.739  -4.183  0.00  0.00     0.023 H 
ATOM      9  H   LIG d   1       5.357  -2.986  -3.148  0.00  0.00     0.023 H 
ENDBRANCH   3   6
ENDBRANCH   1   3
BRANCH   1  10
ATOM     10  C   LIG d   1       4.468   0.739  -1.735  0.00  0.00    -0.062 C 
ATOM     11  H   LIG d   1       4.052   1.742  -1.835  0.00  0.00     0.023 H 
ATOM     12  H   LIG d   1       4.485   0.457  -0.683  0.00  0.00     0.023 H 
ATOM     13  H   LIG d   1       5.482   0.725  -2.132  0.00  0.00     0.023 H 
ENDBRANCH   1  10
BRANCH   1  14
ATOM     14  C   LIG d   1       3.823  -0.053  -4.016  0.00  0.00    -0.011 C 
ATOM     15  H   LIG d   1       4.013  -1.019  -4.485  0.00  0.00     0.033 H 
ATOM     16  H   LIG d   1       4.680   0.602  -4.172  0.00  0.00     0.033 H 
BRANCH  14  17
ATOM     17  C   LIG d   1       2.595   0.570  -4.629  0.00  0.00     0.042 C 
ATOM     18  O   LIG d   1       2.651   1.683  -5.093  0.00  0.00    -0.550 OA
ATOM     19  O   LIG d   1       1.442  -0.116  -4.664  0.00  0.00    -0.550 OA
ENDBRANCH  14  17
ENDBRANCH   1  14
TORSDOF 5
ENDMDL
MODEL 6
REMARK VINA RESULT:      -4.1      2.525      3.604
REMARK  5 active torsions:
REMARK  status: ('A' for Active; 'I' for Inactive)
REMARK    1  A    between atoms: C_1  and  C_2 
REMARK    2  A    between atoms: C_2  and  C_3 
REMARK    3  A    between atoms: C_3  and  C_5 
REMARK    4  A    between atoms: C_3  and  C_6 
REMARK    5  A    between atoms: C_6  and  C_7 
ROOT
ATOM      1  C   LIG d   1       4.201  -0.173  -2.727  0.00  0.00    -0.039 C 
ATOM      2  H   LIG d   1       4.783   0.049  -3.621  0.00  0.00     0.030 H 
ENDROOT
BRANCH   1   3
ATOM      3  C   LIG d   1       2.710  -0.153  -3.070  0.00  0.00    -0.053 C 
ATOM      4  H   LIG d   1       2.292  -1.149  -2.927  0.00  0.00     0.026 H 
ATOM      5  H   LIG d   1       2.197   0.554  -2.419  0.00  0.00     0.026 H 
BRANCH   3   6
ATOM      6  C   LIG d   1       2.528   0.272  -4.529  0.00  0.00    -0.065 C 
ATOM      7  H   LIG d   1       2.394   1.353  -4.578  0.00  0.00     0.023 H 
ATOM      8  H   LIG d   1       3.412  -0.010  -5.102  0.00  0.00     0.023 H 
ATOM      9  H   LIG d   1       1.651  -0.223  -4.945  0.00  0.00     0.023 H 
ENDBRANCH   3   6
ENDBRANCH   1   3
BRANCH   1  10
ATOM     10  C   LIG d   1       4.492   0.881  -1.655  0.00  0.00    -0.062 C 
ATOM     11  H   LIG d   1       5.038   0.419  -0.833  0.00  0.00     0.023 H 
ATOM     12  H   LIG d   1       5.092   1.681  -2.086  0.00  0.00     0.023 H 
ATOM     13  H   LIG d   1       3.553   1.290  -1.284  0.00  0.00     0.023 H 
ENDBRANCH   1  10
BRANCH   1  14
ATOM     14  C   LIG d   1       4.585  -1.557  -2.199  0.00  0.00    -0.011 C 
ATOM     15  H   LIG d   1       3.724  -2.010  -1.707  0.00  0.00     0.033 H 
ATOM     16  H   LIG d   1       5.402  -1.459  -1.485  0.00  0.00     0.033 H 
BRANCH  14  17
ATOM     17  C   LIG d   1       5.022  -2.429  -3.348  0.00  0.00     0.042 C 
ATOM     18  O   LIG d   1       6.120  -2.285  -3.832  0.00  0.00    -0.550 OA
ATOM     19  O   LIG d   1       4.195  -3.371  -3.828  0.00  0.00    -0.550 OA
ENDBRANCH  14  17
ENDBRANCH   1  14
TORSDOF 5
ENDMDL
MODEL 7
REMARK VINA RESULT:      -4.0      2.460      3.518
REMARK  5 active torsions:
REMARK  status: ('A' for Active; 'I' for Inactive)
REMARK    1  A    between atoms: C_1  and  C_2 
REMARK    2  A    between atoms: C_2  and  C_3 
REMARK    3  A    between atoms: C_3  and  C_5 
REMARK    4  A    between atoms: C_3  and  C_6 
REMARK    5  A    between atoms: C_6  and  C_7 
ROOT
ATOM      1  C   LIG d   1       4.301  -0.881  -2.939  0.00  0.00    -0.039 C 
ATOM      2  H   LIG d   1       5.234  -1.047  -3.477  0.00  0.00     0.030 H 
ENDROOT
BRANCH   1   3
ATOM      3  C   LIG d   1       4.521   0.167  -1.847  0.00  0.00    -0.053 C 
ATOM      4  H   LIG d   1       4.155  -0.217  -0.896  0.00  0.00     0.026 H 
ATOM      5  H   LIG d   1       5.585   0.388  -1.765  0.00  0.00     0.026 H 
BRANCH   3   6
ATOM      6  C   LIG d   1       3.761   1.446  -2.207  0.00  0.00    -0.065 C 
ATOM      7  H   LIG d   1       4.435   2.300  -2.139  0.00  0.00     0.023 H 
ATOM      8  H   LIG d   1       3.378   1.366  -3.224  0.00  0.00     0.023 H 
ATOM      9  H   LIG d   1       2.930   1.581  -1.515  0.00  0.00     0.023 H 
ENDBRANCH   3   6
ENDBRANCH   1   3
BRANCH   1  10
ATOM     10  C   LIG d   1       3.841  -2.194  -2.301  0.00  0.00    -0.062 C 
ATOM     11  H   LIG d   1       3.964  -2.133  -1.219  0.00  0.00     0.023 H 
ATOM     12  H   LIG d   1       2.791  -2.364  -2.537  0.00  0.00     0.023 H 
ATOM     13  H   LIG d   1       4.439  -3.016  -2.689  0.00  0.00     0.023 H 
ENDBRANCH   1  10
BRANCH   1  14
ATOM     14  C   LIG d   1       3.231  -0.386  -3.915  0.00  0.00    -0.011 C 
ATOM     15  H   LIG d   1       2.958   0.640  -3.665  0.00  0.00     0.033 H 
ATOM     16  H   LIG d   1       2.350  -1.024  -3.842  0.00  0.00     0.033 H 
BRANCH  14  17
ATOM     17  C   LIG d   1       3.771  -0.434  -5.321  0.00  0.00     0.042 C 
ATOM     18  O   LIG d   1       3.577   0.490  -6.074  0.00  0.00    -0.550 OA
ATOM     19  O   LIG d   1       4.475  -1.500  -5.733  0.00  0.00    -0.550 OA
ENDBRANCH  14  17
ENDBRANCH   1  14
TORSDOF 5
ENDMDL
MODEL 8
REMARK VINA RESULT:      -3.9      1.973      2.992
REMARK  5 active torsions:
REMARK  status: ('A' for Active; 'I' for Inactive)
REMARK    1  A    between atoms: C_1  and  C_2 
REMARK    2  A    between atoms: C_2  and  C_3 
REMARK    3  A    between atoms: C_3  and  C_5 
REMARK    4  A    between atoms: C_3  and  C_6 
REMARK    5  A    between atoms: C_6  and  C_7 
ROOT
ATOM      1  C   LIG d   1       4.959  -0.759  -2.445  0.00  0.00    -0.039 C 
ATOM      2  H   LIG d   1       5.867  -1.184  -2.019  0.00  0.00     0.030 H 
ENDROOT
BRANCH   1   3
ATOM      3  C   LIG d   1       4.552   0.480  -1.645  0.00  0.00    -0.053 C 
ATOM      4  H   LIG d   1       4.090   0.170  -0.707  0.00  0.00     0.026 H 
ATOM      5  H   LIG d   1       5.436   1.081  -1.433  0.00  0.00     0.026 H 
BRANCH   3   6
ATOM      6  C   LIG d   1       3.554   1.307  -2.457  0.00  0.00    -0.065 C 
ATOM      7  H   LIG d   1       4.053   1.718  -3.334  0.00  0.00     0.023 H 
ATOM      8  H   LIG d   1       2.728   0.670  -2.774  0.00  0.00     0.023 H 
ATOM      9  H   LIG d   1       3.170   2.120  -1.841  0.00  0.00     0.023 H 
ENDBRANCH   3   6
ENDBRANCH   1   3
BRANCH   1  10
ATOM     10  C   LIG d   1       3.835  -1.796  -2.387  0.00  0.00    -0.062 C 
ATOM     11  H   LIG d   1       4.237  -2.780  -2.630  0.00  0.00     0.023 H 
ATOM     12  H   LIG d   1       3.410  -1.815  -1.384  0.00  0.00     0.023 H 
ATOM     13  H   LIG d   1       3.060  -1.532  -3.105  0.00  0.00     0.023 H 
ENDBRANCH   1  10
BRANCH   1  14
ATOM     14  C   LIG d   1       5.215  -0.365  -3.901  0.00  0.00    -0.011 C 
ATOM     15  H   LIG d   1       4.508   0.411  -4.197  0.00  0.00     0.033 H 
ATOM     16  H   LIG d   1       5.086  -1.237  -4.541  0.00  0.00     0.033 H 
BRANCH  14  17
ATOM     17  C   LIG d   1       6.622   0.158  -4.041  0.00  0.00     0.042 C 
ATOM     18  O   LIG d   1       7.553  -0.612  -4.059  0.00  0.00    -0.550 OA
ATOM     19  O   LIG d   1       6.839   1.478  -4.152  0.00  0.00    -0.550 OA
ENDBRANCH  14  17
ENDBRANCH   1  14
TORSDOF 5
ENDMDL
MODEL 9
REMARK VINA RESULT:      -3.9      2.281      2.756
REMARK  5 active torsions:
REMARK  status: ('A' for Active; 'I' for Inactive)
REMARK    1  A    between atoms: C_1  and  C_2 
REMARK    2  A    between atoms: C_2  and  C_3 
REMARK    3  A    between atoms: C_3  and  C_5 
REMARK    4  A    between atoms: C_3  and  C_6 
REMARK    5  A    between atoms: C_6  and  C_7 
ROOT
ATOM      1  C   LIG d   1       4.519   0.197  -2.803  0.00  0.00    -0.039 C 
ATOM      2  H   LIG d   1       4.135  -0.157  -3.759  0.00  0.00     0.030 H 
ENDROOT
BRANCH   1   3
ATOM      3  C   LIG d   1       4.441  -0.932  -1.773  0.00  0.00    -0.053 C 
ATOM      4  H   LIG d   1       5.442  -1.159  -1.407  0.00  0.00     0.026 H 
ATOM      5  H   LIG d   1       3.811  -0.620  -0.940  0.00  0.00     0.026 H 
BRANCH   3   6
ATOM      6  C   LIG d   1       3.842  -2.179  -2.427  0.00  0.00    -0.065 C 
ATOM      7  H   LIG d   1       4.598  -2.963  -2.472  0.00  0.00     0.023 H 
ATOM      8  H   LIG d   1       2.993  -2.526  -1.838  0.00  0.00     0.023 H 
ATOM      9  H   LIG d   1       3.509  -1.935  -3.436  0.00  0.00     0.023 H 
ENDBRANCH   3   6
ENDBRANCH   1   3
BRANCH   1  10
ATOM     10  C   LIG d   1       3.679   1.383  -2.324  0.00  0.00    -0.062 C 
ATOM     11  H   LIG d   1       4.226   2.309  -2.501  0.00  0.00     0.023 H 
ATOM     12  H   LIG d   1       2.738   1.406  -2.873  0.00  0.00     0.023 H 
ATOM     13  H   LIG d   1       3.476   1.278  -1.259  0.00  0.00     0.023 H 
ENDBRANCH   1  10
BRANCH   1  14
ATOM     14  C   LIG d   1       5.975   0.637  -2.969  0.00  0.00    -0.011 C 
ATOM     15  H   LIG d   1       6.587   0.164  -2.200  0.00  0.00     0.033 H 
ATOM     16  H   LIG d   1       6.040   1.720  -2.870  0.00  0.00     0.033 H 
BRANCH  14  17
ATOM     17  C   LIG d   1       6.473   0.225  -4.330  0.00  0.00     0.042 C 
ATOM     18  O   LIG d   1       6.972   1.044  -5.064  0.00  0.00    -0.550 OA
ATOM     19  O   LIG d   1       6.367  -1.054  -4.724  0.00  0.00    -0.550 OA
ENDBRANCH  14  17
ENDBRANCH   1  14
TORSDOF 5
ENDMDL
MODEL 10
REMARK VINA RESULT:      -3.7      1.354      1.867
REMARK  5 active torsions:
REMARK  status: ('A' for Active; 'I' for Inactive)
REMARK    1  A    between atoms: C_1  and  C_2 
REMARK    2  A    between atoms: C_2  and  C_3 
REMARK    3  A    between atoms: C_3  and  C_5 
REMARK    4  A    between atoms: C_3  and  C_6 
REMARK    5  A    between atoms: C_6  and  C_7 
ROOT
ATOM      1  C   LIG d   1       4.274  -0.666  -4.197  0.00  0.00    -0.039 C 
ATOM      2  H   LIG d   1       5.210  -0.151  -3.983  0.00  0.00     0.030 H 
ENDROOT
BRANCH   1   3
ATOM      3  C   LIG d   1       4.378  -2.124  -3.745  0.00  0.00    -0.053 C 
ATOM      4  H   LIG d   1       3.814  -2.757  -4.429  0.00  0.00     0.026 H 
ATOM      5  H   LIG d   1       5.424  -2.430  -3.746  0.00  0.00     0.026 H 
BRANCH   3   6
ATOM      6  C   LIG d   1       3.807  -2.262  -2.332  0.00  0.00    -0.065 C 
ATOM      7  H   LIG d   1       4.505  -1.829  -1.615  0.00  0.00     0.023 H 
ATOM      8  H   LIG d   1       2.853  -1.738  -2.273  0.00  0.00     0.023 H 
ATOM      9  H   LIG d   1       3.658  -3.317  -2.103  0.00  0.00     0.023 H 
ENDBRANCH   3   6
ENDBRANCH   1   3
BRANCH   1  10
ATOM     10  C   LIG d   1       3.997  -0.617  -5.701  0.00  0.00    -0.062 C 
ATOM     11  H   LIG d   1       3.812   0.414  -6.002  0.00  0.00     0.023 H 
ATOM     12  H   LIG d   1       4.859  -1.004  -6.242  0.00  0.00     0.023 H 
ATOM     13  H   LIG d   1       3.122  -1.225  -5.930  0.00  0.00     0.023 H 
ENDBRANCH   1  10
BRANCH   1  14
ATOM     14  C   LIG d   1       3.131   0.021  -3.445  0.00  0.00    -0.011 C 
ATOM     15  H   LIG d   1       2.739  -0.654  -2.684  0.00  0.00     0.033 H 
ATOM     16  H   LIG d   1       2.338   0.277  -4.147  0.00  0.00     0.033 H 
BRANCH  14  17
ATOM     17  C   LIG d   1       3.645   1.275  -2.787  0.00  0.00     0.042 C 
ATOM     18  O   LIG d   1       3.593   2.330  -3.373  0.00  0.00    -0.550 OA
ATOM     19  O   LIG d   1       4.155   1.221  -1.546  0.00  0.00    -0.550 OA
ENDBRANCH  14  17
ENDBRANCH   1  14
TORSDOF 5
ENDMDL
