MODEL 1
REMARK VINA RESULT:      -6.0      0.000      0.000
REMARK  9 active torsions:
REMARK  status: ('A' for Active; 'I' for Inactive)
REMARK    1  A    between atoms: C_1  and  C_2 
REMARK    2  A    between atoms: C_3  and  C_8 
REMARK    3  A    between atoms: C_4  and  C_7 
REMARK    4  A    between atoms: C_8  and  C_9 
REMARK    5  A    between atoms: C_9  and  C_10 
REMARK       I    between atoms: C_10  and  N_12 
REMARK    6  A    between atoms: N_12  and  C_13 
REMARK    7  A    between atoms: C_16  and  O_22 
REMARK    8  A    between atoms: O_22  and  C_23 
REMARK    9  A    between atoms: N_25  and  C_28 
ROOT
ATOM      1  C   LIG d   1       9.916   8.785  -1.368  0.00  0.00     0.084 A 
ATOM      2  C   LIG d   1      10.547   9.305  -0.243  0.00  0.00    -0.006 A 
ATOM      3  C   LIG d   1      11.147   8.458   0.663  0.00  0.00     0.048 A 
ATOM      4  C   LIG d   1      11.126   7.084   0.445  0.00  0.00     0.174 A 
ATOM      5  C   LIG d   1      10.499   6.559  -0.678  0.00  0.00     0.210 A 
ATOM      6  C   LIG d   1       9.890   7.414  -1.589  0.00  0.00     0.191 A 
ATOM      7  O   LIG d   1       9.350   6.666  -2.596  0.00  0.00    -0.451 OA
ATOM      8  C   LIG d   1       9.986   5.377  -2.502  0.00  0.00     0.234 C 
ATOM      9  O   LIG d   1      10.343   5.273  -1.111  0.00  0.00    -0.449 OA
ATOM     10  C   LIG d   1      11.833   8.974   1.901  0.00  0.00    -0.002 C 
ATOM     11  N   LIG d   1      12.124  10.405   1.768  0.00  0.00     0.237 N 
ATOM     12  C   LIG d   1      10.902  11.140   1.399  0.00  0.00    -0.028 C 
ATOM     13  C   LIG d   1      10.552  10.801  -0.050  0.00  0.00     0.015 C 
ATOM     14  H   LIG d   1       9.278   4.594  -2.812  0.00  0.00     0.117 H 
ATOM     15  H   LIG d   1      10.867   5.355  -3.161  0.00  0.00     0.117 H 
ATOM     16  H   LIG d   1      11.180   8.821   2.773  0.00  0.00     0.087 H 
ATOM     17  H   LIG d   1      12.778   8.430   2.051  0.00  0.00     0.087 H 
ATOM     18  H   LIG d   1      10.080  10.841   2.064  0.00  0.00     0.082 H 
ATOM     19  H   LIG d   1      11.081  12.220   1.499  0.00  0.00     0.082 H 
ATOM     20  H   LIG d   1      11.299  11.254  -0.719  0.00  0.00     0.037 H 
ATOM     21  H   LIG d   1       9.557  11.204  -0.286  0.00  0.00     0.037 H 
ATOM     22  H   LIG d   1      12.866  10.534   0.967  0.00  0.00     0.203 HD
ENDROOT
BRANCH   1  23
ATOM     23  N   LIG d   1       9.303   9.651  -2.287  0.00  0.00    -0.282 N 
ATOM     24  C   LIG d   1       9.959  10.023  -3.404  0.00  0.00     0.218 C 
ATOM     25  O   LIG d   1      11.044   9.544  -3.659  0.00  0.00    -0.276 OA
ATOM     26  H   LIG d   1       8.286  10.025  -2.095  0.00  0.00     0.155 HD
BRANCH  24  27
ATOM     27  C   LIG d   1       9.346  11.037  -4.336  0.00  0.00     0.028 C 
ATOM     28  H   LIG d   1       8.614  11.646  -3.785  0.00  0.00     0.036 H 
ATOM     29  H   LIG d   1       8.839  10.515  -5.162  0.00  0.00     0.036 H 
BRANCH  27  30
ATOM     30  C   LIG d   1      10.443  11.942  -4.899  0.00  0.00    -0.014 C 
ATOM     31  H   LIG d   1      11.373  11.364  -5.009  0.00  0.00     0.032 H 
ATOM     32  H   LIG d   1      10.614  12.782  -4.211  0.00  0.00     0.032 H 
BRANCH  30  33
ATOM     33  C   LIG d   1      10.017  12.470  -6.244  0.00  0.00     0.018 A 
ATOM     34  C   LIG d   1       9.542  13.764  -6.560  0.00  0.00     0.084 A 
ATOM     35  N   LIG d   1       9.299  13.765  -7.838  0.00  0.00    -0.083 NA
ATOM     36  O   LIG d   1       9.549  12.692  -8.339  0.00  0.00    -0.359 OA
ATOM     37  C   LIG d   1      10.006  11.819  -7.432  0.00  0.00     0.138 A 
BRANCH  34  38
ATOM     38  C   LIG d   1       9.355  14.915  -5.605  0.00  0.00    -0.019 C 
ATOM     39  H   LIG d   1       9.627  15.855  -6.106  0.00  0.00     0.029 H 
ATOM     40  H   LIG d   1       9.997  14.769  -4.724  0.00  0.00     0.029 H 
ATOM     41  H   LIG d   1       8.302  14.959  -5.288  0.00  0.00     0.029 H 
ENDBRANCH  34  38
BRANCH  37  42
ATOM     42  C   LIG d   1      10.424  10.393  -7.681  0.00  0.00    -0.003 C 
ATOM     43  H   LIG d   1      11.151  10.364  -8.507  0.00  0.00     0.031 H 
ATOM     44  H   LIG d   1       9.542   9.793  -7.948  0.00  0.00     0.031 H 
ATOM     45  H   LIG d   1      10.887   9.982  -6.772  0.00  0.00     0.031 H 
ENDBRANCH  37  42
ENDBRANCH  30  33
ENDBRANCH  27  30
ENDBRANCH  24  27
ENDBRANCH   1  23
BRANCH   4  46
ATOM     46  O   LIG d   1      11.721   6.249   1.338  0.00  0.00    -0.491 OA
BRANCH  46  47
ATOM     47  C   LIG d   1      10.869   5.576   2.267  0.00  0.00     0.079 C 
ATOM     48  H   LIG d   1      10.422   4.695   1.783  0.00  0.00     0.066 H 
ATOM     49  H   LIG d   1      10.071   6.259   2.594  0.00  0.00     0.066 H 
ATOM     50  H   LIG d   1      11.457   5.255   3.139  0.00  0.00     0.066 H 
ENDBRANCH  46  47
ENDBRANCH   4  46
BRANCH  11  51
ATOM     51  C   LIG d   1      12.707  10.941   3.005  0.00  0.00    -0.043 C 
ATOM     52  H   LIG d   1      13.769  11.174   2.839  0.00  0.00     0.078 H 
ATOM     53  H   LIG d   1      12.616  10.194   3.807  0.00  0.00     0.078 H 
ATOM     54  H   LIG d   1      12.172  11.858   3.295  0.00  0.00     0.078 H 
ENDBRANCH  11  51
TORSDOF 9
ENDMDL
MODEL 2
REMARK VINA RESULT:      -5.9      2.634      7.767
REMARK  9 active torsions:
REMARK  status: ('A' for Active; 'I' for Inactive)
REMARK    1  A    between atoms: C_1  and  C_2 
REMARK    2  A    between atoms: C_3  and  C_8 
REMARK    3  A    between atoms: C_4  and  C_7 
REMARK    4  A    between atoms: C_8  and  C_9 
REMARK    5  A    between atoms: C_9  and  C_10 
REMARK       I    between atoms: C_10  and  N_12 
REMARK    6  A    between atoms: N_12  and  C_13 
REMARK    7  A    between atoms: C_16  and  O_22 
REMARK    8  A    between atoms: O_22  and  C_23 
REMARK    9  A    between atoms: N_25  and  C_28 
ROOT
ATOM      1  C   LIG d   1       9.532   7.879  -5.609  0.00  0.00     0.084 A 
ATOM      2  C   LIG d   1       9.623   9.245  -5.860  0.00  0.00    -0.006 A 
ATOM      3  C   LIG d   1       9.927   9.693  -7.128  0.00  0.00     0.048 A 
ATOM      4  C   LIG d   1      10.136   8.776  -8.154  0.00  0.00     0.174 A 
ATOM      5  C   LIG d   1      10.044   7.412  -7.910  0.00  0.00     0.210 A 
ATOM      6  C   LIG d   1       9.741   6.961  -6.630  0.00  0.00     0.191 A 
ATOM      7  O   LIG d   1       9.709   5.596  -6.645  0.00  0.00    -0.451 OA
ATOM      8  C   LIG d   1       9.593   5.229  -8.033  0.00  0.00     0.234 C 
ATOM      9  O   LIG d   1      10.202   6.332  -8.730  0.00  0.00    -0.449 OA
ATOM     10  C   LIG d   1      10.046  11.160  -7.445  0.00  0.00    -0.002 C 
ATOM     11  N   LIG d   1       9.406  11.965  -6.400  0.00  0.00     0.237 N 
ATOM     12  C   LIG d   1       9.925  11.586  -5.076  0.00  0.00    -0.028 C 
ATOM     13  C   LIG d   1       9.382  10.202  -4.720  0.00  0.00     0.015 C 
ATOM     14  H   LIG d   1      10.123   4.281  -8.207  0.00  0.00     0.117 H 
ATOM     15  H   LIG d   1       8.531   5.108  -8.292  0.00  0.00     0.117 H 
ATOM     16  H   LIG d   1      11.109  11.437  -7.509  0.00  0.00     0.087 H 
ATOM     17  H   LIG d   1       9.556  11.369  -8.408  0.00  0.00     0.087 H 
ATOM     18  H   LIG d   1      11.024  11.561  -5.106  0.00  0.00     0.082 H 
ATOM     19  H   LIG d   1       9.595  12.322  -4.328  0.00  0.00     0.082 H 
ATOM     20  H   LIG d   1       8.301  10.276  -4.526  0.00  0.00     0.037 H 
ATOM     21  H   LIG d   1       9.892   9.833  -3.818  0.00  0.00     0.037 H 
ATOM     22  H   LIG d   1       8.325  11.765  -6.423  0.00  0.00     0.203 HD
ENDROOT
BRANCH   1  23
ATOM     23  N   LIG d   1       9.225   7.427  -4.316  0.00  0.00    -0.282 N 
ATOM     24  C   LIG d   1      10.214   7.034  -3.488  0.00  0.00     0.218 C 
ATOM     25  O   LIG d   1      11.372   7.153  -3.827  0.00  0.00    -0.276 OA
ATOM     26  H   LIG d   1       8.178   7.392  -3.980  0.00  0.00     0.155 HD
BRANCH  24  27
ATOM     27  C   LIG d   1       9.879   6.446  -2.141  0.00  0.00     0.028 C 
ATOM     28  H   LIG d   1      10.763   5.931  -1.736  0.00  0.00     0.036 H 
ATOM     29  H   LIG d   1       9.054   5.726  -2.250  0.00  0.00     0.036 H 
BRANCH  27  30
ATOM     30  C   LIG d   1       9.459   7.565  -1.187  0.00  0.00    -0.014 C 
ATOM     31  H   LIG d   1       8.682   7.191  -0.504  0.00  0.00     0.032 H 
ATOM     32  H   LIG d   1       9.060   8.411  -1.766  0.00  0.00     0.032 H 
BRANCH  30  33
ATOM     33  C   LIG d   1      10.653   8.020  -0.389  0.00  0.00     0.018 A 
ATOM     34  C   LIG d   1      11.327   7.324   0.642  0.00  0.00     0.084 A 
ATOM     35  N   LIG d   1      12.294   8.100   1.038  0.00  0.00    -0.083 NA
ATOM     36  O   LIG d   1      12.312   9.140   0.420  0.00  0.00    -0.359 OA
ATOM     37  C   LIG d   1      11.334   9.186  -0.495  0.00  0.00     0.138 A 
BRANCH  34  38
ATOM     38  C   LIG d   1      10.992   5.955   1.175  0.00  0.00    -0.019 C 
ATOM     39  H   LIG d   1      11.705   5.220   0.773  0.00  0.00     0.029 H 
ATOM     40  H   LIG d   1       9.972   5.682   0.868  0.00  0.00     0.029 H 
ATOM     41  H   LIG d   1      11.054   5.964   2.273  0.00  0.00     0.029 H 
ENDBRANCH  34  38
BRANCH  37  42
ATOM     42  C   LIG d   1      11.045  10.314  -1.452  0.00  0.00    -0.003 C 
ATOM     43  H   LIG d   1      10.001  10.247  -1.793  0.00  0.00     0.031 H 
ATOM     44  H   LIG d   1      11.719  10.241  -2.318  0.00  0.00     0.031 H 
ATOM     45  H   LIG d   1      11.204  11.276  -0.943  0.00  0.00     0.031 H 
ENDBRANCH  37  42
ENDBRANCH  30  33
ENDBRANCH  27  30
ENDBRANCH  24  27
ENDBRANCH   1  23
BRANCH   4  46
ATOM     46  O   LIG d   1      10.433   9.220  -9.405  0.00  0.00    -0.491 OA
BRANCH  46  47
ATOM     47  C   LIG d   1      11.797   9.131  -9.819  0.00  0.00     0.079 C 
ATOM     48  H   LIG d   1      12.163   8.105  -9.663  0.00  0.00     0.066 H 
ATOM     49  H   LIG d   1      12.406   9.832  -9.228  0.00  0.00     0.066 H 
ATOM     50  H   LIG d   1      11.874   9.389 -10.885  0.00  0.00     0.066 H 
ENDBRANCH  46  47
ENDBRANCH   4  46
BRANCH  11  51
ATOM     51  C   LIG d   1       9.597  13.400  -6.649  0.00  0.00    -0.043 C 
ATOM     52  H   LIG d   1      10.637  13.677  -6.419  0.00  0.00     0.078 H 
ATOM     53  H   LIG d   1       8.914  13.978  -6.009  0.00  0.00     0.078 H 
ATOM     54  H   LIG d   1       9.384  13.621  -7.705  0.00  0.00     0.078 H 
ENDBRANCH  11  51
TORSDOF 9
ENDMDL
MODEL 3
REMARK VINA RESULT:      -5.8      6.629     11.307
REMARK  9 active torsions:
REMARK  status: ('A' for Active; 'I' for Inactive)
REMARK    1  A    between atoms: C_1  and  C_2 
REMARK    2  A    between atoms: C_3  and  C_8 
REMARK    3  A    between atoms: C_4  and  C_7 
REMARK    4  A    between atoms: C_8  and  C_9 
REMARK    5  A    between atoms: C_9  and  C_10 
REMARK       I    between atoms: C_10  and  N_12 
REMARK    6  A    between atoms: N_12  and  C_13 
REMARK    7  A    between atoms: C_16  and  O_22 
REMARK    8  A    between atoms: O_22  and  C_23 
REMARK    9  A    between atoms: N_25  and  C_28 
ROOT
ATOM      1  C   LIG d   1       9.337   2.757  -5.074  0.00  0.00     0.084 A 
ATOM      2  C   LIG d   1       9.373   3.230  -6.382  0.00  0.00    -0.006 A 
ATOM      3  C   LIG d   1       9.769   4.526  -6.635  0.00  0.00     0.048 A 
ATOM      4  C   LIG d   1      10.138   5.355  -5.580  0.00  0.00     0.174 A 
ATOM      5  C   LIG d   1      10.106   4.888  -4.272  0.00  0.00     0.210 A 
ATOM      6  C   LIG d   1       9.702   3.582  -4.018  0.00  0.00     0.191 A 
ATOM      7  O   LIG d   1       9.754   3.364  -2.671  0.00  0.00    -0.451 OA
ATOM      8  C   LIG d   1      10.582   4.417  -2.142  0.00  0.00     0.234 C 
ATOM      9  O   LIG d   1      10.412   5.491  -3.086  0.00  0.00    -0.449 OA
ATOM     10  C   LIG d   1       9.815   5.086  -8.033  0.00  0.00    -0.002 C 
ATOM     11  N   LIG d   1       9.806   4.001  -9.020  0.00  0.00     0.237 N 
ATOM     12  C   LIG d   1       8.676   3.091  -8.766  0.00  0.00    -0.028 C 
ATOM     13  C   LIG d   1       8.972   2.295  -7.495  0.00  0.00     0.015 C 
ATOM     14  H   LIG d   1      10.233   4.688  -1.135  0.00  0.00     0.117 H 
ATOM     15  H   LIG d   1      11.624   4.071  -2.088  0.00  0.00     0.117 H 
ATOM     16  H   LIG d   1       8.937   5.728  -8.199  0.00  0.00     0.087 H 
ATOM     17  H   LIG d   1      10.733   5.678  -8.161  0.00  0.00     0.087 H 
ATOM     18  H   LIG d   1       7.755   3.678  -8.636  0.00  0.00     0.082 H 
ATOM     19  H   LIG d   1       8.559   2.407  -9.619  0.00  0.00     0.082 H 
ATOM     20  H   LIG d   1       9.792   1.588  -7.693  0.00  0.00     0.037 H 
ATOM     21  H   LIG d   1       8.071   1.738  -7.199  0.00  0.00     0.037 H 
ATOM     22  H   LIG d   1      10.742   3.434  -8.919  0.00  0.00     0.203 HD
ENDROOT
BRANCH   1  23
ATOM     23  N   LIG d   1       8.930   1.438  -4.820  0.00  0.00    -0.282 N 
ATOM     24  C   LIG d   1       7.700   1.197  -4.322  0.00  0.00     0.218 C 
ATOM     25  O   LIG d   1       6.915   2.110  -4.175  0.00  0.00    -0.276 OA
ATOM     26  H   LIG d   1       9.614   0.602  -5.028  0.00  0.00     0.155 HD
BRANCH  24  27
ATOM     27  C   LIG d   1       7.302  -0.207  -3.948  0.00  0.00     0.028 C 
ATOM     28  H   LIG d   1       7.152  -0.268  -2.860  0.00  0.00     0.036 H 
ATOM     29  H   LIG d   1       8.097  -0.906  -4.247  0.00  0.00     0.036 H 
BRANCH  27  30
ATOM     30  C   LIG d   1       6.001  -0.577  -4.664  0.00  0.00    -0.014 C 
ATOM     31  H   LIG d   1       6.231  -1.195  -5.544  0.00  0.00     0.032 H 
ATOM     32  H   LIG d   1       5.487   0.340  -4.985  0.00  0.00     0.032 H 
BRANCH  30  33
ATOM     33  C   LIG d   1       5.113  -1.350  -3.724  0.00  0.00     0.018 A 
ATOM     34  C   LIG d   1       4.490  -0.892  -2.540  0.00  0.00     0.084 A 
ATOM     35  N   LIG d   1       3.823  -1.901  -2.060  0.00  0.00    -0.083 NA
ATOM     36  O   LIG d   1       3.941  -2.883  -2.757  0.00  0.00    -0.359 OA
ATOM     37  C   LIG d   1       4.720  -2.643  -3.820  0.00  0.00     0.138 A 
BRANCH  34  38
ATOM     38  C   LIG d   1       4.582   0.492  -1.950  0.00  0.00    -0.019 C 
ATOM     39  H   LIG d   1       3.640   0.734  -1.435  0.00  0.00     0.029 H 
ATOM     40  H   LIG d   1       4.758   1.222  -2.753  0.00  0.00     0.029 H 
ATOM     41  H   LIG d   1       5.413   0.530  -1.231  0.00  0.00     0.029 H 
ENDBRANCH  34  38
BRANCH  37  42
ATOM     42  C   LIG d   1       5.090  -3.618  -4.907  0.00  0.00    -0.003 C 
ATOM     43  H   LIG d   1       6.126  -3.433  -5.229  0.00  0.00     0.031 H 
ATOM     44  H   LIG d   1       4.412  -3.489  -5.764  0.00  0.00     0.031 H 
ATOM     45  H   LIG d   1       5.004  -4.646  -4.523  0.00  0.00     0.031 H 
ENDBRANCH  37  42
ENDBRANCH  30  33
ENDBRANCH  27  30
ENDBRANCH  24  27
ENDBRANCH   1  23
BRANCH   4  46
ATOM     46  O   LIG d   1      10.531   6.632  -5.831  0.00  0.00    -0.491 OA
BRANCH  46  47
ATOM     47  C   LIG d   1       9.580   7.668  -5.575  0.00  0.00     0.079 C 
ATOM     48  H   LIG d   1      10.023   8.415  -4.901  0.00  0.00     0.066 H 
ATOM     49  H   LIG d   1       8.684   7.235  -5.106  0.00  0.00     0.066 H 
ATOM     50  H   LIG d   1       9.300   8.150  -6.523  0.00  0.00     0.066 H 
ENDBRANCH  46  47
ENDBRANCH   4  46
BRANCH  11  51
ATOM     51  C   LIG d   1       9.754   4.535 -10.387  0.00  0.00    -0.043 C 
ATOM     52  H   LIG d   1       9.179   5.472 -10.394  0.00  0.00     0.078 H 
ATOM     53  H   LIG d   1       9.269   3.802 -11.049  0.00  0.00     0.078 H 
ATOM     54  H   LIG d   1      10.777   4.730 -10.744  0.00  0.00     0.078 H 
ENDBRANCH  11  51
TORSDOF 9
ENDMDL
MODEL 4
REMARK VINA RESULT:      -5.8      7.408     10.904
REMARK  9 active torsions:
REMARK  status: ('A' for Active; 'I' for Inactive)
REMARK    1  A    between atoms: C_1  and  C_2 
REMARK    2  A    between atoms: C_3  and  C_8 
REMARK    3  A    between atoms: C_4  and  C_7 
REMARK    4  A    between atoms: C_8  and  C_9 
REMARK    5  A    between atoms: C_9  and  C_10 
REMARK       I    between atoms: C_10  and  N_12 
REMARK    6  A    between atoms: N_12  and  C_13 
REMARK    7  A    between atoms: C_16  and  O_22 
REMARK    8  A    between atoms: O_22  and  C_23 
REMARK    9  A    between atoms: N_25  and  C_28 
ROOT
ATOM      1  C   LIG d   1       8.114   1.786  -5.261  0.00  0.00     0.084 A 
ATOM      2  C   LIG d   1       9.280   2.418  -4.841  0.00  0.00    -0.006 A 
ATOM      3  C   LIG d   1      10.144   2.954  -5.771  0.00  0.00     0.048 A 
ATOM      4  C   LIG d   1       9.843   2.867  -7.127  0.00  0.00     0.174 A 
ATOM      5  C   LIG d   1       8.680   2.240  -7.551  0.00  0.00     0.210 A 
ATOM      6  C   LIG d   1       7.810   1.695  -6.613  0.00  0.00     0.191 A 
ATOM      7  O   LIG d   1       6.751   1.139  -7.271  0.00  0.00    -0.451 OA
ATOM      8  C   LIG d   1       6.778   1.707  -8.594  0.00  0.00     0.234 C 
ATOM      9  O   LIG d   1       8.168   2.027  -8.799  0.00  0.00    -0.449 OA
ATOM     10  C   LIG d   1      11.424   3.639  -5.366  0.00  0.00    -0.002 C 
ATOM     11  N   LIG d   1      11.382   4.005  -3.946  0.00  0.00     0.237 N 
ATOM     12  C   LIG d   1      11.035   2.831  -3.128  0.00  0.00    -0.028 C 
ATOM     13  C   LIG d   1       9.563   2.495  -3.362  0.00  0.00     0.015 C 
ATOM     14  H   LIG d   1       6.410   0.967  -9.320  0.00  0.00     0.117 H 
ATOM     15  H   LIG d   1       6.137   2.599  -8.623  0.00  0.00     0.117 H 
ATOM     16  H   LIG d   1      12.273   2.960  -5.535  0.00  0.00     0.087 H 
ATOM     17  H   LIG d   1      11.558   4.551  -5.966  0.00  0.00     0.087 H 
ATOM     18  H   LIG d   1      11.666   1.979  -3.422  0.00  0.00     0.082 H 
ATOM     19  H   LIG d   1      11.203   3.062  -2.066  0.00  0.00     0.082 H 
ATOM     20  H   LIG d   1       8.936   3.278  -2.909  0.00  0.00     0.037 H 
ATOM     21  H   LIG d   1       9.333   1.527  -2.894  0.00  0.00     0.037 H 
ATOM     22  H   LIG d   1      10.605   4.770  -3.809  0.00  0.00     0.203 HD
ENDROOT
BRANCH   1  23
ATOM     23  N   LIG d   1       7.237   1.237  -4.311  0.00  0.00    -0.282 N 
ATOM     24  C   LIG d   1       7.240  -0.091  -4.080  0.00  0.00     0.218 C 
ATOM     25  O   LIG d   1       8.058  -0.800  -4.627  0.00  0.00    -0.276 OA
ATOM     26  H   LIG d   1       6.548   1.891  -3.757  0.00  0.00     0.155 HD
BRANCH  24  27
ATOM     27  C   LIG d   1       6.227  -0.695  -3.142  0.00  0.00     0.028 C 
ATOM     28  H   LIG d   1       5.752   0.103  -2.552  0.00  0.00     0.036 H 
ATOM     29  H   LIG d   1       6.730  -1.400  -2.464  0.00  0.00     0.036 H 
BRANCH  27  30
ATOM     30  C   LIG d   1       5.160  -1.435  -3.951  0.00  0.00    -0.014 C 
ATOM     31  H   LIG d   1       4.625  -2.137  -3.295  0.00  0.00     0.032 H 
ATOM     32  H   LIG d   1       5.641  -1.991  -4.769  0.00  0.00     0.032 H 
BRANCH  30  33
ATOM     33  C   LIG d   1       4.185  -0.440  -4.524  0.00  0.00     0.018 A 
ATOM     34  C   LIG d   1       3.483   0.582  -3.844  0.00  0.00     0.084 A 
ATOM     35  N   LIG d   1       2.759   1.189  -4.738  0.00  0.00    -0.083 NA
ATOM     36  O   LIG d   1       2.909   0.705  -5.836  0.00  0.00    -0.359 OA
ATOM     37  C   LIG d   1       3.781  -0.313  -5.811  0.00  0.00     0.138 A 
BRANCH  34  38
ATOM     38  C   LIG d   1       3.559   0.903  -2.374  0.00  0.00    -0.019 C 
ATOM     39  H   LIG d   1       3.335   1.969  -2.219  0.00  0.00     0.029 H 
ATOM     40  H   LIG d   1       4.570   0.683  -2.002  0.00  0.00     0.029 H 
ATOM     41  H   LIG d   1       2.826   0.291  -1.826  0.00  0.00     0.029 H 
ENDBRANCH  34  38
BRANCH  37  42
ATOM     42  C   LIG d   1       4.223  -1.152  -6.981  0.00  0.00    -0.003 C 
ATOM     43  H   LIG d   1       3.375  -1.300  -7.667  0.00  0.00     0.031 H 
ATOM     44  H   LIG d   1       4.576  -2.130  -6.620  0.00  0.00     0.031 H 
ATOM     45  H   LIG d   1       5.039  -0.640  -7.513  0.00  0.00     0.031 H 
ENDBRANCH  37  42
ENDBRANCH  30  33
ENDBRANCH  27  30
ENDBRANCH  24  27
ENDBRANCH   1  23
BRANCH   4  46
ATOM     46  O   LIG d   1      10.696   3.400  -8.043  0.00  0.00    -0.491 OA
BRANCH  46  47
ATOM     47  C   LIG d   1      10.320   4.646  -8.633  0.00  0.00     0.079 C 
ATOM     48  H   LIG d   1       9.677   4.459  -9.506  0.00  0.00     0.066 H 
ATOM     49  H   LIG d   1      11.222   5.188  -8.951  0.00  0.00     0.066 H 
ATOM     50  H   LIG d   1       9.770   5.249  -7.896  0.00  0.00     0.066 H 
ENDBRANCH  46  47
ENDBRANCH   4  46
BRANCH  11  51
ATOM     51  C   LIG d   1      12.660   4.587  -3.515  0.00  0.00    -0.043 C 
ATOM     52  H   LIG d   1      13.486   3.936  -3.836  0.00  0.00     0.078 H 
ATOM     53  H   LIG d   1      12.670   4.679  -2.419  0.00  0.00     0.078 H 
ATOM     54  H   LIG d   1      12.780   5.583  -3.967  0.00  0.00     0.078 H 
ENDBRANCH  11  51
TORSDOF 9
ENDMDL
MODEL 5
REMARK VINA RESULT:      -5.8      2.690      3.989
REMARK  9 active torsions:
REMARK  status: ('A' for Active; 'I' for Inactive)
REMARK    1  A    between atoms: C_1  and  C_2 
REMARK    2  A    between atoms: C_3  and  C_8 
REMARK    3  A    between atoms: C_4  and  C_7 
REMARK    4  A    between atoms: C_8  and  C_9 
REMARK    5  A    between atoms: C_9  and  C_10 
REMARK       I    between atoms: C_10  and  N_12 
REMARK    6  A    between atoms: N_12  and  C_13 
REMARK    7  A    between atoms: C_16  and  O_22 
REMARK    8  A    between atoms: O_22  and  C_23 
REMARK    9  A    between atoms: N_25  and  C_28 
ROOT
ATOM      1  C   LIG d   1       9.924   8.256  -1.354  0.00  0.00     0.084 A 
ATOM      2  C   LIG d   1      10.113   9.635  -1.365  0.00  0.00    -0.006 A 
ATOM      3  C   LIG d   1      10.727  10.254  -0.299  0.00  0.00     0.048 A 
ATOM      4  C   LIG d   1      11.163   9.497   0.785  0.00  0.00     0.174 A 
ATOM      5  C   LIG d   1      10.979   8.120   0.801  0.00  0.00     0.210 A 
ATOM      6  C   LIG d   1      10.356   7.496  -0.274  0.00  0.00     0.191 A 
ATOM      7  O   LIG d   1      10.293   6.155  -0.024  0.00  0.00    -0.451 OA
ATOM      8  C   LIG d   1      11.248   5.915   1.027  0.00  0.00     0.234 C 
ATOM      9  O   LIG d   1      11.310   7.172   1.726  0.00  0.00    -0.449 OA
ATOM     10  C   LIG d   1      10.944  11.744  -0.261  0.00  0.00    -0.002 C 
ATOM     11  N   LIG d   1      10.817  12.315  -1.607  0.00  0.00     0.237 N 
ATOM     12  C   LIG d   1       9.543  11.901  -2.217  0.00  0.00    -0.028 C 
ATOM     13  C   LIG d   1       9.632  10.415  -2.563  0.00  0.00     0.015 C 
ATOM     14  H   LIG d   1      10.889   5.097   1.670  0.00  0.00     0.117 H 
ATOM     15  H   LIG d   1      12.216   5.636   0.586  0.00  0.00     0.117 H 
ATOM     16  H   LIG d   1      10.193  12.208   0.396  0.00  0.00     0.087 H 
ATOM     17  H   LIG d   1      11.952  11.959   0.125  0.00  0.00     0.087 H 
ATOM     18  H   LIG d   1       8.723  12.073  -1.505  0.00  0.00     0.082 H 
ATOM     19  H   LIG d   1       9.366  12.489  -3.129  0.00  0.00     0.082 H 
ATOM     20  H   LIG d   1      10.336  10.278  -3.397  0.00  0.00     0.037 H 
ATOM     21  H   LIG d   1       8.637  10.052  -2.860  0.00  0.00     0.037 H 
ATOM     22  H   LIG d   1      11.643  11.931  -2.223  0.00  0.00     0.203 HD
ENDROOT
BRANCH   1  23
ATOM     23  N   LIG d   1       9.295   7.629  -2.440  0.00  0.00    -0.282 N 
ATOM     24  C   LIG d   1      10.037   7.056  -3.410  0.00  0.00     0.218 C 
ATOM     25  O   LIG d   1      11.243   7.006  -3.301  0.00  0.00    -0.276 OA
ATOM     26  H   LIG d   1       8.197   7.605  -2.500  0.00  0.00     0.155 HD
BRANCH  24  27
ATOM     27  C   LIG d   1       9.366   6.479  -4.630  0.00  0.00     0.028 C 
ATOM     28  H   LIG d   1       8.490   7.091  -4.891  0.00  0.00     0.036 H 
ATOM     29  H   LIG d   1       9.041   5.449  -4.416  0.00  0.00     0.036 H 
BRANCH  27  30
ATOM     30  C   LIG d   1      10.352   6.472  -5.799  0.00  0.00    -0.014 C 
ATOM     31  H   LIG d   1      10.600   5.433  -6.063  0.00  0.00     0.032 H 
ATOM     32  H   LIG d   1      11.269   7.005  -5.509  0.00  0.00     0.032 H 
BRANCH  30  33
ATOM     33  C   LIG d   1       9.727   7.155  -6.987  0.00  0.00     0.018 A 
ATOM     34  C   LIG d   1       9.371   8.518  -7.120  0.00  0.00     0.084 A 
ATOM     35  N   LIG d   1       8.867   8.652  -8.312  0.00  0.00    -0.083 NA
ATOM     36  O   LIG d   1       8.861   7.603  -8.914  0.00  0.00    -0.359 OA
ATOM     37  C   LIG d   1       9.380   6.610  -8.177  0.00  0.00     0.138 A 
BRANCH  34  38
ATOM     38  C   LIG d   1       9.543   9.600  -6.086  0.00  0.00    -0.019 C 
ATOM     39  H   LIG d   1       9.308  10.577  -6.534  0.00  0.00     0.029 H 
ATOM     40  H   LIG d   1      10.583   9.602  -5.726  0.00  0.00     0.029 H 
ATOM     41  H   LIG d   1       8.864   9.411  -5.241  0.00  0.00     0.029 H 
ENDBRANCH  34  38
BRANCH  37  42
ATOM     42  C   LIG d   1       9.543   5.170  -8.590  0.00  0.00    -0.003 C 
ATOM     43  H   LIG d   1       8.569   4.661  -8.536  0.00  0.00     0.031 H 
ATOM     44  H   LIG d   1      10.255   4.672  -7.915  0.00  0.00     0.031 H 
ATOM     45  H   LIG d   1       9.923   5.125  -9.622  0.00  0.00     0.031 H 
ENDBRANCH  37  42
ENDBRANCH  30  33
ENDBRANCH  27  30
ENDBRANCH  24  27
ENDBRANCH   1  23
BRANCH   4  46
ATOM     46  O   LIG d   1      11.772  10.109   1.835  0.00  0.00    -0.491 OA
BRANCH  46  47
ATOM     47  C   LIG d   1      13.197  10.036   1.893  0.00  0.00     0.079 C 
ATOM     48  H   LIG d   1      13.599   9.900   0.878  0.00  0.00     0.066 H 
ATOM     49  H   LIG d   1      13.496   9.185   2.523  0.00  0.00     0.066 H 
ATOM     50  H   LIG d   1      13.595  10.967   2.322  0.00  0.00     0.066 H 
ENDBRANCH  46  47
ENDBRANCH   4  46
BRANCH  11  51
ATOM     51  C   LIG d   1      10.932  13.779  -1.570  0.00  0.00    -0.043 C 
ATOM     52  H   LIG d   1      10.173  14.223  -2.231  0.00  0.00     0.078 H 
ATOM     53  H   LIG d   1      11.935  14.077  -1.912  0.00  0.00     0.078 H 
ATOM     54  H   LIG d   1      10.776  14.134  -0.541  0.00  0.00     0.078 H 
ENDBRANCH  11  51
TORSDOF 9
ENDMDL
MODEL 6
REMARK VINA RESULT:      -5.8     12.153     16.180
REMARK  9 active torsions:
REMARK  status: ('A' for Active; 'I' for Inactive)
REMARK    1  A    between atoms: C_1  and  C_2 
REMARK    2  A    between atoms: C_3  and  C_8 
REMARK    3  A    between atoms: C_4  and  C_7 
REMARK    4  A    between atoms: C_8  and  C_9 
REMARK    5  A    between atoms: C_9  and  C_10 
REMARK       I    between atoms: C_10  and  N_12 
REMARK    6  A    between atoms: N_12  and  C_13 
REMARK    7  A    between atoms: C_16  and  O_22 
REMARK    8  A    between atoms: O_22  and  C_23 
REMARK    9  A    between atoms: N_25  and  C_28 
ROOT
ATOM      1  C   LIG d   1       4.209  -4.696  -6.723  0.00  0.00     0.084 A 
ATOM      2  C   LIG d   1       4.128  -4.288  -8.051  0.00  0.00    -0.006 A 
ATOM      3  C   LIG d   1       4.422  -5.177  -9.063  0.00  0.00     0.048 A 
ATOM      4  C   LIG d   1       4.792  -6.482  -8.752  0.00  0.00     0.174 A 
ATOM      5  C   LIG d   1       4.872  -6.895  -7.429  0.00  0.00     0.210 A 
ATOM      6  C   LIG d   1       4.580  -5.997  -6.409  0.00  0.00     0.191 A 
ATOM      7  O   LIG d   1       4.730  -6.634  -5.210  0.00  0.00    -0.451 OA
ATOM      8  C   LIG d   1       4.720  -8.041  -5.518  0.00  0.00     0.234 C 
ATOM      9  O   LIG d   1       5.205  -8.097  -6.873  0.00  0.00    -0.449 OA
ATOM     10  C   LIG d   1       4.358  -4.779 -10.514  0.00  0.00    -0.002 C 
ATOM     11  N   LIG d   1       3.575  -3.549 -10.676  0.00  0.00     0.237 N 
ATOM     12  C   LIG d   1       4.086  -2.499  -9.779  0.00  0.00    -0.028 C 
ATOM     13  C   LIG d   1       3.716  -2.867  -8.342  0.00  0.00     0.015 C 
ATOM     14  H   LIG d   1       5.378  -8.575  -4.817  0.00  0.00     0.117 H 
ATOM     15  H   LIG d   1       3.695  -8.428  -5.426  0.00  0.00     0.117 H 
ATOM     16  H   LIG d   1       5.377  -4.606 -10.892  0.00  0.00     0.087 H 
ATOM     17  H   LIG d   1       3.884  -5.584 -11.096  0.00  0.00     0.087 H 
ATOM     18  H   LIG d   1       5.178  -2.431  -9.880  0.00  0.00     0.082 H 
ATOM     19  H   LIG d   1       3.631  -1.535 -10.048  0.00  0.00     0.082 H 
ATOM     20  H   LIG d   1       2.628  -2.766  -8.210  0.00  0.00     0.037 H 
ATOM     21  H   LIG d   1       4.233  -2.187  -7.650  0.00  0.00     0.037 H 
ATOM     22  H   LIG d   1       2.532  -3.766 -10.403  0.00  0.00     0.203 HD
ENDROOT
BRANCH   1  23
ATOM     23  N   LIG d   1       3.913  -3.787  -5.695  0.00  0.00    -0.282 N 
ATOM     24  C   LIG d   1       4.912  -3.196  -5.010  0.00  0.00     0.218 C 
ATOM     25  O   LIG d   1       6.065  -3.381  -5.338  0.00  0.00    -0.276 OA
ATOM     26  H   LIG d   1       2.865  -3.558  -5.449  0.00  0.00     0.155 HD
BRANCH  24  27
ATOM     27  C   LIG d   1       4.596  -2.305  -3.836  0.00  0.00     0.028 C 
ATOM     28  H   LIG d   1       3.941  -2.842  -3.134  0.00  0.00     0.036 H 
ATOM     29  H   LIG d   1       4.086  -1.398  -4.192  0.00  0.00     0.036 H 
BRANCH  27  30
ATOM     30  C   LIG d   1       5.895  -1.916  -3.128  0.00  0.00    -0.014 C 
ATOM     31  H   LIG d   1       6.729  -2.501  -3.544  0.00  0.00     0.032 H 
ATOM     32  H   LIG d   1       5.803  -2.125  -2.052  0.00  0.00     0.032 H 
BRANCH  30  33
ATOM     33  C   LIG d   1       6.160  -0.448  -3.335  0.00  0.00     0.018 A 
ATOM     34  C   LIG d   1       7.096   0.154  -4.208  0.00  0.00     0.084 A 
ATOM     35  N   LIG d   1       6.973   1.439  -4.052  0.00  0.00    -0.083 NA
ATOM     36  O   LIG d   1       6.122   1.709  -3.235  0.00  0.00    -0.359 OA
ATOM     37  C   LIG d   1       5.553   0.604  -2.733  0.00  0.00     0.138 A 
BRANCH  34  38
ATOM     38  C   LIG d   1       8.049  -0.555  -5.136  0.00  0.00    -0.019 C 
ATOM     39  H   LIG d   1       7.638  -1.540  -5.401  0.00  0.00     0.029 H 
ATOM     40  H   LIG d   1       9.020  -0.686  -4.635  0.00  0.00     0.029 H 
ATOM     41  H   LIG d   1       8.185   0.044  -6.048  0.00  0.00     0.029 H 
ENDBRANCH  34  38
BRANCH  37  42
ATOM     42  C   LIG d   1       4.457   0.541  -1.702  0.00  0.00    -0.003 C 
ATOM     43  H   LIG d   1       3.483   0.461  -2.207  0.00  0.00     0.031 H 
ATOM     44  H   LIG d   1       4.477   1.454  -1.088  0.00  0.00     0.031 H 
ATOM     45  H   LIG d   1       4.608  -0.338  -1.058  0.00  0.00     0.031 H 
ENDBRANCH  37  42
ENDBRANCH  30  33
ENDBRANCH  27  30
ENDBRANCH  24  27
ENDBRANCH   1  23
BRANCH   4  46
ATOM     46  O   LIG d   1       5.078  -7.358  -9.752  0.00  0.00    -0.491 OA
BRANCH  46  47
ATOM     47  C   LIG d   1       6.458  -7.641  -9.993  0.00  0.00     0.079 C 
ATOM     48  H   LIG d   1       6.690  -7.459 -11.053  0.00  0.00     0.066 H 
ATOM     49  H   LIG d   1       6.666  -8.692  -9.746  0.00  0.00     0.066 H 
ATOM     50  H   LIG d   1       7.081  -6.987  -9.365  0.00  0.00     0.066 H 
ENDBRANCH  46  47
ENDBRANCH   4  46
BRANCH  11  51
ATOM     51  C   LIG d   1       3.584  -3.098 -12.073  0.00  0.00    -0.043 C 
ATOM     52  H   LIG d   1       3.094  -2.117 -12.145  0.00  0.00     0.078 H 
ATOM     53  H   LIG d   1       3.044  -3.825 -12.697  0.00  0.00     0.078 H 
ATOM     54  H   LIG d   1       4.624  -3.016 -12.425  0.00  0.00     0.078 H 
ENDBRANCH  11  51
TORSDOF 9
ENDMDL
MODEL 7
REMARK VINA RESULT:      -5.7     12.742     16.583
REMARK  9 active torsions:
REMARK  status: ('A' for Active; 'I' for Inactive)
REMARK    1  A    between atoms: C_1  and  C_2 
REMARK    2  A    between atoms: C_3  and  C_8 
REMARK    3  A    between atoms: C_4  and  C_7 
REMARK    4  A    between atoms: C_8  and  C_9 
REMARK    5  A    between atoms: C_9  and  C_10 
REMARK       I    between atoms: C_10  and  N_12 
REMARK    6  A    between atoms: N_12  and  C_13 
REMARK    7  A    between atoms: C_16  and  O_22 
REMARK    8  A    between atoms: O_22  and  C_23 
REMARK    9  A    between atoms: N_25  and  C_28 
ROOT
ATOM      1  C   LIG d   1       4.094  -4.543  -6.886  0.00  0.00     0.084 A 
ATOM      2  C   LIG d   1       4.456  -5.881  -6.758  0.00  0.00    -0.006 A 
ATOM      3  C   LIG d   1       4.406  -6.715  -7.853  0.00  0.00     0.048 A 
ATOM      4  C   LIG d   1       4.000  -6.215  -9.086  0.00  0.00     0.174 A 
ATOM      5  C   LIG d   1       3.639  -4.881  -9.221  0.00  0.00     0.210 A 
ATOM      6  C   LIG d   1       3.686  -4.041  -8.115  0.00  0.00     0.191 A 
ATOM      7  O   LIG d   1       3.288  -2.791  -8.499  0.00  0.00    -0.451 OA
ATOM      8  C   LIG d   1       3.390  -2.780  -9.935  0.00  0.00     0.234 C 
ATOM      9  O   LIG d   1       3.214  -4.162 -10.301  0.00  0.00    -0.449 OA
ATOM     10  C   LIG d   1       4.779  -8.172  -7.760  0.00  0.00    -0.002 C 
ATOM     11  N   LIG d   1       5.557  -8.426  -6.543  0.00  0.00     0.237 N 
ATOM     12  C   LIG d   1       4.844  -7.905  -5.366  0.00  0.00    -0.028 C 
ATOM     13  C   LIG d   1       4.896  -6.378  -5.404  0.00  0.00     0.015 C 
ATOM     14  H   LIG d   1       2.605  -2.134 -10.354  0.00  0.00     0.117 H 
ATOM     15  H   LIG d   1       4.377  -2.394 -10.229  0.00  0.00     0.117 H 
ATOM     16  H   LIG d   1       3.864  -8.784  -7.735  0.00  0.00     0.087 H 
ATOM     17  H   LIG d   1       5.382  -8.453  -8.636  0.00  0.00     0.087 H 
ATOM     18  H   LIG d   1       3.799  -8.245  -5.389  0.00  0.00     0.082 H 
ATOM     19  H   LIG d   1       5.330  -8.274  -4.451  0.00  0.00     0.082 H 
ATOM     20  H   LIG d   1       5.927  -6.046  -5.209  0.00  0.00     0.037 H 
ATOM     21  H   LIG d   1       4.229  -5.973  -4.630  0.00  0.00     0.037 H 
ATOM     22  H   LIG d   1       6.518  -7.901  -6.632  0.00  0.00     0.203 HD
ENDROOT
BRANCH   1  23
ATOM     23  N   LIG d   1       4.142  -3.697  -5.768  0.00  0.00    -0.282 N 
ATOM     24  C   LIG d   1       5.195  -2.874  -5.590  0.00  0.00     0.218 C 
ATOM     25  O   LIG d   1       6.059  -2.802  -6.439  0.00  0.00    -0.276 OA
ATOM     26  H   LIG d   1       3.320  -3.705  -5.036  0.00  0.00     0.155 HD
BRANCH  24  27
ATOM     27  C   LIG d   1       5.300  -2.045  -4.336  0.00  0.00     0.028 C 
ATOM     28  H   LIG d   1       5.794  -1.090  -4.568  0.00  0.00     0.036 H 
ATOM     29  H   LIG d   1       5.893  -2.590  -3.585  0.00  0.00     0.036 H 
BRANCH  27  30
ATOM     30  C   LIG d   1       3.899  -1.776  -3.784  0.00  0.00    -0.014 C 
ATOM     31  H   LIG d   1       3.847  -2.112  -2.738  0.00  0.00     0.032 H 
ATOM     32  H   LIG d   1       3.158  -2.324  -4.383  0.00  0.00     0.032 H 
BRANCH  30  33
ATOM     33  C   LIG d   1       3.608  -0.299  -3.851  0.00  0.00     0.018 A 
ATOM     34  C   LIG d   1       3.001   0.421  -4.906  0.00  0.00     0.084 A 
ATOM     35  N   LIG d   1       2.956   1.664  -4.525  0.00  0.00    -0.083 NA
ATOM     36  O   LIG d   1       3.431   1.809  -3.422  0.00  0.00    -0.359 OA
ATOM     37  C   LIG d   1       3.862   0.646  -2.914  0.00  0.00     0.138 A 
BRANCH  34  38
ATOM     38  C   LIG d   1       2.505  -0.140  -6.214  0.00  0.00    -0.019 C 
ATOM     39  H   LIG d   1       2.969  -1.122  -6.391  0.00  0.00     0.029 H 
ATOM     40  H   LIG d   1       2.773   0.545  -7.032  0.00  0.00     0.029 H 
ATOM     41  H   LIG d   1       1.412  -0.253  -6.173  0.00  0.00     0.029 H 
ENDBRANCH  34  38
BRANCH  37  42
ATOM     42  C   LIG d   1       4.504   0.430  -1.569  0.00  0.00    -0.003 C 
ATOM     43  H   LIG d   1       5.538   0.807  -1.592  0.00  0.00     0.031 H 
ATOM     44  H   LIG d   1       4.510  -0.644  -1.332  0.00  0.00     0.031 H 
ATOM     45  H   LIG d   1       3.934   0.973  -0.799  0.00  0.00     0.031 H 
ENDBRANCH  37  42
ENDBRANCH  30  33
ENDBRANCH  27  30
ENDBRANCH  24  27
ENDBRANCH   1  23
BRANCH   4  46
ATOM     46  O   LIG d   1       3.954  -7.040 -10.167  0.00  0.00    -0.491 OA
BRANCH  46  47
ATOM     47  C   LIG d   1       5.011  -6.919 -11.122  0.00  0.00     0.079 C 
ATOM     48  H   LIG d   1       5.083  -7.846 -11.708  0.00  0.00     0.066 H 
ATOM     49  H   LIG d   1       5.961  -6.741 -10.596  0.00  0.00     0.066 H 
ATOM     50  H   LIG d   1       4.802  -6.075 -11.795  0.00  0.00     0.066 H 
ENDBRANCH  46  47
ENDBRANCH   4  46
BRANCH  11  51
ATOM     51  C   LIG d   1       5.845  -9.859  -6.393  0.00  0.00    -0.043 C 
ATOM     52  H   LIG d   1       6.889  -9.991  -6.072  0.00  0.00     0.078 H 
ATOM     53  H   LIG d   1       5.690 -10.368  -7.355  0.00  0.00     0.078 H 
ATOM     54  H   LIG d   1       5.171 -10.291  -5.637  0.00  0.00     0.078 H 
ENDBRANCH  11  51
TORSDOF 9
ENDMDL
MODEL 8
REMARK VINA RESULT:      -5.7      2.286      8.347
REMARK  9 active torsions:
REMARK  status: ('A' for Active; 'I' for Inactive)
REMARK    1  A    between atoms: C_1  and  C_2 
REMARK    2  A    between atoms: C_3  and  C_8 
REMARK    3  A    between atoms: C_4  and  C_7 
REMARK    4  A    between atoms: C_8  and  C_9 
REMARK    5  A    between atoms: C_9  and  C_10 
REMARK       I    between atoms: C_10  and  N_12 
REMARK    6  A    between atoms: N_12  and  C_13 
REMARK    7  A    between atoms: C_16  and  O_22 
REMARK    8  A    between atoms: O_22  and  C_23 
REMARK    9  A    between atoms: N_25  and  C_28 
ROOT
ATOM      1  C   LIG d   1       9.435  10.519  -4.493  0.00  0.00     0.084 A 
ATOM      2  C   LIG d   1       9.681   9.692  -5.585  0.00  0.00    -0.006 A 
ATOM      3  C   LIG d   1       9.887  10.243  -6.831  0.00  0.00     0.048 A 
ATOM      4  C   LIG d   1       9.854  11.624  -6.992  0.00  0.00     0.174 A 
ATOM      5  C   LIG d   1       9.611  12.454  -5.905  0.00  0.00     0.210 A 
ATOM      6  C   LIG d   1       9.399  11.898  -4.649  0.00  0.00     0.191 A 
ATOM      7  O   LIG d   1       9.184  12.909  -3.755  0.00  0.00    -0.451 OA
ATOM      8  C   LIG d   1       9.670  14.102  -4.399  0.00  0.00     0.234 C 
ATOM      9  O   LIG d   1       9.530  13.813  -5.803  0.00  0.00    -0.449 OA
ATOM     10  C   LIG d   1      10.147   9.388  -8.045  0.00  0.00    -0.002 C 
ATOM     11  N   LIG d   1      10.554   8.038  -7.644  0.00  0.00     0.237 N 
ATOM     12  C   LIG d   1       9.576   7.471  -6.699  0.00  0.00    -0.028 C 
ATOM     13  C   LIG d   1       9.714   8.201  -5.363  0.00  0.00     0.015 C 
ATOM     14  H   LIG d   1       9.060  14.962  -4.086  0.00  0.00     0.117 H 
ATOM     15  H   LIG d   1      10.718  14.272  -4.111  0.00  0.00     0.117 H 
ATOM     16  H   LIG d   1       9.230   9.321  -8.649  0.00  0.00     0.087 H 
ATOM     17  H   LIG d   1      10.949   9.840  -8.647  0.00  0.00     0.087 H 
ATOM     18  H   LIG d   1       8.561   7.606  -7.098  0.00  0.00     0.082 H 
ATOM     19  H   LIG d   1       9.778   6.399  -6.563  0.00  0.00     0.082 H 
ATOM     20  H   LIG d   1      10.670   7.921  -4.894  0.00  0.00     0.037 H 
ATOM     21  H   LIG d   1       8.884   7.910  -4.704  0.00  0.00     0.037 H 
ATOM     22  H   LIG d   1      11.529   8.106  -7.140  0.00  0.00     0.203 HD
ENDROOT
BRANCH   1  23
ATOM     23  N   LIG d   1       9.222   9.955  -3.225  0.00  0.00    -0.282 N 
ATOM     24  C   LIG d   1      10.264   9.748  -2.396  0.00  0.00     0.218 C 
ATOM     25  O   LIG d   1      11.373  10.129  -2.708  0.00  0.00    -0.276 OA
ATOM     26  H   LIG d   1       8.204   9.681  -2.909  0.00  0.00     0.155 HD
BRANCH  24  27
ATOM     27  C   LIG d   1      10.052   9.044  -1.080  0.00  0.00     0.028 C 
ATOM     28  H   LIG d   1       9.478   9.695  -0.404  0.00  0.00     0.036 H 
ATOM     29  H   LIG d   1      11.028   8.815  -0.625  0.00  0.00     0.036 H 
BRANCH  27  30
ATOM     30  C   LIG d   1       9.280   7.745  -1.316  0.00  0.00    -0.014 C 
ATOM     31  H   LIG d   1       8.900   7.727  -2.348  0.00  0.00     0.032 H 
ATOM     32  H   LIG d   1       8.437   7.687  -0.613  0.00  0.00     0.032 H 
BRANCH  30  33
ATOM     33  C   LIG d   1      10.198   6.570  -1.100  0.00  0.00     0.018 A 
ATOM     34  C   LIG d   1      11.004   6.291   0.028  0.00  0.00     0.084 A 
ATOM     35  N   LIG d   1      11.622   5.175  -0.227  0.00  0.00    -0.083 NA
ATOM     36  O   LIG d   1      11.322   4.739  -1.315  0.00  0.00    -0.359 OA
ATOM     37  C   LIG d   1      10.438   5.532  -1.937  0.00  0.00     0.138 A 
BRANCH  34  38
ATOM     38  C   LIG d   1      11.124   7.123   1.280  0.00  0.00    -0.019 C 
ATOM     39  H   LIG d   1      11.367   8.161   1.009  0.00  0.00     0.029 H 
ATOM     40  H   LIG d   1      11.922   6.713   1.917  0.00  0.00     0.029 H 
ATOM     41  H   LIG d   1      10.170   7.100   1.827  0.00  0.00     0.029 H 
ENDBRANCH  34  38
BRANCH  37  42
ATOM     42  C   LIG d   1       9.831   5.314  -3.298  0.00  0.00    -0.003 C 
ATOM     43  H   LIG d   1       9.398   4.304  -3.349  0.00  0.00     0.031 H 
ATOM     44  H   LIG d   1      10.610   5.418  -4.068  0.00  0.00     0.031 H 
ATOM     45  H   LIG d   1       9.041   6.060  -3.472  0.00  0.00     0.031 H 
ENDBRANCH  37  42
ENDBRANCH  30  33
ENDBRANCH  27  30
ENDBRANCH  24  27
ENDBRANCH   1  23
BRANCH   4  46
ATOM     46  O   LIG d   1      10.061  12.166  -8.222  0.00  0.00    -0.491 OA
BRANCH  46  47
ATOM     47  C   LIG d   1      11.345  12.741  -8.472  0.00  0.00     0.079 C 
ATOM     48  H   LIG d   1      11.715  12.402  -9.451  0.00  0.00     0.066 H 
ATOM     49  H   LIG d   1      12.046  12.427  -7.685  0.00  0.00     0.066 H 
ATOM     50  H   LIG d   1      11.262  13.837  -8.472  0.00  0.00     0.066 H 
ENDBRANCH  46  47
ENDBRANCH   4  46
BRANCH  11  51
ATOM     51  C   LIG d   1      10.718   7.168  -8.816  0.00  0.00    -0.043 C 
ATOM     52  H   LIG d   1      11.431   7.627  -9.516  0.00  0.00     0.078 H 
ATOM     53  H   LIG d   1       9.747   7.037  -9.315  0.00  0.00     0.078 H 
ATOM     54  H   LIG d   1      11.100   6.187  -8.494  0.00  0.00     0.078 H 
ENDBRANCH  11  51
TORSDOF 9
ENDMDL
MODEL 9
REMARK VINA RESULT:      -5.7      3.100      8.562
REMARK  9 active torsions:
REMARK  status: ('A' for Active; 'I' for Inactive)
REMARK    1  A    between atoms: C_1  and  C_2 
REMARK    2  A    between atoms: C_3  and  C_8 
REMARK    3  A    between atoms: C_4  and  C_7 
REMARK    4  A    between atoms: C_8  and  C_9 
REMARK    5  A    between atoms: C_9  and  C_10 
REMARK       I    between atoms: C_10  and  N_12 
REMARK    6  A    between atoms: N_12  and  C_13 
REMARK    7  A    between atoms: C_16  and  O_22 
REMARK    8  A    between atoms: O_22  and  C_23 
REMARK    9  A    between atoms: N_25  and  C_28 
ROOT
ATOM      1  C   LIG d   1       9.504   7.864  -5.620  0.00  0.00     0.084 A 
ATOM      2  C   LIG d   1       9.816   7.022  -6.684  0.00  0.00    -0.006 A 
ATOM      3  C   LIG d   1      10.124   7.557  -7.916  0.00  0.00     0.048 A 
ATOM      4  C   LIG d   1      10.128   8.937  -8.091  0.00  0.00     0.174 A 
ATOM      5  C   LIG d   1       9.818   9.782  -7.033  0.00  0.00     0.210 A 
ATOM      6  C   LIG d   1       9.504   9.242  -5.791  0.00  0.00     0.191 A 
ATOM      7  O   LIG d   1       9.240  10.265  -4.925  0.00  0.00    -0.451 OA
ATOM      8  C   LIG d   1       9.793  11.443  -5.541  0.00  0.00     0.234 C 
ATOM      9  O   LIG d   1       9.753  11.143  -6.949  0.00  0.00    -0.449 OA
ATOM     10  C   LIG d   1      10.459   6.686  -9.099  0.00  0.00    -0.002 C 
ATOM     11  N   LIG d   1      10.812   5.333  -8.657  0.00  0.00     0.237 N 
ATOM     12  C   LIG d   1       9.757   4.792  -7.783  0.00  0.00    -0.028 C 
ATOM     13  C   LIG d   1       9.808   5.533  -6.447  0.00  0.00     0.015 C 
ATOM     14  H   LIG d   1       9.176  12.317  -5.282  0.00  0.00     0.117 H 
ATOM     15  H   LIG d   1      10.819  11.599  -5.177  0.00  0.00     0.117 H 
ATOM     16  H   LIG d   1       9.589   6.628  -9.770  0.00  0.00     0.087 H 
ATOM     17  H   LIG d   1      11.312   7.118  -9.643  0.00  0.00     0.087 H 
ATOM     18  H   LIG d   1       8.777   4.940  -8.258  0.00  0.00     0.082 H 
ATOM     19  H   LIG d   1       9.930   3.718  -7.623  0.00  0.00     0.082 H 
ATOM     20  H   LIG d   1      10.720   5.242  -5.905  0.00  0.00     0.037 H 
ATOM     21  H   LIG d   1       8.925   5.262  -5.849  0.00  0.00     0.037 H 
ATOM     22  H   LIG d   1      11.748   5.390  -8.083  0.00  0.00     0.203 HD
ENDROOT
BRANCH   1  23
ATOM     23  N   LIG d   1       9.187   7.316  -4.367  0.00  0.00    -0.282 N 
ATOM     24  C   LIG d   1      10.154   7.145  -3.443  0.00  0.00     0.218 C 
ATOM     25  O   LIG d   1      11.278   7.543  -3.660  0.00  0.00    -0.276 OA
ATOM     26  H   LIG d   1       8.150   7.027  -4.140  0.00  0.00     0.155 HD
BRANCH  24  27
ATOM     27  C   LIG d   1       9.836   6.458  -2.139  0.00  0.00     0.028 C 
ATOM     28  H   LIG d   1      10.737   5.952  -1.762  0.00  0.00     0.036 H 
ATOM     29  H   LIG d   1       9.041   5.715  -2.301  0.00  0.00     0.036 H 
BRANCH  27  30
ATOM     30  C   LIG d   1       9.367   7.496  -1.118  0.00  0.00    -0.014 C 
ATOM     31  H   LIG d   1       8.647   7.030  -0.427  0.00  0.00     0.032 H 
ATOM     32  H   LIG d   1       8.883   8.333  -1.641  0.00  0.00     0.032 H 
BRANCH  30  33
ATOM     33  C   LIG d   1      10.552   8.005  -0.339  0.00  0.00     0.018 A 
ATOM     34  C   LIG d   1      11.270   7.344   0.684  0.00  0.00     0.084 A 
ATOM     35  N   LIG d   1      12.208   8.163   1.063  0.00  0.00    -0.083 NA
ATOM     36  O   LIG d   1      12.172   9.199   0.440  0.00  0.00    -0.359 OA
ATOM     37  C   LIG d   1      11.179   9.199  -0.460  0.00  0.00     0.138 A 
BRANCH  34  38
ATOM     38  C   LIG d   1      11.003   5.964   1.227  0.00  0.00    -0.019 C 
ATOM     39  H   LIG d   1      11.620   5.231   0.687  0.00  0.00     0.029 H 
ATOM     40  H   LIG d   1       9.940   5.717   1.094  0.00  0.00     0.029 H 
ATOM     41  H   LIG d   1      11.255   5.937   2.298  0.00  0.00     0.029 H 
ENDBRANCH  34  38
BRANCH  37  42
ATOM     42  C   LIG d   1      10.829  10.309  -1.417  0.00  0.00    -0.003 C 
ATOM     43  H   LIG d   1      10.961   9.956  -2.451  0.00  0.00     0.031 H 
ATOM     44  H   LIG d   1      11.487  11.171  -1.237  0.00  0.00     0.031 H 
ATOM     45  H   LIG d   1       9.781  10.608  -1.264  0.00  0.00     0.031 H 
ENDBRANCH  37  42
ENDBRANCH  30  33
ENDBRANCH  27  30
ENDBRANCH  24  27
ENDBRANCH   1  23
BRANCH   4  46
ATOM     46  O   LIG d   1      10.435   9.463  -9.307  0.00  0.00    -0.491 OA
BRANCH  46  47
ATOM     47  C   LIG d   1      11.750   9.997  -9.471  0.00  0.00     0.079 C 
ATOM     48  H   LIG d   1      11.686  11.002  -9.914  0.00  0.00     0.066 H 
ATOM     49  H   LIG d   1      12.332   9.340 -10.133  0.00  0.00     0.066 H 
ATOM     50  H   LIG d   1      12.244  10.060  -8.490  0.00  0.00     0.066 H 
ENDBRANCH  46  47
ENDBRANCH   4  46
BRANCH  11  51
ATOM     51  C   LIG d   1      11.048   4.449  -9.805  0.00  0.00    -0.043 C 
ATOM     52  H   LIG d   1      11.902   3.788  -9.590  0.00  0.00     0.078 H 
ATOM     53  H   LIG d   1      11.269   5.055 -10.696  0.00  0.00     0.078 H 
ATOM     54  H   LIG d   1      10.151   3.839  -9.990  0.00  0.00     0.078 H 
ENDBRANCH  11  51
TORSDOF 9
ENDMDL
MODEL 10
REMARK VINA RESULT:      -5.6      3.021      8.500
REMARK  9 active torsions:
REMARK  status: ('A' for Active; 'I' for Inactive)
REMARK    1  A    between atoms: C_1  and  C_2 
REMARK    2  A    between atoms: C_3  and  C_8 
REMARK    3  A    between atoms: C_4  and  C_7 
REMARK    4  A    between atoms: C_8  and  C_9 
REMARK    5  A    between atoms: C_9  and  C_10 
REMARK       I    between atoms: C_10  and  N_12 
REMARK    6  A    between atoms: N_12  and  C_13 
REMARK    7  A    between atoms: C_16  and  O_22 
REMARK    8  A    between atoms: O_22  and  C_23 
REMARK    9  A    between atoms: N_25  and  C_28 
ROOT
ATOM      1  C   LIG d   1       9.632   8.155  -5.133  0.00  0.00     0.084 A 
ATOM      2  C   LIG d   1       9.706   6.828  -5.545  0.00  0.00    -0.006 A 
ATOM      3  C   LIG d   1       9.772   6.527  -6.888  0.00  0.00     0.048 A 
ATOM      4  C   LIG d   1       9.771   7.553  -7.828  0.00  0.00     0.174 A 
ATOM      5  C   LIG d   1       9.700   8.879  -7.422  0.00  0.00     0.210 A 
ATOM      6  C   LIG d   1       9.629   9.182  -6.068  0.00  0.00     0.191 A 
ATOM      7  O   LIG d   1       9.567  10.539  -5.926  0.00  0.00    -0.451 OA
ATOM      8  C   LIG d   1      10.012  11.078  -7.185  0.00  0.00     0.234 C 
ATOM      9  O   LIG d   1       9.684  10.045  -8.133  0.00  0.00    -0.449 OA
ATOM     10  C   LIG d   1       9.843   5.106  -7.382  0.00  0.00    -0.002 C 
ATOM     11  N   LIG d   1      10.246   4.205  -6.297  0.00  0.00     0.237 N 
ATOM     12  C   LIG d   1       9.377   4.398  -5.126  0.00  0.00    -0.028 C 
ATOM     13  C   LIG d   1       9.711   5.748  -4.492  0.00  0.00     0.015 C 
ATOM     14  H   LIG d   1       9.480  12.018  -7.391  0.00  0.00     0.117 H 
ATOM     15  H   LIG d   1      11.094  11.272  -7.139  0.00  0.00     0.117 H 
ATOM     16  H   LIG d   1       8.854   4.797  -7.754  0.00  0.00     0.087 H 
ATOM     17  H   LIG d   1      10.579   5.036  -8.197  0.00  0.00     0.087 H 
ATOM     18  H   LIG d   1       8.324   4.383  -5.443  0.00  0.00     0.082 H 
ATOM     19  H   LIG d   1       9.553   3.590  -4.401  0.00  0.00     0.082 H 
ATOM     20  H   LIG d   1      10.707   5.694  -4.027  0.00  0.00     0.037 H 
ATOM     21  H   LIG d   1       8.960   5.983  -3.723  0.00  0.00     0.037 H 
ATOM     22  H   LIG d   1      11.279   4.449  -6.012  0.00  0.00     0.203 HD
ENDROOT
BRANCH   1  23
ATOM     23  N   LIG d   1       9.561   8.457  -3.764  0.00  0.00    -0.282 N 
ATOM     24  C   LIG d   1      10.679   8.795  -3.090  0.00  0.00     0.218 C 
ATOM     25  O   LIG d   1      11.729   8.922  -3.682  0.00  0.00    -0.276 OA
ATOM     26  H   LIG d   1       8.593   8.418  -3.242  0.00  0.00     0.155 HD
BRANCH  24  27
ATOM     27  C   LIG d   1      10.622   9.014  -1.600  0.00  0.00     0.028 C 
ATOM     28  H   LIG d   1       9.744   8.496  -1.186  0.00  0.00     0.036 H 
ATOM     29  H   LIG d   1      10.544  10.091  -1.390  0.00  0.00     0.036 H 
BRANCH  27  30
ATOM     30  C   LIG d   1      11.893   8.458  -0.954  0.00  0.00    -0.014 C 
ATOM     31  H   LIG d   1      12.520   9.292  -0.604  0.00  0.00     0.032 H 
ATOM     32  H   LIG d   1      12.451   7.865  -1.693  0.00  0.00     0.032 H 
BRANCH  30  33
ATOM     33  C   LIG d   1      11.521   7.585   0.216  0.00  0.00     0.018 A 
ATOM     34  C   LIG d   1      11.092   6.237   0.194  0.00  0.00     0.084 A 
ATOM     35  N   LIG d   1      10.886   5.896   1.433  0.00  0.00    -0.083 NA
ATOM     36  O   LIG d   1      11.120   6.810   2.191  0.00  0.00    -0.359 OA
ATOM     37  C   LIG d   1      11.527   7.904   1.532  0.00  0.00     0.138 A 
BRANCH  34  38
ATOM     38  C   LIG d   1      10.909   5.368  -1.023  0.00  0.00    -0.019 C 
ATOM     39  H   LIG d   1      10.283   4.501  -0.765  0.00  0.00     0.029 H 
ATOM     40  H   LIG d   1      11.891   5.019  -1.376  0.00  0.00     0.029 H 
ATOM     41  H   LIG d   1      10.420   5.950  -1.819  0.00  0.00     0.029 H 
ENDBRANCH  34  38
BRANCH  37  42
ATOM     42  C   LIG d   1      11.912   9.230   2.135  0.00  0.00    -0.003 C 
ATOM     43  H   LIG d   1      12.001   9.123   3.227  0.00  0.00     0.031 H 
ATOM     44  H   LIG d   1      11.140   9.978   1.902  0.00  0.00     0.031 H 
ATOM     45  H   LIG d   1      12.877   9.556   1.720  0.00  0.00     0.031 H 
ENDBRANCH  37  42
ENDBRANCH  30  33
ENDBRANCH  27  30
ENDBRANCH  24  27
ENDBRANCH   1  23
BRANCH   4  46
ATOM     46  O   LIG d   1       9.840   7.255  -9.153  0.00  0.00    -0.491 OA
BRANCH  46  47
ATOM     47  C   LIG d   1      11.098   7.455  -9.800  0.00  0.00     0.079 C 
ATOM     48  H   LIG d   1      10.930   7.741 -10.849  0.00  0.00     0.066 H 
ATOM     49  H   LIG d   1      11.682   6.524  -9.762  0.00  0.00     0.066 H 
ATOM     50  H   LIG d   1      11.650   8.256  -9.287  0.00  0.00     0.066 H 
ENDBRANCH  46  47
ENDBRANCH   4  46
BRANCH  11  51
ATOM     51  C   LIG d   1      10.227   2.805  -6.741  0.00  0.00    -0.043 C 
ATOM     52  H   LIG d   1      11.118   2.602  -7.354  0.00  0.00     0.078 H 
ATOM     53  H   LIG d   1       9.322   2.621  -7.339  0.00  0.00     0.078 H 
ATOM     54  H   LIG d   1      10.227   2.142  -5.864  0.00  0.00     0.078 H 
ENDBRANCH  11  51
TORSDOF 9
ENDMDL
