MODEL 1
REMARK VINA RESULT:      -6.8      0.000      0.000
REMARK  4 active torsions:
REMARK  status: ('A' for Active; 'I' for Inactive)
REMARK    1  A    between atoms: C_1  and  N_2 
REMARK    2  A    between atoms: C_7  and  O_25 
REMARK    3  A    between atoms: C_8  and  O_24 
REMARK    4  A    between atoms: O_25  and  C_26 
ROOT
ATOM      1  N   LIG d   1       5.574   0.203  -8.988  0.00  0.00    -0.289 N 
ATOM      2  C   LIG d   1       4.929   1.398  -9.557  0.00  0.00     0.004 C 
ATOM      3  C   LIG d   1       4.211   0.997 -10.845  0.00  0.00    -0.014 C 
ATOM      4  C   LIG d   1       3.338  -0.207 -10.599  0.00  0.00    -0.037 A 
ATOM      5  C   LIG d   1       2.347  -0.503 -11.523  0.00  0.00    -0.013 A 
ATOM      6  C   LIG d   1       1.526  -1.602 -11.340  0.00  0.00     0.162 A 
ATOM      7  C   LIG d   1       1.700  -2.412 -10.223  0.00  0.00     0.159 A 
ATOM      8  C   LIG d   1       2.688  -2.112  -9.303  0.00  0.00    -0.011 A 
ATOM      9  C   LIG d   1       3.507  -1.007  -9.488  0.00  0.00    -0.013 A 
ATOM     10  C   LIG d   1       4.562  -0.713  -8.456  0.00  0.00     0.115 A 
ATOM     11  C   LIG d   1       5.223  -2.016  -7.994  0.00  0.00     0.003 A 
ATOM     12  C   LIG d   1       4.960  -2.119  -6.510  0.00  0.00    -0.031 A 
ATOM     13  C   LIG d   1       5.336  -3.084  -5.598  0.00  0.00    -0.054 A 
ATOM     14  C   LIG d   1       4.979  -2.970  -4.265  0.00  0.00    -0.016 A 
ATOM     15  C   LIG d   1       4.238  -1.884  -3.830  0.00  0.00     0.167 A 
ATOM     16  C   LIG d   1       3.850  -0.903  -4.737  0.00  0.00     0.177 A 
ATOM     17  C   LIG d   1       4.212  -1.015  -6.091  0.00  0.00     0.068 A 
ATOM     18  C   LIG d   1       3.928  -0.122  -7.222  0.00  0.00     0.192 A 
ATOM     19  O   LIG d   1       3.296   0.912  -7.172  0.00  0.00    -0.290 OA
ATOM     20  O   LIG d   1       3.137   0.049  -4.073  0.00  0.00    -0.452 OA
ATOM     21  C   LIG d   1       2.745  -0.560  -2.828  0.00  0.00     0.233 C 
ATOM     22  O   LIG d   1       3.769  -1.546  -2.593  0.00  0.00    -0.453 OA
ATOM     23  H   LIG d   1       4.208   1.797  -8.843  0.00  0.00     0.043 H 
ATOM     24  H   LIG d   1       5.685   2.152  -9.778  0.00  0.00     0.043 H 
ATOM     25  H   LIG d   1       3.593   1.827 -11.187  0.00  0.00     0.033 H 
ATOM     26  H   LIG d   1       4.949   0.759 -11.611  0.00  0.00     0.033 H 
ATOM     27  H   LIG d   1       2.215   0.127 -12.389  0.00  0.00     0.066 H 
ATOM     28  H   LIG d   1       2.823  -2.740  -8.435  0.00  0.00     0.066 H 
ATOM     29  H   LIG d   1       4.781  -2.866  -8.512  0.00  0.00     0.034 H 
ATOM     30  H   LIG d   1       6.297  -1.979  -8.182  0.00  0.00     0.034 H 
ATOM     31  H   LIG d   1       5.913  -3.935  -5.927  0.00  0.00     0.062 H 
ATOM     32  H   LIG d   1       5.279  -3.733  -3.561  0.00  0.00     0.066 H 
ATOM     33  H   LIG d   1       2.733   0.179  -2.027  0.00  0.00     0.117 H 
ATOM     34  H   LIG d   1       1.770  -1.037  -2.926  0.00  0.00     0.117 H 
ENDROOT
BRANCH   1  35
ATOM     35  C   LIG d   1       6.547   0.572  -7.951  0.00  0.00    -0.011 C 
ATOM     36  H   LIG d   1       7.389  -0.121  -7.980  0.00  0.00     0.039 H 
ATOM     37  H   LIG d   1       6.905   1.585  -8.133  0.00  0.00     0.039 H 
ATOM     38  H   LIG d   1       6.070   0.525  -6.973  0.00  0.00     0.039 H 
ENDBRANCH   1  35
BRANCH   7  39
ATOM     39  O   LIG d   1       0.899  -3.496 -10.034  0.00  0.00    -0.503 OA
ATOM     40  H   LIG d   1       0.408  -3.763 -10.822  0.00  0.00     0.292 HD
ENDBRANCH   7  39
BRANCH   6  41
ATOM     41  O   LIG d   1       0.555  -1.887 -12.248  0.00  0.00    -0.491 OA
BRANCH  41  42
ATOM     42  C   LIG d   1       0.979  -2.391 -13.517  0.00  0.00     0.079 C 
ATOM     43  H   LIG d   1       2.060  -2.531 -13.508  0.00  0.00     0.066 H 
ATOM     44  H   LIG d   1       0.490  -3.345 -13.711  0.00  0.00     0.066 H 
ATOM     45  H   LIG d   1       0.711  -1.679 -14.297  0.00  0.00     0.066 H 
ENDBRANCH  41  42
ENDBRANCH   6  41
TORSDOF 4
ENDMDL
MODEL 2
REMARK VINA RESULT:      -6.2      1.981      2.593
REMARK  4 active torsions:
REMARK  status: ('A' for Active; 'I' for Inactive)
REMARK    1  A    between atoms: C_1  and  N_2 
REMARK    2  A    between atoms: C_7  and  O_25 
REMARK    3  A    between atoms: C_8  and  O_24 
REMARK    4  A    between atoms: O_25  and  C_26 
ROOT
ATOM      1  N   LIG d   1       7.341  -1.983  -7.373  0.00  0.00    -0.289 N 
ATOM      2  C   LIG d   1       7.946  -0.940  -8.218  0.00  0.00     0.004 C 
ATOM      3  C   LIG d   1       7.286  -0.987  -9.596  0.00  0.00    -0.014 C 
ATOM      4  C   LIG d   1       5.785  -0.975  -9.453  0.00  0.00    -0.037 A 
ATOM      5  C   LIG d   1       5.019  -0.655 -10.563  0.00  0.00    -0.013 A 
ATOM      6  C   LIG d   1       3.638  -0.638 -10.479  0.00  0.00     0.162 A 
ATOM      7  C   LIG d   1       3.018  -0.946  -9.272  0.00  0.00     0.159 A 
ATOM      8  C   LIG d   1       3.786  -1.264  -8.167  0.00  0.00    -0.011 A 
ATOM      9  C   LIG d   1       5.172  -1.276  -8.254  0.00  0.00    -0.013 A 
ATOM     10  C   LIG d   1       5.967  -1.617  -7.024  0.00  0.00     0.115 A 
ATOM     11  C   LIG d   1       5.294  -2.766  -6.264  0.00  0.00     0.003 A 
ATOM     12  C   LIG d   1       4.949  -2.223  -4.897  0.00  0.00    -0.031 A 
ATOM     13  C   LIG d   1       4.343  -2.832  -3.818  0.00  0.00    -0.054 A 
ATOM     14  C   LIG d   1       4.125  -2.131  -2.644  0.00  0.00    -0.016 A 
ATOM     15  C   LIG d   1       4.514  -0.806  -2.539  0.00  0.00     0.167 A 
ATOM     16  C   LIG d   1       5.125  -0.176  -3.618  0.00  0.00     0.177 A 
ATOM     17  C   LIG d   1       5.349  -0.887  -4.811  0.00  0.00     0.068 A 
ATOM     18  C   LIG d   1       5.969  -0.449  -6.069  0.00  0.00     0.192 A 
ATOM     19  O   LIG d   1       6.409   0.657  -6.299  0.00  0.00    -0.290 OA
ATOM     20  O   LIG d   1       5.408   1.110  -3.272  0.00  0.00    -0.452 OA
ATOM     21  C   LIG d   1       4.601   1.384  -2.112  0.00  0.00     0.233 C 
ATOM     22  O   LIG d   1       4.414   0.087  -1.511  0.00  0.00    -0.453 OA
ATOM     23  H   LIG d   1       7.780   0.038  -7.765  0.00  0.00     0.043 H 
ATOM     24  H   LIG d   1       9.015  -1.123  -8.318  0.00  0.00     0.043 H 
ATOM     25  H   LIG d   1       7.599  -0.119 -10.176  0.00  0.00     0.033 H 
ATOM     26  H   LIG d   1       7.593  -1.896 -10.113  0.00  0.00     0.033 H 
ATOM     27  H   LIG d   1       5.502  -0.417 -11.498  0.00  0.00     0.066 H 
ATOM     28  H   LIG d   1       3.306  -1.502  -7.229  0.00  0.00     0.066 H 
ATOM     29  H   LIG d   1       4.387  -3.079  -6.782  0.00  0.00     0.034 H 
ATOM     30  H   LIG d   1       5.982  -3.607  -6.170  0.00  0.00     0.034 H 
ATOM     31  H   LIG d   1       4.035  -3.865  -3.889  0.00  0.00     0.062 H 
ATOM     32  H   LIG d   1       3.648  -2.619  -1.807  0.00  0.00     0.066 H 
ATOM     33  H   LIG d   1       5.125   2.051  -1.428  0.00  0.00     0.117 H 
ATOM     34  H   LIG d   1       3.642   1.810  -2.405  0.00  0.00     0.117 H 
ENDROOT
BRANCH   1  35
ATOM     35  C   LIG d   1       8.147  -2.216  -6.167  0.00  0.00    -0.011 C 
ATOM     36  H   LIG d   1       7.552  -1.986  -5.283  0.00  0.00     0.039 H 
ATOM     37  H   LIG d   1       8.458  -3.260  -6.133  0.00  0.00     0.039 H 
ATOM     38  H   LIG d   1       9.028  -1.575  -6.189  0.00  0.00     0.039 H 
ENDBRANCH   1  35
BRANCH   7  39
ATOM     39  O   LIG d   1       1.661  -0.934  -9.178  0.00  0.00    -0.503 OA
ATOM     40  H   LIG d   1       1.216  -0.595  -9.966  0.00  0.00     0.292 HD
ENDBRANCH   7  39
BRANCH   6  41
ATOM     41  O   LIG d   1       2.891  -0.321 -11.570  0.00  0.00    -0.491 OA
BRANCH  41  42
ATOM     42  C   LIG d   1       2.761  -1.322 -12.581  0.00  0.00     0.079 C 
ATOM     43  H   LIG d   1       2.978  -0.884 -13.556  0.00  0.00     0.066 H 
ATOM     44  H   LIG d   1       3.463  -2.132 -12.382  0.00  0.00     0.066 H 
ATOM     45  H   LIG d   1       1.744  -1.713 -12.576  0.00  0.00     0.066 H 
ENDBRANCH  41  42
ENDBRANCH   6  41
TORSDOF 4
ENDMDL
MODEL 3
REMARK VINA RESULT:      -6.0      5.014      7.271
REMARK  4 active torsions:
REMARK  status: ('A' for Active; 'I' for Inactive)
REMARK    1  A    between atoms: C_1  and  N_2 
REMARK    2  A    between atoms: C_7  and  O_25 
REMARK    3  A    between atoms: C_8  and  O_24 
REMARK    4  A    between atoms: O_25  and  C_26 
ROOT
ATOM      1  N   LIG d   1       5.271  -5.950  -8.150  0.00  0.00    -0.289 N 
ATOM      2  C   LIG d   1       3.963  -6.542  -8.477  0.00  0.00     0.004 C 
ATOM      3  C   LIG d   1       4.076  -8.062  -8.369  0.00  0.00    -0.014 C 
ATOM      4  C   LIG d   1       4.695  -8.444  -7.049  0.00  0.00    -0.037 A 
ATOM      5  C   LIG d   1       4.557  -9.753  -6.610  0.00  0.00    -0.013 A 
ATOM      6  C   LIG d   1       5.114 -10.148  -5.406  0.00  0.00     0.162 A 
ATOM      7  C   LIG d   1       5.816  -9.226  -4.636  0.00  0.00     0.159 A 
ATOM      8  C   LIG d   1       5.949  -7.922  -5.077  0.00  0.00    -0.011 A 
ATOM      9  C   LIG d   1       5.386  -7.528  -6.284  0.00  0.00    -0.013 A 
ATOM     10  C   LIG d   1       5.547  -6.097  -6.719  0.00  0.00     0.115 A 
ATOM     11  C   LIG d   1       6.965  -5.608  -6.405  0.00  0.00     0.003 A 
ATOM     12  C   LIG d   1       6.811  -4.447  -5.452  0.00  0.00    -0.031 A 
ATOM     13  C   LIG d   1       7.761  -3.638  -4.863  0.00  0.00    -0.054 A 
ATOM     14  C   LIG d   1       7.383  -2.615  -4.009  0.00  0.00    -0.016 A 
ATOM     15  C   LIG d   1       6.044  -2.391  -3.736  0.00  0.00     0.167 A 
ATOM     16  C   LIG d   1       5.074  -3.197  -4.321  0.00  0.00     0.177 A 
ATOM     17  C   LIG d   1       5.454  -4.236  -5.190  0.00  0.00     0.068 A 
ATOM     18  C   LIG d   1       4.628  -5.207  -5.920  0.00  0.00     0.192 A 
ATOM     19  O   LIG d   1       3.418  -5.278  -5.889  0.00  0.00    -0.290 OA
ATOM     20  O   LIG d   1       3.847  -2.782  -3.900  0.00  0.00    -0.452 OA
ATOM     21  C   LIG d   1       4.093  -1.972  -2.735  0.00  0.00     0.233 C 
ATOM     22  O   LIG d   1       5.425  -1.464  -2.947  0.00  0.00    -0.453 OA
ATOM     23  H   LIG d   1       3.212  -6.179  -7.775  0.00  0.00     0.043 H 
ATOM     24  H   LIG d   1       3.680  -6.267  -9.493  0.00  0.00     0.043 H 
ATOM     25  H   LIG d   1       3.082  -8.504  -8.444  0.00  0.00     0.033 H 
ATOM     26  H   LIG d   1       4.698  -8.437  -9.182  0.00  0.00     0.033 H 
ATOM     27  H   LIG d   1       4.013 -10.465  -7.209  0.00  0.00     0.066 H 
ATOM     28  H   LIG d   1       6.493  -7.206  -4.480  0.00  0.00     0.066 H 
ATOM     29  H   LIG d   1       7.542  -6.405  -5.934  0.00  0.00     0.034 H 
ATOM     30  H   LIG d   1       7.459  -5.279  -7.320  0.00  0.00     0.034 H 
ATOM     31  H   LIG d   1       8.808  -3.805  -5.068  0.00  0.00     0.062 H 
ATOM     32  H   LIG d   1       8.137  -1.989  -3.554  0.00  0.00     0.066 H 
ATOM     33  H   LIG d   1       3.376  -1.154  -2.679  0.00  0.00     0.117 H 
ATOM     34  H   LIG d   1       4.055  -2.580  -1.831  0.00  0.00     0.117 H 
ENDROOT
BRANCH   1  35
ATOM     35  C   LIG d   1       5.327  -4.539  -8.555  0.00  0.00    -0.011 C 
ATOM     36  H   LIG d   1       6.365  -4.248  -8.715  0.00  0.00     0.039 H 
ATOM     37  H   LIG d   1       4.765  -4.404  -9.479  0.00  0.00     0.039 H 
ATOM     38  H   LIG d   1       4.892  -3.919  -7.771  0.00  0.00     0.039 H 
ENDBRANCH   1  35
BRANCH   7  39
ATOM     39  O   LIG d   1       6.368  -9.605  -3.452  0.00  0.00    -0.503 OA
ATOM     40  H   LIG d   1       7.288  -9.328  -3.341  0.00  0.00     0.292 HD
ENDBRANCH   7  39
BRANCH   6  41
ATOM     41  O   LIG d   1       4.974 -11.431  -4.978  0.00  0.00    -0.491 OA
BRANCH  41  42
ATOM     42  C   LIG d   1       4.341 -12.349  -5.873  0.00  0.00     0.079 C 
ATOM     43  H   LIG d   1       3.263 -12.325  -5.714  0.00  0.00     0.066 H 
ATOM     44  H   LIG d   1       4.563 -12.065  -6.901  0.00  0.00     0.066 H 
ATOM     45  H   LIG d   1       4.715 -13.355  -5.684  0.00  0.00     0.066 H 
ENDBRANCH  41  42
ENDBRANCH   6  41
TORSDOF 4
ENDMDL
MODEL 4
REMARK VINA RESULT:      -6.0      1.864      2.218
REMARK  4 active torsions:
REMARK  status: ('A' for Active; 'I' for Inactive)
REMARK    1  A    between atoms: C_1  and  N_2 
REMARK    2  A    between atoms: C_7  and  O_25 
REMARK    3  A    between atoms: C_8  and  O_24 
REMARK    4  A    between atoms: O_25  and  C_26 
ROOT
ATOM      1  N   LIG d   1       6.231  -0.167  -8.664  0.00  0.00    -0.289 N 
ATOM      2  C   LIG d   1       5.242   0.442  -9.569  0.00  0.00     0.004 C 
ATOM      3  C   LIG d   1       4.727  -0.635 -10.523  0.00  0.00    -0.014 C 
ATOM      4  C   LIG d   1       4.294  -1.852  -9.747  0.00  0.00    -0.037 A 
ATOM      5  C   LIG d   1       3.479  -2.780 -10.377  0.00  0.00    -0.013 A 
ATOM      6  C   LIG d   1       3.061  -3.915  -9.704  0.00  0.00     0.162 A 
ATOM      7  C   LIG d   1       3.465  -4.123  -8.388  0.00  0.00     0.159 A 
ATOM      8  C   LIG d   1       4.276  -3.193  -7.764  0.00  0.00    -0.011 A 
ATOM      9  C   LIG d   1       4.690  -2.054  -8.441  0.00  0.00    -0.013 A 
ATOM     10  C   LIG d   1       5.563  -1.065  -7.719  0.00  0.00     0.115 A 
ATOM     11  C   LIG d   1       6.606  -1.804  -6.872  0.00  0.00     0.003 A 
ATOM     12  C   LIG d   1       6.355  -1.393  -5.440  0.00  0.00    -0.031 A 
ATOM     13  C   LIG d   1       7.005  -1.752  -4.277  0.00  0.00    -0.054 A 
ATOM     14  C   LIG d   1       6.598  -1.240  -3.056  0.00  0.00    -0.016 A 
ATOM     15  C   LIG d   1       5.530  -0.361  -2.988  0.00  0.00     0.167 A 
ATOM     16  C   LIG d   1       4.863   0.010  -4.150  0.00  0.00     0.177 A 
ATOM     17  C   LIG d   1       5.275  -0.506  -5.392  0.00  0.00     0.068 A 
ATOM     18  C   LIG d   1       4.740  -0.267  -6.739  0.00  0.00     0.192 A 
ATOM     19  O   LIG d   1       3.802   0.449  -7.016  0.00  0.00    -0.290 OA
ATOM     20  O   LIG d   1       3.861   0.872  -3.823  0.00  0.00    -0.452 OA
ATOM     21  C   LIG d   1       3.661   0.712  -2.406  0.00  0.00     0.233 C 
ATOM     22  O   LIG d   1       4.947   0.272  -1.927  0.00  0.00    -0.453 OA
ATOM     23  H   LIG d   1       4.412   0.843  -8.986  0.00  0.00     0.043 H 
ATOM     24  H   LIG d   1       5.712   1.243 -10.139  0.00  0.00     0.043 H 
ATOM     25  H   LIG d   1       3.879  -0.244 -11.085  0.00  0.00     0.033 H 
ATOM     26  H   LIG d   1       5.521  -0.912 -11.217  0.00  0.00     0.033 H 
ATOM     27  H   LIG d   1       3.168  -2.617 -11.397  0.00  0.00     0.066 H 
ATOM     28  H   LIG d   1       4.589  -3.353  -6.743  0.00  0.00     0.066 H 
ATOM     29  H   LIG d   1       6.480  -2.882  -6.978  0.00  0.00     0.034 H 
ATOM     30  H   LIG d   1       7.611  -1.512  -7.175  0.00  0.00     0.034 H 
ATOM     31  H   LIG d   1       7.839  -2.437  -4.320  0.00  0.00     0.062 H 
ATOM     32  H   LIG d   1       7.115  -1.530  -2.153  0.00  0.00     0.066 H 
ATOM     33  H   LIG d   1       3.387   1.662  -1.948  0.00  0.00     0.117 H 
ATOM     34  H   LIG d   1       2.900  -0.043  -2.210  0.00  0.00     0.117 H 
ENDROOT
BRANCH   1  35
ATOM     35  C   LIG d   1       7.002   0.864  -7.956  0.00  0.00    -0.011 C 
ATOM     36  H   LIG d   1       6.632   0.956  -6.934  0.00  0.00     0.039 H 
ATOM     37  H   LIG d   1       8.054   0.581  -7.937  0.00  0.00     0.039 H 
ATOM     38  H   LIG d   1       6.891   1.818  -8.471  0.00  0.00     0.039 H 
ENDBRANCH   1  35
BRANCH   7  39
ATOM     39  O   LIG d   1       3.061  -5.236  -7.718  0.00  0.00    -0.503 OA
ATOM     40  H   LIG d   1       2.949  -6.014  -8.280  0.00  0.00     0.292 HD
ENDBRANCH   7  39
BRANCH   6  41
ATOM     41  O   LIG d   1       2.260  -4.822 -10.325  0.00  0.00    -0.491 OA
BRANCH  41  42
ATOM     42  C   LIG d   1       0.949  -4.386 -10.691  0.00  0.00     0.079 C 
ATOM     43  H   LIG d   1       0.660  -3.542 -10.066  0.00  0.00     0.066 H 
ATOM     44  H   LIG d   1       0.947  -4.082 -11.737  0.00  0.00     0.066 H 
ATOM     45  H   LIG d   1       0.243  -5.204 -10.548  0.00  0.00     0.066 H 
ENDBRANCH  41  42
ENDBRANCH   6  41
TORSDOF 4
ENDMDL
MODEL 5
REMARK VINA RESULT:      -5.9      1.799      6.454
REMARK  4 active torsions:
REMARK  status: ('A' for Active; 'I' for Inactive)
REMARK    1  A    between atoms: C_1  and  N_2 
REMARK    2  A    between atoms: C_7  and  O_25 
REMARK    3  A    between atoms: C_8  and  O_24 
REMARK    4  A    between atoms: O_25  and  C_26 
ROOT
ATOM      1  N   LIG d   1       6.091  -0.057  -8.276  0.00  0.00    -0.289 N 
ATOM      2  C   LIG d   1       7.202  -0.761  -7.614  0.00  0.00     0.004 C 
ATOM      3  C   LIG d   1       7.280  -0.290  -6.162  0.00  0.00    -0.014 C 
ATOM      4  C   LIG d   1       5.923  -0.380  -5.513  0.00  0.00    -0.037 A 
ATOM      5  C   LIG d   1       5.849  -0.345  -4.129  0.00  0.00    -0.013 A 
ATOM      6  C   LIG d   1       4.624  -0.420  -3.491  0.00  0.00     0.162 A 
ATOM      7  C   LIG d   1       3.460  -0.529  -4.247  0.00  0.00     0.159 A 
ATOM      8  C   LIG d   1       3.538  -0.565  -5.627  0.00  0.00    -0.011 A 
ATOM      9  C   LIG d   1       4.770  -0.493  -6.263  0.00  0.00    -0.013 A 
ATOM     10  C   LIG d   1       4.808  -0.547  -7.766  0.00  0.00     0.115 A 
ATOM     11  C   LIG d   1       3.659   0.282  -8.350  0.00  0.00     0.003 A 
ATOM     12  C   LIG d   1       2.810  -0.678  -9.151  0.00  0.00    -0.031 A 
ATOM     13  C   LIG d   1       1.665  -0.460  -9.888  0.00  0.00    -0.054 A 
ATOM     14  C   LIG d   1       1.046  -1.506 -10.553  0.00  0.00    -0.016 A 
ATOM     15  C   LIG d   1       1.572  -2.785 -10.486  0.00  0.00     0.167 A 
ATOM     16  C   LIG d   1       2.726  -3.022  -9.746  0.00  0.00     0.177 A 
ATOM     17  C   LIG d   1       3.357  -1.962  -9.071  0.00  0.00     0.068 A 
ATOM     18  C   LIG d   1       4.568  -1.959  -8.239  0.00  0.00     0.192 A 
ATOM     19  O   LIG d   1       5.257  -2.922  -7.981  0.00  0.00    -0.290 OA
ATOM     20  O   LIG d   1       3.038  -4.344  -9.833  0.00  0.00    -0.452 OA
ATOM     21  C   LIG d   1       1.841  -4.994 -10.300  0.00  0.00     0.233 C 
ATOM     22  O   LIG d   1       1.159  -3.963 -11.041  0.00  0.00    -0.453 OA
ATOM     23  H   LIG d   1       7.021  -1.836  -7.642  0.00  0.00     0.043 H 
ATOM     24  H   LIG d   1       8.137  -0.531  -8.125  0.00  0.00     0.043 H 
ATOM     25  H   LIG d   1       7.984  -0.918  -5.616  0.00  0.00     0.033 H 
ATOM     26  H   LIG d   1       7.626   0.744  -6.135  0.00  0.00     0.033 H 
ATOM     27  H   LIG d   1       6.753  -0.260  -3.546  0.00  0.00     0.066 H 
ATOM     28  H   LIG d   1       2.636  -0.650  -6.214  0.00  0.00     0.066 H 
ATOM     29  H   LIG d   1       3.068   0.724  -7.548  0.00  0.00     0.034 H 
ATOM     30  H   LIG d   1       4.054   1.064  -9.000  0.00  0.00     0.034 H 
ATOM     31  H   LIG d   1       1.246   0.534  -9.947  0.00  0.00     0.062 H 
ATOM     32  H   LIG d   1       0.149  -1.322 -11.127  0.00  0.00     0.066 H 
ATOM     33  H   LIG d   1       2.088  -5.833 -10.950  0.00  0.00     0.117 H 
ATOM     34  H   LIG d   1       1.232  -5.325  -9.459  0.00  0.00     0.117 H 
ENDROOT
BRANCH   1  35
ATOM     35  C   LIG d   1       6.168  -0.205  -9.735  0.00  0.00    -0.011 C 
ATOM     36  H   LIG d   1       5.412   0.426 -10.205  0.00  0.00     0.039 H 
ATOM     37  H   LIG d   1       7.157   0.097 -10.079  0.00  0.00     0.039 H 
ATOM     38  H   LIG d   1       5.992  -1.246 -10.004  0.00  0.00     0.039 H 
ENDBRANCH   1  35
BRANCH   7  39
ATOM     39  O   LIG d   1       2.249  -0.601  -3.630  0.00  0.00    -0.503 OA
ATOM     40  H   LIG d   1       2.254  -0.282  -2.718  0.00  0.00     0.292 HD
ENDBRANCH   7  39
BRANCH   6  41
ATOM     41  O   LIG d   1       4.557  -0.387  -2.133  0.00  0.00    -0.491 OA
BRANCH  41  42
ATOM     42  C   LIG d   1       4.614   0.898  -1.511  0.00  0.00     0.079 C 
ATOM     43  H   LIG d   1       5.249   0.846  -0.627  0.00  0.00     0.066 H 
ATOM     44  H   LIG d   1       5.027   1.623  -2.213  0.00  0.00     0.066 H 
ATOM     45  H   LIG d   1       3.609   1.205  -1.221  0.00  0.00     0.066 H 
ENDBRANCH  41  42
ENDBRANCH   6  41
TORSDOF 4
ENDMDL
MODEL 6
REMARK VINA RESULT:      -5.7      6.144      8.844
REMARK  4 active torsions:
REMARK  status: ('A' for Active; 'I' for Inactive)
REMARK    1  A    between atoms: C_1  and  N_2 
REMARK    2  A    between atoms: C_7  and  O_25 
REMARK    3  A    between atoms: C_8  and  O_24 
REMARK    4  A    between atoms: O_25  and  C_26 
ROOT
ATOM      1  N   LIG d   1      11.175   1.476  -4.769  0.00  0.00    -0.289 N 
ATOM      2  C   LIG d   1      10.903   0.791  -6.044  0.00  0.00     0.004 C 
ATOM      3  C   LIG d   1       9.907  -0.340  -5.786  0.00  0.00    -0.014 C 
ATOM      4  C   LIG d   1       8.721   0.180  -5.015  0.00  0.00    -0.037 A 
ATOM      5  C   LIG d   1       7.563  -0.583  -4.993  0.00  0.00    -0.013 A 
ATOM      6  C   LIG d   1       6.451  -0.147  -4.294  0.00  0.00     0.162 A 
ATOM      7  C   LIG d   1       6.500   1.063  -3.608  0.00  0.00     0.159 A 
ATOM      8  C   LIG d   1       7.657   1.820  -3.633  0.00  0.00    -0.011 A 
ATOM      9  C   LIG d   1       8.768   1.382  -4.339  0.00  0.00    -0.013 A 
ATOM     10  C   LIG d   1      10.001   2.244  -4.348  0.00  0.00     0.115 A 
ATOM     11  C   LIG d   1      10.236   2.840  -2.956  0.00  0.00     0.003 A 
ATOM     12  C   LIG d   1      10.177   4.341  -3.124  0.00  0.00    -0.031 A 
ATOM     13  C   LIG d   1      10.330   5.353  -2.198  0.00  0.00    -0.054 A 
ATOM     14  C   LIG d   1      10.236   6.679  -2.584  0.00  0.00    -0.016 A 
ATOM     15  C   LIG d   1       9.987   7.007  -3.906  0.00  0.00     0.167 A 
ATOM     16  C   LIG d   1       9.829   5.999  -4.852  0.00  0.00     0.177 A 
ATOM     17  C   LIG d   1       9.925   4.650  -4.463  0.00  0.00     0.068 A 
ATOM     18  C   LIG d   1       9.800   3.425  -5.264  0.00  0.00     0.192 A 
ATOM     19  O   LIG d   1       9.576   3.372  -6.454  0.00  0.00    -0.290 OA
ATOM     20  O   LIG d   1       9.594   6.570  -6.065  0.00  0.00    -0.452 OA
ATOM     21  C   LIG d   1       9.207   7.928  -5.785  0.00  0.00     0.233 C 
ATOM     22  O   LIG d   1       9.853   8.215  -4.529  0.00  0.00    -0.453 OA
ATOM     23  H   LIG d   1      10.477   1.500  -6.755  0.00  0.00     0.043 H 
ATOM     24  H   LIG d   1      11.830   0.379  -6.443  0.00  0.00     0.043 H 
ATOM     25  H   LIG d   1       9.569  -0.746  -6.738  0.00  0.00     0.033 H 
ATOM     26  H   LIG d   1      10.396  -1.127  -5.211  0.00  0.00     0.033 H 
ATOM     27  H   LIG d   1       7.528  -1.521  -5.525  0.00  0.00     0.066 H 
ATOM     28  H   LIG d   1       7.695   2.759  -3.102  0.00  0.00     0.066 H 
ATOM     29  H   LIG d   1       9.456   2.510  -2.269  0.00  0.00     0.034 H 
ATOM     30  H   LIG d   1      11.216   2.544  -2.581  0.00  0.00     0.034 H 
ATOM     31  H   LIG d   1      10.524   5.108  -1.165  0.00  0.00     0.062 H 
ATOM     32  H   LIG d   1      10.357   7.463  -1.850  0.00  0.00     0.066 H 
ATOM     33  H   LIG d   1       9.569   8.598  -6.564  0.00  0.00     0.117 H 
ATOM     34  H   LIG d   1       8.125   8.004  -5.684  0.00  0.00     0.117 H 
ENDROOT
BRANCH   1  35
ATOM     35  C   LIG d   1      12.359   2.340  -4.877  0.00  0.00    -0.011 C 
ATOM     36  H   LIG d   1      12.400   3.008  -4.017  0.00  0.00     0.039 H 
ATOM     37  H   LIG d   1      13.257   1.723  -4.902  0.00  0.00     0.039 H 
ATOM     38  H   LIG d   1      12.296   2.928  -5.792  0.00  0.00     0.039 H 
ENDBRANCH   1  35
BRANCH   7  39
ATOM     39  O   LIG d   1       5.414   1.499  -2.915  0.00  0.00    -0.503 OA
ATOM     40  H   LIG d   1       5.599   2.237  -2.318  0.00  0.00     0.292 HD
ENDBRANCH   7  39
BRANCH   6  41
ATOM     41  O   LIG d   1       5.317  -0.897  -4.277  0.00  0.00    -0.491 OA
BRANCH  41  42
ATOM     42  C   LIG d   1       4.483  -0.838  -5.436  0.00  0.00     0.079 C 
ATOM     43  H   LIG d   1       3.792  -1.681  -5.429  0.00  0.00     0.066 H 
ATOM     44  H   LIG d   1       3.919   0.095  -5.431  0.00  0.00     0.066 H 
ATOM     45  H   LIG d   1       5.103  -0.884  -6.331  0.00  0.00     0.066 H 
ENDBRANCH  41  42
ENDBRANCH   6  41
TORSDOF 4
ENDMDL
MODEL 7
REMARK VINA RESULT:      -5.7      9.567     11.712
REMARK  4 active torsions:
REMARK  status: ('A' for Active; 'I' for Inactive)
REMARK    1  A    between atoms: C_1  and  N_2 
REMARK    2  A    between atoms: C_7  and  O_25 
REMARK    3  A    between atoms: C_8  and  O_24 
REMARK    4  A    between atoms: O_25  and  C_26 
ROOT
ATOM      1  N   LIG d   1       9.733   4.352  -4.548  0.00  0.00    -0.289 N 
ATOM      2  C   LIG d   1      10.534   3.824  -5.666  0.00  0.00     0.004 C 
ATOM      3  C   LIG d   1       9.978   4.391  -6.972  0.00  0.00    -0.014 C 
ATOM      4  C   LIG d   1       9.839   5.889  -6.870  0.00  0.00    -0.037 A 
ATOM      5  C   LIG d   1       9.698   6.619  -8.041  0.00  0.00    -0.013 A 
ATOM      6  C   LIG d   1       9.562   7.995  -7.994  0.00  0.00     0.162 A 
ATOM      7  C   LIG d   1       9.564   8.646  -6.763  0.00  0.00     0.159 A 
ATOM      8  C   LIG d   1       9.706   7.913  -5.599  0.00  0.00    -0.011 A 
ATOM      9  C   LIG d   1       9.846   6.533  -5.651  0.00  0.00    -0.013 A 
ATOM     10  C   LIG d   1      10.009   5.778  -4.360  0.00  0.00     0.115 A 
ATOM     11  C   LIG d   1       9.073   6.356  -3.291  0.00  0.00     0.003 A 
ATOM     12  C   LIG d   1       9.963   6.844  -2.171  0.00  0.00    -0.031 A 
ATOM     13  C   LIG d   1       9.643   7.438  -0.968  0.00  0.00    -0.054 A 
ATOM     14  C   LIG d   1      10.639   7.806  -0.078  0.00  0.00    -0.016 A 
ATOM     15  C   LIG d   1      11.970   7.581  -0.387  0.00  0.00     0.167 A 
ATOM     16  C   LIG d   1      12.309   6.984  -1.596  0.00  0.00     0.177 A 
ATOM     17  C   LIG d   1      11.300   6.608  -2.501  0.00  0.00     0.068 A 
ATOM     18  C   LIG d   1      11.404   5.969  -3.820  0.00  0.00     0.192 A 
ATOM     19  O   LIG d   1      12.432   5.649  -4.377  0.00  0.00    -0.290 OA
ATOM     20  O   LIG d   1      13.665   6.874  -1.666  0.00  0.00    -0.452 OA
ATOM     21  C   LIG d   1      14.177   7.776  -0.667  0.00  0.00     0.233 C 
ATOM     22  O   LIG d   1      13.117   7.845   0.307  0.00  0.00    -0.453 OA
ATOM     23  H   LIG d   1      11.574   4.130  -5.546  0.00  0.00     0.043 H 
ATOM     24  H   LIG d   1      10.469   2.737  -5.682  0.00  0.00     0.043 H 
ATOM     25  H   LIG d   1      10.657   4.147  -7.789  0.00  0.00     0.033 H 
ATOM     26  H   LIG d   1       9.002   3.949  -7.172  0.00  0.00     0.033 H 
ATOM     27  H   LIG d   1       9.696   6.112  -8.993  0.00  0.00     0.066 H 
ATOM     28  H   LIG d   1       9.708   8.417  -4.644  0.00  0.00     0.066 H 
ATOM     29  H   LIG d   1       8.501   7.188  -3.703  0.00  0.00     0.034 H 
ATOM     30  H   LIG d   1       8.399   5.582  -2.924  0.00  0.00     0.034 H 
ATOM     31  H   LIG d   1       8.608   7.618  -0.717  0.00  0.00     0.062 H 
ATOM     32  H   LIG d   1      10.376   8.271   0.861  0.00  0.00     0.066 H 
ATOM     33  H   LIG d   1      15.084   7.375  -0.217  0.00  0.00     0.117 H 
ATOM     34  H   LIG d   1      14.364   8.759  -1.099  0.00  0.00     0.117 H 
ENDROOT
BRANCH   1  35
ATOM     35  C   LIG d   1       9.991   3.598  -3.314  0.00  0.00    -0.011 C 
ATOM     36  H   LIG d   1      10.130   4.294  -2.486  0.00  0.00     0.039 H 
ATOM     37  H   LIG d   1       9.143   2.947  -3.103  0.00  0.00     0.039 H 
ATOM     38  H   LIG d   1      10.891   2.996  -3.438  0.00  0.00     0.039 H 
ENDBRANCH   1  35
BRANCH   7  39
ATOM     39  O   LIG d   1       9.428   9.999  -6.706  0.00  0.00    -0.503 OA
ATOM     40  H   LIG d   1       8.511  10.300  -6.664  0.00  0.00     0.292 HD
ENDBRANCH   7  39
BRANCH   6  41
ATOM     41  O   LIG d   1       9.426   8.708  -9.144  0.00  0.00    -0.491 OA
BRANCH  41  42
ATOM     42  C   LIG d   1      10.181   8.266 -10.274  0.00  0.00     0.079 C 
ATOM     43  H   LIG d   1       9.787   8.730 -11.178  0.00  0.00     0.066 H 
ATOM     44  H   LIG d   1      11.226   8.549 -10.147  0.00  0.00     0.066 H 
ATOM     45  H   LIG d   1      10.106   7.182 -10.359  0.00  0.00     0.066 H 
ENDBRANCH  41  42
ENDBRANCH   6  41
TORSDOF 4
ENDMDL
MODEL 8
REMARK VINA RESULT:      -5.7      1.514      6.737
REMARK  4 active torsions:
REMARK  status: ('A' for Active; 'I' for Inactive)
REMARK    1  A    between atoms: C_1  and  N_2 
REMARK    2  A    between atoms: C_7  and  O_25 
REMARK    3  A    between atoms: C_8  and  O_24 
REMARK    4  A    between atoms: O_25  and  C_26 
ROOT
ATOM      1  N   LIG d   1       6.447  -2.932  -7.547  0.00  0.00    -0.289 N 
ATOM      2  C   LIG d   1       6.085  -4.073  -6.689  0.00  0.00     0.004 C 
ATOM      3  C   LIG d   1       6.036  -3.594  -5.238  0.00  0.00    -0.014 C 
ATOM      4  C   LIG d   1       5.188  -2.353  -5.129  0.00  0.00    -0.037 A 
ATOM      5  C   LIG d   1       4.728  -1.975  -3.877  0.00  0.00    -0.013 A 
ATOM      6  C   LIG d   1       3.951  -0.840  -3.730  0.00  0.00     0.162 A 
ATOM      7  C   LIG d   1       3.632  -0.075  -4.848  0.00  0.00     0.159 A 
ATOM      8  C   LIG d   1       4.091  -0.456  -6.095  0.00  0.00    -0.011 A 
ATOM      9  C   LIG d   1       4.868  -1.598  -6.239  0.00  0.00    -0.013 A 
ATOM     10  C   LIG d   1       5.336  -1.981  -7.616  0.00  0.00     0.115 A 
ATOM     11  C   LIG d   1       5.764  -0.730  -8.393  0.00  0.00     0.003 A 
ATOM     12  C   LIG d   1       4.866  -0.658  -9.605  0.00  0.00    -0.031 A 
ATOM     13  C   LIG d   1       4.825   0.256 -10.638  0.00  0.00    -0.054 A 
ATOM     14  C   LIG d   1       3.904   0.120 -11.663  0.00  0.00    -0.016 A 
ATOM     15  C   LIG d   1       3.010  -0.937 -11.663  0.00  0.00     0.167 A 
ATOM     16  C   LIG d   1       3.036  -1.867 -10.630  0.00  0.00     0.177 A 
ATOM     17  C   LIG d   1       3.972  -1.733  -9.588  0.00  0.00     0.068 A 
ATOM     18  C   LIG d   1       4.195  -2.574  -8.404  0.00  0.00     0.192 A 
ATOM     19  O   LIG d   1       3.573  -3.573  -8.113  0.00  0.00    -0.290 OA
ATOM     20  O   LIG d   1       2.069  -2.799 -10.854  0.00  0.00    -0.452 OA
ATOM     21  C   LIG d   1       1.181  -2.209 -11.822  0.00  0.00     0.233 C 
ATOM     22  O   LIG d   1       2.024  -1.287 -12.541  0.00  0.00    -0.453 OA
ATOM     23  H   LIG d   1       5.107  -4.455  -6.982  0.00  0.00     0.043 H 
ATOM     24  H   LIG d   1       6.833  -4.859  -6.790  0.00  0.00     0.043 H 
ATOM     25  H   LIG d   1       5.609  -4.379  -4.613  0.00  0.00     0.033 H 
ATOM     26  H   LIG d   1       7.047  -3.373  -4.896  0.00  0.00     0.033 H 
ATOM     27  H   LIG d   1       4.978  -2.570  -3.012  0.00  0.00     0.066 H 
ATOM     28  H   LIG d   1       3.844   0.136  -6.963  0.00  0.00     0.066 H 
ATOM     29  H   LIG d   1       5.631   0.159  -7.776  0.00  0.00     0.034 H 
ATOM     30  H   LIG d   1       6.805  -0.819  -8.703  0.00  0.00     0.034 H 
ATOM     31  H   LIG d   1       5.518   1.085 -10.647  0.00  0.00     0.062 H 
ATOM     32  H   LIG d   1       3.882   0.844 -12.465  0.00  0.00     0.066 H 
ATOM     33  H   LIG d   1       0.785  -2.970 -12.494  0.00  0.00     0.117 H 
ATOM     34  H   LIG d   1       0.371  -1.677 -11.324  0.00  0.00     0.117 H 
ENDROOT
BRANCH   1  35
ATOM     35  C   LIG d   1       6.837  -3.386  -8.889  0.00  0.00    -0.011 C 
ATOM     36  H   LIG d   1       7.828  -2.999  -9.129  0.00  0.00     0.039 H 
ATOM     37  H   LIG d   1       6.857  -4.475  -8.913  0.00  0.00     0.039 H 
ATOM     38  H   LIG d   1       6.117  -3.019  -9.619  0.00  0.00     0.039 H 
ENDBRANCH   1  35
BRANCH   7  39
ATOM     39  O   LIG d   1       2.870   1.044  -4.714  0.00  0.00    -0.503 OA
ATOM     40  H   LIG d   1       3.381   1.864  -4.667  0.00  0.00     0.292 HD
ENDBRANCH   7  39
BRANCH   6  41
ATOM     41  O   LIG d   1       3.501  -0.474  -2.500  0.00  0.00    -0.491 OA
BRANCH  41  42
ATOM     42  C   LIG d   1       4.383   0.310  -1.693  0.00  0.00     0.079 C 
ATOM     43  H   LIG d   1       3.868   0.612  -0.781  0.00  0.00     0.066 H 
ATOM     44  H   LIG d   1       5.262  -0.280  -1.436  0.00  0.00     0.066 H 
ATOM     45  H   LIG d   1       4.689   1.197  -2.248  0.00  0.00     0.066 H 
ENDBRANCH  41  42
ENDBRANCH   6  41
TORSDOF 4
ENDMDL
MODEL 9
REMARK VINA RESULT:      -5.6      7.957     10.090
REMARK  4 active torsions:
REMARK  status: ('A' for Active; 'I' for Inactive)
REMARK    1  A    between atoms: C_1  and  N_2 
REMARK    2  A    between atoms: C_7  and  O_25 
REMARK    3  A    between atoms: C_8  and  O_24 
REMARK    4  A    between atoms: O_25  and  C_26 
ROOT
ATOM      1  N   LIG d   1      12.209   4.593  -5.077  0.00  0.00    -0.289 N 
ATOM      2  C   LIG d   1      11.701   4.929  -6.417  0.00  0.00     0.004 C 
ATOM      3  C   LIG d   1      10.975   3.709  -6.983  0.00  0.00    -0.014 C 
ATOM      4  C   LIG d   1       9.979   3.186  -5.979  0.00  0.00    -0.037 A 
ATOM      5  C   LIG d   1       8.985   2.327  -6.422  0.00  0.00    -0.013 A 
ATOM      6  C   LIG d   1       8.053   1.819  -5.534  0.00  0.00     0.162 A 
ATOM      7  C   LIG d   1       8.119   2.173  -4.189  0.00  0.00     0.159 A 
ATOM      8  C   LIG d   1       9.111   3.031  -3.753  0.00  0.00    -0.011 A 
ATOM      9  C   LIG d   1      10.042   3.542  -4.648  0.00  0.00    -0.013 A 
ATOM     10  C   LIG d   1      11.097   4.480  -4.130  0.00  0.00     0.115 A 
ATOM     11  C   LIG d   1      11.613   3.994  -2.771  0.00  0.00     0.003 A 
ATOM     12  C   LIG d   1      11.307   5.096  -1.784  0.00  0.00    -0.031 A 
ATOM     13  C   LIG d   1      11.563   5.184  -0.431  0.00  0.00    -0.054 A 
ATOM     14  C   LIG d   1      11.189   6.309   0.285  0.00  0.00    -0.016 A 
ATOM     15  C   LIG d   1      10.552   7.361  -0.351  0.00  0.00     0.167 A 
ATOM     16  C   LIG d   1      10.286   7.289  -1.714  0.00  0.00     0.177 A 
ATOM     17  C   LIG d   1      10.665   6.148  -2.444  0.00  0.00     0.068 A 
ATOM     18  C   LIG d   1      10.498   5.840  -3.871  0.00  0.00     0.192 A 
ATOM     19  O   LIG d   1       9.973   6.555  -4.697  0.00  0.00    -0.290 OA
ATOM     20  O   LIG d   1       9.658   8.434  -2.099  0.00  0.00    -0.452 OA
ATOM     21  C   LIG d   1       9.178   9.039  -0.884  0.00  0.00     0.233 C 
ATOM     22  O   LIG d   1      10.092   8.558   0.121  0.00  0.00    -0.453 OA
ATOM     23  H   LIG d   1      11.007   5.768  -6.345  0.00  0.00     0.043 H 
ATOM     24  H   LIG d   1      12.534   5.194  -7.069  0.00  0.00     0.043 H 
ATOM     25  H   LIG d   1      10.452   3.991  -7.896  0.00  0.00     0.033 H 
ATOM     26  H   LIG d   1      11.702   2.929  -7.211  0.00  0.00     0.033 H 
ATOM     27  H   LIG d   1       8.937   2.053  -7.464  0.00  0.00     0.066 H 
ATOM     28  H   LIG d   1       9.162   3.307  -2.710  0.00  0.00     0.066 H 
ATOM     29  H   LIG d   1      11.099   3.078  -2.480  0.00  0.00     0.034 H 
ATOM     30  H   LIG d   1      12.689   3.821  -2.818  0.00  0.00     0.034 H 
ATOM     31  H   LIG d   1      12.059   4.368   0.074  0.00  0.00     0.062 H 
ATOM     32  H   LIG d   1      11.395   6.366   1.344  0.00  0.00     0.066 H 
ATOM     33  H   LIG d   1       9.223  10.126  -0.953  0.00  0.00     0.117 H 
ATOM     34  H   LIG d   1       8.163   8.709  -0.667  0.00  0.00     0.117 H 
ENDROOT
BRANCH   1  35
ATOM     35  C   LIG d   1      13.190   5.587  -4.621  0.00  0.00    -0.011 C 
ATOM     36  H   LIG d   1      13.923   5.103  -3.975  0.00  0.00     0.039 H 
ATOM     37  H   LIG d   1      13.696   6.020  -5.484  0.00  0.00     0.039 H 
ATOM     38  H   LIG d   1      12.679   6.373  -4.066  0.00  0.00     0.039 H 
ENDBRANCH   1  35
BRANCH   7  39
ATOM     39  O   LIG d   1       7.209   1.677  -3.308  0.00  0.00    -0.503 OA
ATOM     40  H   LIG d   1       7.538   0.939  -2.777  0.00  0.00     0.292 HD
ENDBRANCH   7  39
BRANCH   6  41
ATOM     41  O   LIG d   1       7.079   0.978  -5.973  0.00  0.00    -0.491 OA
BRANCH  41  42
ATOM     42  C   LIG d   1       7.465  -0.367  -6.265  0.00  0.00     0.079 C 
ATOM     43  H   LIG d   1       6.838  -1.055  -5.698  0.00  0.00     0.066 H 
ATOM     44  H   LIG d   1       7.341  -0.557  -7.331  0.00  0.00     0.066 H 
ATOM     45  H   LIG d   1       8.508  -0.513  -5.988  0.00  0.00     0.066 H 
ENDBRANCH  41  42
ENDBRANCH   6  41
TORSDOF 4
ENDMDL
