MODEL 1
REMARK VINA RESULT:      -8.0      0.000      0.000
REMARK  4 active torsions:
REMARK  status: ('A' for Active; 'I' for Inactive)
REMARK    1  A    between atoms: N_17  and  C_18 
REMARK    2  A    between atoms: C_18  and  C_19 
REMARK       I    between atoms: C_19  and  N_21 
REMARK    3  A    between atoms: N_21  and  C_22 
REMARK    4  A    between atoms: C_25  and  C_28 
ROOT
ATOM      1  C   LIG d   1       3.164  -1.575  -2.500  0.00  0.00    -0.061 A 
ATOM      2  C   LIG d   1       4.345  -2.288  -2.624  0.00  0.00    -0.060 A 
ATOM      3  C   LIG d   1       5.142  -2.121  -3.733  0.00  0.00    -0.040 A 
ATOM      4  C   LIG d   1       4.775  -1.235  -4.752  0.00  0.00     0.049 A 
ATOM      5  C   LIG d   1       3.582  -0.524  -4.632  0.00  0.00     0.058 A 
ATOM      6  C   LIG d   1       2.783  -0.701  -3.491  0.00  0.00    -0.048 A 
ATOM      7  C   LIG d   1       3.100   0.412  -5.659  0.00  0.00     0.249 C 
ATOM      8  O   LIG d   1       2.561   1.443  -5.305  0.00  0.00    -0.270 OA
ATOM      9  N   LIG d   1       3.234   0.173  -6.970  0.00  0.00    -0.286 N 
ATOM     10  C   LIG d   1       2.790   1.051  -8.067  0.00  0.00     0.016 C 
ATOM     11  C   LIG d   1       2.625   0.112  -9.288  0.00  0.00    -0.035 C 
ATOM     12  C   LIG d   1       3.803  -0.876  -9.084  0.00  0.00    -0.024 C 
ATOM     13  C   LIG d   1       3.865  -1.025  -7.550  0.00  0.00     0.103 C 
ATOM     14  H   LIG d   1       3.340  -1.926  -7.232  0.00  0.00     0.060 H 
ATOM     15  C   LIG d   1       5.306  -1.048  -7.109  0.00  0.00     0.241 C 
ATOM     16  O   LIG d   1       6.183  -1.000  -7.946  0.00  0.00    -0.273 OA
ATOM     17  N   LIG d   1       5.639  -1.120  -5.824  0.00  0.00    -0.260 N 
ATOM     18  H   LIG d   1       2.540  -1.709  -1.629  0.00  0.00     0.062 H 
ATOM     19  H   LIG d   1       4.642  -2.977  -1.847  0.00  0.00     0.062 H 
ATOM     20  H   LIG d   1       6.062  -2.680  -3.819  0.00  0.00     0.064 H 
ATOM     21  H   LIG d   1       1.861  -0.146  -3.391  0.00  0.00     0.063 H 
ATOM     22  H   LIG d   1       1.837   1.518  -7.816  0.00  0.00     0.046 H 
ATOM     23  H   LIG d   1       3.544   1.811  -8.271  0.00  0.00     0.046 H 
ATOM     24  H   LIG d   1       1.668  -0.407  -9.254  0.00  0.00     0.028 H 
ATOM     25  H   LIG d   1       2.735   0.664 -10.221  0.00  0.00     0.028 H 
ATOM     26  H   LIG d   1       3.588  -1.835  -9.556  0.00  0.00     0.029 H 
ATOM     27  H   LIG d   1       4.731  -0.455  -9.468  0.00  0.00     0.029 H 
ENDROOT
BRANCH  17  28
ATOM     28  C   LIG d   1       7.069  -1.071  -5.513  0.00  0.00     0.096 C 
ATOM     29  H   LIG d   1       7.294  -1.788  -4.724  0.00  0.00     0.056 H 
ATOM     30  H   LIG d   1       7.645  -1.318  -6.405  0.00  0.00     0.056 H 
BRANCH  28  31
ATOM     31  C   LIG d   1       7.435   0.316  -5.048  0.00  0.00     0.235 C 
ATOM     32  O   LIG d   1       6.573   1.066  -4.641  0.00  0.00    -0.274 OA
ATOM     33  N   LIG d   1       8.719   0.722  -5.086  0.00  0.00    -0.283 N 
ATOM     34  H   LIG d   1       9.417   0.102  -5.347  0.00  0.00     0.155 HD
BRANCH  33  35
ATOM     35  C   LIG d   1       9.046   2.041  -4.747  0.00  0.00     0.052 A 
ATOM     36  C   LIG d   1       9.229   2.401  -3.418  0.00  0.00     0.049 A 
ATOM     37  N   LIG d   1       9.541   3.641  -3.096  0.00  0.00    -0.249 NA
ATOM     38  H   LIG d   1       9.119   1.658  -2.642  0.00  0.00     0.085 H 
ATOM     39  C   LIG d   1       9.681   4.582  -4.009  0.00  0.00     0.144 A 
ATOM     40  C   LIG d   1       9.509   4.301  -5.351  0.00  0.00    -0.030 A 
ATOM     41  C   LIG d   1       9.186   3.010  -5.736  0.00  0.00    -0.037 A 
ATOM     42  H   LIG d   1       9.627   5.078  -6.091  0.00  0.00     0.064 H 
ATOM     43  H   LIG d   1       9.047   2.762  -6.778  0.00  0.00     0.064 H 
BRANCH  39  44
ATOM     44  C   LIG d   1      10.034   5.984  -3.581  0.00  0.00     0.434 C 
ATOM     45  F   LIG d   1       9.645   6.177  -2.251  0.00  0.00    -0.164 F 
ATOM     46  F   LIG d   1      11.414   6.174  -3.696  0.00  0.00    -0.164 F 
ATOM     47  F   LIG d   1       9.367   6.902  -4.400  0.00  0.00    -0.164 F 
ENDBRANCH  39  44
ENDBRANCH  33  35
ENDBRANCH  28  31
ENDBRANCH  17  28
TORSDOF 4
ENDMDL
MODEL 2
REMARK VINA RESULT:      -7.8      2.788      3.483
REMARK  4 active torsions:
REMARK  status: ('A' for Active; 'I' for Inactive)
REMARK    1  A    between atoms: N_17  and  C_18 
REMARK    2  A    between atoms: C_18  and  C_19 
REMARK       I    between atoms: C_19  and  N_21 
REMARK    3  A    between atoms: N_21  and  C_22 
REMARK    4  A    between atoms: C_25  and  C_28 
ROOT
ATOM      1  C   LIG d   1       3.371   0.397  -2.383  0.00  0.00    -0.061 A 
ATOM      2  C   LIG d   1       4.625   0.037  -1.916  0.00  0.00    -0.060 A 
ATOM      3  C   LIG d   1       5.592  -0.400  -2.792  0.00  0.00    -0.040 A 
ATOM      4  C   LIG d   1       5.327  -0.491  -4.163  0.00  0.00     0.049 A 
ATOM      5  C   LIG d   1       4.064  -0.138  -4.633  0.00  0.00     0.058 A 
ATOM      6  C   LIG d   1       3.089   0.312  -3.727  0.00  0.00    -0.048 A 
ATOM      7  C   LIG d   1       3.683  -0.221  -6.051  0.00  0.00     0.249 C 
ATOM      8  O   LIG d   1       2.980   0.652  -6.521  0.00  0.00    -0.270 OA
ATOM      9  N   LIG d   1       4.084  -1.223  -6.846  0.00  0.00    -0.286 N 
ATOM     10  C   LIG d   1       3.760  -1.386  -8.274  0.00  0.00     0.016 C 
ATOM     11  C   LIG d   1       3.928  -2.901  -8.550  0.00  0.00    -0.035 C 
ATOM     12  C   LIG d   1       5.147  -3.249  -7.656  0.00  0.00    -0.024 C 
ATOM     13  C   LIG d   1       4.938  -2.346  -6.423  0.00  0.00     0.103 C 
ATOM     14  H   LIG d   1       4.463  -2.905  -5.617  0.00  0.00     0.060 H 
ATOM     15  C   LIG d   1       6.266  -1.781  -5.988  0.00  0.00     0.241 C 
ATOM     16  O   LIG d   1       7.272  -2.111  -6.578  0.00  0.00    -0.273 OA
ATOM     17  N   LIG d   1       6.359  -0.928  -4.973  0.00  0.00    -0.260 N 
ATOM     18  H   LIG d   1       2.614   0.738  -1.693  0.00  0.00     0.062 H 
ATOM     19  H   LIG d   1       4.844   0.100  -0.861  0.00  0.00     0.062 H 
ATOM     20  H   LIG d   1       6.567  -0.676  -2.418  0.00  0.00     0.064 H 
ATOM     21  H   LIG d   1       2.111   0.594  -4.088  0.00  0.00     0.063 H 
ATOM     22  H   LIG d   1       2.733  -1.077  -8.466  0.00  0.00     0.046 H 
ATOM     23  H   LIG d   1       4.452  -0.809  -8.887  0.00  0.00     0.046 H 
ATOM     24  H   LIG d   1       3.043  -3.454  -8.239  0.00  0.00     0.028 H 
ATOM     25  H   LIG d   1       4.150  -3.083  -9.602  0.00  0.00     0.028 H 
ATOM     26  H   LIG d   1       5.129  -4.301  -7.371  0.00  0.00     0.029 H 
ATOM     27  H   LIG d   1       6.080  -3.001  -8.162  0.00  0.00     0.029 H 
ENDROOT
BRANCH  17  28
ATOM     28  C   LIG d   1       7.692  -0.396  -4.682  0.00  0.00     0.096 C 
ATOM     29  H   LIG d   1       7.773  -0.182  -3.617  0.00  0.00     0.056 H 
ATOM     30  H   LIG d   1       8.446  -1.130  -4.965  0.00  0.00     0.056 H 
BRANCH  28  31
ATOM     31  C   LIG d   1       7.908   0.873  -5.466  0.00  0.00     0.235 C 
ATOM     32  O   LIG d   1       7.479   1.927  -5.045  0.00  0.00    -0.274 OA
ATOM     33  N   LIG d   1       8.578   0.837  -6.635  0.00  0.00    -0.283 N 
ATOM     34  H   LIG d   1       8.978   0.008  -6.939  0.00  0.00     0.155 HD
BRANCH  33  35
ATOM     35  C   LIG d   1       8.694   1.996  -7.410  0.00  0.00     0.052 A 
ATOM     36  C   LIG d   1       7.875   2.190  -8.515  0.00  0.00     0.049 A 
ATOM     37  N   LIG d   1       7.978   3.283  -9.245  0.00  0.00    -0.249 NA
ATOM     38  H   LIG d   1       7.143   1.439  -8.776  0.00  0.00     0.085 H 
ATOM     39  C   LIG d   1       8.860   4.223  -8.967  0.00  0.00     0.144 A 
ATOM     40  C   LIG d   1       9.713   4.100  -7.887  0.00  0.00    -0.030 A 
ATOM     41  C   LIG d   1       9.636   2.970  -7.089  0.00  0.00    -0.037 A 
ATOM     42  H   LIG d   1      10.431   4.876  -7.667  0.00  0.00     0.064 H 
ATOM     43  H   LIG d   1      10.290   2.848  -6.238  0.00  0.00     0.064 H 
BRANCH  39  44
ATOM     44  C   LIG d   1       8.937   5.450  -9.840  0.00  0.00     0.434 C 
ATOM     45  F   LIG d   1       7.686   6.076  -9.876  0.00  0.00    -0.164 F 
ATOM     46  F   LIG d   1       9.887   6.334  -9.320  0.00  0.00    -0.164 F 
ATOM     47  F   LIG d   1       9.308   5.076 -11.136  0.00  0.00    -0.164 F 
ENDBRANCH  39  44
ENDBRANCH  33  35
ENDBRANCH  28  31
ENDBRANCH  17  28
TORSDOF 4
ENDMDL
MODEL 3
REMARK VINA RESULT:      -7.6      5.176      7.435
REMARK  4 active torsions:
REMARK  status: ('A' for Active; 'I' for Inactive)
REMARK    1  A    between atoms: N_17  and  C_18 
REMARK    2  A    between atoms: C_18  and  C_19 
REMARK       I    between atoms: C_19  and  N_21 
REMARK    3  A    between atoms: N_21  and  C_22 
REMARK    4  A    between atoms: C_25  and  C_28 
ROOT
ATOM      1  C   LIG d   1       4.378  -0.166  -1.912  0.00  0.00    -0.061 A 
ATOM      2  C   LIG d   1       5.231   0.861  -2.282  0.00  0.00    -0.060 A 
ATOM      3  C   LIG d   1       6.147   0.672  -3.290  0.00  0.00    -0.040 A 
ATOM      4  C   LIG d   1       6.237  -0.556  -3.955  0.00  0.00     0.049 A 
ATOM      5  C   LIG d   1       5.386  -1.593  -3.578  0.00  0.00     0.058 A 
ATOM      6  C   LIG d   1       4.451  -1.382  -2.550  0.00  0.00    -0.048 A 
ATOM      7  C   LIG d   1       5.419  -2.924  -4.200  0.00  0.00     0.249 C 
ATOM      8  O   LIG d   1       4.369  -3.504  -4.401  0.00  0.00    -0.270 OA
ATOM      9  N   LIG d   1       6.564  -3.524  -4.556  0.00  0.00    -0.286 N 
ATOM     10  C   LIG d   1       6.694  -4.848  -5.189  0.00  0.00     0.016 C 
ATOM     11  C   LIG d   1       8.134  -5.311  -4.851  0.00  0.00    -0.035 C 
ATOM     12  C   LIG d   1       8.919  -3.975  -4.931  0.00  0.00    -0.024 C 
ATOM     13  C   LIG d   1       7.908  -2.949  -4.380  0.00  0.00     0.103 C 
ATOM     14  H   LIG d   1       8.104  -2.749  -3.326  0.00  0.00     0.060 H 
ATOM     15  C   LIG d   1       7.983  -1.686  -5.200  0.00  0.00     0.241 C 
ATOM     16  O   LIG d   1       8.796  -1.608  -6.096  0.00  0.00    -0.273 OA
ATOM     17  N   LIG d   1       7.177  -0.656  -4.963  0.00  0.00    -0.260 N 
ATOM     18  H   LIG d   1       3.661  -0.015  -1.119  0.00  0.00     0.062 H 
ATOM     19  H   LIG d   1       5.175   1.815  -1.778  0.00  0.00     0.062 H 
ATOM     20  H   LIG d   1       6.806   1.481  -3.573  0.00  0.00     0.064 H 
ATOM     21  H   LIG d   1       3.784  -2.181  -2.260  0.00  0.00     0.063 H 
ATOM     22  H   LIG d   1       5.965  -5.541  -4.770  0.00  0.00     0.046 H 
ATOM     23  H   LIG d   1       6.565  -4.766  -6.268  0.00  0.00     0.046 H 
ATOM     24  H   LIG d   1       8.182  -5.734  -3.848  0.00  0.00     0.028 H 
ATOM     25  H   LIG d   1       8.498  -6.023  -5.592  0.00  0.00     0.028 H 
ATOM     26  H   LIG d   1       9.810  -4.014  -4.305  0.00  0.00     0.029 H 
ATOM     27  H   LIG d   1       9.180  -3.743  -5.963  0.00  0.00     0.029 H 
ENDROOT
BRANCH  17  28
ATOM     28  C   LIG d   1       7.297   0.492  -5.865  0.00  0.00     0.096 C 
ATOM     29  H   LIG d   1       7.096   1.410  -5.313  0.00  0.00     0.056 H 
ATOM     30  H   LIG d   1       8.307   0.528  -6.275  0.00  0.00     0.056 H 
BRANCH  28  31
ATOM     31  C   LIG d   1       6.303   0.354  -6.989  0.00  0.00     0.235 C 
ATOM     32  O   LIG d   1       6.044   1.310  -7.690  0.00  0.00    -0.274 OA
ATOM     33  N   LIG d   1       5.702  -0.830  -7.216  0.00  0.00    -0.283 N 
ATOM     34  H   LIG d   1       5.957  -1.610  -6.700  0.00  0.00     0.155 HD
BRANCH  33  35
ATOM     35  C   LIG d   1       4.708  -0.933  -8.196  0.00  0.00     0.052 A 
ATOM     36  C   LIG d   1       5.038  -1.280  -9.499  0.00  0.00     0.049 A 
ATOM     37  N   LIG d   1       4.104  -1.384 -10.424  0.00  0.00    -0.249 NA
ATOM     38  H   LIG d   1       6.069  -1.472  -9.757  0.00  0.00     0.085 H 
ATOM     39  C   LIG d   1       2.833  -1.155 -10.157  0.00  0.00     0.144 A 
ATOM     40  C   LIG d   1       2.428  -0.799  -8.884  0.00  0.00    -0.030 A 
ATOM     41  C   LIG d   1       3.375  -0.685  -7.880  0.00  0.00    -0.037 A 
ATOM     42  H   LIG d   1       1.385  -0.614  -8.675  0.00  0.00     0.064 H 
ATOM     43  H   LIG d   1       3.086  -0.409  -6.876  0.00  0.00     0.064 H 
BRANCH  39  44
ATOM     44  C   LIG d   1       1.809  -1.283 -11.255  0.00  0.00     0.434 C 
ATOM     45  F   LIG d   1       0.682  -0.518 -10.934  0.00  0.00    -0.164 F 
ATOM     46  F   LIG d   1       2.355  -0.826 -12.458  0.00  0.00    -0.164 F 
ATOM     47  F   LIG d   1       1.438  -2.625 -11.392  0.00  0.00    -0.164 F 
ENDBRANCH  39  44
ENDBRANCH  33  35
ENDBRANCH  28  31
ENDBRANCH  17  28
TORSDOF 4
ENDMDL
MODEL 4
REMARK VINA RESULT:      -7.5      4.856      7.467
REMARK  4 active torsions:
REMARK  status: ('A' for Active; 'I' for Inactive)
REMARK    1  A    between atoms: N_17  and  C_18 
REMARK    2  A    between atoms: C_18  and  C_19 
REMARK       I    between atoms: C_19  and  N_21 
REMARK    3  A    between atoms: N_21  and  C_22 
REMARK    4  A    between atoms: C_25  and  C_28 
ROOT
ATOM      1  C   LIG d   1       9.664  -2.239  -5.224  0.00  0.00    -0.061 A 
ATOM      2  C   LIG d   1       9.135  -3.516  -5.126  0.00  0.00    -0.060 A 
ATOM      3  C   LIG d   1       7.806  -3.694  -4.817  0.00  0.00    -0.040 A 
ATOM      4  C   LIG d   1       6.971  -2.595  -4.593  0.00  0.00     0.049 A 
ATOM      5  C   LIG d   1       7.503  -1.310  -4.682  0.00  0.00     0.058 A 
ATOM      6  C   LIG d   1       8.860  -1.145  -5.005  0.00  0.00    -0.048 A 
ATOM      7  C   LIG d   1       6.711  -0.095  -4.442  0.00  0.00     0.249 C 
ATOM      8  O   LIG d   1       6.907   0.880  -5.143  0.00  0.00    -0.270 OA
ATOM      9  N   LIG d   1       5.780  -0.021  -3.481  0.00  0.00    -0.286 N 
ATOM     10  C   LIG d   1       4.936   1.147  -3.173  0.00  0.00     0.016 C 
ATOM     11  C   LIG d   1       4.503   0.948  -1.699  0.00  0.00    -0.035 C 
ATOM     12  C   LIG d   1       4.313  -0.590  -1.633  0.00  0.00    -0.024 C 
ATOM     13  C   LIG d   1       5.429  -1.115  -2.560  0.00  0.00     0.103 C 
ATOM     14  H   LIG d   1       6.299  -1.416  -1.976  0.00  0.00     0.060 H 
ATOM     15  C   LIG d   1       4.897  -2.260  -3.382  0.00  0.00     0.241 C 
ATOM     16  O   LIG d   1       3.760  -2.641  -3.202  0.00  0.00    -0.273 OA
ATOM     17  N   LIG d   1       5.647  -2.863  -4.299  0.00  0.00    -0.260 N 
ATOM     18  H   LIG d   1      10.708  -2.102  -5.465  0.00  0.00     0.062 H 
ATOM     19  H   LIG d   1       9.768  -4.374  -5.295  0.00  0.00     0.062 H 
ATOM     20  H   LIG d   1       7.403  -4.693  -4.746  0.00  0.00     0.064 H 
ATOM     21  H   LIG d   1       9.276  -0.150  -5.082  0.00  0.00     0.063 H 
ATOM     22  H   LIG d   1       5.510   2.068  -3.279  0.00  0.00     0.046 H 
ATOM     23  H   LIG d   1       4.064   1.166  -3.825  0.00  0.00     0.046 H 
ATOM     24  H   LIG d   1       5.286   1.275  -1.015  0.00  0.00     0.028 H 
ATOM     25  H   LIG d   1       3.567   1.467  -1.494  0.00  0.00     0.028 H 
ATOM     26  H   LIG d   1       4.453  -0.954  -0.615  0.00  0.00     0.029 H 
ATOM     27  H   LIG d   1       3.332  -0.874  -2.014  0.00  0.00     0.029 H 
ENDROOT
BRANCH  17  28
ATOM     28  C   LIG d   1       5.003  -3.922  -5.081  0.00  0.00     0.096 C 
ATOM     29  H   LIG d   1       5.621  -4.819  -5.056  0.00  0.00     0.056 H 
ATOM     30  H   LIG d   1       4.023  -4.142  -4.657  0.00  0.00     0.056 H 
BRANCH  28  31
ATOM     31  C   LIG d   1       4.840  -3.465  -6.508  0.00  0.00     0.235 C 
ATOM     32  O   LIG d   1       5.398  -4.064  -7.403  0.00  0.00    -0.274 OA
ATOM     33  N   LIG d   1       4.077  -2.391  -6.789  0.00  0.00    -0.283 N 
ATOM     34  H   LIG d   1       3.578  -1.953  -6.083  0.00  0.00     0.155 HD
BRANCH  33  35
ATOM     35  C   LIG d   1       4.004  -1.908  -8.101  0.00  0.00     0.052 A 
ATOM     36  C   LIG d   1       4.870  -0.912  -8.533  0.00  0.00     0.049 A 
ATOM     37  N   LIG d   1       4.808  -0.458  -9.769  0.00  0.00    -0.249 NA
ATOM     38  H   LIG d   1       5.604  -0.508  -7.851  0.00  0.00     0.085 H 
ATOM     39  C   LIG d   1       3.926  -0.918 -10.635  0.00  0.00     0.144 A 
ATOM     40  C   LIG d   1       3.028  -1.905 -10.277  0.00  0.00    -0.030 A 
ATOM     41  C   LIG d   1       3.061  -2.415  -8.990  0.00  0.00    -0.037 A 
ATOM     42  H   LIG d   1       2.310  -2.276 -10.993  0.00  0.00     0.064 H 
ATOM     43  H   LIG d   1       2.371  -3.188  -8.684  0.00  0.00     0.064 H 
BRANCH  39  44
ATOM     44  C   LIG d   1       3.898  -0.357 -12.034  0.00  0.00     0.434 C 
ATOM     45  F   LIG d   1       2.756  -0.818 -12.698  0.00  0.00    -0.164 F 
ATOM     46  F   LIG d   1       3.873   1.039 -11.977  0.00  0.00    -0.164 F 
ATOM     47  F   LIG d   1       5.040  -0.775 -12.726  0.00  0.00    -0.164 F 
ENDBRANCH  39  44
ENDBRANCH  33  35
ENDBRANCH  28  31
ENDBRANCH  17  28
TORSDOF 4
ENDMDL
MODEL 5
REMARK VINA RESULT:      -7.3      4.076      8.042
REMARK  4 active torsions:
REMARK  status: ('A' for Active; 'I' for Inactive)
REMARK    1  A    between atoms: N_17  and  C_18 
REMARK    2  A    between atoms: C_18  and  C_19 
REMARK       I    between atoms: C_19  and  N_21 
REMARK    3  A    between atoms: N_21  and  C_22 
REMARK    4  A    between atoms: C_25  and  C_28 
ROOT
ATOM      1  C   LIG d   1       9.301   6.264  -9.028  0.00  0.00    -0.061 A 
ATOM      2  C   LIG d   1       9.452   5.079  -9.731  0.00  0.00    -0.060 A 
ATOM      3  C   LIG d   1       9.847   3.933  -9.081  0.00  0.00    -0.040 A 
ATOM      4  C   LIG d   1      10.106   3.943  -7.707  0.00  0.00     0.049 A 
ATOM      5  C   LIG d   1       9.964   5.136  -7.000  0.00  0.00     0.058 A 
ATOM      6  C   LIG d   1       9.553   6.296  -7.677  0.00  0.00    -0.048 A 
ATOM      7  C   LIG d   1      10.235   5.252  -5.559  0.00  0.00     0.249 C 
ATOM      8  O   LIG d   1       9.508   5.953  -4.882  0.00  0.00    -0.270 OA
ATOM      9  N   LIG d   1      11.252   4.613  -4.964  0.00  0.00    -0.286 N 
ATOM     10  C   LIG d   1      11.595   4.664  -3.533  0.00  0.00     0.016 C 
ATOM     11  C   LIG d   1      13.096   4.287  -3.469  0.00  0.00    -0.035 C 
ATOM     12  C   LIG d   1      13.197   3.213  -4.583  0.00  0.00    -0.024 C 
ATOM     13  C   LIG d   1      12.211   3.730  -5.650  0.00  0.00     0.103 C 
ATOM     14  H   LIG d   1      12.742   4.275  -6.430  0.00  0.00     0.060 H 
ATOM     15  C   LIG d   1      11.442   2.567  -6.223  0.00  0.00     0.241 C 
ATOM     16  O   LIG d   1      11.699   1.444  -5.847  0.00  0.00    -0.273 OA
ATOM     17  N   LIG d   1      10.488   2.745  -7.132  0.00  0.00    -0.260 N 
ATOM     18  H   LIG d   1       8.991   7.162  -9.541  0.00  0.00     0.062 H 
ATOM     19  H   LIG d   1       9.257   5.056 -10.793  0.00  0.00     0.062 H 
ATOM     20  H   LIG d   1       9.959   3.014  -9.638  0.00  0.00     0.064 H 
ATOM     21  H   LIG d   1       9.434   7.221  -7.131  0.00  0.00     0.063 H 
ATOM     22  H   LIG d   1      11.438   5.669  -3.141  0.00  0.00     0.046 H 
ATOM     23  H   LIG d   1      10.999   3.941  -2.975  0.00  0.00     0.046 H 
ATOM     24  H   LIG d   1      13.724   5.149  -3.697  0.00  0.00     0.028 H 
ATOM     25  H   LIG d   1      13.352   3.867  -2.496  0.00  0.00     0.028 H 
ATOM     26  H   LIG d   1      14.210   3.167  -4.984  0.00  0.00     0.029 H 
ATOM     27  H   LIG d   1      12.884   2.239  -4.209  0.00  0.00     0.029 H 
ENDROOT
BRANCH  17  28
ATOM     28  C   LIG d   1       9.765   1.548  -7.568  0.00  0.00     0.096 C 
ATOM     29  H   LIG d   1       9.408   1.691  -8.588  0.00  0.00     0.056 H 
ATOM     30  H   LIG d   1      10.433   0.688  -7.534  0.00  0.00     0.056 H 
BRANCH  28  31
ATOM     31  C   LIG d   1       8.591   1.309  -6.655  0.00  0.00     0.235 C 
ATOM     32  O   LIG d   1       7.492   1.723  -6.959  0.00  0.00    -0.274 OA
ATOM     33  N   LIG d   1       8.762   0.636  -5.500  0.00  0.00    -0.283 N 
ATOM     34  H   LIG d   1       9.624   0.247  -5.288  0.00  0.00     0.155 HD
BRANCH  33  35
ATOM     35  C   LIG d   1       7.693   0.498  -4.606  0.00  0.00     0.052 A 
ATOM     36  C   LIG d   1       7.241   1.590  -3.877  0.00  0.00     0.049 A 
ATOM     37  N   LIG d   1       6.231   1.465  -3.038  0.00  0.00    -0.249 NA
ATOM     38  H   LIG d   1       7.717   2.551  -4.002  0.00  0.00     0.085 H 
ATOM     39  C   LIG d   1       5.623   0.311  -2.849  0.00  0.00     0.144 A 
ATOM     40  C   LIG d   1       6.020  -0.822  -3.534  0.00  0.00    -0.030 A 
ATOM     41  C   LIG d   1       7.073  -0.736  -4.430  0.00  0.00    -0.037 A 
ATOM     42  H   LIG d   1       5.515  -1.763  -3.373  0.00  0.00     0.064 H 
ATOM     43  H   LIG d   1       7.404  -1.605  -4.980  0.00  0.00     0.064 H 
BRANCH  39  44
ATOM     44  C   LIG d   1       4.478   0.226  -1.872  0.00  0.00     0.434 C 
ATOM     45  F   LIG d   1       4.674   1.153  -0.843  0.00  0.00    -0.164 F 
ATOM     46  F   LIG d   1       3.279   0.509  -2.533  0.00  0.00    -0.164 F 
ATOM     47  F   LIG d   1       4.420  -1.064  -1.333  0.00  0.00    -0.164 F 
ENDBRANCH  39  44
ENDBRANCH  33  35
ENDBRANCH  28  31
ENDBRANCH  17  28
TORSDOF 4
ENDMDL
MODEL 6
REMARK VINA RESULT:      -7.0      4.608      7.611
REMARK  4 active torsions:
REMARK  status: ('A' for Active; 'I' for Inactive)
REMARK    1  A    between atoms: N_17  and  C_18 
REMARK    2  A    between atoms: C_18  and  C_19 
REMARK       I    between atoms: C_19  and  N_21 
REMARK    3  A    between atoms: N_21  and  C_22 
REMARK    4  A    between atoms: C_25  and  C_28 
ROOT
ATOM      1  C   LIG d   1       9.176  -3.660  -4.936  0.00  0.00    -0.061 A 
ATOM      2  C   LIG d   1       8.397  -3.662  -3.791  0.00  0.00    -0.060 A 
ATOM      3  C   LIG d   1       7.679  -2.542  -3.439  0.00  0.00    -0.040 A 
ATOM      4  C   LIG d   1       7.725  -1.386  -4.226  0.00  0.00     0.049 A 
ATOM      5  C   LIG d   1       8.516  -1.380  -5.374  0.00  0.00     0.058 A 
ATOM      6  C   LIG d   1       9.238  -2.534  -5.723  0.00  0.00    -0.048 A 
ATOM      7  C   LIG d   1       8.647  -0.208  -6.251  0.00  0.00     0.249 C 
ATOM      8  O   LIG d   1       8.696  -0.379  -7.454  0.00  0.00    -0.270 OA
ATOM      9  N   LIG d   1       8.712   1.044  -5.776  0.00  0.00    -0.286 N 
ATOM     10  C   LIG d   1       8.837   2.275  -6.575  0.00  0.00     0.016 C 
ATOM     11  C   LIG d   1       9.451   3.318  -5.608  0.00  0.00    -0.035 C 
ATOM     12  C   LIG d   1       8.765   2.945  -4.268  0.00  0.00    -0.024 C 
ATOM     13  C   LIG d   1       8.662   1.408  -4.350  0.00  0.00     0.103 C 
ATOM     14  H   LIG d   1       9.484   0.942  -3.807  0.00  0.00     0.060 H 
ATOM     15  C   LIG d   1       7.327   0.968  -3.806  0.00  0.00     0.241 C 
ATOM     16  O   LIG d   1       6.567   1.799  -3.357  0.00  0.00    -0.273 OA
ATOM     17  N   LIG d   1       6.965  -0.311  -3.806  0.00  0.00    -0.260 N 
ATOM     18  H   LIG d   1       9.739  -4.540  -5.209  0.00  0.00     0.062 H 
ATOM     19  H   LIG d   1       8.352  -4.546  -3.172  0.00  0.00     0.062 H 
ATOM     20  H   LIG d   1       7.073  -2.555  -2.545  0.00  0.00     0.064 H 
ATOM     21  H   LIG d   1       9.846  -2.535  -6.616  0.00  0.00     0.063 H 
ATOM     22  H   LIG d   1       9.499   2.109  -7.425  0.00  0.00     0.046 H 
ATOM     23  H   LIG d   1       7.856   2.605  -6.916  0.00  0.00     0.046 H 
ATOM     24  H   LIG d   1      10.532   3.197  -5.541  0.00  0.00     0.028 H 
ATOM     25  H   LIG d   1       9.192   4.332  -5.912  0.00  0.00     0.028 H 
ATOM     26  H   LIG d   1       9.381   3.247  -3.421  0.00  0.00     0.029 H 
ATOM     27  H   LIG d   1       7.773   3.394  -4.205  0.00  0.00     0.029 H 
ENDROOT
BRANCH  17  28
ATOM     28  C   LIG d   1       5.619  -0.612  -3.311  0.00  0.00     0.096 C 
ATOM     29  H   LIG d   1       5.650  -1.516  -2.704  0.00  0.00     0.056 H 
ATOM     30  H   LIG d   1       5.259   0.220  -2.707  0.00  0.00     0.056 H 
BRANCH  28  31
ATOM     31  C   LIG d   1       4.690  -0.823  -4.479  0.00  0.00     0.235 C 
ATOM     32  O   LIG d   1       3.726  -1.551  -4.363  0.00  0.00    -0.274 OA
ATOM     33  N   LIG d   1       4.930  -0.205  -5.652  0.00  0.00    -0.283 N 
ATOM     34  H   LIG d   1       5.661   0.428  -5.726  0.00  0.00     0.155 HD
BRANCH  33  35
ATOM     35  C   LIG d   1       4.124  -0.477  -6.764  0.00  0.00     0.052 A 
ATOM     36  C   LIG d   1       4.279  -1.661  -7.472  0.00  0.00     0.049 A 
ATOM     37  N   LIG d   1       3.518  -1.923  -8.516  0.00  0.00    -0.249 NA
ATOM     38  H   LIG d   1       5.026  -2.377  -7.162  0.00  0.00     0.085 H 
ATOM     39  C   LIG d   1       2.597  -1.078  -8.935  0.00  0.00     0.144 A 
ATOM     40  C   LIG d   1       2.388   0.124  -8.285  0.00  0.00    -0.030 A 
ATOM     41  C   LIG d   1       3.160   0.438  -7.179  0.00  0.00    -0.037 A 
ATOM     42  H   LIG d   1       1.630   0.809  -8.634  0.00  0.00     0.064 H 
ATOM     43  H   LIG d   1       3.018   1.369  -6.651  0.00  0.00     0.064 H 
BRANCH  39  44
ATOM     44  C   LIG d   1       1.760  -1.428 -10.139  0.00  0.00     0.434 C 
ATOM     45  F   LIG d   1       1.141  -2.665  -9.933  0.00  0.00    -0.164 F 
ATOM     46  F   LIG d   1       0.785  -0.445 -10.332  0.00  0.00    -0.164 F 
ATOM     47  F   LIG d   1       2.580  -1.500 -11.271  0.00  0.00    -0.164 F 
ENDBRANCH  39  44
ENDBRANCH  33  35
ENDBRANCH  28  31
ENDBRANCH  17  28
TORSDOF 4
ENDMDL
MODEL 7
REMARK VINA RESULT:      -7.0      4.362      6.638
REMARK  4 active torsions:
REMARK  status: ('A' for Active; 'I' for Inactive)
REMARK    1  A    between atoms: N_17  and  C_18 
REMARK    2  A    between atoms: C_18  and  C_19 
REMARK       I    between atoms: C_19  and  N_21 
REMARK    3  A    between atoms: N_21  and  C_22 
REMARK    4  A    between atoms: C_25  and  C_28 
ROOT
ATOM      1  C   LIG d   1       7.453  -1.397 -10.512  0.00  0.00    -0.061 A 
ATOM      2  C   LIG d   1       6.732  -0.320 -11.001  0.00  0.00    -0.060 A 
ATOM      3  C   LIG d   1       5.360  -0.297 -10.893  0.00  0.00    -0.040 A 
ATOM      4  C   LIG d   1       4.672  -1.357 -10.293  0.00  0.00     0.049 A 
ATOM      5  C   LIG d   1       5.395  -2.445  -9.808  0.00  0.00     0.058 A 
ATOM      6  C   LIG d   1       6.796  -2.451  -9.921  0.00  0.00    -0.048 A 
ATOM      7  C   LIG d   1       4.761  -3.615  -9.183  0.00  0.00     0.249 C 
ATOM      8  O   LIG d   1       5.303  -4.133  -8.225  0.00  0.00    -0.270 OA
ATOM      9  N   LIG d   1       3.608  -4.133  -9.629  0.00  0.00    -0.286 N 
ATOM     10  C   LIG d   1       2.898  -5.294  -9.065  0.00  0.00     0.016 C 
ATOM     11  C   LIG d   1       2.020  -5.827 -10.225  0.00  0.00    -0.035 C 
ATOM     12  C   LIG d   1       1.588  -4.509 -10.920  0.00  0.00    -0.024 C 
ATOM     13  C   LIG d   1       2.837  -3.616 -10.772  0.00  0.00     0.103 C 
ATOM     14  H   LIG d   1       3.436  -3.645 -11.682  0.00  0.00     0.060 H 
ATOM     15  C   LIG d   1       2.408  -2.209 -10.443  0.00  0.00     0.241 C 
ATOM     16  O   LIG d   1       1.225  -1.949 -10.385  0.00  0.00    -0.273 OA
ATOM     17  N   LIG d   1       3.296  -1.247 -10.215  0.00  0.00    -0.260 N 
ATOM     18  H   LIG d   1       8.529  -1.413 -10.600  0.00  0.00     0.062 H 
ATOM     19  H   LIG d   1       7.248   0.506 -11.468  0.00  0.00     0.062 H 
ATOM     20  H   LIG d   1       4.808   0.549 -11.275  0.00  0.00     0.064 H 
ATOM     21  H   LIG d   1       7.361  -3.289  -9.540  0.00  0.00     0.063 H 
ATOM     22  H   LIG d   1       3.610  -6.056  -8.747  0.00  0.00     0.046 H 
ATOM     23  H   LIG d   1       2.274  -4.985  -8.227  0.00  0.00     0.046 H 
ATOM     24  H   LIG d   1       2.603  -6.453 -10.899  0.00  0.00     0.028 H 
ATOM     25  H   LIG d   1       1.155  -6.368  -9.842  0.00  0.00     0.028 H 
ATOM     26  H   LIG d   1       1.362  -4.684 -11.972  0.00  0.00     0.029 H 
ATOM     27  H   LIG d   1       0.734  -4.065 -10.409  0.00  0.00     0.029 H 
ENDROOT
BRANCH  17  28
ATOM     28  C   LIG d   1       2.763   0.065  -9.842  0.00  0.00     0.096 C 
ATOM     29  H   LIG d   1       3.167   0.825 -10.510  0.00  0.00     0.056 H 
ATOM     30  H   LIG d   1       1.676   0.051  -9.922  0.00  0.00     0.056 H 
BRANCH  28  31
ATOM     31  C   LIG d   1       3.158   0.383  -8.423  0.00  0.00     0.235 C 
ATOM     32  O   LIG d   1       3.770   1.401  -8.178  0.00  0.00    -0.274 OA
ATOM     33  N   LIG d   1       2.831  -0.464  -7.427  0.00  0.00    -0.283 N 
ATOM     34  H   LIG d   1       2.285  -1.243  -7.612  0.00  0.00     0.155 HD
BRANCH  33  35
ATOM     35  C   LIG d   1       3.282  -0.218  -6.124  0.00  0.00     0.052 A 
ATOM     36  C   LIG d   1       2.582   0.642  -5.288  0.00  0.00     0.049 A 
ATOM     37  N   LIG d   1       3.000   0.871  -4.059  0.00  0.00    -0.249 NA
ATOM     38  H   LIG d   1       1.683   1.122  -5.646  0.00  0.00     0.085 H 
ATOM     39  C   LIG d   1       4.093   0.311  -3.581  0.00  0.00     0.144 A 
ATOM     40  C   LIG d   1       4.846  -0.552  -4.355  0.00  0.00    -0.030 A 
ATOM     41  C   LIG d   1       4.440  -0.827  -5.650  0.00  0.00    -0.037 A 
ATOM     42  H   LIG d   1       5.740  -1.007  -3.954  0.00  0.00     0.064 H 
ATOM     43  H   LIG d   1       5.009  -1.498  -6.277  0.00  0.00     0.064 H 
BRANCH  39  44
ATOM     44  C   LIG d   1       4.527   0.615  -2.169  0.00  0.00     0.434 C 
ATOM     45  F   LIG d   1       5.849   1.073  -2.176  0.00  0.00    -0.164 F 
ATOM     46  F   LIG d   1       3.695   1.599  -1.627  0.00  0.00    -0.164 F 
ATOM     47  F   LIG d   1       4.440  -0.548  -1.395  0.00  0.00    -0.164 F 
ENDBRANCH  39  44
ENDBRANCH  33  35
ENDBRANCH  28  31
ENDBRANCH  17  28
TORSDOF 4
ENDMDL
MODEL 8
REMARK VINA RESULT:      -7.0      4.747      6.549
REMARK  4 active torsions:
REMARK  status: ('A' for Active; 'I' for Inactive)
REMARK    1  A    between atoms: N_17  and  C_18 
REMARK    2  A    between atoms: C_18  and  C_19 
REMARK       I    between atoms: C_19  and  N_21 
REMARK    3  A    between atoms: N_21  and  C_22 
REMARK    4  A    between atoms: C_25  and  C_28 
ROOT
ATOM      1  C   LIG d   1       0.124  -5.159 -10.515  0.00  0.00    -0.061 A 
ATOM      2  C   LIG d   1       1.103  -6.110 -10.277  0.00  0.00    -0.060 A 
ATOM      3  C   LIG d   1       2.393  -5.722  -9.994  0.00  0.00    -0.040 A 
ATOM      4  C   LIG d   1       2.737  -4.367  -9.947  0.00  0.00     0.049 A 
ATOM      5  C   LIG d   1       1.756  -3.409 -10.195  0.00  0.00     0.058 A 
ATOM      6  C   LIG d   1       0.442  -3.822 -10.476  0.00  0.00    -0.048 A 
ATOM      7  C   LIG d   1       2.025  -1.964 -10.190  0.00  0.00     0.249 C 
ATOM      8  O   LIG d   1       1.192  -1.214  -9.719  0.00  0.00    -0.270 OA
ATOM      9  N   LIG d   1       3.156  -1.441 -10.685  0.00  0.00    -0.286 N 
ATOM     10  C   LIG d   1       3.514  -0.012 -10.717  0.00  0.00     0.016 C 
ATOM     11  C   LIG d   1       4.554   0.112 -11.859  0.00  0.00    -0.035 C 
ATOM     12  C   LIG d   1       5.345  -1.214 -11.708  0.00  0.00    -0.024 C 
ATOM     13  C   LIG d   1       4.254  -2.218 -11.283  0.00  0.00     0.103 C 
ATOM     14  H   LIG d   1       3.898  -2.783 -12.145  0.00  0.00     0.060 H 
ATOM     15  C   LIG d   1       4.806  -3.133 -10.220  0.00  0.00     0.241 C 
ATOM     16  O   LIG d   1       5.965  -3.018  -9.882  0.00  0.00    -0.273 OA
ATOM     17  N   LIG d   1       4.052  -4.065  -9.645  0.00  0.00    -0.260 N 
ATOM     18  H   LIG d   1      -0.887  -5.467 -10.737  0.00  0.00     0.062 H 
ATOM     19  H   LIG d   1       0.853  -7.160 -10.311  0.00  0.00     0.062 H 
ATOM     20  H   LIG d   1       3.148  -6.471  -9.807  0.00  0.00     0.064 H 
ATOM     21  H   LIG d   1      -0.323  -3.083 -10.662  0.00  0.00     0.063 H 
ATOM     22  H   LIG d   1       2.636   0.594 -10.936  0.00  0.00     0.046 H 
ATOM     23  H   LIG d   1       3.956   0.288  -9.767  0.00  0.00     0.046 H 
ATOM     24  H   LIG d   1       4.062   0.167 -12.830  0.00  0.00     0.028 H 
ATOM     25  H   LIG d   1       5.202   0.974 -11.703  0.00  0.00     0.028 H 
ATOM     26  H   LIG d   1       5.790  -1.507 -12.659  0.00  0.00     0.029 H 
ATOM     27  H   LIG d   1       6.107  -1.122 -10.935  0.00  0.00     0.029 H 
ENDROOT
BRANCH  17  28
ATOM     28  C   LIG d   1       4.679  -4.852  -8.580  0.00  0.00     0.096 C 
ATOM     29  H   LIG d   1       4.211  -5.835  -8.532  0.00  0.00     0.056 H 
ATOM     30  H   LIG d   1       5.743  -4.965  -8.790  0.00  0.00     0.056 H 
BRANCH  28  31
ATOM     31  C   LIG d   1       4.499  -4.145  -7.261  0.00  0.00     0.235 C 
ATOM     32  O   LIG d   1       3.636  -4.511  -6.490  0.00  0.00    -0.274 OA
ATOM     33  N   LIG d   1       5.296  -3.108  -6.938  0.00  0.00    -0.283 N 
ATOM     34  H   LIG d   1       6.028  -2.858  -7.523  0.00  0.00     0.155 HD
BRANCH  33  35
ATOM     35  C   LIG d   1       5.067  -2.391  -5.758  0.00  0.00     0.052 A 
ATOM     36  C   LIG d   1       4.332  -1.213  -5.782  0.00  0.00     0.049 A 
ATOM     37  N   LIG d   1       4.109  -0.537  -4.672  0.00  0.00    -0.249 NA
ATOM     38  H   LIG d   1       3.934  -0.849  -6.718  0.00  0.00     0.085 H 
ATOM     39  C   LIG d   1       4.578  -0.940  -3.507  0.00  0.00     0.144 A 
ATOM     40  C   LIG d   1       5.323  -2.100  -3.404  0.00  0.00    -0.030 A 
ATOM     41  C   LIG d   1       5.576  -2.844  -4.544  0.00  0.00    -0.037 A 
ATOM     42  H   LIG d   1       5.702  -2.422  -2.446  0.00  0.00     0.064 H 
ATOM     43  H   LIG d   1       6.154  -3.755  -4.493  0.00  0.00     0.064 H 
BRANCH  39  44
ATOM     44  C   LIG d   1       4.297  -0.124  -2.271  0.00  0.00     0.434 C 
ATOM     45  F   LIG d   1       2.996   0.387  -2.336  0.00  0.00    -0.164 F 
ATOM     46  F   LIG d   1       4.425  -0.933  -1.139  0.00  0.00    -0.164 F 
ATOM     47  F   LIG d   1       5.209   0.934  -2.194  0.00  0.00    -0.164 F 
ENDBRANCH  39  44
ENDBRANCH  33  35
ENDBRANCH  28  31
ENDBRANCH  17  28
TORSDOF 4
ENDMDL
MODEL 9
REMARK VINA RESULT:      -7.0      4.171      8.354
REMARK  4 active torsions:
REMARK  status: ('A' for Active; 'I' for Inactive)
REMARK    1  A    between atoms: N_17  and  C_18 
REMARK    2  A    between atoms: C_18  and  C_19 
REMARK       I    between atoms: C_19  and  N_21 
REMARK    3  A    between atoms: N_21  and  C_22 
REMARK    4  A    between atoms: C_25  and  C_28 
ROOT
ATOM      1  C   LIG d   1      10.561   5.859  -8.405  0.00  0.00    -0.061 A 
ATOM      2  C   LIG d   1      11.154   4.626  -8.624  0.00  0.00    -0.060 A 
ATOM      3  C   LIG d   1      11.306   3.735  -7.587  0.00  0.00    -0.040 A 
ATOM      4  C   LIG d   1      10.869   4.057  -6.298  0.00  0.00     0.049 A 
ATOM      5  C   LIG d   1      10.280   5.300  -6.074  0.00  0.00     0.058 A 
ATOM      6  C   LIG d   1      10.127   6.196  -7.145  0.00  0.00    -0.048 A 
ATOM      7  C   LIG d   1       9.810   5.738  -4.751  0.00  0.00     0.249 C 
ATOM      8  O   LIG d   1       8.779   6.377  -4.678  0.00  0.00    -0.270 OA
ATOM      9  N   LIG d   1      10.476   5.458  -3.622  0.00  0.00    -0.286 N 
ATOM     10  C   LIG d   1      10.080   5.848  -2.257  0.00  0.00     0.016 C 
ATOM     11  C   LIG d   1      11.396   5.826  -1.439  0.00  0.00    -0.035 C 
ATOM     12  C   LIG d   1      12.132   4.612  -2.063  0.00  0.00    -0.024 C 
ATOM     13  C   LIG d   1      11.733   4.693  -3.550  0.00  0.00     0.103 C 
ATOM     14  H   LIG d   1      12.514   5.187  -4.129  0.00  0.00     0.060 H 
ATOM     15  C   LIG d   1      11.461   3.305  -4.071  0.00  0.00     0.241 C 
ATOM     16  O   LIG d   1      11.621   2.355  -3.335  0.00  0.00    -0.273 OA
ATOM     17  N   LIG d   1      11.049   3.099  -5.317  0.00  0.00    -0.260 N 
ATOM     18  H   LIG d   1      10.445   6.556  -9.221  0.00  0.00     0.062 H 
ATOM     19  H   LIG d   1      11.498   4.363  -9.614  0.00  0.00     0.062 H 
ATOM     20  H   LIG d   1      11.767   2.776  -7.770  0.00  0.00     0.064 H 
ATOM     21  H   LIG d   1       9.664   7.158  -6.976  0.00  0.00     0.063 H 
ATOM     22  H   LIG d   1       9.651   6.849  -2.259  0.00  0.00     0.046 H 
ATOM     23  H   LIG d   1       9.368   5.130  -1.850  0.00  0.00     0.046 H 
ATOM     24  H   LIG d   1      11.961   6.746  -1.587  0.00  0.00     0.028 H 
ATOM     25  H   LIG d   1      11.194   5.660  -0.381  0.00  0.00     0.028 H 
ATOM     26  H   LIG d   1      13.211   4.714  -1.947  0.00  0.00     0.029 H 
ATOM     27  H   LIG d   1      11.781   3.680  -1.620  0.00  0.00     0.029 H 
ENDROOT
BRANCH  17  28
ATOM     28  C   LIG d   1      10.756   1.714  -5.691  0.00  0.00     0.096 C 
ATOM     29  H   LIG d   1      10.919   1.584  -6.761  0.00  0.00     0.056 H 
ATOM     30  H   LIG d   1      11.411   1.041  -5.138  0.00  0.00     0.056 H 
BRANCH  28  31
ATOM     31  C   LIG d   1       9.319   1.398  -5.362  0.00  0.00     0.235 C 
ATOM     32  O   LIG d   1       8.438   1.700  -6.140  0.00  0.00    -0.274 OA
ATOM     33  N   LIG d   1       9.013   0.781  -4.204  0.00  0.00    -0.283 N 
ATOM     34  H   LIG d   1       9.720   0.480  -3.613  0.00  0.00     0.155 HD
BRANCH  33  35
ATOM     35  C   LIG d   1       7.673   0.576  -3.853  0.00  0.00     0.052 A 
ATOM     36  C   LIG d   1       6.873   1.646  -3.476  0.00  0.00     0.049 A 
ATOM     37  N   LIG d   1       5.609   1.457  -3.151  0.00  0.00    -0.249 NA
ATOM     38  H   LIG d   1       7.287   2.643  -3.454  0.00  0.00     0.085 H 
ATOM     39  C   LIG d   1       5.061   0.258  -3.158  0.00  0.00     0.144 A 
ATOM     40  C   LIG d   1       5.796  -0.857  -3.517  0.00  0.00    -0.030 A 
ATOM     41  C   LIG d   1       7.126  -0.704  -3.872  0.00  0.00    -0.037 A 
ATOM     42  H   LIG d   1       5.338  -1.835  -3.521  0.00  0.00     0.064 H 
ATOM     43  H   LIG d   1       7.723  -1.557  -4.158  0.00  0.00     0.064 H 
BRANCH  39  44
ATOM     44  C   LIG d   1       3.613   0.101  -2.771  0.00  0.00     0.434 C 
ATOM     45  F   LIG d   1       3.457  -1.065  -2.012  0.00  0.00    -0.164 F 
ATOM     46  F   LIG d   1       3.209   1.206  -2.016  0.00  0.00    -0.164 F 
ATOM     47  F   LIG d   1       2.828   0.013  -3.926  0.00  0.00    -0.164 F 
ENDBRANCH  39  44
ENDBRANCH  33  35
ENDBRANCH  28  31
ENDBRANCH  17  28
TORSDOF 4
ENDMDL
