MODEL 1
REMARK VINA RESULT:      -8.8      0.000      0.000
REMARK  7 active torsions:
REMARK  status: ('A' for Active; 'I' for Inactive)
REMARK    1  A    between atoms: C_1  and  C_2 
REMARK    2  A    between atoms: C_2  and  C_3 
REMARK    3  A    between atoms: C_2  and  C_4 
REMARK    4  A    between atoms: C_7  and  C_10 
REMARK    5  A    between atoms: N_28  and  C_31 
REMARK    6  A    between atoms: C_31  and  C_32 
REMARK    7  A    between atoms: C_32  and  C_33 
ROOT
ATOM      1  C   LIG d   1       8.961   1.235  -5.039  0.00  0.00     0.094 C 
ATOM      2  H   LIG d   1       9.785   0.524  -4.974  0.00  0.00     0.062 H 
ATOM      3  C   LIG d   1       9.388   2.579  -4.481  0.00  0.00     0.046 A 
ATOM      4  C   LIG d   1       9.551   3.685  -5.237  0.00  0.00    -0.015 A 
ATOM      5  C   LIG d   1       9.968   4.747  -4.340  0.00  0.00     0.003 A 
ATOM      6  C   LIG d   1      10.285   6.092  -4.551  0.00  0.00    -0.052 A 
ATOM      7  C   LIG d   1      10.645   6.824  -3.448  0.00  0.00    -0.061 A 
ATOM      8  C   LIG d   1      10.698   6.268  -2.180  0.00  0.00    -0.060 A 
ATOM      9  C   LIG d   1      10.390   4.939  -1.943  0.00  0.00    -0.038 A 
ATOM     10  C   LIG d   1      10.021   4.171  -3.045  0.00  0.00     0.047 A 
ATOM     11  N   LIG d   1       9.663   2.859  -3.169  0.00  0.00    -0.356 N 
ATOM     12  H   LIG d   1       9.612   2.224  -2.439  0.00  0.00     0.166 HD
ATOM     13  C   LIG d   1       9.333   3.776  -6.727  0.00  0.00     0.002 C 
ATOM     14  C   LIG d   1       9.369   2.369  -7.335  0.00  0.00     0.109 A 
ATOM     15  H   LIG d   1      10.387   2.013  -7.495  0.00  0.00     0.060 H 
ATOM     16  N   LIG d   1       8.606   1.468  -6.444  0.00  0.00    -0.261 N 
ATOM     17  C   LIG d   1       7.596   0.967  -7.158  0.00  0.00     0.313 A 
ATOM     18  O   LIG d   1       6.809   0.143  -6.735  0.00  0.00    -0.252 OA
ATOM     19  N   LIG d   1       7.549   1.480  -8.395  0.00  0.00    -0.224 N 
ATOM     20  C   LIG d   1       8.559   2.346  -8.614  0.00  0.00     0.244 A 
ATOM     21  O   LIG d   1       8.774   2.979  -9.626  0.00  0.00    -0.273 OA
ATOM     22  H   LIG d   1      10.247   6.534  -5.536  0.00  0.00     0.062 H 
ATOM     23  H   LIG d   1      10.897   7.868  -3.572  0.00  0.00     0.062 H 
ATOM     24  H   LIG d   1      10.988   6.892  -1.348  0.00  0.00     0.062 H 
ATOM     25  H   LIG d   1      10.435   4.517  -0.950  0.00  0.00     0.064 H 
ATOM     26  H   LIG d   1      10.120   4.385  -7.172  0.00  0.00     0.034 H 
ATOM     27  H   LIG d   1       8.363   4.234  -6.925  0.00  0.00     0.034 H 
ENDROOT
BRANCH   1  28
ATOM     28  C   LIG d   1       7.767   0.713  -4.282  0.00  0.00    -0.021 A 
ATOM     29  C   LIG d   1       7.621  -0.646  -4.075  0.00  0.00    -0.056 A 
ATOM     30  C   LIG d   1       6.525  -1.126  -3.381  0.00  0.00    -0.058 A 
ATOM     31  H   LIG d   1       8.362  -1.334  -4.456  0.00  0.00     0.062 H 
ATOM     32  C   LIG d   1       5.577  -0.246  -2.894  0.00  0.00    -0.045 A 
ATOM     33  H   LIG d   1       6.411  -2.187  -3.220  0.00  0.00     0.062 H 
ATOM     34  C   LIG d   1       5.725   1.113  -3.099  0.00  0.00    -0.058 A 
ATOM     35  C   LIG d   1       6.821   1.593  -3.790  0.00  0.00    -0.056 A 
ATOM     36  H   LIG d   1       4.983   1.800  -2.719  0.00  0.00     0.062 H 
ATOM     37  H   LIG d   1       6.939   2.654  -3.948  0.00  0.00     0.062 H 
BRANCH  32  38
ATOM     38  C   LIG d   1       4.383  -0.768  -2.138  0.00  0.00    -0.021 C 
ATOM     39  H   LIG d   1       4.596  -0.757  -1.069  0.00  0.00     0.034 H 
BRANCH  38  40
ATOM     40  C   LIG d   1       3.170   0.119  -2.425  0.00  0.00    -0.059 C 
ATOM     41  H   LIG d   1       3.386   1.141  -2.113  0.00  0.00     0.024 H 
ATOM     42  H   LIG d   1       2.953   0.104  -3.493  0.00  0.00     0.024 H 
ATOM     43  H   LIG d   1       2.308  -0.254  -1.873  0.00  0.00     0.024 H 
ENDBRANCH  38  40
BRANCH  38  44
ATOM     44  C   LIG d   1       4.084  -2.200  -2.584  0.00  0.00    -0.059 C 
ATOM     45  H   LIG d   1       3.054  -2.453  -2.331  0.00  0.00     0.024 H 
ATOM     46  H   LIG d   1       4.225  -2.282  -3.662  0.00  0.00     0.024 H 
ATOM     47  H   LIG d   1       4.762  -2.887  -2.077  0.00  0.00     0.024 H 
ENDBRANCH  38  44
ENDBRANCH  32  38
ENDBRANCH   1  28
BRANCH  19  48
ATOM     48  C   LIG d   1       6.525   1.141  -9.389  0.00  0.00     0.028 C 
ATOM     49  H   LIG d   1       6.899   1.370 -10.387  0.00  0.00     0.047 H 
ATOM     50  H   LIG d   1       6.294   0.078  -9.322  0.00  0.00     0.047 H 
BRANCH  48  51
ATOM     51  C   LIG d   1       5.260   1.957  -9.117  0.00  0.00    -0.011 C 
ATOM     52  H   LIG d   1       5.307   2.378  -8.113  0.00  0.00     0.033 H 
ATOM     53  H   LIG d   1       5.185   2.764  -9.846  0.00  0.00     0.033 H 
BRANCH  51  54
ATOM     54  C   LIG d   1       4.053   1.063  -9.231  0.00  0.00    -0.046 A 
ATOM     55  C   LIG d   1       3.447   0.571  -8.090  0.00  0.00    -0.059 A 
ATOM     56  C   LIG d   1       2.339  -0.249  -8.195  0.00  0.00    -0.061 A 
ATOM     57  H   LIG d   1       3.840   0.827  -7.117  0.00  0.00     0.062 H 
ATOM     58  C   LIG d   1       1.836  -0.576  -9.440  0.00  0.00    -0.062 A 
ATOM     59  H   LIG d   1       1.866  -0.633  -7.303  0.00  0.00     0.062 H 
ATOM     60  C   LIG d   1       2.442  -0.084 -10.581  0.00  0.00    -0.061 A 
ATOM     61  H   LIG d   1       0.970  -1.216  -9.521  0.00  0.00     0.062 H 
ATOM     62  C   LIG d   1       3.547   0.740 -10.476  0.00  0.00    -0.059 A 
ATOM     63  H   LIG d   1       2.050  -0.340 -11.554  0.00  0.00     0.062 H 
ATOM     64  H   LIG d   1       4.017   1.129 -11.367  0.00  0.00     0.062 H 
ENDBRANCH  51  54
ENDBRANCH  48  51
ENDBRANCH  19  48
TORSDOF 7
ENDMDL
MODEL 2
REMARK VINA RESULT:      -7.8      3.194      6.227
REMARK  7 active torsions:
REMARK  status: ('A' for Active; 'I' for Inactive)
REMARK    1  A    between atoms: C_1  and  C_2 
REMARK    2  A    between atoms: C_2  and  C_3 
REMARK    3  A    between atoms: C_2  and  C_4 
REMARK    4  A    between atoms: C_7  and  C_10 
REMARK    5  A    between atoms: N_28  and  C_31 
REMARK    6  A    between atoms: C_31  and  C_32 
REMARK    7  A    between atoms: C_32  and  C_33 
ROOT
ATOM      1  C   LIG d   1      11.263   4.117  -4.934  0.00  0.00     0.094 C 
ATOM      2  H   LIG d   1      12.278   3.734  -5.041  0.00  0.00     0.062 H 
ATOM      3  C   LIG d   1      10.957   5.102  -6.045  0.00  0.00     0.046 A 
ATOM      4  C   LIG d   1      10.071   4.863  -7.034  0.00  0.00    -0.015 A 
ATOM      5  C   LIG d   1      10.074   6.034  -7.890  0.00  0.00     0.003 A 
ATOM      6  C   LIG d   1       9.371   6.354  -9.056  0.00  0.00    -0.052 A 
ATOM      7  C   LIG d   1       9.626   7.581  -9.615  0.00  0.00    -0.061 A 
ATOM      8  C   LIG d   1      10.532   8.470  -9.061  0.00  0.00    -0.060 A 
ATOM      9  C   LIG d   1      11.241   8.179  -7.908  0.00  0.00    -0.038 A 
ATOM     10  C   LIG d   1      11.004   6.938  -7.318  0.00  0.00     0.047 A 
ATOM     11  N   LIG d   1      11.518   6.341  -6.203  0.00  0.00    -0.356 N 
ATOM     12  H   LIG d   1      12.179   6.735  -5.614  0.00  0.00     0.166 HD
ATOM     13  C   LIG d   1       9.246   3.610  -7.196  0.00  0.00     0.002 C 
ATOM     14  C   LIG d   1       9.880   2.473  -6.386  0.00  0.00     0.109 A 
ATOM     15  H   LIG d   1      10.713   2.005  -6.910  0.00  0.00     0.060 H 
ATOM     16  N   LIG d   1      10.295   3.023  -5.077  0.00  0.00    -0.261 N 
ATOM     17  C   LIG d   1       9.627   2.352  -4.136  0.00  0.00     0.313 A 
ATOM     18  O   LIG d   1       9.783   2.521  -2.942  0.00  0.00    -0.252 OA
ATOM     19  N   LIG d   1       8.763   1.472  -4.660  0.00  0.00    -0.224 N 
ATOM     20  C   LIG d   1       8.816   1.463  -6.008  0.00  0.00     0.244 A 
ATOM     21  O   LIG d   1       8.148   0.788  -6.762  0.00  0.00    -0.273 OA
ATOM     22  H   LIG d   1       8.663   5.667  -9.496  0.00  0.00     0.062 H 
ATOM     23  H   LIG d   1       9.102   7.864 -10.517  0.00  0.00     0.062 H 
ATOM     24  H   LIG d   1      10.692   9.422  -9.544  0.00  0.00     0.062 H 
ATOM     25  H   LIG d   1      11.945   8.880  -7.485  0.00  0.00     0.064 H 
ATOM     26  H   LIG d   1       9.213   3.331  -8.250  0.00  0.00     0.034 H 
ATOM     27  H   LIG d   1       8.233   3.793  -6.837  0.00  0.00     0.034 H 
ENDROOT
BRANCH   1  28
ATOM     28  C   LIG d   1      11.101   4.779  -3.590  0.00  0.00    -0.021 A 
ATOM     29  C   LIG d   1      12.067   4.612  -2.615  0.00  0.00    -0.056 A 
ATOM     30  C   LIG d   1      11.918   5.220  -1.383  0.00  0.00    -0.058 A 
ATOM     31  H   LIG d   1      12.938   4.005  -2.817  0.00  0.00     0.062 H 
ATOM     32  C   LIG d   1      10.803   5.997  -1.126  0.00  0.00    -0.045 A 
ATOM     33  H   LIG d   1      12.672   5.089  -0.621  0.00  0.00     0.062 H 
ATOM     34  C   LIG d   1       9.839   6.165  -2.101  0.00  0.00    -0.058 A 
ATOM     35  C   LIG d   1       9.989   5.561  -3.334  0.00  0.00    -0.056 A 
ATOM     36  H   LIG d   1       8.968   6.772  -1.899  0.00  0.00     0.062 H 
ATOM     37  H   LIG d   1       9.237   5.695  -4.098  0.00  0.00     0.062 H 
BRANCH  32  38
ATOM     38  C   LIG d   1      10.640   6.659   0.218  0.00  0.00    -0.021 C 
ATOM     39  H   LIG d   1       9.595   6.929   0.366  0.00  0.00     0.034 H 
BRANCH  38  40
ATOM     40  C   LIG d   1      11.078   5.692   1.320  0.00  0.00    -0.059 C 
ATOM     41  H   LIG d   1      11.275   4.712   0.885  0.00  0.00     0.024 H 
ATOM     42  H   LIG d   1      11.985   6.067   1.794  0.00  0.00     0.024 H 
ATOM     43  H   LIG d   1      10.287   5.606   2.064  0.00  0.00     0.024 H 
ENDBRANCH  38  40
BRANCH  38  44
ATOM     44  C   LIG d   1      11.506   7.919   0.272  0.00  0.00    -0.059 C 
ATOM     45  H   LIG d   1      11.014   8.722  -0.278  0.00  0.00     0.024 H 
ATOM     46  H   LIG d   1      11.642   8.222   1.311  0.00  0.00     0.024 H 
ATOM     47  H   LIG d   1      12.478   7.712  -0.175  0.00  0.00     0.024 H 
ENDBRANCH  38  44
ENDBRANCH  32  38
ENDBRANCH   1  28
BRANCH  19  48
ATOM     48  C   LIG d   1       7.870   0.621  -3.867  0.00  0.00     0.028 C 
ATOM     49  H   LIG d   1       7.602  -0.262  -4.446  0.00  0.00     0.047 H 
ATOM     50  H   LIG d   1       8.379   0.316  -2.952  0.00  0.00     0.047 H 
BRANCH  48  51
ATOM     51  C   LIG d   1       6.604   1.404  -3.510  0.00  0.00    -0.011 C 
ATOM     52  H   LIG d   1       6.806   2.053  -2.659  0.00  0.00     0.033 H 
ATOM     53  H   LIG d   1       6.299   2.007  -4.365  0.00  0.00     0.033 H 
BRANCH  51  54
ATOM     54  C   LIG d   1       5.502   0.439  -3.157  0.00  0.00    -0.046 A 
ATOM     55  C   LIG d   1       5.779  -0.910  -3.032  0.00  0.00    -0.059 A 
ATOM     56  C   LIG d   1       4.769  -1.795  -2.706  0.00  0.00    -0.061 A 
ATOM     57  H   LIG d   1       6.785  -1.272  -3.188  0.00  0.00     0.062 H 
ATOM     58  C   LIG d   1       3.482  -1.332  -2.506  0.00  0.00    -0.062 A 
ATOM     59  H   LIG d   1       4.985  -2.849  -2.608  0.00  0.00     0.062 H 
ATOM     60  C   LIG d   1       3.205   0.017  -2.631  0.00  0.00    -0.061 A 
ATOM     61  H   LIG d   1       2.693  -2.024  -2.252  0.00  0.00     0.062 H 
ATOM     62  C   LIG d   1       4.216   0.902  -2.952  0.00  0.00    -0.059 A 
ATOM     63  H   LIG d   1       2.199   0.378  -2.475  0.00  0.00     0.062 H 
ATOM     64  H   LIG d   1       4.002   1.957  -3.044  0.00  0.00     0.062 H 
ENDBRANCH  51  54
ENDBRANCH  48  51
ENDBRANCH  19  48
TORSDOF 7
ENDMDL
MODEL 3
REMARK VINA RESULT:      -7.6      1.679      1.907
REMARK  7 active torsions:
REMARK  status: ('A' for Active; 'I' for Inactive)
REMARK    1  A    between atoms: C_1  and  C_2 
REMARK    2  A    between atoms: C_2  and  C_3 
REMARK    3  A    between atoms: C_2  and  C_4 
REMARK    4  A    between atoms: C_7  and  C_10 
REMARK    5  A    between atoms: N_28  and  C_31 
REMARK    6  A    between atoms: C_31  and  C_32 
REMARK    7  A    between atoms: C_32  and  C_33 
ROOT
ATOM      1  C   LIG d   1       8.929   0.146  -5.871  0.00  0.00     0.094 C 
ATOM      2  H   LIG d   1       9.357  -0.835  -6.080  0.00  0.00     0.062 H 
ATOM      3  C   LIG d   1      10.013   1.098  -5.405  0.00  0.00     0.046 A 
ATOM      4  C   LIG d   1      10.442   2.154  -6.127  0.00  0.00    -0.015 A 
ATOM      5  C   LIG d   1      11.480   2.801  -5.346  0.00  0.00     0.003 A 
ATOM      6  C   LIG d   1      12.279   3.924  -5.581  0.00  0.00    -0.052 A 
ATOM      7  C   LIG d   1      13.178   4.261  -4.600  0.00  0.00    -0.061 A 
ATOM      8  C   LIG d   1      13.297   3.532  -3.428  0.00  0.00    -0.060 A 
ATOM      9  C   LIG d   1      12.519   2.417  -3.169  0.00  0.00    -0.038 A 
ATOM     10  C   LIG d   1      11.597   2.050  -4.148  0.00  0.00     0.047 A 
ATOM     11  N   LIG d   1      10.694   1.029  -4.219  0.00  0.00    -0.356 N 
ATOM     12  H   LIG d   1      10.557   0.356  -3.535  0.00  0.00     0.166 HD
ATOM     13  C   LIG d   1       9.925   2.566  -7.483  0.00  0.00     0.002 C 
ATOM     14  C   LIG d   1       9.204   1.380  -8.135  0.00  0.00     0.109 A 
ATOM     15  H   LIG d   1       9.897   0.679  -8.601  0.00  0.00     0.060 H 
ATOM     16  N   LIG d   1       8.374   0.726  -7.101  0.00  0.00    -0.261 N 
ATOM     17  C   LIG d   1       7.105   0.793  -7.510  0.00  0.00     0.313 A 
ATOM     18  O   LIG d   1       6.172   0.294  -6.912  0.00  0.00    -0.252 OA
ATOM     19  N   LIG d   1       6.980   1.476  -8.656  0.00  0.00    -0.224 N 
ATOM     20  C   LIG d   1       8.175   1.891  -9.123  0.00  0.00     0.244 A 
ATOM     21  O   LIG d   1       8.384   2.541 -10.125  0.00  0.00    -0.273 OA
ATOM     22  H   LIG d   1      12.193   4.497  -6.492  0.00  0.00     0.062 H 
ATOM     23  H   LIG d   1      13.813   5.123  -4.747  0.00  0.00     0.062 H 
ATOM     24  H   LIG d   1      14.022   3.844  -2.691  0.00  0.00     0.062 H 
ATOM     25  H   LIG d   1      12.621   1.857  -2.252  0.00  0.00     0.064 H 
ATOM     26  H   LIG d   1      10.760   2.875  -8.111  0.00  0.00     0.034 H 
ATOM     27  H   LIG d   1       9.229   3.398  -7.369  0.00  0.00     0.034 H 
ENDROOT
BRANCH   1  28
ATOM     28  C   LIG d   1       7.853   0.027  -4.823  0.00  0.00    -0.021 A 
ATOM     29  C   LIG d   1       7.334   1.165  -4.233  0.00  0.00    -0.056 A 
ATOM     30  C   LIG d   1       6.347   1.056  -3.271  0.00  0.00    -0.058 A 
ATOM     31  H   LIG d   1       7.702   2.139  -4.522  0.00  0.00     0.062 H 
ATOM     32  C   LIG d   1       5.877  -0.191  -2.902  0.00  0.00    -0.045 A 
ATOM     33  H   LIG d   1       5.943   1.944  -2.810  0.00  0.00     0.062 H 
ATOM     34  C   LIG d   1       6.394  -1.327  -3.493  0.00  0.00    -0.058 A 
ATOM     35  C   LIG d   1       7.379  -1.219  -4.457  0.00  0.00    -0.056 A 
ATOM     36  H   LIG d   1       6.027  -2.301  -3.204  0.00  0.00     0.062 H 
ATOM     37  H   LIG d   1       7.780  -2.107  -4.922  0.00  0.00     0.062 H 
BRANCH  32  38
ATOM     38  C   LIG d   1       4.801  -0.309  -1.854  0.00  0.00    -0.021 C 
ATOM     39  H   LIG d   1       5.259  -0.350  -0.865  0.00  0.00     0.034 H 
BRANCH  38  40
ATOM     40  C   LIG d   1       3.873   0.904  -1.936  0.00  0.00    -0.059 C 
ATOM     41  H   LIG d   1       3.606   1.087  -2.977  0.00  0.00     0.024 H 
ATOM     42  H   LIG d   1       2.969   0.710  -1.359  0.00  0.00     0.024 H 
ATOM     43  H   LIG d   1       4.381   1.779  -1.533  0.00  0.00     0.024 H 
ENDBRANCH  38  40
BRANCH  38  44
ATOM     44  C   LIG d   1       3.994  -1.587  -2.094  0.00  0.00    -0.059 C 
ATOM     45  H   LIG d   1       2.953  -1.416  -1.821  0.00  0.00     0.024 H 
ATOM     46  H   LIG d   1       4.053  -1.861  -3.148  0.00  0.00     0.024 H 
ATOM     47  H   LIG d   1       4.402  -2.394  -1.487  0.00  0.00     0.024 H 
ENDBRANCH  38  44
ENDBRANCH  32  38
ENDBRANCH   1  28
BRANCH  19  48
ATOM     48  C   LIG d   1       5.700   1.739  -9.322  0.00  0.00     0.028 C 
ATOM     49  H   LIG d   1       4.900   1.741  -8.582  0.00  0.00     0.047 H 
ATOM     50  H   LIG d   1       5.742   2.711  -9.814  0.00  0.00     0.047 H 
BRANCH  48  51
ATOM     51  C   LIG d   1       5.433   0.651 -10.363  0.00  0.00    -0.011 C 
ATOM     52  H   LIG d   1       5.575   1.061 -11.362  0.00  0.00     0.033 H 
ATOM     53  H   LIG d   1       6.126  -0.177 -10.208  0.00  0.00     0.033 H 
BRANCH  51  54
ATOM     54  C   LIG d   1       4.018   0.155 -10.218  0.00  0.00    -0.046 A 
ATOM     55  C   LIG d   1       3.423   0.120  -8.970  0.00  0.00    -0.059 A 
ATOM     56  C   LIG d   1       2.124  -0.334  -8.837  0.00  0.00    -0.061 A 
ATOM     57  H   LIG d   1       3.974   0.446  -8.100  0.00  0.00     0.062 H 
ATOM     58  C   LIG d   1       1.420  -0.751  -9.951  0.00  0.00    -0.062 A 
ATOM     59  H   LIG d   1       1.660  -0.361  -7.862  0.00  0.00     0.062 H 
ATOM     60  C   LIG d   1       2.014  -0.715 -11.199  0.00  0.00    -0.061 A 
ATOM     61  H   LIG d   1       0.405  -1.105  -9.846  0.00  0.00     0.062 H 
ATOM     62  C   LIG d   1       3.311  -0.257 -11.332  0.00  0.00    -0.059 A 
ATOM     63  H   LIG d   1       1.464  -1.041 -12.069  0.00  0.00     0.062 H 
ATOM     64  H   LIG d   1       3.775  -0.223 -12.307  0.00  0.00     0.062 H 
ENDBRANCH  51  54
ENDBRANCH  48  51
ENDBRANCH  19  48
TORSDOF 7
ENDMDL
MODEL 4
REMARK VINA RESULT:      -7.5      5.426      8.766
REMARK  7 active torsions:
REMARK  status: ('A' for Active; 'I' for Inactive)
REMARK    1  A    between atoms: C_1  and  C_2 
REMARK    2  A    between atoms: C_2  and  C_3 
REMARK    3  A    between atoms: C_2  and  C_4 
REMARK    4  A    between atoms: C_7  and  C_10 
REMARK    5  A    between atoms: N_28  and  C_31 
REMARK    6  A    between atoms: C_31  and  C_32 
REMARK    7  A    between atoms: C_32  and  C_33 
ROOT
ATOM      1  C   LIG d   1       7.499  -2.957  -5.725  0.00  0.00     0.094 C 
ATOM      2  H   LIG d   1       7.590  -2.463  -6.693  0.00  0.00     0.062 H 
ATOM      3  C   LIG d   1       6.655  -2.114  -4.789  0.00  0.00     0.046 A 
ATOM      4  C   LIG d   1       5.426  -2.473  -4.363  0.00  0.00    -0.015 A 
ATOM      5  C   LIG d   1       4.954  -1.407  -3.499  0.00  0.00     0.003 A 
ATOM      6  C   LIG d   1       3.766  -1.225  -2.784  0.00  0.00    -0.052 A 
ATOM      7  C   LIG d   1       3.656  -0.070  -2.050  0.00  0.00    -0.061 A 
ATOM      8  C   LIG d   1       4.666   0.877  -2.010  0.00  0.00    -0.060 A 
ATOM      9  C   LIG d   1       5.852   0.722  -2.708  0.00  0.00    -0.038 A 
ATOM     10  C   LIG d   1       5.992  -0.441  -3.463  0.00  0.00     0.047 A 
ATOM     11  N   LIG d   1       7.004  -0.903  -4.254  0.00  0.00    -0.356 N 
ATOM     12  H   LIG d   1       7.843  -0.443  -4.413  0.00  0.00     0.166 HD
ATOM     13  C   LIG d   1       4.701  -3.746  -4.727  0.00  0.00     0.002 C 
ATOM     14  C   LIG d   1       5.323  -4.341  -5.996  0.00  0.00     0.109 A 
ATOM     15  H   LIG d   1       4.956  -3.860  -6.902  0.00  0.00     0.060 H 
ATOM     16  N   LIG d   1       6.794  -4.236  -5.876  0.00  0.00    -0.261 N 
ATOM     17  C   LIG d   1       7.285  -5.475  -5.921  0.00  0.00     0.313 A 
ATOM     18  O   LIG d   1       8.472  -5.736  -5.906  0.00  0.00    -0.252 OA
ATOM     19  N   LIG d   1       6.317  -6.400  -5.984  0.00  0.00    -0.224 N 
ATOM     20  C   LIG d   1       5.092  -5.838  -6.022  0.00  0.00     0.244 A 
ATOM     21  O   LIG d   1       4.025  -6.412  -6.065  0.00  0.00    -0.273 OA
ATOM     22  H   LIG d   1       2.973  -1.957  -2.811  0.00  0.00     0.062 H 
ATOM     23  H   LIG d   1       2.752   0.106  -1.485  0.00  0.00     0.062 H 
ATOM     24  H   LIG d   1       4.525   1.767  -1.415  0.00  0.00     0.062 H 
ATOM     25  H   LIG d   1       6.632   1.467  -2.669  0.00  0.00     0.064 H 
ATOM     26  H   LIG d   1       3.649  -3.525  -4.906  0.00  0.00     0.034 H 
ATOM     27  H   LIG d   1       4.789  -4.461  -3.909  0.00  0.00     0.034 H 
ENDROOT
BRANCH   1  28
ATOM     28  C   LIG d   1       8.865  -3.186  -5.131  0.00  0.00    -0.021 A 
ATOM     29  C   LIG d   1       9.997  -2.961  -5.893  0.00  0.00    -0.056 A 
ATOM     30  C   LIG d   1      11.250  -3.170  -5.348  0.00  0.00    -0.058 A 
ATOM     31  H   LIG d   1       9.901  -2.621  -6.914  0.00  0.00     0.062 H 
ATOM     32  C   LIG d   1      11.371  -3.605  -4.041  0.00  0.00    -0.045 A 
ATOM     33  H   LIG d   1      12.133  -2.996  -5.943  0.00  0.00     0.062 H 
ATOM     34  C   LIG d   1      10.240  -3.828  -3.279  0.00  0.00    -0.058 A 
ATOM     35  C   LIG d   1       8.987  -3.614  -3.822  0.00  0.00    -0.056 A 
ATOM     36  H   LIG d   1      10.335  -4.167  -2.258  0.00  0.00     0.062 H 
ATOM     37  H   LIG d   1       8.103  -3.785  -3.226  0.00  0.00     0.062 H 
BRANCH  32  38
ATOM     38  C   LIG d   1      12.737  -3.834  -3.447  0.00  0.00    -0.021 C 
ATOM     39  H   LIG d   1      12.657  -3.888  -2.362  0.00  0.00     0.034 H 
BRANCH  38  40
ATOM     40  C   LIG d   1      13.311  -5.148  -3.982  0.00  0.00    -0.059 C 
ATOM     41  H   LIG d   1      14.254  -4.951  -4.492  0.00  0.00     0.024 H 
ATOM     42  H   LIG d   1      13.484  -5.833  -3.151  0.00  0.00     0.024 H 
ATOM     43  H   LIG d   1      12.606  -5.595  -4.681  0.00  0.00     0.024 H 
ENDBRANCH  38  40
BRANCH  38  44
ATOM     44  C   LIG d   1      13.661  -2.678  -3.834  0.00  0.00    -0.059 C 
ATOM     45  H   LIG d   1      13.798  -2.019  -2.977  0.00  0.00     0.024 H 
ATOM     46  H   LIG d   1      14.627  -3.074  -4.147  0.00  0.00     0.024 H 
ATOM     47  H   LIG d   1      13.217  -2.117  -4.657  0.00  0.00     0.024 H 
ENDBRANCH  38  44
ENDBRANCH  32  38
ENDBRANCH   1  28
BRANCH  19  48
ATOM     48  C   LIG d   1       6.560  -7.846  -6.009  0.00  0.00     0.028 C 
ATOM     49  H   LIG d   1       5.631  -8.365  -6.242  0.00  0.00     0.047 H 
ATOM     50  H   LIG d   1       7.305  -8.075  -6.771  0.00  0.00     0.047 H 
BRANCH  48  51
ATOM     51  C   LIG d   1       7.072  -8.301  -4.641  0.00  0.00    -0.011 C 
ATOM     52  H   LIG d   1       8.035  -8.796  -4.760  0.00  0.00     0.033 H 
ATOM     53  H   LIG d   1       7.186  -7.434  -3.990  0.00  0.00     0.033 H 
BRANCH  51  54
ATOM     54  C   LIG d   1       6.084  -9.261  -4.031  0.00  0.00    -0.046 A 
ATOM     55  C   LIG d   1       4.853  -9.459  -4.629  0.00  0.00    -0.059 A 
ATOM     56  C   LIG d   1       3.948 -10.340  -4.070  0.00  0.00    -0.061 A 
ATOM     57  H   LIG d   1       4.600  -8.924  -5.533  0.00  0.00     0.062 H 
ATOM     58  C   LIG d   1       4.272 -11.025  -2.914  0.00  0.00    -0.062 A 
ATOM     59  H   LIG d   1       2.986 -10.495  -4.537  0.00  0.00     0.062 H 
ATOM     60  C   LIG d   1       5.503 -10.827  -2.315  0.00  0.00    -0.061 A 
ATOM     61  H   LIG d   1       3.564 -11.713  -2.477  0.00  0.00     0.062 H 
ATOM     62  C   LIG d   1       6.411  -9.950  -2.877  0.00  0.00    -0.059 A 
ATOM     63  H   LIG d   1       5.756 -11.362  -1.412  0.00  0.00     0.062 H 
ATOM     64  H   LIG d   1       7.375  -9.799  -2.414  0.00  0.00     0.062 H 
ENDBRANCH  51  54
ENDBRANCH  48  51
ENDBRANCH  19  48
TORSDOF 7
ENDMDL
MODEL 5
REMARK VINA RESULT:      -7.4      3.527      8.211
REMARK  7 active torsions:
REMARK  status: ('A' for Active; 'I' for Inactive)
REMARK    1  A    between atoms: C_1  and  C_2 
REMARK    2  A    between atoms: C_2  and  C_3 
REMARK    3  A    between atoms: C_2  and  C_4 
REMARK    4  A    between atoms: C_7  and  C_10 
REMARK    5  A    between atoms: N_28  and  C_31 
REMARK    6  A    between atoms: C_31  and  C_32 
REMARK    7  A    between atoms: C_32  and  C_33 
ROOT
ATOM      1  C   LIG d   1       8.592   1.999  -5.231  0.00  0.00     0.094 C 
ATOM      2  H   LIG d   1       8.116   2.467  -6.093  0.00  0.00     0.062 H 
ATOM      3  C   LIG d   1       7.563   1.234  -4.421  0.00  0.00     0.046 A 
ATOM      4  C   LIG d   1       7.536  -0.111  -4.325  0.00  0.00    -0.015 A 
ATOM      5  C   LIG d   1       6.409  -0.448  -3.476  0.00  0.00     0.003 A 
ATOM      6  C   LIG d   1       5.891  -1.668  -3.030  0.00  0.00    -0.052 A 
ATOM      7  C   LIG d   1       4.788  -1.613  -2.216  0.00  0.00    -0.061 A 
ATOM      8  C   LIG d   1       4.205  -0.412  -1.845  0.00  0.00    -0.060 A 
ATOM      9  C   LIG d   1       4.696   0.810  -2.272  0.00  0.00    -0.038 A 
ATOM     10  C   LIG d   1       5.816   0.785  -3.101  0.00  0.00     0.047 A 
ATOM     11  N   LIG d   1       6.542   1.780  -3.690  0.00  0.00    -0.356 N 
ATOM     12  H   LIG d   1       6.360   2.728  -3.605  0.00  0.00     0.166 HD
ATOM     13  C   LIG d   1       8.505  -1.063  -4.981  0.00  0.00     0.002 C 
ATOM     14  C   LIG d   1       9.218  -0.350  -6.136  0.00  0.00     0.109 A 
ATOM     15  H   LIG d   1       8.614  -0.323  -7.043  0.00  0.00     0.060 H 
ATOM     16  N   LIG d   1       9.580   1.009  -5.678  0.00  0.00    -0.261 N 
ATOM     17  C   LIG d   1      10.909   1.110  -5.749  0.00  0.00     0.313 A 
ATOM     18  O   LIG d   1      11.527   2.126  -5.497  0.00  0.00    -0.252 OA
ATOM     19  N   LIG d   1      11.483  -0.039  -6.130  0.00  0.00    -0.224 N 
ATOM     20  C   LIG d   1      10.566  -0.996  -6.379  0.00  0.00     0.244 A 
ATOM     21  O   LIG d   1      10.776  -2.139  -6.725  0.00  0.00    -0.273 OA
ATOM     22  H   LIG d   1       6.339  -2.609  -3.315  0.00  0.00     0.062 H 
ATOM     23  H   LIG d   1       4.360  -2.536  -1.852  0.00  0.00     0.062 H 
ATOM     24  H   LIG d   1       3.338  -0.429  -1.202  0.00  0.00     0.062 H 
ATOM     25  H   LIG d   1       4.233   1.739  -1.976  0.00  0.00     0.064 H 
ATOM     26  H   LIG d   1       7.962  -1.926  -5.367  0.00  0.00     0.034 H 
ATOM     27  H   LIG d   1       9.241  -1.395  -4.249  0.00  0.00     0.034 H 
ENDROOT
BRANCH   1  28
ATOM     28  C   LIG d   1       9.257   3.045  -4.375  0.00  0.00    -0.021 A 
ATOM     29  C   LIG d   1       9.271   4.366  -4.784  0.00  0.00    -0.056 A 
ATOM     30  C   LIG d   1       9.881   5.326  -3.999  0.00  0.00    -0.058 A 
ATOM     31  H   LIG d   1       8.807   4.647  -5.718  0.00  0.00     0.062 H 
ATOM     32  C   LIG d   1      10.475   4.966  -2.804  0.00  0.00    -0.045 A 
ATOM     33  H   LIG d   1       9.893   6.357  -4.319  0.00  0.00     0.062 H 
ATOM     34  C   LIG d   1      10.459   3.646  -2.394  0.00  0.00    -0.058 A 
ATOM     35  C   LIG d   1       9.846   2.686  -3.177  0.00  0.00    -0.056 A 
ATOM     36  H   LIG d   1      10.924   3.365  -1.460  0.00  0.00     0.062 H 
ATOM     37  H   LIG d   1       9.830   1.656  -2.856  0.00  0.00     0.062 H 
BRANCH  32  38
ATOM     38  C   LIG d   1      11.141   6.012  -1.948  0.00  0.00    -0.021 C 
ATOM     39  H   LIG d   1      11.800   6.622  -2.565  0.00  0.00     0.034 H 
BRANCH  38  40
ATOM     40  C   LIG d   1      10.072   6.903  -1.309  0.00  0.00    -0.059 C 
ATOM     41  H   LIG d   1      10.553   7.652  -0.680  0.00  0.00     0.024 H 
ATOM     42  H   LIG d   1       9.499   7.400  -2.092  0.00  0.00     0.024 H 
ATOM     43  H   LIG d   1       9.406   6.292  -0.701  0.00  0.00     0.024 H 
ENDBRANCH  38  40
BRANCH  38  44
ATOM     44  C   LIG d   1      11.958   5.329  -0.850  0.00  0.00    -0.059 C 
ATOM     45  H   LIG d   1      11.497   4.374  -0.594  0.00  0.00     0.024 H 
ATOM     46  H   LIG d   1      12.974   5.157  -1.206  0.00  0.00     0.024 H 
ATOM     47  H   LIG d   1      11.987   5.967   0.033  0.00  0.00     0.024 H 
ENDBRANCH  38  44
ENDBRANCH  32  38
ENDBRANCH   1  28
BRANCH  19  48
ATOM     48  C   LIG d   1      12.930  -0.233  -6.261  0.00  0.00     0.028 C 
ATOM     49  H   LIG d   1      13.144  -0.755  -7.193  0.00  0.00     0.047 H 
ATOM     50  H   LIG d   1      13.427   0.737  -6.266  0.00  0.00     0.047 H 
BRANCH  48  51
ATOM     51  C   LIG d   1      13.442  -1.063  -5.081  0.00  0.00    -0.011 C 
ATOM     52  H   LIG d   1      12.596  -1.461  -4.522  0.00  0.00     0.033 H 
ATOM     53  H   LIG d   1      14.052  -1.886  -5.455  0.00  0.00     0.033 H 
BRANCH  51  54
ATOM     54  C   LIG d   1      14.276  -0.190  -4.179  0.00  0.00    -0.046 A 
ATOM     55  C   LIG d   1      14.649   1.075  -4.595  0.00  0.00    -0.059 A 
ATOM     56  C   LIG d   1      15.412   1.877  -3.768  0.00  0.00    -0.061 A 
ATOM     57  H   LIG d   1      14.345   1.436  -5.567  0.00  0.00     0.062 H 
ATOM     58  C   LIG d   1      15.802   1.415  -2.524  0.00  0.00    -0.062 A 
ATOM     59  H   LIG d   1      15.704   2.865  -4.092  0.00  0.00     0.062 H 
ATOM     60  C   LIG d   1      15.428   0.150  -2.108  0.00  0.00    -0.061 A 
ATOM     61  H   LIG d   1      16.398   2.042  -1.878  0.00  0.00     0.062 H 
ATOM     62  C   LIG d   1      14.660  -0.649  -2.934  0.00  0.00    -0.059 A 
ATOM     63  H   LIG d   1      15.733  -0.211  -1.137  0.00  0.00     0.062 H 
ATOM     64  H   LIG d   1      14.363  -1.635  -2.607  0.00  0.00     0.062 H 
ENDBRANCH  51  54
ENDBRANCH  48  51
ENDBRANCH  19  48
TORSDOF 7
ENDMDL
MODEL 6
REMARK VINA RESULT:      -7.2      4.857      6.767
REMARK  7 active torsions:
REMARK  status: ('A' for Active; 'I' for Inactive)
REMARK    1  A    between atoms: C_1  and  C_2 
REMARK    2  A    between atoms: C_2  and  C_3 
REMARK    3  A    between atoms: C_2  and  C_4 
REMARK    4  A    between atoms: C_7  and  C_10 
REMARK    5  A    between atoms: N_28  and  C_31 
REMARK    6  A    between atoms: C_31  and  C_32 
REMARK    7  A    between atoms: C_32  and  C_33 
ROOT
ATOM      1  C   LIG d   1       5.270  -2.199  -6.961  0.00  0.00     0.094 C 
ATOM      2  H   LIG d   1       6.238  -1.904  -7.368  0.00  0.00     0.062 H 
ATOM      3  C   LIG d   1       4.956  -1.384  -5.722  0.00  0.00     0.046 A 
ATOM      4  C   LIG d   1       3.974  -0.460  -5.663  0.00  0.00    -0.015 A 
ATOM      5  C   LIG d   1       4.003   0.096  -4.324  0.00  0.00     0.003 A 
ATOM      6  C   LIG d   1       3.235   1.080  -3.692  0.00  0.00    -0.052 A 
ATOM      7  C   LIG d   1       3.543   1.360  -2.384  0.00  0.00    -0.061 A 
ATOM      8  C   LIG d   1       4.563   0.708  -1.711  0.00  0.00    -0.060 A 
ATOM      9  C   LIG d   1       5.339  -0.268  -2.312  0.00  0.00    -0.038 A 
ATOM     10  C   LIG d   1       5.049  -0.574  -3.641  0.00  0.00     0.047 A 
ATOM     11  N   LIG d   1       5.602  -1.462  -4.517  0.00  0.00    -0.356 N 
ATOM     12  H   LIG d   1       6.341  -2.058  -4.317  0.00  0.00     0.166 HD
ATOM     13  C   LIG d   1       3.037  -0.095  -6.787  0.00  0.00     0.002 C 
ATOM     14  C   LIG d   1       3.639  -0.550  -8.122  0.00  0.00     0.109 A 
ATOM     15  H   LIG d   1       4.384   0.149  -8.501  0.00  0.00     0.060 H 
ATOM     16  N   LIG d   1       4.205  -1.903  -7.928  0.00  0.00    -0.261 N 
ATOM     17  C   LIG d   1       3.565  -2.724  -8.762  0.00  0.00     0.313 A 
ATOM     18  O   LIG d   1       3.833  -3.903  -8.894  0.00  0.00    -0.252 OA
ATOM     19  N   LIG d   1       2.590  -2.099  -9.437  0.00  0.00    -0.224 N 
ATOM     20  C   LIG d   1       2.530  -0.789  -9.126  0.00  0.00     0.244 A 
ATOM     21  O   LIG d   1       1.748   0.031  -9.559  0.00  0.00    -0.273 OA
ATOM     22  H   LIG d   1       2.438   1.594  -4.209  0.00  0.00     0.062 H 
ATOM     23  H   LIG d   1       2.971   2.115  -1.863  0.00  0.00     0.062 H 
ATOM     24  H   LIG d   1       4.761   0.970  -0.682  0.00  0.00     0.062 H 
ATOM     25  H   LIG d   1       6.131  -0.769  -1.777  0.00  0.00     0.064 H 
ATOM     26  H   LIG d   1       2.893   0.986  -6.804  0.00  0.00     0.034 H 
ATOM     27  H   LIG d   1       2.076  -0.587  -6.634  0.00  0.00     0.034 H 
ENDROOT
BRANCH   1  28
ATOM     28  C   LIG d   1       5.275  -3.669  -6.630  0.00  0.00    -0.021 A 
ATOM     29  C   LIG d   1       6.267  -4.488  -7.137  0.00  0.00    -0.056 A 
ATOM     30  C   LIG d   1       6.272  -5.837  -6.833  0.00  0.00    -0.058 A 
ATOM     31  H   LIG d   1       7.038  -4.074  -7.770  0.00  0.00     0.062 H 
ATOM     32  C   LIG d   1       5.285  -6.366  -6.022  0.00  0.00    -0.045 A 
ATOM     33  H   LIG d   1       7.046  -6.477  -7.229  0.00  0.00     0.062 H 
ATOM     34  C   LIG d   1       4.295  -5.547  -5.514  0.00  0.00    -0.058 A 
ATOM     35  C   LIG d   1       4.292  -4.198  -5.815  0.00  0.00    -0.056 A 
ATOM     36  H   LIG d   1       3.524  -5.961  -4.881  0.00  0.00     0.062 H 
ATOM     37  H   LIG d   1       3.520  -3.557  -5.415  0.00  0.00     0.062 H 
BRANCH  32  38
ATOM     38  C   LIG d   1       5.291  -7.836  -5.691  0.00  0.00    -0.021 C 
ATOM     39  H   LIG d   1       4.711  -8.007  -4.784  0.00  0.00     0.034 H 
BRANCH  38  40
ATOM     40  C   LIG d   1       4.668  -8.621  -6.848  0.00  0.00    -0.059 C 
ATOM     41  H   LIG d   1       5.459  -9.075  -7.446  0.00  0.00     0.024 H 
ATOM     42  H   LIG d   1       4.020  -9.402  -6.450  0.00  0.00     0.024 H 
ATOM     43  H   LIG d   1       4.084  -7.946  -7.472  0.00  0.00     0.024 H 
ENDBRANCH  38  40
BRANCH  38  44
ATOM     44  C   LIG d   1       6.730  -8.304  -5.473  0.00  0.00    -0.059 C 
ATOM     45  H   LIG d   1       7.014  -8.136  -4.435  0.00  0.00     0.024 H 
ATOM     46  H   LIG d   1       6.806  -9.367  -5.703  0.00  0.00     0.024 H 
ATOM     47  H   LIG d   1       7.398  -7.744  -6.129  0.00  0.00     0.024 H 
ENDBRANCH  38  44
ENDBRANCH  32  38
ENDBRANCH   1  28
BRANCH  19  48
ATOM     48  C   LIG d   1       1.699  -2.759 -10.396  0.00  0.00     0.028 C 
ATOM     49  H   LIG d   1       1.598  -3.811 -10.133  0.00  0.00     0.047 H 
ATOM     50  H   LIG d   1       0.719  -2.281 -10.367  0.00  0.00     0.047 H 
BRANCH  48  51
ATOM     51  C   LIG d   1       2.284  -2.636 -11.804  0.00  0.00    -0.011 C 
ATOM     52  H   LIG d   1       2.964  -1.786 -11.843  0.00  0.00     0.033 H 
ATOM     53  H   LIG d   1       2.829  -3.548 -12.051  0.00  0.00     0.033 H 
BRANCH  51  54
ATOM     54  C   LIG d   1       1.168  -2.434 -12.795  0.00  0.00    -0.046 A 
ATOM     55  C   LIG d   1       0.016  -1.772 -12.412  0.00  0.00    -0.059 A 
ATOM     56  C   LIG d   1      -1.008  -1.585 -13.322  0.00  0.00    -0.061 A 
ATOM     57  H   LIG d   1      -0.083  -1.401 -11.403  0.00  0.00     0.062 H 
ATOM     58  C   LIG d   1      -0.881  -2.060 -14.613  0.00  0.00    -0.062 A 
ATOM     59  H   LIG d   1      -1.908  -1.068 -13.022  0.00  0.00     0.062 H 
ATOM     60  C   LIG d   1       0.271  -2.722 -14.997  0.00  0.00    -0.061 A 
ATOM     61  H   LIG d   1      -1.681  -1.913 -15.324  0.00  0.00     0.062 H 
ATOM     62  C   LIG d   1       1.297  -2.904 -14.089  0.00  0.00    -0.059 A 
ATOM     63  H   LIG d   1       0.370  -3.093 -16.006  0.00  0.00     0.062 H 
ATOM     64  H   LIG d   1       2.199  -3.416 -14.389  0.00  0.00     0.062 H 
ENDBRANCH  51  54
ENDBRANCH  48  51
ENDBRANCH  19  48
TORSDOF 7
ENDMDL
MODEL 7
REMARK VINA RESULT:      -7.1      4.943      6.982
REMARK  7 active torsions:
REMARK  status: ('A' for Active; 'I' for Inactive)
REMARK    1  A    between atoms: C_1  and  C_2 
REMARK    2  A    between atoms: C_2  and  C_3 
REMARK    3  A    between atoms: C_2  and  C_4 
REMARK    4  A    between atoms: C_7  and  C_10 
REMARK    5  A    between atoms: N_28  and  C_31 
REMARK    6  A    between atoms: C_31  and  C_32 
REMARK    7  A    between atoms: C_32  and  C_33 
ROOT
ATOM      1  C   LIG d   1       5.613  -2.495  -6.868  0.00  0.00     0.094 C 
ATOM      2  H   LIG d   1       6.631  -2.223  -7.148  0.00  0.00     0.062 H 
ATOM      3  C   LIG d   1       5.146  -1.640  -5.707  0.00  0.00     0.046 A 
ATOM      4  C   LIG d   1       4.180  -0.704  -5.808  0.00  0.00    -0.015 A 
ATOM      5  C   LIG d   1       4.035  -0.108  -4.494  0.00  0.00     0.003 A 
ATOM      6  C   LIG d   1       3.203   0.902  -4.000  0.00  0.00    -0.052 A 
ATOM      7  C   LIG d   1       3.336   1.219  -2.671  0.00  0.00    -0.061 A 
ATOM      8  C   LIG d   1       4.245   0.577  -1.847  0.00  0.00    -0.060 A 
ATOM      9  C   LIG d   1       5.081  -0.426  -2.310  0.00  0.00    -0.038 A 
ATOM     10  C   LIG d   1       4.969  -0.769  -3.656  0.00  0.00     0.047 A 
ATOM     11  N   LIG d   1       5.623  -1.689  -4.424  0.00  0.00    -0.356 N 
ATOM     12  H   LIG d   1       6.318  -2.286  -4.109  0.00  0.00     0.166 HD
ATOM     13  C   LIG d   1       3.408  -0.363  -7.059  0.00  0.00     0.002 C 
ATOM     14  C   LIG d   1       4.179  -0.865  -8.286  0.00  0.00     0.109 A 
ATOM     15  H   LIG d   1       4.978  -0.185  -8.581  0.00  0.00     0.060 H 
ATOM     16  N   LIG d   1       4.694  -2.217  -7.979  0.00  0.00    -0.261 N 
ATOM     17  C   LIG d   1       4.160  -3.056  -8.868  0.00  0.00     0.313 A 
ATOM     18  O   LIG d   1       4.426  -4.241  -8.929  0.00  0.00    -0.252 OA
ATOM     19  N   LIG d   1       3.295  -2.441  -9.687  0.00  0.00    -0.224 N 
ATOM     20  C   LIG d   1       3.213  -1.121  -9.424  0.00  0.00     0.244 A 
ATOM     21  O   LIG d   1       2.509  -0.306  -9.982  0.00  0.00    -0.273 OA
ATOM     22  H   LIG d   1       2.492   1.409  -4.635  0.00  0.00     0.062 H 
ATOM     23  H   LIG d   1       2.710   1.995  -2.254  0.00  0.00     0.062 H 
ATOM     24  H   LIG d   1       4.306   0.867  -0.809  0.00  0.00     0.062 H 
ATOM     25  H   LIG d   1       5.786  -0.919  -1.658  0.00  0.00     0.064 H 
ATOM     26  H   LIG d   1       3.285   0.719  -7.126  0.00  0.00     0.034 H 
ATOM     27  H   LIG d   1       2.429  -0.839  -7.024  0.00  0.00     0.034 H 
ENDROOT
BRANCH   1  28
ATOM     28  C   LIG d   1       5.552  -3.955  -6.498  0.00  0.00    -0.021 A 
ATOM     29  C   LIG d   1       6.629  -4.780  -6.761  0.00  0.00    -0.056 A 
ATOM     30  C   LIG d   1       6.573  -6.119  -6.421  0.00  0.00    -0.058 A 
ATOM     31  H   LIG d   1       7.515  -4.379  -7.233  0.00  0.00     0.062 H 
ATOM     32  C   LIG d   1       5.440  -6.632  -5.818  0.00  0.00    -0.045 A 
ATOM     33  H   LIG d   1       7.414  -6.764  -6.628  0.00  0.00     0.062 H 
ATOM     34  C   LIG d   1       4.364  -5.806  -5.553  0.00  0.00    -0.058 A 
ATOM     35  C   LIG d   1       4.421  -4.467  -5.889  0.00  0.00    -0.056 A 
ATOM     36  H   LIG d   1       3.479  -6.207  -5.082  0.00  0.00     0.062 H 
ATOM     37  H   LIG d   1       3.582  -3.820  -5.679  0.00  0.00     0.062 H 
BRANCH  32  38
ATOM     38  C   LIG d   1       5.378  -8.091  -5.448  0.00  0.00    -0.021 C 
ATOM     39  H   LIG d   1       4.768  -8.214  -4.553  0.00  0.00     0.034 H 
BRANCH  38  40
ATOM     40  C   LIG d   1       4.758  -8.884  -6.601  0.00  0.00    -0.059 C 
ATOM     41  H   LIG d   1       5.329  -8.706  -7.512  0.00  0.00     0.024 H 
ATOM     42  H   LIG d   1       4.777  -9.947  -6.362  0.00  0.00     0.024 H 
ATOM     43  H   LIG d   1       3.728  -8.562  -6.750  0.00  0.00     0.024 H 
ENDBRANCH  38  40
BRANCH  38  44
ATOM     44  C   LIG d   1       6.792  -8.608  -5.177  0.00  0.00    -0.059 C 
ATOM     45  H   LIG d   1       7.419  -8.431  -6.051  0.00  0.00     0.024 H 
ATOM     46  H   LIG d   1       7.212  -8.085  -4.317  0.00  0.00     0.024 H 
ATOM     47  H   LIG d   1       6.754  -9.677  -4.967  0.00  0.00     0.024 H 
ENDBRANCH  38  44
ENDBRANCH  32  38
ENDBRANCH   1  28
BRANCH  19  48
ATOM     48  C   LIG d   1       2.532  -3.119 -10.739  0.00  0.00     0.028 C 
ATOM     49  H   LIG d   1       2.634  -2.569 -11.673  0.00  0.00     0.047 H 
ATOM     50  H   LIG d   1       2.916  -4.132 -10.870  0.00  0.00     0.047 H 
BRANCH  48  51
ATOM     51  C   LIG d   1       1.056  -3.181 -10.340  0.00  0.00    -0.011 C 
ATOM     52  H   LIG d   1       0.934  -2.776  -9.336  0.00  0.00     0.033 H 
ATOM     53  H   LIG d   1       0.465  -2.595 -11.043  0.00  0.00     0.033 H 
BRANCH  51  54
ATOM     54  C   LIG d   1       0.590  -4.614 -10.365  0.00  0.00    -0.046 A 
ATOM     55  C   LIG d   1      -0.763  -4.901 -10.351  0.00  0.00    -0.059 A 
ATOM     56  C   LIG d   1      -1.190  -6.215 -10.376  0.00  0.00    -0.061 A 
ATOM     57  H   LIG d   1      -1.485  -4.098 -10.322  0.00  0.00     0.062 H 
ATOM     58  C   LIG d   1      -0.266  -7.242 -10.414  0.00  0.00    -0.062 A 
ATOM     59  H   LIG d   1      -2.247  -6.439 -10.366  0.00  0.00     0.062 H 
ATOM     60  C   LIG d   1       1.086  -6.955 -10.428  0.00  0.00    -0.061 A 
ATOM     61  H   LIG d   1      -0.601  -8.269 -10.433  0.00  0.00     0.062 H 
ATOM     62  C   LIG d   1       1.514  -5.641 -10.409  0.00  0.00    -0.059 A 
ATOM     63  H   LIG d   1       1.808  -7.758 -10.457  0.00  0.00     0.062 H 
ATOM     64  H   LIG d   1       2.570  -5.417 -10.425  0.00  0.00     0.062 H 
ENDBRANCH  51  54
ENDBRANCH  48  51
ENDBRANCH  19  48
TORSDOF 7
ENDMDL
MODEL 8
REMARK VINA RESULT:      -7.1      4.762      7.141
REMARK  7 active torsions:
REMARK  status: ('A' for Active; 'I' for Inactive)
REMARK    1  A    between atoms: C_1  and  C_2 
REMARK    2  A    between atoms: C_2  and  C_3 
REMARK    3  A    between atoms: C_2  and  C_4 
REMARK    4  A    between atoms: C_7  and  C_10 
REMARK    5  A    between atoms: N_28  and  C_31 
REMARK    6  A    between atoms: C_31  and  C_32 
REMARK    7  A    between atoms: C_32  and  C_33 
ROOT
ATOM      1  C   LIG d   1       5.324  -4.111  -5.204  0.00  0.00     0.094 C 
ATOM      2  H   LIG d   1       5.016  -4.981  -4.623  0.00  0.00     0.062 H 
ATOM      3  C   LIG d   1       5.001  -2.838  -4.446  0.00  0.00     0.046 A 
ATOM      4  C   LIG d   1       5.938  -2.018  -3.928  0.00  0.00    -0.015 A 
ATOM      5  C   LIG d   1       5.230  -0.929  -3.281  0.00  0.00     0.003 A 
ATOM      6  C   LIG d   1       5.667   0.200  -2.581  0.00  0.00    -0.052 A 
ATOM      7  C   LIG d   1       4.697   1.042  -2.096  0.00  0.00    -0.061 A 
ATOM      8  C   LIG d   1       3.347   0.796  -2.283  0.00  0.00    -0.060 A 
ATOM      9  C   LIG d   1       2.887  -0.314  -2.971  0.00  0.00    -0.038 A 
ATOM     10  C   LIG d   1       3.849  -1.187  -3.476  0.00  0.00     0.047 A 
ATOM     11  N   LIG d   1       3.749  -2.349  -4.185  0.00  0.00    -0.356 N 
ATOM     12  H   LIG d   1       2.918  -2.765  -4.461  0.00  0.00     0.166 HD
ATOM     13  C   LIG d   1       7.431  -2.213  -4.018  0.00  0.00     0.002 C 
ATOM     14  C   LIG d   1       7.734  -3.680  -4.347  0.00  0.00     0.109 A 
ATOM     15  H   LIG d   1       7.692  -4.320  -3.466  0.00  0.00     0.060 H 
ATOM     16  N   LIG d   1       6.781  -4.120  -5.390  0.00  0.00    -0.261 N 
ATOM     17  C   LIG d   1       7.498  -4.483  -6.454  0.00  0.00     0.313 A 
ATOM     18  O   LIG d   1       7.018  -4.951  -7.469  0.00  0.00    -0.252 OA
ATOM     19  N   LIG d   1       8.809  -4.272  -6.276  0.00  0.00    -0.224 N 
ATOM     20  C   LIG d   1       9.073  -3.779  -5.049  0.00  0.00     0.244 A 
ATOM     21  O   LIG d   1      10.157  -3.474  -4.600  0.00  0.00    -0.273 OA
ATOM     22  H   LIG d   1       6.717   0.399  -2.430  0.00  0.00     0.062 H 
ATOM     23  H   LIG d   1       4.997   1.924  -1.549  0.00  0.00     0.062 H 
ATOM     24  H   LIG d   1       2.628   1.493  -1.879  0.00  0.00     0.062 H 
ATOM     25  H   LIG d   1       1.831  -0.494  -3.111  0.00  0.00     0.064 H 
ATOM     26  H   LIG d   1       7.890  -1.953  -3.064  0.00  0.00     0.034 H 
ATOM     27  H   LIG d   1       7.835  -1.573  -4.802  0.00  0.00     0.034 H 
ENDROOT
BRANCH   1  28
ATOM     28  C   LIG d   1       4.632  -4.112  -6.542  0.00  0.00    -0.021 A 
ATOM     29  C   LIG d   1       3.994  -5.254  -6.989  0.00  0.00    -0.056 A 
ATOM     30  C   LIG d   1       3.358  -5.255  -8.217  0.00  0.00    -0.058 A 
ATOM     31  H   LIG d   1       3.993  -6.146  -6.380  0.00  0.00     0.062 H 
ATOM     32  C   LIG d   1       3.359  -4.113  -8.996  0.00  0.00    -0.045 A 
ATOM     33  H   LIG d   1       2.861  -6.147  -8.567  0.00  0.00     0.062 H 
ATOM     34  C   LIG d   1       3.995  -2.971  -8.548  0.00  0.00    -0.058 A 
ATOM     35  C   LIG d   1       4.627  -2.968  -7.319  0.00  0.00    -0.056 A 
ATOM     36  H   LIG d   1       3.995  -2.079  -9.157  0.00  0.00     0.062 H 
ATOM     37  H   LIG d   1       5.121  -2.075  -6.967  0.00  0.00     0.062 H 
BRANCH  32  38
ATOM     38  C   LIG d   1       2.666  -4.114 -10.334  0.00  0.00    -0.021 C 
ATOM     39  H   LIG d   1       2.277  -5.110 -10.541  0.00  0.00     0.034 H 
BRANCH  38  40
ATOM     40  C   LIG d   1       1.512  -3.109 -10.311  0.00  0.00    -0.059 C 
ATOM     41  H   LIG d   1       1.912  -2.097 -10.269  0.00  0.00     0.024 H 
ATOM     42  H   LIG d   1       0.912  -3.225 -11.214  0.00  0.00     0.024 H 
ATOM     43  H   LIG d   1       0.890  -3.291  -9.436  0.00  0.00     0.024 H 
ENDBRANCH  38  40
BRANCH  38  44
ATOM     44  C   LIG d   1       3.664  -3.719 -11.425  0.00  0.00    -0.059 C 
ATOM     45  H   LIG d   1       4.093  -4.618 -11.868  0.00  0.00     0.024 H 
ATOM     46  H   LIG d   1       3.152  -3.142 -12.195  0.00  0.00     0.024 H 
ATOM     47  H   LIG d   1       4.459  -3.114 -10.988  0.00  0.00     0.024 H 
ENDBRANCH  38  44
ENDBRANCH  32  38
ENDBRANCH   1  28
BRANCH  19  48
ATOM     48  C   LIG d   1       9.833  -4.545  -7.290  0.00  0.00     0.028 C 
ATOM     49  H   LIG d   1      10.686  -5.036  -6.822  0.00  0.00     0.047 H 
ATOM     50  H   LIG d   1       9.416  -5.196  -8.059  0.00  0.00     0.047 H 
BRANCH  48  51
ATOM     51  C   LIG d   1      10.285  -3.229  -7.925  0.00  0.00    -0.011 C 
ATOM     52  H   LIG d   1      10.616  -2.544  -7.146  0.00  0.00     0.033 H 
ATOM     53  H   LIG d   1      11.108  -3.423  -8.613  0.00  0.00     0.033 H 
BRANCH  51  54
ATOM     54  C   LIG d   1       9.134  -2.616  -8.680  0.00  0.00    -0.046 A 
ATOM     55  C   LIG d   1       8.547  -1.452  -8.217  0.00  0.00    -0.059 A 
ATOM     56  C   LIG d   1       7.492  -0.889  -8.910  0.00  0.00    -0.061 A 
ATOM     57  H   LIG d   1       8.913  -0.984  -7.315  0.00  0.00     0.062 H 
ATOM     58  C   LIG d   1       7.024  -1.487 -10.064  0.00  0.00    -0.062 A 
ATOM     59  H   LIG d   1       7.034   0.020  -8.549  0.00  0.00     0.062 H 
ATOM     60  C   LIG d   1       7.611  -2.651 -10.527  0.00  0.00    -0.061 A 
ATOM     61  H   LIG d   1       6.200  -1.046 -10.605  0.00  0.00     0.062 H 
ATOM     62  C   LIG d   1       8.669  -3.211  -9.837  0.00  0.00    -0.059 A 
ATOM     63  H   LIG d   1       7.245  -3.119 -11.429  0.00  0.00     0.062 H 
ATOM     64  H   LIG d   1       9.132  -4.117 -10.201  0.00  0.00     0.062 H 
ENDBRANCH  51  54
ENDBRANCH  48  51
ENDBRANCH  19  48
TORSDOF 7
ENDMDL
MODEL 9
REMARK VINA RESULT:      -6.9      3.543      7.894
REMARK  7 active torsions:
REMARK  status: ('A' for Active; 'I' for Inactive)
REMARK    1  A    between atoms: C_1  and  C_2 
REMARK    2  A    between atoms: C_2  and  C_3 
REMARK    3  A    between atoms: C_2  and  C_4 
REMARK    4  A    between atoms: C_7  and  C_10 
REMARK    5  A    between atoms: N_28  and  C_31 
REMARK    6  A    between atoms: C_31  and  C_32 
REMARK    7  A    between atoms: C_32  and  C_33 
ROOT
ATOM      1  C   LIG d   1       8.541   2.023  -5.289  0.00  0.00     0.094 C 
ATOM      2  H   LIG d   1       8.052   2.471  -6.155  0.00  0.00     0.062 H 
ATOM      3  C   LIG d   1       7.528   1.263  -4.455  0.00  0.00     0.046 A 
ATOM      4  C   LIG d   1       7.516  -0.080  -4.333  0.00  0.00    -0.015 A 
ATOM      5  C   LIG d   1       6.400  -0.413  -3.468  0.00  0.00     0.003 A 
ATOM      6  C   LIG d   1       5.900  -1.631  -2.996  0.00  0.00    -0.052 A 
ATOM      7  C   LIG d   1       4.803  -1.572  -2.173  0.00  0.00    -0.061 A 
ATOM      8  C   LIG d   1       4.211  -0.371  -1.819  0.00  0.00    -0.060 A 
ATOM      9  C   LIG d   1       4.684   0.848  -2.273  0.00  0.00    -0.038 A 
ATOM     10  C   LIG d   1       5.798   0.820  -3.111  0.00  0.00     0.047 A 
ATOM     11  N   LIG d   1       6.507   1.811  -3.726  0.00  0.00    -0.356 N 
ATOM     12  H   LIG d   1       6.316   2.759  -3.656  0.00  0.00     0.166 HD
ATOM     13  C   LIG d   1       8.490  -1.034  -4.980  0.00  0.00     0.002 C 
ATOM     14  C   LIG d   1       9.184  -0.335  -6.155  0.00  0.00     0.109 A 
ATOM     15  H   LIG d   1       8.572  -0.331  -7.057  0.00  0.00     0.060 H 
ATOM     16  N   LIG d   1       9.536   1.037  -5.725  0.00  0.00    -0.261 N 
ATOM     17  C   LIG d   1      10.863   1.151  -5.811  0.00  0.00     0.313 A 
ATOM     18  O   LIG d   1      11.472   2.178  -5.583  0.00  0.00    -0.252 OA
ATOM     19  N   LIG d   1      11.446   0.000  -6.175  0.00  0.00    -0.224 N 
ATOM     20  C   LIG d   1      10.538  -0.971  -6.398  0.00  0.00     0.244 A 
ATOM     21  O   LIG d   1      10.758  -2.118  -6.724  0.00  0.00    -0.273 OA
ATOM     22  H   LIG d   1       6.355  -2.572  -3.267  0.00  0.00     0.062 H 
ATOM     23  H   LIG d   1       4.388  -2.493  -1.788  0.00  0.00     0.062 H 
ATOM     24  H   LIG d   1       3.349  -0.385  -1.168  0.00  0.00     0.062 H 
ATOM     25  H   LIG d   1       4.214   1.778  -1.990  0.00  0.00     0.064 H 
ATOM     26  H   LIG d   1       7.952  -1.910  -5.345  0.00  0.00     0.034 H 
ATOM     27  H   LIG d   1       9.236  -1.344  -4.249  0.00  0.00     0.034 H 
ENDROOT
BRANCH   1  28
ATOM     28  C   LIG d   1       9.202   3.093  -4.458  0.00  0.00    -0.021 A 
ATOM     29  C   LIG d   1       9.772   2.769  -3.241  0.00  0.00    -0.056 A 
ATOM     30  C   LIG d   1      10.379   3.751  -2.479  0.00  0.00    -0.058 A 
ATOM     31  H   LIG d   1       9.742   1.750  -2.885  0.00  0.00     0.062 H 
ATOM     32  C   LIG d   1      10.416   5.055  -2.936  0.00  0.00    -0.045 A 
ATOM     33  H   LIG d   1      10.823   3.498  -1.528  0.00  0.00     0.062 H 
ATOM     34  C   LIG d   1       9.848   5.378  -4.153  0.00  0.00    -0.058 A 
ATOM     35  C   LIG d   1       9.245   4.397  -4.917  0.00  0.00    -0.056 A 
ATOM     36  H   LIG d   1       9.877   6.397  -4.509  0.00  0.00     0.062 H 
ATOM     37  H   LIG d   1       8.804   4.648  -5.870  0.00  0.00     0.062 H 
BRANCH  32  38
ATOM     38  C   LIG d   1      11.077   6.125  -2.105  0.00  0.00    -0.021 C 
ATOM     39  H   LIG d   1      12.160   6.035  -2.191  0.00  0.00     0.034 H 
BRANCH  38  40
ATOM     40  C   LIG d   1      10.639   7.503  -2.606  0.00  0.00    -0.059 C 
ATOM     41  H   LIG d   1      11.376   8.248  -2.309  0.00  0.00     0.024 H 
ATOM     42  H   LIG d   1      10.558   7.485  -3.693  0.00  0.00     0.024 H 
ATOM     43  H   LIG d   1       9.672   7.756  -2.173  0.00  0.00     0.024 H 
ENDBRANCH  38  40
BRANCH  38  44
ATOM     44  C   LIG d   1      10.666   5.959  -0.641  0.00  0.00    -0.059 C 
ATOM     45  H   LIG d   1       9.661   6.356  -0.498  0.00  0.00     0.024 H 
ATOM     46  H   LIG d   1      10.681   4.902  -0.376  0.00  0.00     0.024 H 
ATOM     47  H   LIG d   1      11.365   6.501  -0.004  0.00  0.00     0.024 H 
ENDBRANCH  38  44
ENDBRANCH  32  38
ENDBRANCH   1  28
BRANCH  19  48
ATOM     48  C   LIG d   1      12.894  -0.181  -6.315  0.00  0.00     0.028 C 
ATOM     49  H   LIG d   1      13.093  -1.021  -6.979  0.00  0.00     0.047 H 
ATOM     50  H   LIG d   1      13.334   0.725  -6.734  0.00  0.00     0.047 H 
BRANCH  48  51
ATOM     51  C   LIG d   1      13.509  -0.458  -4.941  0.00  0.00    -0.011 C 
ATOM     52  H   LIG d   1      14.403   0.152  -4.813  0.00  0.00     0.033 H 
ATOM     53  H   LIG d   1      12.786  -0.211  -4.164  0.00  0.00     0.033 H 
BRANCH  51  54
ATOM     54  C   LIG d   1      13.876  -1.916  -4.842  0.00  0.00    -0.046 A 
ATOM     55  C   LIG d   1      13.942  -2.528  -3.604  0.00  0.00    -0.059 A 
ATOM     56  C   LIG d   1      14.276  -3.866  -3.512  0.00  0.00    -0.061 A 
ATOM     57  H   LIG d   1      13.732  -1.961  -2.709  0.00  0.00     0.062 H 
ATOM     58  C   LIG d   1      14.544  -4.592  -4.658  0.00  0.00    -0.062 A 
ATOM     59  H   LIG d   1      14.328  -4.345  -2.545  0.00  0.00     0.062 H 
ATOM     60  C   LIG d   1      14.478  -3.980  -5.896  0.00  0.00    -0.061 A 
ATOM     61  H   LIG d   1      14.806  -5.637  -4.585  0.00  0.00     0.062 H 
ATOM     62  C   LIG d   1      14.138  -2.643  -5.988  0.00  0.00    -0.059 A 
ATOM     63  H   LIG d   1      14.688  -4.547  -6.791  0.00  0.00     0.062 H 
ATOM     64  H   LIG d   1      14.081  -2.166  -6.954  0.00  0.00     0.062 H 
ENDBRANCH  51  54
ENDBRANCH  48  51
ENDBRANCH  19  48
TORSDOF 7
ENDMDL
MODEL 10
REMARK VINA RESULT:      -6.9      2.231      3.437
REMARK  7 active torsions:
REMARK  status: ('A' for Active; 'I' for Inactive)
REMARK    1  A    between atoms: C_1  and  C_2 
REMARK    2  A    between atoms: C_2  and  C_3 
REMARK    3  A    between atoms: C_2  and  C_4 
REMARK    4  A    between atoms: C_7  and  C_10 
REMARK    5  A    between atoms: N_28  and  C_31 
REMARK    6  A    between atoms: C_31  and  C_32 
REMARK    7  A    between atoms: C_32  and  C_33 
ROOT
ATOM      1  C   LIG d   1       7.846  -0.958  -7.053  0.00  0.00     0.094 C 
ATOM      2  H   LIG d   1       8.681  -1.646  -6.923  0.00  0.00     0.062 H 
ATOM      3  C   LIG d   1       8.344   0.474  -7.046  0.00  0.00     0.046 A 
ATOM      4  C   LIG d   1       8.334   1.276  -8.131  0.00  0.00    -0.015 A 
ATOM      5  C   LIG d   1       8.895   2.548  -7.717  0.00  0.00     0.003 A 
ATOM      6  C   LIG d   1       9.137   3.743  -8.402  0.00  0.00    -0.052 A 
ATOM      7  C   LIG d   1       9.689   4.771  -7.679  0.00  0.00    -0.061 A 
ATOM      8  C   LIG d   1       9.998   4.643  -6.335  0.00  0.00    -0.060 A 
ATOM      9  C   LIG d   1       9.771   3.472  -5.632  0.00  0.00    -0.038 A 
ATOM     10  C   LIG d   1       9.210   2.410  -6.341  0.00  0.00     0.047 A 
ATOM     11  N   LIG d   1       8.863   1.144  -5.970  0.00  0.00    -0.356 N 
ATOM     12  H   LIG d   1       8.967   0.775  -5.079  0.00  0.00     0.166 HD
ATOM     13  C   LIG d   1       7.829   0.900  -9.502  0.00  0.00     0.002 C 
ATOM     14  C   LIG d   1       7.777  -0.627  -9.625  0.00  0.00     0.109 A 
ATOM     15  H   LIG d   1       8.751  -1.059  -9.854  0.00  0.00     0.060 H 
ATOM     16  N   LIG d   1       7.220  -1.167  -8.365  0.00  0.00    -0.261 N 
ATOM     17  C   LIG d   1       6.101  -1.825  -8.676  0.00  0.00     0.313 A 
ATOM     18  O   LIG d   1       5.428  -2.438  -7.870  0.00  0.00    -0.252 OA
ATOM     19  N   LIG d   1       5.804  -1.728  -9.979  0.00  0.00    -0.224 N 
ATOM     20  C   LIG d   1       6.734  -1.020 -10.651  0.00  0.00     0.244 A 
ATOM     21  O   LIG d   1       6.735  -0.750 -11.833  0.00  0.00    -0.273 OA
ATOM     22  H   LIG d   1       8.900   3.851  -9.450  0.00  0.00     0.062 H 
ATOM     23  H   LIG d   1       9.891   5.709  -8.175  0.00  0.00     0.062 H 
ATOM     24  H   LIG d   1      10.432   5.485  -5.816  0.00  0.00     0.062 H 
ATOM     25  H   LIG d   1      10.015   3.385  -4.585  0.00  0.00     0.064 H 
ATOM     26  H   LIG d   1       8.502   1.302 -10.260  0.00  0.00     0.034 H 
ATOM     27  H   LIG d   1       6.830   1.312  -9.647  0.00  0.00     0.034 H 
ENDROOT
BRANCH   1  28
ATOM     28  C   LIG d   1       6.832  -1.163  -5.958  0.00  0.00    -0.021 A 
ATOM     29  C   LIG d   1       6.938  -2.252  -5.113  0.00  0.00    -0.056 A 
ATOM     30  C   LIG d   1       6.008  -2.439  -4.107  0.00  0.00    -0.058 A 
ATOM     31  H   LIG d   1       7.747  -2.956  -5.239  0.00  0.00     0.062 H 
ATOM     32  C   LIG d   1       4.973  -1.537  -3.946  0.00  0.00    -0.045 A 
ATOM     33  H   LIG d   1       6.091  -3.291  -3.448  0.00  0.00     0.062 H 
ATOM     34  C   LIG d   1       4.869  -0.448  -4.789  0.00  0.00    -0.058 A 
ATOM     35  C   LIG d   1       5.800  -0.257  -5.792  0.00  0.00    -0.056 A 
ATOM     36  H   LIG d   1       4.060   0.257  -4.662  0.00  0.00     0.062 H 
ATOM     37  H   LIG d   1       5.721   0.596  -6.449  0.00  0.00     0.062 H 
BRANCH  32  38
ATOM     38  C   LIG d   1       3.960  -1.742  -2.850  0.00  0.00    -0.021 C 
ATOM     39  H   LIG d   1       3.721  -2.803  -2.769  0.00  0.00     0.034 H 
BRANCH  38  40
ATOM     40  C   LIG d   1       4.537  -1.247  -1.522  0.00  0.00    -0.059 C 
ATOM     41  H   LIG d   1       5.471  -0.717  -1.708  0.00  0.00     0.024 H 
ATOM     42  H   LIG d   1       3.826  -0.572  -1.045  0.00  0.00     0.024 H 
ATOM     43  H   LIG d   1       4.726  -2.097  -0.868  0.00  0.00     0.024 H 
ENDBRANCH  38  40
BRANCH  38  44
ATOM     44  C   LIG d   1       2.689  -0.957  -3.178  0.00  0.00    -0.059 C 
ATOM     45  H   LIG d   1       1.842  -1.641  -3.232  0.00  0.00     0.024 H 
ATOM     46  H   LIG d   1       2.508  -0.215  -2.399  0.00  0.00     0.024 H 
ATOM     47  H   LIG d   1       2.811  -0.452  -4.136  0.00  0.00     0.024 H 
ENDBRANCH  38  44
ENDBRANCH  32  38
ENDBRANCH   1  28
BRANCH  19  48
ATOM     48  C   LIG d   1       4.615  -2.321 -10.599  0.00  0.00     0.028 C 
ATOM     49  H   LIG d   1       4.545  -1.994 -11.636  0.00  0.00     0.047 H 
ATOM     50  H   LIG d   1       4.691  -3.408 -10.564  0.00  0.00     0.047 H 
BRANCH  48  51
ATOM     51  C   LIG d   1       3.366  -1.873  -9.837  0.00  0.00    -0.011 C 
ATOM     52  H   LIG d   1       2.476  -2.167 -10.392  0.00  0.00     0.033 H 
ATOM     53  H   LIG d   1       3.353  -2.343  -8.853  0.00  0.00     0.033 H 
BRANCH  51  54
ATOM     54  C   LIG d   1       3.387  -0.375  -9.677  0.00  0.00    -0.046 A 
ATOM     55  C   LIG d   1       3.653   0.432 -10.767  0.00  0.00    -0.059 A 
ATOM     56  C   LIG d   1       3.671   1.807 -10.621  0.00  0.00    -0.061 A 
ATOM     57  H   LIG d   1       3.848  -0.011 -11.733  0.00  0.00     0.062 H 
ATOM     58  C   LIG d   1       3.422   2.374  -9.386  0.00  0.00    -0.062 A 
ATOM     59  H   LIG d   1       3.879   2.437 -11.473  0.00  0.00     0.062 H 
ATOM     60  C   LIG d   1       3.155   1.567  -8.295  0.00  0.00    -0.061 A 
ATOM     61  H   LIG d   1       3.436   3.448  -9.272  0.00  0.00     0.062 H 
ATOM     62  C   LIG d   1       3.132   0.193  -8.443  0.00  0.00    -0.059 A 
ATOM     63  H   LIG d   1       2.961   2.010  -7.330  0.00  0.00     0.062 H 
ATOM     64  H   LIG d   1       2.918  -0.438  -7.592  0.00  0.00     0.062 H 
ENDBRANCH  51  54
ENDBRANCH  48  51
ENDBRANCH  19  48
TORSDOF 7
ENDMDL
