MODEL 1
REMARK VINA RESULT:      -7.6      0.000      0.000
REMARK  10 active torsions:
REMARK  status: ('A' for Active; 'I' for Inactive)
REMARK    1  A    between atoms: C_3  and  O_36 
REMARK    2  A    between atoms: C_6  and  C_7 
REMARK    3  A    between atoms: C_12  and  O_35 
REMARK    4  A    between atoms: C_14  and  O_18 
REMARK    5  A    between atoms: O_18  and  C_19 
REMARK    6  A    between atoms: C_21  and  O_34 
REMARK    7  A    between atoms: C_23  and  O_33 
REMARK    8  A    between atoms: C_25  and  O_32 
REMARK    9  A    between atoms: C_27  and  C_30 
REMARK   10  A    between atoms: C_30  and  O_31 
ROOT
ATOM      1  C   LIG d   1       7.677   1.451  -4.109  0.00  0.00     0.139 A 
ATOM      2  C   LIG d   1       7.944   1.405  -5.442  0.00  0.00     0.029 A 
ATOM      3  C   LIG d   1       8.896   2.296  -5.993  0.00  0.00     0.197 A 
ATOM      4  O   LIG d   1       9.158   2.285  -7.185  0.00  0.00    -0.287 OA
ATOM      5  C   LIG d   1       9.554   3.239  -5.073  0.00  0.00     0.105 A 
ATOM      6  C   LIG d   1      10.509   4.155  -5.531  0.00  0.00     0.135 A 
ATOM      7  C   LIG d   1      11.103   5.025  -4.636  0.00  0.00     0.023 A 
ATOM      8  C   LIG d   1      10.755   4.988  -3.290  0.00  0.00     0.131 A 
ATOM      9  C   LIG d   1       9.810   4.083  -2.830  0.00  0.00     0.024 A 
ATOM     10  C   LIG d   1       9.204   3.203  -3.712  0.00  0.00     0.146 A 
ATOM     11  O   LIG d   1       8.282   2.316  -3.280  0.00  0.00    -0.454 OA
ATOM     12  H   LIG d   1       7.434   0.694  -6.075  0.00  0.00     0.069 H 
ATOM     13  H   LIG d   1      11.840   5.733  -4.982  0.00  0.00     0.069 H 
ATOM     14  H   LIG d   1       9.548   4.064  -1.782  0.00  0.00     0.069 H 
ENDROOT
BRANCH   8  15
ATOM     15  O   LIG d   1      11.344   5.846  -2.419  0.00  0.00    -0.461 OA
BRANCH  15  16
ATOM     16  C   LIG d   1      10.922   5.779  -1.056  0.00  0.00     0.231 C 
ATOM     17  H   LIG d   1      10.553   4.776  -0.838  0.00  0.00     0.108 H 
ATOM     18  O   LIG d   1       9.878   6.730  -0.833  0.00  0.00    -0.331 OA
ATOM     19  C   LIG d   1      10.249   8.080  -1.115  0.00  0.00     0.114 C 
ATOM     20  C   LIG d   1      11.406   8.493  -0.200  0.00  0.00     0.112 C 
ATOM     21  H   LIG d   1      10.563   8.162  -2.157  0.00  0.00     0.065 H 
ATOM     22  C   LIG d   1      12.579   7.530  -0.409  0.00  0.00     0.115 C 
ATOM     23  H   LIG d   1      11.720   9.507  -0.444  0.00  0.00     0.065 H 
ATOM     24  C   LIG d   1      12.106   6.098  -0.139  0.00  0.00     0.145 C 
ATOM     25  H   LIG d   1      13.386   7.783   0.280  0.00  0.00     0.065 H 
ATOM     26  H   LIG d   1      12.919   5.401  -0.339  0.00  0.00     0.068 H 
BRANCH  19  27
ATOM     27  C   LIG d   1       9.052   9.001  -0.870  0.00  0.00     0.073 C 
ATOM     28  H   LIG d   1       9.155   9.476   0.106  0.00  0.00     0.058 H 
ATOM     29  H   LIG d   1       9.017   9.767  -1.644  0.00  0.00     0.058 H 
BRANCH  27  30
ATOM     30  O   LIG d   1       7.847   8.234  -0.902  0.00  0.00    -0.392 OA
ATOM     31  H   LIG d   1       7.859   7.510  -1.543  0.00  0.00     0.209 HD
ENDBRANCH  27  30
ENDBRANCH  19  27
BRANCH  20  32
ATOM     32  O   LIG d   1      10.981   8.438   1.162  0.00  0.00    -0.387 OA
ATOM     33  H   LIG d   1      10.060   8.703   1.297  0.00  0.00     0.210 HD
ENDBRANCH  20  32
BRANCH  22  34
ATOM     34  O   LIG d   1      13.048   7.632  -1.756  0.00  0.00    -0.386 OA
ATOM     35  H   LIG d   1      13.572   8.426  -1.930  0.00  0.00     0.210 HD
ENDBRANCH  22  34
BRANCH  24  36
ATOM     36  O   LIG d   1      11.698   5.979   1.225  0.00  0.00    -0.383 OA
ATOM     37  H   LIG d   1      12.084   5.220   1.686  0.00  0.00     0.210 HD
ENDBRANCH  24  36
ENDBRANCH  15  16
ENDBRANCH   8  15
BRANCH   6  38
ATOM     38  O   LIG d   1      10.848   4.189  -6.845  0.00  0.00    -0.506 OA
ATOM     39  H   LIG d   1      10.128   3.947  -7.443  0.00  0.00     0.292 HD
ENDBRANCH   6  38
BRANCH   1  40
ATOM     40  C   LIG d   1       6.681   0.515  -3.553  0.00  0.00     0.018 A 
ATOM     41  C   LIG d   1       5.588   1.001  -2.831  0.00  0.00    -0.048 A 
ATOM     42  C   LIG d   1       4.659   0.124  -2.318  0.00  0.00    -0.019 A 
ATOM     43  H   LIG d   1       5.471   2.064  -2.678  0.00  0.00     0.063 H 
ATOM     44  C   LIG d   1       4.812  -1.244  -2.509  0.00  0.00     0.117 A 
ATOM     45  H   LIG d   1       3.811   0.500  -1.764  0.00  0.00     0.065 H 
ATOM     46  C   LIG d   1       5.901  -1.732  -3.221  0.00  0.00    -0.019 A 
ATOM     47  C   LIG d   1       6.832  -0.862  -3.742  0.00  0.00    -0.048 A 
ATOM     48  H   LIG d   1       6.015  -2.796  -3.367  0.00  0.00     0.065 H 
ATOM     49  H   LIG d   1       7.677  -1.243  -4.296  0.00  0.00     0.063 H 
BRANCH  44  50
ATOM     50  O   LIG d   1       3.896  -2.106  -1.996  0.00  0.00    -0.507 OA
ATOM     51  H   LIG d   1       2.982  -1.893  -2.230  0.00  0.00     0.292 HD
ENDBRANCH  44  50
ENDBRANCH   1  40
TORSDOF 10
ENDMDL
MODEL 2
REMARK VINA RESULT:      -7.6      1.832      8.424
REMARK  10 active torsions:
REMARK  status: ('A' for Active; 'I' for Inactive)
REMARK    1  A    between atoms: C_3  and  O_36 
REMARK    2  A    between atoms: C_6  and  C_7 
REMARK    3  A    between atoms: C_12  and  O_35 
REMARK    4  A    between atoms: C_14  and  O_18 
REMARK    5  A    between atoms: O_18  and  C_19 
REMARK    6  A    between atoms: C_21  and  O_34 
REMARK    7  A    between atoms: C_23  and  O_33 
REMARK    8  A    between atoms: C_25  and  O_32 
REMARK    9  A    between atoms: C_27  and  C_30 
REMARK   10  A    between atoms: C_30  and  O_31 
ROOT
ATOM      1  C   LIG d   1       9.975   4.706  -3.134  0.00  0.00     0.139 A 
ATOM      2  C   LIG d   1      10.291   5.206  -4.359  0.00  0.00     0.029 A 
ATOM      3  C   LIG d   1       9.900   4.499  -5.521  0.00  0.00     0.197 A 
ATOM      4  O   LIG d   1      10.170   4.916  -6.636  0.00  0.00    -0.287 OA
ATOM      5  C   LIG d   1       9.160   3.240  -5.333  0.00  0.00     0.105 A 
ATOM      6  C   LIG d   1       8.734   2.476  -6.427  0.00  0.00     0.135 A 
ATOM      7  C   LIG d   1       8.043   1.299  -6.208  0.00  0.00     0.023 A 
ATOM      8  C   LIG d   1       7.773   0.879  -4.910  0.00  0.00     0.131 A 
ATOM      9  C   LIG d   1       8.192   1.630  -3.823  0.00  0.00     0.024 A 
ATOM     10  C   LIG d   1       8.886   2.813  -4.023  0.00  0.00     0.146 A 
ATOM     11  O   LIG d   1       9.301   3.556  -2.974  0.00  0.00    -0.454 OA
ATOM     12  H   LIG d   1      10.836   6.134  -4.444  0.00  0.00     0.069 H 
ATOM     13  H   LIG d   1       7.711   0.706  -7.047  0.00  0.00     0.069 H 
ATOM     14  H   LIG d   1       7.977   1.293  -2.819  0.00  0.00     0.069 H 
ENDROOT
BRANCH   8  15
ATOM     15  O   LIG d   1       7.094  -0.279  -4.707  0.00  0.00    -0.461 OA
BRANCH  15  16
ATOM     16  C   LIG d   1       5.826  -0.409  -5.352  0.00  0.00     0.231 C 
ATOM     17  H   LIG d   1       5.902  -0.051  -6.379  0.00  0.00     0.108 H 
ATOM     18  O   LIG d   1       4.851   0.363  -4.648  0.00  0.00    -0.331 OA
ATOM     19  C   LIG d   1       4.691  -0.009  -3.278  0.00  0.00     0.114 C 
ATOM     20  C   LIG d   1       4.223  -1.465  -3.197  0.00  0.00     0.112 C 
ATOM     21  H   LIG d   1       5.644   0.096  -2.758  0.00  0.00     0.065 H 
ATOM     22  C   LIG d   1       5.241  -2.360  -3.909  0.00  0.00     0.115 C 
ATOM     23  H   LIG d   1       4.142  -1.764  -2.153  0.00  0.00     0.065 H 
ATOM     24  C   LIG d   1       5.404  -1.881  -5.355  0.00  0.00     0.145 C 
ATOM     25  H   LIG d   1       4.887  -3.391  -3.904  0.00  0.00     0.065 H 
ATOM     26  H   LIG d   1       6.168  -2.478  -5.853  0.00  0.00     0.068 H 
BRANCH  19  27
ATOM     27  C   LIG d   1       3.649   0.899  -2.621  0.00  0.00     0.073 C 
ATOM     28  H   LIG d   1       2.672   0.418  -2.662  0.00  0.00     0.058 H 
ATOM     29  H   LIG d   1       3.924   1.075  -1.581  0.00  0.00     0.058 H 
BRANCH  27  30
ATOM     30  O   LIG d   1       3.596   2.145  -3.319  0.00  0.00    -0.392 OA
ATOM     31  H   LIG d   1       4.452   2.446  -3.653  0.00  0.00     0.209 HD
ENDBRANCH  27  30
ENDBRANCH  19  27
BRANCH  20  32
ATOM     32  O   LIG d   1       2.949  -1.594  -3.831  0.00  0.00    -0.387 OA
ATOM     33  H   LIG d   1       2.678  -2.509  -3.986  0.00  0.00     0.210 HD
ENDBRANCH  20  32
BRANCH  22  34
ATOM     34  O   LIG d   1       6.500  -2.283  -3.235  0.00  0.00    -0.386 OA
ATOM     35  H   LIG d   1       7.229  -2.696  -3.716  0.00  0.00     0.210 HD
ENDBRANCH  22  34
BRANCH  24  36
ATOM     36  O   LIG d   1       4.162  -2.021  -6.047  0.00  0.00    -0.383 OA
ATOM     37  H   LIG d   1       3.687  -1.187  -6.174  0.00  0.00     0.210 HD
ENDBRANCH  24  36
ENDBRANCH  15  16
ENDBRANCH   8  15
BRANCH   6  38
ATOM     38  O   LIG d   1       8.998   2.889  -7.692  0.00  0.00    -0.506 OA
ATOM     39  H   LIG d   1       8.229   2.877  -8.279  0.00  0.00     0.292 HD
ENDBRANCH   6  38
BRANCH   1  40
ATOM     40  C   LIG d   1      10.392   5.456  -1.933  0.00  0.00     0.018 A 
ATOM     41  C   LIG d   1       9.800   6.687  -1.636  0.00  0.00    -0.048 A 
ATOM     42  C   LIG d   1      10.188   7.381  -0.512  0.00  0.00    -0.019 A 
ATOM     43  H   LIG d   1       9.038   7.091  -2.285  0.00  0.00     0.063 H 
ATOM     44  C   LIG d   1      11.173   6.864   0.322  0.00  0.00     0.117 A 
ATOM     45  H   LIG d   1       9.728   8.330  -0.279  0.00  0.00     0.065 H 
ATOM     46  C   LIG d   1      11.768   5.643   0.026  0.00  0.00    -0.019 A 
ATOM     47  C   LIG d   1      11.382   4.939  -1.092  0.00  0.00    -0.048 A 
ATOM     48  H   LIG d   1      12.532   5.245   0.677  0.00  0.00     0.065 H 
ATOM     49  H   LIG d   1      11.845   3.990  -1.321  0.00  0.00     0.063 H 
BRANCH  44  50
ATOM     50  O   LIG d   1      11.557   7.555   1.426  0.00  0.00    -0.507 OA
ATOM     51  H   LIG d   1      11.050   7.338   2.221  0.00  0.00     0.292 HD
ENDBRANCH  44  50
ENDBRANCH   1  40
TORSDOF 10
ENDMDL
MODEL 3
REMARK VINA RESULT:      -7.1      1.680      8.721
REMARK  10 active torsions:
REMARK  status: ('A' for Active; 'I' for Inactive)
REMARK    1  A    between atoms: C_3  and  O_36 
REMARK    2  A    between atoms: C_6  and  C_7 
REMARK    3  A    between atoms: C_12  and  O_35 
REMARK    4  A    between atoms: C_14  and  O_18 
REMARK    5  A    between atoms: O_18  and  C_19 
REMARK    6  A    between atoms: C_21  and  O_34 
REMARK    7  A    between atoms: C_23  and  O_33 
REMARK    8  A    between atoms: C_25  and  O_32 
REMARK    9  A    between atoms: C_27  and  C_30 
REMARK   10  A    between atoms: C_30  and  O_31 
ROOT
ATOM      1  C   LIG d   1      10.386   4.568  -2.908  0.00  0.00     0.139 A 
ATOM      2  C   LIG d   1      11.203   4.649  -3.993  0.00  0.00     0.029 A 
ATOM      3  C   LIG d   1      10.939   3.843  -5.126  0.00  0.00     0.197 A 
ATOM      4  O   LIG d   1      11.654   3.886  -6.114  0.00  0.00    -0.287 OA
ATOM      5  C   LIG d   1       9.774   2.946  -5.063  0.00  0.00     0.105 A 
ATOM      6  C   LIG d   1       9.438   2.113  -6.138  0.00  0.00     0.135 A 
ATOM      7  C   LIG d   1       8.336   1.284  -6.039  0.00  0.00     0.023 A 
ATOM      8  C   LIG d   1       7.567   1.279  -4.880  0.00  0.00     0.131 A 
ATOM      9  C   LIG d   1       7.893   2.101  -3.812  0.00  0.00     0.024 A 
ATOM     10  C   LIG d   1       8.994   2.939  -3.893  0.00  0.00     0.146 A 
ATOM     11  O   LIG d   1       9.326   3.746  -2.862  0.00  0.00    -0.454 OA
ATOM     12  H   LIG d   1      12.046   5.323  -3.989  0.00  0.00     0.069 H 
ATOM     13  H   LIG d   1       8.071   0.640  -6.864  0.00  0.00     0.069 H 
ATOM     14  H   LIG d   1       7.289   2.089  -2.918  0.00  0.00     0.069 H 
ENDROOT
BRANCH   8  15
ATOM     15  O   LIG d   1       6.487   0.461  -4.794  0.00  0.00    -0.461 OA
BRANCH  15  16
ATOM     16  C   LIG d   1       6.242  -0.157  -3.529  0.00  0.00     0.231 C 
ATOM     17  H   LIG d   1       7.036   0.111  -2.833  0.00  0.00     0.108 H 
ATOM     18  O   LIG d   1       6.208  -1.577  -3.692  0.00  0.00    -0.331 OA
ATOM     19  C   LIG d   1       5.214  -2.036  -4.609  0.00  0.00     0.114 C 
ATOM     20  C   LIG d   1       3.826  -1.631  -4.102  0.00  0.00     0.112 C 
ATOM     21  H   LIG d   1       5.387  -1.588  -5.588  0.00  0.00     0.065 H 
ATOM     22  C   LIG d   1       3.779  -0.109  -3.932  0.00  0.00     0.115 C 
ATOM     23  H   LIG d   1       3.071  -1.941  -4.821  0.00  0.00     0.065 H 
ATOM     24  C   LIG d   1       4.896   0.324  -2.979  0.00  0.00     0.145 C 
ATOM     25  H   LIG d   1       2.813   0.181  -3.518  0.00  0.00     0.065 H 
ATOM     26  H   LIG d   1       4.905   1.411  -2.896  0.00  0.00     0.068 H 
BRANCH  19  27
ATOM     27  C   LIG d   1       5.289  -3.560  -4.724  0.00  0.00     0.073 C 
ATOM     28  H   LIG d   1       6.082  -3.832  -5.421  0.00  0.00     0.058 H 
ATOM     29  H   LIG d   1       5.503  -3.989  -3.745  0.00  0.00     0.058 H 
BRANCH  27  30
ATOM     30  O   LIG d   1       4.041  -4.063  -5.203  0.00  0.00    -0.392 OA
ATOM     31  H   LIG d   1       3.998  -4.158  -6.165  0.00  0.00     0.209 HD
ENDBRANCH  27  30
ENDBRANCH  19  27
BRANCH  20  32
ATOM     32  O   LIG d   1       3.575  -2.259  -2.844  0.00  0.00    -0.387 OA
ATOM     33  H   LIG d   1       4.092  -1.894  -2.112  0.00  0.00     0.210 HD
ENDBRANCH  20  32
BRANCH  22  34
ATOM     34  O   LIG d   1       3.964   0.520  -5.203  0.00  0.00    -0.386 OA
ATOM     35  H   LIG d   1       3.453   1.332  -5.318  0.00  0.00     0.210 HD
ENDBRANCH  22  34
BRANCH  24  36
ATOM     36  O   LIG d   1       4.674  -0.252  -1.690  0.00  0.00    -0.383 OA
ATOM     37  H   LIG d   1       4.678  -1.220  -1.686  0.00  0.00     0.210 HD
ENDBRANCH  24  36
ENDBRANCH  15  16
ENDBRANCH   8  15
BRANCH   6  38
ATOM     38  O   LIG d   1      10.189   2.119  -7.268  0.00  0.00    -0.506 OA
ATOM     39  H   LIG d   1      10.624   2.965  -7.446  0.00  0.00     0.292 HD
ENDBRANCH   6  38
BRANCH   1  40
ATOM     40  C   LIG d   1      10.677   5.416  -1.736  0.00  0.00     0.018 A 
ATOM     41  C   LIG d   1      11.641   5.020  -0.806  0.00  0.00    -0.048 A 
ATOM     42  C   LIG d   1      11.913   5.817   0.283  0.00  0.00    -0.019 A 
ATOM     43  H   LIG d   1      12.175   4.091  -0.944  0.00  0.00     0.063 H 
ATOM     44  C   LIG d   1      11.223   7.010   0.464  0.00  0.00     0.117 A 
ATOM     45  H   LIG d   1      12.662   5.514   1.000  0.00  0.00     0.065 H 
ATOM     46  C   LIG d   1      10.258   7.405  -0.456  0.00  0.00    -0.019 A 
ATOM     47  C   LIG d   1       9.984   6.617  -1.551  0.00  0.00    -0.048 A 
ATOM     48  H   LIG d   1       9.724   8.332  -0.312  0.00  0.00     0.065 H 
ATOM     49  H   LIG d   1       9.235   6.924  -2.265  0.00  0.00     0.063 H 
BRANCH  44  50
ATOM     50  O   LIG d   1      11.490   7.790   1.543  0.00  0.00    -0.507 OA
ATOM     51  H   LIG d   1      11.955   8.611   1.328  0.00  0.00     0.292 HD
ENDBRANCH  44  50
ENDBRANCH   1  40
TORSDOF 10
ENDMDL
MODEL 4
REMARK VINA RESULT:      -7.0      0.966      2.034
REMARK  10 active torsions:
REMARK  status: ('A' for Active; 'I' for Inactive)
REMARK    1  A    between atoms: C_3  and  O_36 
REMARK    2  A    between atoms: C_6  and  C_7 
REMARK    3  A    between atoms: C_12  and  O_35 
REMARK    4  A    between atoms: C_14  and  O_18 
REMARK    5  A    between atoms: O_18  and  C_19 
REMARK    6  A    between atoms: C_21  and  O_34 
REMARK    7  A    between atoms: C_23  and  O_33 
REMARK    8  A    between atoms: C_25  and  O_32 
REMARK    9  A    between atoms: C_27  and  C_30 
REMARK   10  A    between atoms: C_30  and  O_31 
ROOT
ATOM      1  C   LIG d   1       7.475   1.154  -4.220  0.00  0.00     0.139 A 
ATOM      2  C   LIG d   1       7.644   1.164  -5.570  0.00  0.00     0.029 A 
ATOM      3  C   LIG d   1       8.594   2.041  -6.147  0.00  0.00     0.197 A 
ATOM      4  O   LIG d   1       8.768   2.079  -7.354  0.00  0.00    -0.287 OA
ATOM      5  C   LIG d   1       9.358   2.907  -5.235  0.00  0.00     0.105 A 
ATOM      6  C   LIG d   1      10.318   3.805  -5.719  0.00  0.00     0.135 A 
ATOM      7  C   LIG d   1      11.014   4.603  -4.830  0.00  0.00     0.023 A 
ATOM      8  C   LIG d   1      10.762   4.513  -3.466  0.00  0.00     0.131 A 
ATOM      9  C   LIG d   1       9.813   3.626  -2.979  0.00  0.00     0.024 A 
ATOM     10  C   LIG d   1       9.106   2.818  -3.855  0.00  0.00     0.146 A 
ATOM     11  O   LIG d   1       8.178   1.950  -3.398  0.00  0.00    -0.454 OA
ATOM     12  H   LIG d   1       7.058   0.508  -6.196  0.00  0.00     0.069 H 
ATOM     13  H   LIG d   1      11.756   5.296  -5.196  0.00  0.00     0.069 H 
ATOM     14  H   LIG d   1       9.626   3.565  -1.917  0.00  0.00     0.069 H 
ENDROOT
BRANCH   8  15
ATOM     15  O   LIG d   1      11.451   5.301  -2.601  0.00  0.00    -0.461 OA
BRANCH  15  16
ATOM     16  C   LIG d   1      10.874   6.568  -2.278  0.00  0.00     0.231 C 
ATOM     17  H   LIG d   1      10.243   6.901  -3.101  0.00  0.00     0.108 H 
ATOM     18  O   LIG d   1      11.914   7.523  -2.057  0.00  0.00    -0.331 OA
ATOM     19  C   LIG d   1      12.819   7.168  -1.010  0.00  0.00     0.114 C 
ATOM     20  C   LIG d   1      12.052   7.058   0.312  0.00  0.00     0.112 C 
ATOM     21  H   LIG d   1      13.285   6.209  -1.240  0.00  0.00     0.065 H 
ATOM     22  C   LIG d   1      10.933   6.023   0.158  0.00  0.00     0.115 C 
ATOM     23  H   LIG d   1      12.732   6.745   1.102  0.00  0.00     0.065 H 
ATOM     24  C   LIG d   1      10.029   6.433  -1.008  0.00  0.00     0.145 C 
ATOM     25  H   LIG d   1      10.348   5.980   1.076  0.00  0.00     0.065 H 
ATOM     26  H   LIG d   1       9.262   5.673  -1.160  0.00  0.00     0.068 H 
BRANCH  19  27
ATOM     27  C   LIG d   1      13.900   8.243  -0.883  0.00  0.00     0.073 C 
ATOM     28  H   LIG d   1      14.688   8.053  -1.613  0.00  0.00     0.058 H 
ATOM     29  H   LIG d   1      13.463   9.224  -1.068  0.00  0.00     0.058 H 
BRANCH  27  30
ATOM     30  O   LIG d   1      14.454   8.208   0.434  0.00  0.00    -0.392 OA
ATOM     31  H   LIG d   1      15.419   8.271   0.457  0.00  0.00     0.209 HD
ENDBRANCH  27  30
ENDBRANCH  19  27
BRANCH  20  32
ATOM     32  O   LIG d   1      11.486   8.327   0.642  0.00  0.00    -0.387 OA
ATOM     33  H   LIG d   1      10.657   8.519   0.183  0.00  0.00     0.210 HD
ENDBRANCH  20  32
BRANCH  22  34
ATOM     34  O   LIG d   1      11.503   4.739  -0.108  0.00  0.00    -0.386 OA
ATOM     35  H   LIG d   1      10.851   4.052  -0.303  0.00  0.00     0.210 HD
ENDBRANCH  22  34
BRANCH  24  36
ATOM     36  O   LIG d   1       9.408   7.686  -0.713  0.00  0.00    -0.383 OA
ATOM     37  H   LIG d   1      10.005   8.338  -0.320  0.00  0.00     0.210 HD
ENDBRANCH  24  36
ENDBRANCH  15  16
ENDBRANCH   8  15
BRANCH   6  38
ATOM     38  O   LIG d   1      10.563   3.891  -7.051  0.00  0.00    -0.506 OA
ATOM     39  H   LIG d   1      11.182   4.593  -7.293  0.00  0.00     0.292 HD
ENDBRANCH   6  38
BRANCH   1  40
ATOM     40  C   LIG d   1       6.481   0.233  -3.636  0.00  0.00     0.018 A 
ATOM     41  C   LIG d   1       5.562   0.701  -2.693  0.00  0.00    -0.048 A 
ATOM     42  C   LIG d   1       4.632  -0.160  -2.155  0.00  0.00    -0.019 A 
ATOM     43  H   LIG d   1       5.579   1.738  -2.389  0.00  0.00     0.063 H 
ATOM     44  C   LIG d   1       4.613  -1.495  -2.540  0.00  0.00     0.117 A 
ATOM     45  H   LIG d   1       3.919   0.202  -1.429  0.00  0.00     0.065 H 
ATOM     46  C   LIG d   1       5.530  -1.966  -3.474  0.00  0.00    -0.019 A 
ATOM     47  C   LIG d   1       6.459  -1.110  -4.022  0.00  0.00    -0.048 A 
ATOM     48  H   LIG d   1       5.511  -3.004  -3.771  0.00  0.00     0.065 H 
ATOM     49  H   LIG d   1       7.170  -1.476  -4.747  0.00  0.00     0.063 H 
BRANCH  44  50
ATOM     50  O   LIG d   1       3.698  -2.343  -2.003  0.00  0.00    -0.507 OA
ATOM     51  H   LIG d   1       3.518  -3.122  -2.546  0.00  0.00     0.292 HD
ENDBRANCH  44  50
ENDBRANCH   1  40
TORSDOF 10
ENDMDL
MODEL 5
REMARK VINA RESULT:      -6.7      6.947     13.613
REMARK  10 active torsions:
REMARK  status: ('A' for Active; 'I' for Inactive)
REMARK    1  A    between atoms: C_3  and  O_36 
REMARK    2  A    between atoms: C_6  and  C_7 
REMARK    3  A    between atoms: C_12  and  O_35 
REMARK    4  A    between atoms: C_14  and  O_18 
REMARK    5  A    between atoms: O_18  and  C_19 
REMARK    6  A    between atoms: C_21  and  O_34 
REMARK    7  A    between atoms: C_23  and  O_33 
REMARK    8  A    between atoms: C_25  and  O_32 
REMARK    9  A    between atoms: C_27  and  C_30 
REMARK   10  A    between atoms: C_30  and  O_31 
ROOT
ATOM      1  C   LIG d   1       4.655  -2.881  -5.237  0.00  0.00     0.139 A 
ATOM      2  C   LIG d   1       4.615  -2.484  -6.537  0.00  0.00     0.029 A 
ATOM      3  C   LIG d   1       4.569  -3.460  -7.562  0.00  0.00     0.197 A 
ATOM      4  O   LIG d   1       4.536  -3.140  -8.739  0.00  0.00    -0.287 OA
ATOM      5  C   LIG d   1       4.568  -4.874  -7.152  0.00  0.00     0.105 A 
ATOM      6  C   LIG d   1       4.524  -5.906  -8.099  0.00  0.00     0.135 A 
ATOM      7  C   LIG d   1       4.525  -7.221  -7.673  0.00  0.00     0.023 A 
ATOM      8  C   LIG d   1       4.569  -7.516  -6.315  0.00  0.00     0.131 A 
ATOM      9  C   LIG d   1       4.613  -6.499  -5.372  0.00  0.00     0.024 A 
ATOM     10  C   LIG d   1       4.612  -5.175  -5.780  0.00  0.00     0.146 A 
ATOM     11  O   LIG d   1       4.654  -4.173  -4.875  0.00  0.00    -0.454 OA
ATOM     12  H   LIG d   1       4.618  -1.434  -6.786  0.00  0.00     0.069 H 
ATOM     13  H   LIG d   1       4.491  -8.020  -8.397  0.00  0.00     0.069 H 
ATOM     14  H   LIG d   1       4.647  -6.741  -4.320  0.00  0.00     0.069 H 
ENDROOT
BRANCH   8  15
ATOM     15  O   LIG d   1       4.570  -8.811  -5.908  0.00  0.00    -0.461 OA
BRANCH  15  16
ATOM     16  C   LIG d   1       4.816  -9.055  -4.522  0.00  0.00     0.231 C 
ATOM     17  H   LIG d   1       4.511  -8.185  -3.940  0.00  0.00     0.108 H 
ATOM     18  O   LIG d   1       6.209  -9.300  -4.320  0.00  0.00    -0.331 OA
ATOM     19  C   LIG d   1       6.720 -10.409  -5.062  0.00  0.00     0.114 C 
ATOM     20  C   LIG d   1       5.994 -11.688  -4.631  0.00  0.00     0.112 C 
ATOM     21  H   LIG d   1       6.558 -10.241  -6.127  0.00  0.00     0.065 H 
ATOM     22  C   LIG d   1       4.488 -11.508  -4.849  0.00  0.00     0.115 C 
ATOM     23  H   LIG d   1       6.350 -12.527  -5.226  0.00  0.00     0.065 H 
ATOM     24  C   LIG d   1       4.013 -10.278  -4.070  0.00  0.00     0.145 C 
ATOM     25  H   LIG d   1       3.960 -12.392  -4.493  0.00  0.00     0.065 H 
ATOM     26  H   LIG d   1       2.954 -10.110  -4.263  0.00  0.00     0.068 H 
BRANCH  19  27
ATOM     27  C   LIG d   1       8.218 -10.558  -4.791  0.00  0.00     0.073 C 
ATOM     28  H   LIG d   1       8.515 -11.594  -4.959  0.00  0.00     0.058 H 
ATOM     29  H   LIG d   1       8.776  -9.907  -5.463  0.00  0.00     0.058 H 
BRANCH  27  30
ATOM     30  O   LIG d   1       8.496 -10.197  -3.437  0.00  0.00    -0.392 OA
ATOM     31  H   LIG d   1       8.198  -9.308  -3.198  0.00  0.00     0.209 HD
ENDBRANCH  27  30
ENDBRANCH  19  27
BRANCH  20  32
ATOM     32  O   LIG d   1       6.249 -11.939  -3.248  0.00  0.00    -0.387 OA
ATOM     33  H   LIG d   1       5.460 -11.898  -2.689  0.00  0.00     0.210 HD
ENDBRANCH  20  32
BRANCH  22  34
ATOM     34  O   LIG d   1       4.226 -11.321  -6.242  0.00  0.00    -0.386 OA
ATOM     35  H   LIG d   1       3.513 -10.695  -6.427  0.00  0.00     0.210 HD
ENDBRANCH  22  34
BRANCH  24  36
ATOM     36  O   LIG d   1       4.215 -10.491  -2.671  0.00  0.00    -0.383 OA
ATOM     37  H   LIG d   1       3.502 -10.985  -2.242  0.00  0.00     0.210 HD
ENDBRANCH  24  36
ENDBRANCH  15  16
ENDBRANCH   8  15
BRANCH   6  38
ATOM     38  O   LIG d   1       4.480  -5.615  -9.423  0.00  0.00    -0.506 OA
ATOM     39  H   LIG d   1       4.539  -4.671  -9.622  0.00  0.00     0.292 HD
ENDBRANCH   6  38
BRANCH   1  40
ATOM     40  C   LIG d   1       4.703  -1.849  -4.182  0.00  0.00     0.018 A 
ATOM     41  C   LIG d   1       5.246  -0.592  -4.457  0.00  0.00    -0.048 A 
ATOM     42  C   LIG d   1       5.283   0.370  -3.471  0.00  0.00    -0.019 A 
ATOM     43  H   LIG d   1       5.632  -0.372  -5.441  0.00  0.00     0.063 H 
ATOM     44  C   LIG d   1       4.792   0.087  -2.202  0.00  0.00     0.117 A 
ATOM     45  H   LIG d   1       5.698   1.344  -3.684  0.00  0.00     0.065 H 
ATOM     46  C   LIG d   1       4.257  -1.166  -1.923  0.00  0.00    -0.019 A 
ATOM     47  C   LIG d   1       4.210  -2.131  -2.904  0.00  0.00    -0.048 A 
ATOM     48  H   LIG d   1       3.876  -1.381  -0.936  0.00  0.00     0.065 H 
ATOM     49  H   LIG d   1       3.793  -3.103  -2.687  0.00  0.00     0.063 H 
BRANCH  44  50
ATOM     50  O   LIG d   1       4.836   1.036  -1.231  0.00  0.00    -0.507 OA
ATOM     51  H   LIG d   1       5.451   1.759  -1.417  0.00  0.00     0.292 HD
ENDBRANCH  44  50
ENDBRANCH   1  40
TORSDOF 10
ENDMDL
MODEL 6
REMARK VINA RESULT:      -6.6      3.129      8.856
REMARK  10 active torsions:
REMARK  status: ('A' for Active; 'I' for Inactive)
REMARK    1  A    between atoms: C_3  and  O_36 
REMARK    2  A    between atoms: C_6  and  C_7 
REMARK    3  A    between atoms: C_12  and  O_35 
REMARK    4  A    between atoms: C_14  and  O_18 
REMARK    5  A    between atoms: O_18  and  C_19 
REMARK    6  A    between atoms: C_21  and  O_34 
REMARK    7  A    between atoms: C_23  and  O_33 
REMARK    8  A    between atoms: C_25  and  O_32 
REMARK    9  A    between atoms: C_27  and  C_30 
REMARK   10  A    between atoms: C_30  and  O_31 
ROOT
ATOM      1  C   LIG d   1      10.241   7.969  -4.139  0.00  0.00     0.139 A 
ATOM      2  C   LIG d   1      10.879   8.074  -2.942  0.00  0.00     0.029 A 
ATOM      3  C   LIG d   1      11.116   6.908  -2.176  0.00  0.00     0.197 A 
ATOM      4  O   LIG d   1      11.682   6.965  -1.096  0.00  0.00    -0.287 OA
ATOM      5  C   LIG d   1      10.650   5.626  -2.729  0.00  0.00     0.105 A 
ATOM      6  C   LIG d   1      10.843   4.422  -2.038  0.00  0.00     0.135 A 
ATOM      7  C   LIG d   1      10.389   3.240  -2.591  0.00  0.00     0.023 A 
ATOM      8  C   LIG d   1       9.747   3.246  -3.824  0.00  0.00     0.131 A 
ATOM      9  C   LIG d   1       9.553   4.434  -4.514  0.00  0.00     0.024 A 
ATOM     10  C   LIG d   1      10.001   5.629  -3.975  0.00  0.00     0.146 A 
ATOM     11  O   LIG d   1       9.819   6.795  -4.633  0.00  0.00    -0.454 OA
ATOM     12  H   LIG d   1      11.201   9.038  -2.580  0.00  0.00     0.069 H 
ATOM     13  H   LIG d   1      10.535   2.309  -2.065  0.00  0.00     0.069 H 
ATOM     14  H   LIG d   1       9.052   4.426  -5.471  0.00  0.00     0.069 H 
ENDROOT
BRANCH   8  15
ATOM     15  O   LIG d   1       9.305   2.079  -4.358  0.00  0.00    -0.461 OA
BRANCH  15  16
ATOM     16  C   LIG d   1       8.127   2.139  -5.165  0.00  0.00     0.231 C 
ATOM     17  H   LIG d   1       8.086   3.101  -5.677  0.00  0.00     0.108 H 
ATOM     18  O   LIG d   1       6.973   1.990  -4.335  0.00  0.00    -0.331 OA
ATOM     19  C   LIG d   1       6.940   0.768  -3.596  0.00  0.00     0.114 C 
ATOM     20  C   LIG d   1       6.925  -0.416  -4.568  0.00  0.00     0.112 C 
ATOM     21  H   LIG d   1       7.824   0.704  -2.960  0.00  0.00     0.065 H 
ATOM     22  C   LIG d   1       8.157  -0.337  -5.475  0.00  0.00     0.115 C 
ATOM     23  H   LIG d   1       6.944  -1.348  -4.006  0.00  0.00     0.065 H 
ATOM     24  C   LIG d   1       8.160   1.012  -6.200  0.00  0.00     0.145 C 
ATOM     25  H   LIG d   1       8.123  -1.145  -6.206  0.00  0.00     0.065 H 
ATOM     26  H   LIG d   1       9.062   1.099  -6.805  0.00  0.00     0.068 H 
BRANCH  19  27
ATOM     27  C   LIG d   1       5.682   0.730  -2.727  0.00  0.00     0.073 C 
ATOM     28  H   LIG d   1       5.251  -0.271  -2.755  0.00  0.00     0.058 H 
ATOM     29  H   LIG d   1       5.941   0.985  -1.699  0.00  0.00     0.058 H 
BRANCH  27  30
ATOM     30  O   LIG d   1       4.730   1.672  -3.226  0.00  0.00    -0.392 OA
ATOM     31  H   LIG d   1       3.874   1.641  -2.777  0.00  0.00     0.209 HD
ENDBRANCH  27  30
ENDBRANCH  19  27
BRANCH  20  32
ATOM     32  O   LIG d   1       5.741  -0.363  -5.366  0.00  0.00    -0.387 OA
ATOM     33  H   LIG d   1       5.175  -1.143  -5.281  0.00  0.00     0.210 HD
ENDBRANCH  20  32
BRANCH  22  34
ATOM     34  O   LIG d   1       9.341  -0.456  -4.683  0.00  0.00    -0.386 OA
ATOM     35  H   LIG d   1       9.835  -1.274  -4.835  0.00  0.00     0.210 HD
ENDBRANCH  22  34
BRANCH  24  36
ATOM     36  O   LIG d   1       7.009   1.103  -7.042  0.00  0.00    -0.383 OA
ATOM     37  H   LIG d   1       6.168   1.040  -6.567  0.00  0.00     0.210 HD
ENDBRANCH  24  36
ENDBRANCH  15  16
ENDBRANCH   8  15
BRANCH   6  38
ATOM     38  O   LIG d   1      11.470   4.418  -0.835  0.00  0.00    -0.506 OA
ATOM     39  H   LIG d   1      11.943   5.238  -0.635  0.00  0.00     0.292 HD
ENDBRANCH   6  38
BRANCH   1  40
ATOM     40  C   LIG d   1      10.002   9.196  -4.925  0.00  0.00     0.018 A 
ATOM     41  C   LIG d   1      10.131   9.172  -6.316  0.00  0.00    -0.048 A 
ATOM     42  C   LIG d   1       9.901  10.318  -7.046  0.00  0.00    -0.019 A 
ATOM     43  H   LIG d   1      10.405   8.257  -6.819  0.00  0.00     0.063 H 
ATOM     44  C   LIG d   1       9.554  11.498  -6.399  0.00  0.00     0.117 A 
ATOM     45  H   LIG d   1       9.996  10.300  -8.122  0.00  0.00     0.065 H 
ATOM     46  C   LIG d   1       9.431  11.526  -5.015  0.00  0.00    -0.019 A 
ATOM     47  C   LIG d   1       9.652  10.385  -4.278  0.00  0.00    -0.048 A 
ATOM     48  H   LIG d   1       9.160  12.446  -4.517  0.00  0.00     0.065 H 
ATOM     49  H   LIG d   1       9.556  10.408  -3.203  0.00  0.00     0.063 H 
BRANCH  44  50
ATOM     50  O   LIG d   1       9.334  12.627  -7.122  0.00  0.00    -0.507 OA
ATOM     51  H   LIG d   1       8.432  12.708  -7.459  0.00  0.00     0.292 HD
ENDBRANCH  44  50
ENDBRANCH   1  40
TORSDOF 10
ENDMDL
MODEL 7
REMARK VINA RESULT:      -6.2      2.286      8.738
REMARK  10 active torsions:
REMARK  status: ('A' for Active; 'I' for Inactive)
REMARK    1  A    between atoms: C_3  and  O_36 
REMARK    2  A    between atoms: C_6  and  C_7 
REMARK    3  A    between atoms: C_12  and  O_35 
REMARK    4  A    between atoms: C_14  and  O_18 
REMARK    5  A    between atoms: O_18  and  C_19 
REMARK    6  A    between atoms: C_21  and  O_34 
REMARK    7  A    between atoms: C_23  and  O_33 
REMARK    8  A    between atoms: C_25  and  O_32 
REMARK    9  A    between atoms: C_27  and  C_30 
REMARK   10  A    between atoms: C_30  and  O_31 
ROOT
ATOM      1  C   LIG d   1      10.615   4.373  -2.773  0.00  0.00     0.139 A 
ATOM      2  C   LIG d   1      11.830   4.125  -3.333  0.00  0.00     0.029 A 
ATOM      3  C   LIG d   1      12.016   2.953  -4.104  0.00  0.00     0.197 A 
ATOM      4  O   LIG d   1      13.093   2.697  -4.617  0.00  0.00    -0.287 OA
ATOM      5  C   LIG d   1      10.862   2.052  -4.256  0.00  0.00     0.105 A 
ATOM      6  C   LIG d   1      10.955   0.869  -5.002  0.00  0.00     0.135 A 
ATOM      7  C   LIG d   1       9.848   0.050  -5.120  0.00  0.00     0.023 A 
ATOM      8  C   LIG d   1       8.652   0.399  -4.504  0.00  0.00     0.131 A 
ATOM      9  C   LIG d   1       8.552   1.568  -3.765  0.00  0.00     0.024 A 
ATOM     10  C   LIG d   1       9.650   2.402  -3.635  0.00  0.00     0.146 A 
ATOM     11  O   LIG d   1       9.570   3.544  -2.918  0.00  0.00    -0.454 OA
ATOM     12  H   LIG d   1      12.646   4.818  -3.191  0.00  0.00     0.069 H 
ATOM     13  H   LIG d   1       9.913  -0.862  -5.693  0.00  0.00     0.069 H 
ATOM     14  H   LIG d   1       7.617   1.828  -3.291  0.00  0.00     0.069 H 
ENDROOT
BRANCH   8  15
ATOM     15  O   LIG d   1       7.571  -0.414  -4.627  0.00  0.00    -0.461 OA
BRANCH  15  16
ATOM     16  C   LIG d   1       6.299   0.218  -4.789  0.00  0.00     0.231 C 
ATOM     17  H   LIG d   1       6.441   1.290  -4.931  0.00  0.00     0.108 H 
ATOM     18  O   LIG d   1       5.503  -0.008  -3.624  0.00  0.00    -0.331 OA
ATOM     19  C   LIG d   1       5.277  -1.387  -3.330  0.00  0.00     0.114 C 
ATOM     20  C   LIG d   1       4.526  -2.040  -4.494  0.00  0.00     0.112 C 
ATOM     21  H   LIG d   1       6.234  -1.891  -3.187  0.00  0.00     0.065 H 
ATOM     22  C   LIG d   1       5.341  -1.863  -5.779  0.00  0.00     0.115 C 
ATOM     23  H   LIG d   1       4.392  -3.101  -4.292  0.00  0.00     0.065 H 
ATOM     24  C   LIG d   1       5.590  -0.369  -6.012  0.00  0.00     0.145 C 
ATOM     25  H   LIG d   1       4.786  -2.276  -6.622  0.00  0.00     0.065 H 
ATOM     26  H   LIG d   1       6.216  -0.237  -6.894  0.00  0.00     0.068 H 
BRANCH  19  27
ATOM     27  C   LIG d   1       4.442  -1.508  -2.053  0.00  0.00     0.073 C 
ATOM     28  H   LIG d   1       5.102  -1.687  -1.204  0.00  0.00     0.058 H 
ATOM     29  H   LIG d   1       3.887  -0.584  -1.893  0.00  0.00     0.058 H 
BRANCH  27  30
ATOM     30  O   LIG d   1       3.528  -2.599  -2.184  0.00  0.00    -0.392 OA
ATOM     31  H   LIG d   1       3.200  -2.939  -1.340  0.00  0.00     0.209 HD
ENDBRANCH  27  30
ENDBRANCH  19  27
BRANCH  20  32
ATOM     32  O   LIG d   1       3.250  -1.418  -4.649  0.00  0.00    -0.387 OA
ATOM     33  H   LIG d   1       2.662  -1.533  -3.889  0.00  0.00     0.210 HD
ENDBRANCH  20  32
BRANCH  22  34
ATOM     34  O   LIG d   1       6.592  -2.542  -5.650  0.00  0.00    -0.386 OA
ATOM     35  H   LIG d   1       6.535  -3.498  -5.779  0.00  0.00     0.210 HD
ENDBRANCH  22  34
BRANCH  24  36
ATOM     36  O   LIG d   1       4.342   0.299  -6.207  0.00  0.00    -0.383 OA
ATOM     37  H   LIG d   1       4.015   0.759  -5.420  0.00  0.00     0.210 HD
ENDBRANCH  24  36
ENDBRANCH  15  16
ENDBRANCH   8  15
BRANCH   6  38
ATOM     38  O   LIG d   1      12.124   0.532  -5.602  0.00  0.00    -0.506 OA
ATOM     39  H   LIG d   1      12.856   0.388  -4.986  0.00  0.00     0.292 HD
ENDBRANCH   6  38
BRANCH   1  40
ATOM     40  C   LIG d   1      10.441   5.601  -1.973  0.00  0.00     0.018 A 
ATOM     41  C   LIG d   1      10.982   5.683  -0.688  0.00  0.00    -0.048 A 
ATOM     42  C   LIG d   1      10.822   6.832   0.053  0.00  0.00    -0.019 A 
ATOM     43  H   LIG d   1      11.530   4.847  -0.277  0.00  0.00     0.063 H 
ATOM     44  C   LIG d   1      10.112   7.906  -0.471  0.00  0.00     0.117 A 
ATOM     45  H   LIG d   1      11.244   6.898   1.045  0.00  0.00     0.065 H 
ATOM     46  C   LIG d   1       9.567   7.827  -1.748  0.00  0.00    -0.019 A 
ATOM     47  C   LIG d   1       9.728   6.683  -2.497  0.00  0.00    -0.048 A 
ATOM     48  H   LIG d   1       9.017   8.664  -2.152  0.00  0.00     0.065 H 
ATOM     49  H   LIG d   1       9.304   6.622  -3.489  0.00  0.00     0.063 H 
BRANCH  44  50
ATOM     50  O   LIG d   1       9.951   9.036   0.265  0.00  0.00    -0.507 OA
ATOM     51  H   LIG d   1      10.354   9.822  -0.128  0.00  0.00     0.292 HD
ENDBRANCH  44  50
ENDBRANCH   1  40
TORSDOF 10
ENDMDL
MODEL 8
REMARK VINA RESULT:      -6.2     14.889     18.618
REMARK  10 active torsions:
REMARK  status: ('A' for Active; 'I' for Inactive)
REMARK    1  A    between atoms: C_3  and  O_36 
REMARK    2  A    between atoms: C_6  and  C_7 
REMARK    3  A    between atoms: C_12  and  O_35 
REMARK    4  A    between atoms: C_14  and  O_18 
REMARK    5  A    between atoms: O_18  and  C_19 
REMARK    6  A    between atoms: C_21  and  O_34 
REMARK    7  A    between atoms: C_23  and  O_33 
REMARK    8  A    between atoms: C_25  and  O_32 
REMARK    9  A    between atoms: C_27  and  C_30 
REMARK   10  A    between atoms: C_30  and  O_31 
ROOT
ATOM      1  C   LIG d   1      -5.079  -0.384 -13.324  0.00  0.00     0.139 A 
ATOM      2  C   LIG d   1      -6.397  -0.627 -13.558  0.00  0.00     0.029 A 
ATOM      3  C   LIG d   1      -6.926  -1.913 -13.294  0.00  0.00     0.197 A 
ATOM      4  O   LIG d   1      -8.102  -2.167 -13.497  0.00  0.00    -0.287 OA
ATOM      5  C   LIG d   1      -6.001  -2.932 -12.772  0.00  0.00     0.105 A 
ATOM      6  C   LIG d   1      -6.438  -4.231 -12.483  0.00  0.00     0.135 A 
ATOM      7  C   LIG d   1      -5.538  -5.160 -11.995  0.00  0.00     0.023 A 
ATOM      8  C   LIG d   1      -4.209  -4.805 -11.792  0.00  0.00     0.131 A 
ATOM      9  C   LIG d   1      -3.769  -3.521 -12.076  0.00  0.00     0.024 A 
ATOM     10  C   LIG d   1      -4.657  -2.577 -12.566  0.00  0.00     0.146 A 
ATOM     11  O   LIG d   1      -4.245  -1.322 -12.849  0.00  0.00    -0.454 OA
ATOM     12  H   LIG d   1      -7.034   0.155 -13.943  0.00  0.00     0.069 H 
ATOM     13  H   LIG d   1      -5.869  -6.162 -11.769  0.00  0.00     0.069 H 
ATOM     14  H   LIG d   1      -2.734  -3.258 -11.915  0.00  0.00     0.069 H 
ENDROOT
BRANCH   8  15
ATOM     15  O   LIG d   1      -3.333  -5.726 -11.313  0.00  0.00    -0.461 OA
BRANCH  15  16
ATOM     16  C   LIG d   1      -2.702  -5.431 -10.065  0.00  0.00     0.231 C 
ATOM     17  H   LIG d   1      -3.418  -4.951  -9.399  0.00  0.00     0.108 H 
ATOM     18  O   LIG d   1      -1.594  -4.555 -10.287  0.00  0.00    -0.331 OA
ATOM     19  C   LIG d   1      -0.603  -5.080 -11.172  0.00  0.00     0.114 C 
ATOM     20  C   LIG d   1      -0.019  -6.366 -10.578  0.00  0.00     0.112 C 
ATOM     21  H   LIG d   1      -1.058  -5.300 -12.138  0.00  0.00     0.065 H 
ATOM     22  C   LIG d   1      -1.152  -7.369 -10.341  0.00  0.00     0.115 C 
ATOM     23  H   LIG d   1       0.705  -6.790 -11.272  0.00  0.00     0.065 H 
ATOM     24  C   LIG d   1      -2.203  -6.731  -9.427  0.00  0.00     0.145 C 
ATOM     25  H   LIG d   1      -0.752  -8.265  -9.867  0.00  0.00     0.065 H 
ATOM     26  H   LIG d   1      -3.040  -7.417  -9.298  0.00  0.00     0.068 H 
BRANCH  19  27
ATOM     27  C   LIG d   1       0.513  -4.050 -11.356  0.00  0.00     0.073 C 
ATOM     28  H   LIG d   1       1.461  -4.567 -11.511  0.00  0.00     0.058 H 
ATOM     29  H   LIG d   1       0.294  -3.426 -12.222  0.00  0.00     0.058 H 
BRANCH  27  30
ATOM     30  O   LIG d   1       0.604  -3.232 -10.188  0.00  0.00    -0.392 OA
ATOM     31  H   LIG d   1       1.429  -2.731 -10.122  0.00  0.00     0.209 HD
ENDBRANCH  27  30
ENDBRANCH  19  27
BRANCH  20  32
ATOM     32  O   LIG d   1       0.624  -6.070  -9.337  0.00  0.00    -0.387 OA
ATOM     33  H   LIG d   1       0.219  -5.339  -8.850  0.00  0.00     0.210 HD
ENDBRANCH  20  32
BRANCH  22  34
ATOM     34  O   LIG d   1      -1.753  -7.715 -11.591  0.00  0.00    -0.386 OA
ATOM     35  H   LIG d   1      -1.404  -8.527 -11.984  0.00  0.00     0.210 HD
ENDBRANCH  22  34
BRANCH  24  36
ATOM     36  O   LIG d   1      -1.619  -6.445  -8.155  0.00  0.00    -0.383 OA
ATOM     37  H   LIG d   1      -1.209  -7.211  -7.729  0.00  0.00     0.210 HD
ENDBRANCH  24  36
ENDBRANCH  15  16
ENDBRANCH   8  15
BRANCH   6  38
ATOM     38  O   LIG d   1      -7.736  -4.575 -12.681  0.00  0.00    -0.506 OA
ATOM     39  H   LIG d   1      -8.368  -4.014 -12.211  0.00  0.00     0.292 HD
ENDBRANCH   6  38
BRANCH   1  40
ATOM     40  C   LIG d   1      -4.545   0.963 -13.605  0.00  0.00     0.018 A 
ATOM     41  C   LIG d   1      -3.166   1.188 -13.588  0.00  0.00    -0.048 A 
ATOM     42  C   LIG d   1      -2.672   2.445 -13.856  0.00  0.00    -0.019 A 
ATOM     43  H   LIG d   1      -2.488   0.376 -13.368  0.00  0.00     0.063 H 
ATOM     44  C   LIG d   1      -3.543   3.492 -14.133  0.00  0.00     0.117 A 
ATOM     45  H   LIG d   1      -1.606   2.618 -13.847  0.00  0.00     0.065 H 
ATOM     46  C   LIG d   1      -4.916   3.273 -14.146  0.00  0.00    -0.019 A 
ATOM     47  C   LIG d   1      -5.418   2.018 -13.885  0.00  0.00    -0.048 A 
ATOM     48  H   LIG d   1      -5.589   4.089 -14.363  0.00  0.00     0.065 H 
ATOM     49  H   LIG d   1      -6.485   1.849 -13.895  0.00  0.00     0.063 H 
BRANCH  44  50
ATOM     50  O   LIG d   1      -3.052   4.731 -14.391  0.00  0.00    -0.507 OA
ATOM     51  H   LIG d   1      -3.727   5.424 -14.415  0.00  0.00     0.292 HD
ENDBRANCH  44  50
ENDBRANCH   1  40
TORSDOF 10
ENDMDL
MODEL 9
REMARK VINA RESULT:      -6.0      3.659      9.184
REMARK  10 active torsions:
REMARK  status: ('A' for Active; 'I' for Inactive)
REMARK    1  A    between atoms: C_3  and  O_36 
REMARK    2  A    between atoms: C_6  and  C_7 
REMARK    3  A    between atoms: C_12  and  O_35 
REMARK    4  A    between atoms: C_14  and  O_18 
REMARK    5  A    between atoms: O_18  and  C_19 
REMARK    6  A    between atoms: C_21  and  O_34 
REMARK    7  A    between atoms: C_23  and  O_33 
REMARK    8  A    between atoms: C_25  and  O_32 
REMARK    9  A    between atoms: C_27  and  C_30 
REMARK   10  A    between atoms: C_30  and  O_31 
ROOT
ATOM      1  C   LIG d   1       9.896  10.116  -3.954  0.00  0.00     0.139 A 
ATOM      2  C   LIG d   1      10.017  10.556  -2.672  0.00  0.00     0.029 A 
ATOM      3  C   LIG d   1      10.131   9.616  -1.620  0.00  0.00     0.197 A 
ATOM      4  O   LIG d   1      10.236   9.975  -0.459  0.00  0.00    -0.287 OA
ATOM      5  C   LIG d   1      10.113   8.189  -1.982  0.00  0.00     0.105 A 
ATOM      6  C   LIG d   1      10.221   7.190  -1.006  0.00  0.00     0.135 A 
ATOM      7  C   LIG d   1      10.199   5.861  -1.387  0.00  0.00     0.023 A 
ATOM      8  C   LIG d   1      10.071   5.521  -2.729  0.00  0.00     0.131 A 
ATOM      9  C   LIG d   1       9.963   6.505  -3.700  0.00  0.00     0.024 A 
ATOM     10  C   LIG d   1       9.984   7.842  -3.338  0.00  0.00     0.146 A 
ATOM     11  O   LIG d   1       9.880   8.813  -4.271  0.00  0.00    -0.454 OA
ATOM     12  H   LIG d   1      10.024  11.615  -2.459  0.00  0.00     0.069 H 
ATOM     13  H   LIG d   1      10.282   5.086  -0.640  0.00  0.00     0.069 H 
ATOM     14  H   LIG d   1       9.864   6.228  -4.739  0.00  0.00     0.069 H 
ENDROOT
BRANCH   8  15
ATOM     15  O   LIG d   1      10.050   4.212  -3.092  0.00  0.00    -0.461 OA
BRANCH  15  16
ATOM     16  C   LIG d   1       9.731   3.922  -4.454  0.00  0.00     0.231 C 
ATOM     17  H   LIG d   1       9.526   4.852  -4.986  0.00  0.00     0.108 H 
ATOM     18  O   LIG d   1       8.578   3.079  -4.505  0.00  0.00    -0.331 OA
ATOM     19  C   LIG d   1       8.731   1.839  -3.812  0.00  0.00     0.114 C 
ATOM     20  C   LIG d   1       9.874   1.039  -4.445  0.00  0.00     0.112 C 
ATOM     21  H   LIG d   1       8.961   2.033  -2.764  0.00  0.00     0.065 H 
ATOM     22  C   LIG d   1      11.158   1.875  -4.398  0.00  0.00     0.115 C 
ATOM     23  H   LIG d   1      10.021   0.114  -3.892  0.00  0.00     0.065 H 
ATOM     24  C   LIG d   1      10.914   3.207  -5.113  0.00  0.00     0.145 C 
ATOM     25  H   LIG d   1      11.962   1.334  -4.897  0.00  0.00     0.065 H 
ATOM     26  H   LIG d   1      11.805   3.831  -5.036  0.00  0.00     0.068 H 
BRANCH  19  27
ATOM     27  C   LIG d   1       7.433   1.036  -3.909  0.00  0.00     0.073 C 
ATOM     28  H   LIG d   1       6.717   1.415  -3.180  0.00  0.00     0.058 H 
ATOM     29  H   LIG d   1       7.017   1.135  -4.912  0.00  0.00     0.058 H 
BRANCH  27  30
ATOM     30  O   LIG d   1       7.703  -0.341  -3.639  0.00  0.00    -0.392 OA
ATOM     31  H   LIG d   1       8.044  -0.508  -2.750  0.00  0.00     0.209 HD
ENDBRANCH  27  30
ENDBRANCH  19  27
BRANCH  20  32
ATOM     32  O   LIG d   1       9.551   0.738  -5.804  0.00  0.00    -0.387 OA
ATOM     33  H   LIG d   1       9.078  -0.098  -5.919  0.00  0.00     0.210 HD
ENDBRANCH  20  32
BRANCH  22  34
ATOM     34  O   LIG d   1      11.518   2.121  -3.037  0.00  0.00    -0.386 OA
ATOM     35  H   LIG d   1      12.440   1.916  -2.831  0.00  0.00     0.210 HD
ENDBRANCH  22  34
BRANCH  24  36
ATOM     36  O   LIG d   1      10.619   2.964  -6.490  0.00  0.00    -0.383 OA
ATOM     37  H   LIG d   1      11.403   2.867  -7.049  0.00  0.00     0.210 HD
ENDBRANCH  24  36
ENDBRANCH  15  16
ENDBRANCH   8  15
BRANCH   6  38
ATOM     38  O   LIG d   1      10.346   7.524   0.303  0.00  0.00    -0.506 OA
ATOM     39  H   LIG d   1      10.186   8.460   0.487  0.00  0.00     0.292 HD
ENDBRANCH   6  38
BRANCH   1  40
ATOM     40  C   LIG d   1       9.778  11.112  -5.037  0.00  0.00     0.018 A 
ATOM     41  C   LIG d   1       9.498  12.447  -4.734  0.00  0.00    -0.048 A 
ATOM     42  C   LIG d   1       9.393  13.373  -5.747  0.00  0.00    -0.019 A 
ATOM     43  H   LIG d   1       9.367  12.752  -3.706  0.00  0.00     0.063 H 
ATOM     44  C   LIG d   1       9.556  12.980  -7.071  0.00  0.00     0.117 A 
ATOM     45  H   LIG d   1       9.181  14.406  -5.514  0.00  0.00     0.065 H 
ATOM     46  C   LIG d   1       9.829  11.652  -7.376  0.00  0.00    -0.019 A 
ATOM     47  C   LIG d   1       9.941  10.720  -6.369  0.00  0.00    -0.048 A 
ATOM     48  H   LIG d   1       9.955  11.351  -8.406  0.00  0.00     0.065 H 
ATOM     49  H   LIG d   1      10.153   9.688  -6.607  0.00  0.00     0.063 H 
BRANCH  44  50
ATOM     50  O   LIG d   1       9.446  13.896  -8.067  0.00  0.00    -0.507 OA
ATOM     51  H   LIG d   1       8.547  13.998  -8.410  0.00  0.00     0.292 HD
ENDBRANCH  44  50
ENDBRANCH   1  40
TORSDOF 10
ENDMDL
