MODEL 1
REMARK VINA RESULT:      -5.8      0.000      0.000
REMARK  3 active torsions:
REMARK  status: ('A' for Active; 'I' for Inactive)
REMARK    1  A    between atoms: C_1  and  C_2 
REMARK    2  A    between atoms: C_2  and  C_3 
REMARK    3  A    between atoms: C_3  and  C_11 
ROOT
ATOM      1  C   LIG d   1       5.399  -2.162  -4.860  0.00  0.00     0.072 C 
ATOM      2  C   LIG d   1       4.910  -3.517  -4.333  0.00  0.00    -0.027 C 
ATOM      3  C   LIG d   1       5.030  -4.550  -5.458  0.00  0.00     0.026 C 
ATOM      4  C   LIG d   1       4.271  -4.060  -6.662  0.00  0.00     0.219 C 
ATOM      5  O   LIG d   1       3.786  -4.866  -7.428  0.00  0.00    -0.275 OA
ATOM      6  N   LIG d   1       4.119  -2.751  -6.905  0.00  0.00    -0.256 N 
ATOM      7  C   LIG d   1       4.623  -1.804  -6.099  0.00  0.00     0.230 C 
ATOM      8  O   LIG d   1       4.447  -0.636  -6.372  0.00  0.00    -0.274 OA
ATOM      9  H   LIG d   1       3.869  -3.435  -4.022  0.00  0.00     0.028 H 
ATOM     10  H   LIG d   1       5.522  -3.826  -3.485  0.00  0.00     0.028 H 
ATOM     11  H   LIG d   1       4.614  -5.501  -5.126  0.00  0.00     0.036 H 
ATOM     12  H   LIG d   1       6.080  -4.683  -5.719  0.00  0.00     0.036 H 
ATOM     13  H   LIG d   1       3.629  -2.477  -7.697  0.00  0.00     0.158 HD
ENDROOT
BRANCH   1  14
ATOM     14  C   LIG d   1       6.888  -2.254  -5.201  0.00  0.00    -0.038 C 
ATOM     15  H   LIG d   1       7.026  -2.923  -6.050  0.00  0.00     0.028 H 
ATOM     16  H   LIG d   1       7.263  -1.263  -5.456  0.00  0.00     0.028 H 
BRANCH  14  17
ATOM     17  C   LIG d   1       7.655  -2.796  -3.993  0.00  0.00    -0.064 C 
ATOM     18  H   LIG d   1       8.069  -3.774  -4.235  0.00  0.00     0.023 H 
ATOM     19  H   LIG d   1       8.465  -2.111  -3.741  0.00  0.00     0.023 H 
ATOM     20  H   LIG d   1       6.978  -2.886  -3.144  0.00  0.00     0.023 H 
ENDBRANCH  14  17
ENDBRANCH   1  14
BRANCH   1  21
ATOM     21  C   LIG d   1       5.187  -1.107  -3.806  0.00  0.00    -0.032 A 
ATOM     22  C   LIG d   1       4.314  -1.340  -2.760  0.00  0.00    -0.058 A 
ATOM     23  C   LIG d   1       4.119  -0.371  -1.794  0.00  0.00    -0.061 A 
ATOM     24  H   LIG d   1       3.785  -2.279  -2.698  0.00  0.00     0.062 H 
ATOM     25  C   LIG d   1       4.797   0.830  -1.873  0.00  0.00    -0.062 A 
ATOM     26  H   LIG d   1       3.437  -0.553  -0.976  0.00  0.00     0.062 H 
ATOM     27  C   LIG d   1       5.670   1.064  -2.919  0.00  0.00    -0.061 A 
ATOM     28  H   LIG d   1       4.645   1.587  -1.117  0.00  0.00     0.062 H 
ATOM     29  C   LIG d   1       5.869   0.094  -3.883  0.00  0.00    -0.058 A 
ATOM     30  H   LIG d   1       6.200   2.003  -2.981  0.00  0.00     0.062 H 
ATOM     31  H   LIG d   1       6.553   0.275  -4.699  0.00  0.00     0.062 H 
ENDBRANCH   1  21
TORSDOF 3
ENDMDL
MODEL 2
REMARK VINA RESULT:      -5.7      1.907      2.364
REMARK  3 active torsions:
REMARK  status: ('A' for Active; 'I' for Inactive)
REMARK    1  A    between atoms: C_1  and  C_2 
REMARK    2  A    between atoms: C_2  and  C_3 
REMARK    3  A    between atoms: C_3  and  C_11 
ROOT
ATOM      1  C   LIG d   1       4.562  -0.880  -5.922  0.00  0.00     0.072 C 
ATOM      2  C   LIG d   1       4.517  -2.320  -6.446  0.00  0.00    -0.027 C 
ATOM      3  C   LIG d   1       4.432  -2.280  -7.975  0.00  0.00     0.026 C 
ATOM      4  C   LIG d   1       3.242  -1.451  -8.383  0.00  0.00     0.219 C 
ATOM      5  O   LIG d   1       2.677  -1.695  -9.427  0.00  0.00    -0.275 OA
ATOM      6  N   LIG d   1       2.796  -0.448  -7.613  0.00  0.00    -0.256 N 
ATOM      7  C   LIG d   1       3.369  -0.125  -6.443  0.00  0.00     0.230 C 
ATOM      8  O   LIG d   1       2.915   0.790  -5.792  0.00  0.00    -0.274 OA
ATOM      9  H   LIG d   1       3.641  -2.829  -6.044  0.00  0.00     0.028 H 
ATOM     10  H   LIG d   1       5.420  -2.852  -6.144  0.00  0.00     0.028 H 
ATOM     11  H   LIG d   1       4.319  -3.293  -8.361  0.00  0.00     0.036 H 
ATOM     12  H   LIG d   1       5.341  -1.835  -8.379  0.00  0.00     0.036 H 
ATOM     13  H   LIG d   1       2.031   0.067  -7.916  0.00  0.00     0.158 HD
ENDROOT
BRANCH   1  14
ATOM     14  C   LIG d   1       5.845  -0.201  -6.405  0.00  0.00    -0.038 C 
ATOM     15  H   LIG d   1       5.787  -0.038  -7.481  0.00  0.00     0.028 H 
ATOM     16  H   LIG d   1       5.961   0.758  -5.899  0.00  0.00     0.028 H 
BRANCH  14  17
ATOM     17  C   LIG d   1       7.046  -1.094  -6.088  0.00  0.00    -0.064 C 
ATOM     18  H   LIG d   1       7.851  -0.883  -6.792  0.00  0.00     0.023 H 
ATOM     19  H   LIG d   1       7.390  -0.894  -5.073  0.00  0.00     0.023 H 
ATOM     20  H   LIG d   1       6.753  -2.140  -6.173  0.00  0.00     0.023 H 
ENDBRANCH  14  17
ENDBRANCH   1  14
BRANCH   1  21
ATOM     21  C   LIG d   1       4.535  -0.892  -4.416  0.00  0.00    -0.032 A 
ATOM     22  C   LIG d   1       4.002  -1.976  -3.743  0.00  0.00    -0.058 A 
ATOM     23  C   LIG d   1       3.976  -1.987  -2.361  0.00  0.00    -0.061 A 
ATOM     24  H   LIG d   1       3.605  -2.813  -4.297  0.00  0.00     0.062 H 
ATOM     25  C   LIG d   1       4.484  -0.915  -1.652  0.00  0.00    -0.062 A 
ATOM     26  H   LIG d   1       3.559  -2.833  -1.835  0.00  0.00     0.062 H 
ATOM     27  C   LIG d   1       5.018   0.169  -2.324  0.00  0.00    -0.061 A 
ATOM     28  H   LIG d   1       4.465  -0.924  -0.571  0.00  0.00     0.062 H 
ATOM     29  C   LIG d   1       5.048   0.178  -3.706  0.00  0.00    -0.058 A 
ATOM     30  H   LIG d   1       5.415   1.006  -1.770  0.00  0.00     0.062 H 
ATOM     31  H   LIG d   1       5.468   1.023  -4.231  0.00  0.00     0.062 H 
ENDBRANCH   1  21
TORSDOF 3
ENDMDL
MODEL 3
REMARK VINA RESULT:      -5.3      2.342      4.744
REMARK  3 active torsions:
REMARK  status: ('A' for Active; 'I' for Inactive)
REMARK    1  A    between atoms: C_1  and  C_2 
REMARK    2  A    between atoms: C_2  and  C_3 
REMARK    3  A    between atoms: C_3  and  C_11 
ROOT
ATOM      1  C   LIG d   1       5.574  -0.638  -3.327  0.00  0.00     0.072 C 
ATOM      2  C   LIG d   1       5.930   0.771  -2.840  0.00  0.00    -0.027 C 
ATOM      3  C   LIG d   1       4.639   1.487  -2.430  0.00  0.00     0.026 C 
ATOM      4  C   LIG d   1       3.676   1.472  -3.587  0.00  0.00     0.219 C 
ATOM      5  O   LIG d   1       2.871   2.372  -3.702  0.00  0.00    -0.275 OA
ATOM      6  N   LIG d   1       3.692   0.485  -4.494  0.00  0.00    -0.256 N 
ATOM      7  C   LIG d   1       4.557  -0.538  -4.433  0.00  0.00     0.230 C 
ATOM      8  O   LIG d   1       4.522  -1.398  -5.287  0.00  0.00    -0.274 OA
ATOM      9  H   LIG d   1       6.414   1.325  -3.645  0.00  0.00     0.028 H 
ATOM     10  H   LIG d   1       6.601   0.707  -1.984  0.00  0.00     0.028 H 
ATOM     11  H   LIG d   1       4.863   2.517  -2.156  0.00  0.00     0.036 H 
ATOM     12  H   LIG d   1       4.192   0.972  -1.579  0.00  0.00     0.036 H 
ATOM     13  H   LIG d   1       3.049   0.509  -5.221  0.00  0.00     0.158 HD
ENDROOT
BRANCH   1  14
ATOM     14  C   LIG d   1       4.986  -1.446  -2.167  0.00  0.00    -0.038 C 
ATOM     15  H   LIG d   1       5.689  -2.226  -1.875  0.00  0.00     0.028 H 
ATOM     16  H   LIG d   1       4.805  -0.784  -1.320  0.00  0.00     0.028 H 
BRANCH  14  17
ATOM     17  C   LIG d   1       3.667  -2.084  -2.607  0.00  0.00    -0.064 C 
ATOM     18  H   LIG d   1       3.822  -3.147  -2.792  0.00  0.00     0.023 H 
ATOM     19  H   LIG d   1       2.922  -1.957  -1.821  0.00  0.00     0.023 H 
ATOM     20  H   LIG d   1       3.318  -1.603  -3.520  0.00  0.00     0.023 H 
ENDBRANCH  14  17
ENDBRANCH   1  14
BRANCH   1  21
ATOM     21  C   LIG d   1       6.814  -1.322  -3.840  0.00  0.00    -0.032 A 
ATOM     22  C   LIG d   1       7.669  -0.652  -4.695  0.00  0.00    -0.058 A 
ATOM     23  C   LIG d   1       8.807  -1.279  -5.166  0.00  0.00    -0.061 A 
ATOM     24  H   LIG d   1       7.447   0.361  -4.995  0.00  0.00     0.062 H 
ATOM     25  C   LIG d   1       9.091  -2.576  -4.781  0.00  0.00    -0.062 A 
ATOM     26  H   LIG d   1       9.475  -0.756  -5.834  0.00  0.00     0.062 H 
ATOM     27  C   LIG d   1       8.236  -3.247  -3.926  0.00  0.00    -0.061 A 
ATOM     28  H   LIG d   1       9.981  -3.066  -5.149  0.00  0.00     0.062 H 
ATOM     29  C   LIG d   1       7.100  -2.618  -3.451  0.00  0.00    -0.058 A 
ATOM     30  H   LIG d   1       8.458  -4.260  -3.626  0.00  0.00     0.062 H 
ATOM     31  H   LIG d   1       6.435  -3.140  -2.781  0.00  0.00     0.062 H 
ENDBRANCH   1  21
TORSDOF 3
ENDMDL
MODEL 4
REMARK VINA RESULT:      -5.3      2.298      4.862
REMARK  3 active torsions:
REMARK  status: ('A' for Active; 'I' for Inactive)
REMARK    1  A    between atoms: C_1  and  C_2 
REMARK    2  A    between atoms: C_2  and  C_3 
REMARK    3  A    between atoms: C_3  and  C_11 
ROOT
ATOM      1  C   LIG d   1       5.495  -1.664  -3.875  0.00  0.00     0.072 C 
ATOM      2  C   LIG d   1       5.663  -0.210  -4.333  0.00  0.00    -0.027 C 
ATOM      3  C   LIG d   1       5.992   0.651  -3.109  0.00  0.00     0.026 C 
ATOM      4  C   LIG d   1       4.918   0.465  -2.070  0.00  0.00     0.219 C 
ATOM      5  O   LIG d   1       4.668   1.372  -1.305  0.00  0.00    -0.275 OA
ATOM      6  N   LIG d   1       4.232  -0.683  -1.976  0.00  0.00    -0.256 N 
ATOM      7  C   LIG d   1       4.451  -1.725  -2.792  0.00  0.00     0.230 C 
ATOM      8  O   LIG d   1       3.794  -2.734  -2.657  0.00  0.00    -0.274 OA
ATOM      9  H   LIG d   1       4.736   0.140  -4.788  0.00  0.00     0.028 H 
ATOM     10  H   LIG d   1       6.475  -0.143  -5.057  0.00  0.00     0.028 H 
ATOM     11  H   LIG d   1       6.037   1.700  -3.403  0.00  0.00     0.036 H 
ATOM     12  H   LIG d   1       6.953   0.346  -2.697  0.00  0.00     0.036 H 
ATOM     13  H   LIG d   1       3.553  -0.765  -1.287  0.00  0.00     0.158 HD
ENDROOT
BRANCH   1  14
ATOM     14  C   LIG d   1       6.826  -2.185  -3.329  0.00  0.00    -0.038 C 
ATOM     15  H   LIG d   1       7.109  -1.607  -2.450  0.00  0.00     0.028 H 
ATOM     16  H   LIG d   1       6.720  -3.234  -3.055  0.00  0.00     0.028 H 
BRANCH  14  17
ATOM     17  C   LIG d   1       7.907  -2.044  -4.402  0.00  0.00    -0.064 C 
ATOM     18  H   LIG d   1       8.751  -2.687  -4.154  0.00  0.00     0.023 H 
ATOM     19  H   LIG d   1       7.499  -2.339  -5.370  0.00  0.00     0.023 H 
ATOM     20  H   LIG d   1       8.240  -1.008  -4.449  0.00  0.00     0.023 H 
ENDBRANCH  14  17
ENDBRANCH   1  14
BRANCH   1  21
ATOM     21  C   LIG d   1       5.062  -2.512  -5.043  0.00  0.00    -0.032 A 
ATOM     22  C   LIG d   1       5.039  -3.889  -4.926  0.00  0.00    -0.058 A 
ATOM     23  C   LIG d   1       4.643  -4.667  -5.997  0.00  0.00    -0.061 A 
ATOM     24  H   LIG d   1       5.331  -4.356  -3.997  0.00  0.00     0.062 H 
ATOM     25  C   LIG d   1       4.269  -4.068  -7.185  0.00  0.00    -0.062 A 
ATOM     26  H   LIG d   1       4.625  -5.743  -5.906  0.00  0.00     0.062 H 
ATOM     27  C   LIG d   1       4.292  -2.691  -7.303  0.00  0.00    -0.061 A 
ATOM     28  H   LIG d   1       3.959  -4.677  -8.023  0.00  0.00     0.062 H 
ATOM     29  C   LIG d   1       4.684  -1.912  -6.230  0.00  0.00    -0.058 A 
ATOM     30  H   LIG d   1       3.999  -2.223  -8.232  0.00  0.00     0.062 H 
ATOM     31  H   LIG d   1       4.698  -0.837  -6.321  0.00  0.00     0.062 H 
ENDBRANCH   1  21
TORSDOF 3
ENDMDL
MODEL 5
REMARK VINA RESULT:      -5.3      3.305      4.125
REMARK  3 active torsions:
REMARK  status: ('A' for Active; 'I' for Inactive)
REMARK    1  A    between atoms: C_1  and  C_2 
REMARK    2  A    between atoms: C_2  and  C_3 
REMARK    3  A    between atoms: C_3  and  C_11 
ROOT
ATOM      1  C   LIG d   1       6.490  -0.342  -4.607  0.00  0.00     0.072 C 
ATOM      2  C   LIG d   1       6.293  -0.346  -6.127  0.00  0.00    -0.027 C 
ATOM      3  C   LIG d   1       7.608   0.078  -6.790  0.00  0.00     0.026 C 
ATOM      4  C   LIG d   1       8.032   1.414  -6.239  0.00  0.00     0.219 C 
ATOM      5  O   LIG d   1       8.685   2.164  -6.933  0.00  0.00    -0.275 OA
ATOM      6  N   LIG d   1       7.702   1.790  -4.995  0.00  0.00    -0.256 N 
ATOM      7  C   LIG d   1       6.978   1.014  -4.174  0.00  0.00     0.230 C 
ATOM      8  O   LIG d   1       6.710   1.415  -3.062  0.00  0.00    -0.274 OA
ATOM      9  H   LIG d   1       5.505   0.358  -6.397  0.00  0.00     0.028 H 
ATOM     10  H   LIG d   1       6.021  -1.347  -6.462  0.00  0.00     0.028 H 
ATOM     11  H   LIG d   1       7.465   0.158  -7.868  0.00  0.00     0.036 H 
ATOM     12  H   LIG d   1       8.378  -0.664  -6.579  0.00  0.00     0.036 H 
ATOM     13  H   LIG d   1       8.002   2.656  -4.675  0.00  0.00     0.158 HD
ENDROOT
BRANCH   1  14
ATOM     14  C   LIG d   1       7.525  -1.402  -4.223  0.00  0.00    -0.038 C 
ATOM     15  H   LIG d   1       8.511  -1.086  -4.563  0.00  0.00     0.028 H 
ATOM     16  H   LIG d   1       7.535  -1.523  -3.140  0.00  0.00     0.028 H 
BRANCH  14  17
ATOM     17  C   LIG d   1       7.159  -2.733  -4.882  0.00  0.00    -0.064 C 
ATOM     18  H   LIG d   1       6.492  -3.292  -4.226  0.00  0.00     0.023 H 
ATOM     19  H   LIG d   1       6.659  -2.543  -5.832  0.00  0.00     0.023 H 
ATOM     20  H   LIG d   1       8.065  -3.312  -5.058  0.00  0.00     0.023 H 
ENDBRANCH  14  17
ENDBRANCH   1  14
BRANCH   1  21
ATOM     21  C   LIG d   1       5.179  -0.648  -3.930  0.00  0.00    -0.032 A 
ATOM     22  C   LIG d   1       5.155  -1.440  -2.798  0.00  0.00    -0.058 A 
ATOM     23  C   LIG d   1       3.953  -1.722  -2.177  0.00  0.00    -0.061 A 
ATOM     24  H   LIG d   1       6.076  -1.840  -2.399  0.00  0.00     0.062 H 
ATOM     25  C   LIG d   1       2.775  -1.210  -2.687  0.00  0.00    -0.062 A 
ATOM     26  H   LIG d   1       3.934  -2.341  -1.292  0.00  0.00     0.062 H 
ATOM     27  C   LIG d   1       2.798  -0.417  -3.819  0.00  0.00    -0.061 A 
ATOM     28  H   LIG d   1       1.835  -1.430  -2.201  0.00  0.00     0.062 H 
ATOM     29  C   LIG d   1       4.001  -0.132  -4.438  0.00  0.00    -0.058 A 
ATOM     30  H   LIG d   1       1.878  -0.017  -4.218  0.00  0.00     0.062 H 
ATOM     31  H   LIG d   1       4.020   0.490  -5.320  0.00  0.00     0.062 H 
ENDBRANCH   1  21
TORSDOF 3
ENDMDL
MODEL 6
REMARK VINA RESULT:      -5.2      2.723      3.969
REMARK  3 active torsions:
REMARK  status: ('A' for Active; 'I' for Inactive)
REMARK    1  A    between atoms: C_1  and  C_2 
REMARK    2  A    between atoms: C_2  and  C_3 
REMARK    3  A    between atoms: C_3  and  C_11 
ROOT
ATOM      1  C   LIG d   1       4.732  -0.811  -6.673  0.00  0.00     0.072 C 
ATOM      2  C   LIG d   1       3.573  -0.288  -7.528  0.00  0.00    -0.027 C 
ATOM      3  C   LIG d   1       4.113   0.065  -8.918  0.00  0.00     0.026 C 
ATOM      4  C   LIG d   1       5.248   1.044  -8.773  0.00  0.00     0.219 C 
ATOM      5  O   LIG d   1       5.466   1.837  -9.664  0.00  0.00    -0.275 OA
ATOM      6  N   LIG d   1       6.022   1.056  -7.679  0.00  0.00    -0.256 N 
ATOM      7  C   LIG d   1       5.835   0.212  -6.652  0.00  0.00     0.230 C 
ATOM      8  O   LIG d   1       6.568   0.278  -5.689  0.00  0.00    -0.274 OA
ATOM      9  H   LIG d   1       3.148   0.603  -7.065  0.00  0.00     0.028 H 
ATOM     10  H   LIG d   1       2.804  -1.055  -7.619  0.00  0.00     0.028 H 
ATOM     11  H   LIG d   1       3.320   0.514  -9.516  0.00  0.00     0.036 H 
ATOM     12  H   LIG d   1       4.473  -0.839  -9.409  0.00  0.00     0.036 H 
ATOM     13  H   LIG d   1       6.748   1.698  -7.628  0.00  0.00     0.158 HD
ENDROOT
BRANCH   1  14
ATOM     14  C   LIG d   1       5.260  -2.117  -7.272  0.00  0.00    -0.038 C 
ATOM     15  H   LIG d   1       5.891  -1.893  -8.132  0.00  0.00     0.028 H 
ATOM     16  H   LIG d   1       5.845  -2.650  -6.521  0.00  0.00     0.028 H 
BRANCH  14  17
ATOM     17  C   LIG d   1       4.083  -2.987  -7.714  0.00  0.00    -0.064 C 
ATOM     18  H   LIG d   1       3.183  -2.375  -7.783  0.00  0.00     0.023 H 
ATOM     19  H   LIG d   1       4.300  -3.423  -8.690  0.00  0.00     0.023 H 
ATOM     20  H   LIG d   1       3.926  -3.784  -6.988  0.00  0.00     0.023 H 
ENDBRANCH  14  17
ENDBRANCH   1  14
BRANCH   1  21
ATOM     21  C   LIG d   1       4.247  -1.061  -5.268  0.00  0.00    -0.032 A 
ATOM     22  C   LIG d   1       3.282  -0.241  -4.715  0.00  0.00    -0.058 A 
ATOM     23  C   LIG d   1       2.838  -0.469  -3.426  0.00  0.00    -0.061 A 
ATOM     24  H   LIG d   1       2.876   0.578  -5.289  0.00  0.00     0.062 H 
ATOM     25  C   LIG d   1       3.358  -1.518  -2.691  0.00  0.00    -0.062 A 
ATOM     26  H   LIG d   1       2.083   0.171  -2.993  0.00  0.00     0.062 H 
ATOM     27  C   LIG d   1       4.323  -2.339  -3.244  0.00  0.00    -0.061 A 
ATOM     28  H   LIG d   1       3.010  -1.697  -1.684  0.00  0.00     0.062 H 
ATOM     29  C   LIG d   1       4.764  -2.113  -4.535  0.00  0.00    -0.058 A 
ATOM     30  H   LIG d   1       4.729  -3.158  -2.670  0.00  0.00     0.062 H 
ATOM     31  H   LIG d   1       5.516  -2.756  -4.969  0.00  0.00     0.062 H 
ENDBRANCH   1  21
TORSDOF 3
ENDMDL
MODEL 7
REMARK VINA RESULT:      -5.2      2.123      2.748
REMARK  3 active torsions:
REMARK  status: ('A' for Active; 'I' for Inactive)
REMARK    1  A    between atoms: C_1  and  C_2 
REMARK    2  A    between atoms: C_2  and  C_3 
REMARK    3  A    between atoms: C_3  and  C_11 
ROOT
ATOM      1  C   LIG d   1       6.005  -1.570  -4.628  0.00  0.00     0.072 C 
ATOM      2  C   LIG d   1       7.372  -1.672  -3.943  0.00  0.00    -0.027 C 
ATOM      3  C   LIG d   1       8.222  -2.697  -4.701  0.00  0.00     0.026 C 
ATOM      4  C   LIG d   1       7.478  -4.005  -4.765  0.00  0.00     0.219 C 
ATOM      5  O   LIG d   1       8.104  -5.043  -4.818  0.00  0.00    -0.275 OA
ATOM      6  N   LIG d   1       6.138  -4.045  -4.763  0.00  0.00    -0.256 N 
ATOM      7  C   LIG d   1       5.383  -2.938  -4.700  0.00  0.00     0.230 C 
ATOM      8  O   LIG d   1       4.175  -3.043  -4.698  0.00  0.00    -0.274 OA
ATOM      9  H   LIG d   1       7.241  -1.998  -2.911  0.00  0.00     0.028 H 
ATOM     10  H   LIG d   1       7.868  -0.701  -3.960  0.00  0.00     0.028 H 
ATOM     11  H   LIG d   1       9.169  -2.842  -4.181  0.00  0.00     0.036 H 
ATOM     12  H   LIG d   1       8.412  -2.337  -5.712  0.00  0.00     0.036 H 
ATOM     13  H   LIG d   1       5.697  -4.909  -4.814  0.00  0.00     0.158 HD
ENDROOT
BRANCH   1  14
ATOM     14  C   LIG d   1       6.183  -1.016  -6.043  0.00  0.00    -0.038 C 
ATOM     15  H   LIG d   1       6.649  -1.773  -6.673  0.00  0.00     0.028 H 
ATOM     16  H   LIG d   1       5.209  -0.752  -6.454  0.00  0.00     0.028 H 
BRANCH  14  17
ATOM     17  C   LIG d   1       7.072   0.228  -5.996  0.00  0.00    -0.064 C 
ATOM     18  H   LIG d   1       8.110  -0.072  -5.857  0.00  0.00     0.023 H 
ATOM     19  H   LIG d   1       6.976   0.779  -6.932  0.00  0.00     0.023 H 
ATOM     20  H   LIG d   1       6.763   0.864  -5.168  0.00  0.00     0.023 H 
ENDBRANCH  14  17
ENDBRANCH   1  14
BRANCH   1  21
ATOM     21  C   LIG d   1       5.113  -0.649  -3.835  0.00  0.00    -0.032 A 
ATOM     22  C   LIG d   1       4.011  -0.070  -4.435  0.00  0.00    -0.058 A 
ATOM     23  C   LIG d   1       3.193   0.775  -3.708  0.00  0.00    -0.061 A 
ATOM     24  H   LIG d   1       3.789  -0.276  -5.471  0.00  0.00     0.062 H 
ATOM     25  C   LIG d   1       3.477   1.039  -2.382  0.00  0.00    -0.062 A 
ATOM     26  H   LIG d   1       2.332   1.228  -4.177  0.00  0.00     0.062 H 
ATOM     27  C   LIG d   1       4.579   0.459  -1.781  0.00  0.00    -0.061 A 
ATOM     28  H   LIG d   1       2.837   1.699  -1.813  0.00  0.00     0.062 H 
ATOM     29  C   LIG d   1       5.394  -0.389  -2.507  0.00  0.00    -0.058 A 
ATOM     30  H   LIG d   1       4.800   0.666  -0.744  0.00  0.00     0.062 H 
ATOM     31  H   LIG d   1       6.253  -0.845  -2.037  0.00  0.00     0.062 H 
ENDBRANCH   1  21
TORSDOF 3
ENDMDL
MODEL 8
REMARK VINA RESULT:      -5.1      2.435      4.670
REMARK  3 active torsions:
REMARK  status: ('A' for Active; 'I' for Inactive)
REMARK    1  A    between atoms: C_1  and  C_2 
REMARK    2  A    between atoms: C_2  and  C_3 
REMARK    3  A    between atoms: C_3  and  C_11 
ROOT
ATOM      1  C   LIG d   1       5.168  -1.631  -4.020  0.00  0.00     0.072 C 
ATOM      2  C   LIG d   1       4.500  -1.868  -2.661  0.00  0.00    -0.027 C 
ATOM      3  C   LIG d   1       3.392  -0.826  -2.472  0.00  0.00     0.026 C 
ATOM      4  C   LIG d   1       3.979   0.552  -2.626  0.00  0.00     0.219 C 
ATOM      5  O   LIG d   1       3.477   1.481  -2.030  0.00  0.00    -0.275 OA
ATOM      6  N   LIG d   1       5.045   0.772  -3.408  0.00  0.00    -0.256 N 
ATOM      7  C   LIG d   1       5.654  -0.208  -4.092  0.00  0.00     0.230 C 
ATOM      8  O   LIG d   1       6.617   0.056  -4.779  0.00  0.00    -0.274 OA
ATOM      9  H   LIG d   1       5.239  -1.762  -1.866  0.00  0.00     0.028 H 
ATOM     10  H   LIG d   1       4.070  -2.869  -2.630  0.00  0.00     0.028 H 
ATOM     11  H   LIG d   1       2.959  -0.929  -1.478  0.00  0.00     0.036 H 
ATOM     12  H   LIG d   1       2.618  -0.978  -3.225  0.00  0.00     0.036 H 
ATOM     13  H   LIG d   1       5.387   1.677  -3.486  0.00  0.00     0.158 HD
ENDROOT
BRANCH   1  14
ATOM     14  C   LIG d   1       4.152  -1.878  -5.138  0.00  0.00    -0.038 C 
ATOM     15  H   LIG d   1       4.368  -2.831  -5.620  0.00  0.00     0.028 H 
ATOM     16  H   LIG d   1       3.147  -1.905  -4.715  0.00  0.00     0.028 H 
BRANCH  14  17
ATOM     17  C   LIG d   1       4.243  -0.752  -6.168  0.00  0.00    -0.064 C 
ATOM     18  H   LIG d   1       5.282  -0.612  -6.464  0.00  0.00     0.023 H 
ATOM     19  H   LIG d   1       3.648  -1.012  -7.044  0.00  0.00     0.023 H 
ATOM     20  H   LIG d   1       3.862   0.171  -5.732  0.00  0.00     0.023 H 
ENDBRANCH  14  17
ENDBRANCH   1  14
BRANCH   1  21
ATOM     21  C   LIG d   1       6.332  -2.573  -4.180  0.00  0.00    -0.032 A 
ATOM     22  C   LIG d   1       6.288  -3.571  -5.135  0.00  0.00    -0.058 A 
ATOM     23  C   LIG d   1       7.356  -4.436  -5.281  0.00  0.00    -0.061 A 
ATOM     24  H   LIG d   1       5.418  -3.676  -5.766  0.00  0.00     0.062 H 
ATOM     25  C   LIG d   1       8.470  -4.301  -4.473  0.00  0.00    -0.062 A 
ATOM     26  H   LIG d   1       7.322  -5.216  -6.027  0.00  0.00     0.062 H 
ATOM     27  C   LIG d   1       8.515  -3.303  -3.518  0.00  0.00    -0.061 A 
ATOM     28  H   LIG d   1       9.305  -4.977  -4.588  0.00  0.00     0.062 H 
ATOM     29  C   LIG d   1       7.448  -2.435  -3.375  0.00  0.00    -0.058 A 
ATOM     30  H   LIG d   1       9.385  -3.197  -2.887  0.00  0.00     0.062 H 
ATOM     31  H   LIG d   1       7.485  -1.653  -2.631  0.00  0.00     0.062 H 
ENDBRANCH   1  21
TORSDOF 3
ENDMDL
MODEL 9
REMARK VINA RESULT:      -5.1      1.908      4.824
REMARK  3 active torsions:
REMARK  status: ('A' for Active; 'I' for Inactive)
REMARK    1  A    between atoms: C_1  and  C_2 
REMARK    2  A    between atoms: C_2  and  C_3 
REMARK    3  A    between atoms: C_3  and  C_11 
ROOT
ATOM      1  C   LIG d   1       5.543  -2.005  -4.439  0.00  0.00     0.072 C 
ATOM      2  C   LIG d   1       6.492  -1.658  -3.287  0.00  0.00    -0.027 C 
ATOM      3  C   LIG d   1       6.319  -0.175  -2.942  0.00  0.00     0.026 C 
ATOM      4  C   LIG d   1       6.546   0.650  -4.181  0.00  0.00     0.219 C 
ATOM      5  O   LIG d   1       6.978   1.778  -4.073  0.00  0.00    -0.275 OA
ATOM      6  N   LIG d   1       6.281   0.162  -5.401  0.00  0.00    -0.256 N 
ATOM      7  C   LIG d   1       5.808  -1.078  -5.596  0.00  0.00     0.230 C 
ATOM      8  O   LIG d   1       5.592  -1.461  -6.725  0.00  0.00    -0.274 OA
ATOM      9  H   LIG d   1       7.522  -1.845  -3.591  0.00  0.00     0.028 H 
ATOM     10  H   LIG d   1       6.252  -2.267  -2.414  0.00  0.00     0.028 H 
ATOM     11  H   LIG d   1       7.043   0.109  -2.178  0.00  0.00     0.036 H 
ATOM     12  H   LIG d   1       5.310  -0.003  -2.570  0.00  0.00     0.036 H 
ATOM     13  H   LIG d   1       6.434   0.729  -6.174  0.00  0.00     0.158 HD
ENDROOT
BRANCH   1  14
ATOM     14  C   LIG d   1       4.094  -1.838  -3.975  0.00  0.00    -0.038 C 
ATOM     15  H   LIG d   1       3.795  -0.795  -4.084  0.00  0.00     0.028 H 
ATOM     16  H   LIG d   1       3.444  -2.467  -4.584  0.00  0.00     0.028 H 
BRANCH  14  17
ATOM     17  C   LIG d   1       3.977  -2.253  -2.508  0.00  0.00    -0.064 C 
ATOM     18  H   LIG d   1       3.394  -1.509  -1.965  0.00  0.00     0.023 H 
ATOM     19  H   LIG d   1       3.481  -3.222  -2.442  0.00  0.00     0.023 H 
ATOM     20  H   LIG d   1       4.972  -2.324  -2.070  0.00  0.00     0.023 H 
ENDBRANCH  14  17
ENDBRANCH   1  14
BRANCH   1  21
ATOM     21  C   LIG d   1       5.773  -3.430  -4.869  0.00  0.00    -0.032 A 
ATOM     22  C   LIG d   1       4.699  -4.234  -5.202  0.00  0.00    -0.058 A 
ATOM     23  C   LIG d   1       4.910  -5.542  -5.596  0.00  0.00    -0.061 A 
ATOM     24  H   LIG d   1       3.695  -3.840  -5.153  0.00  0.00     0.062 H 
ATOM     25  C   LIG d   1       6.196  -6.046  -5.659  0.00  0.00    -0.062 A 
ATOM     26  H   LIG d   1       4.071  -6.170  -5.856  0.00  0.00     0.062 H 
ATOM     27  C   LIG d   1       7.271  -5.242  -5.326  0.00  0.00    -0.061 A 
ATOM     28  H   LIG d   1       6.361  -7.068  -5.967  0.00  0.00     0.062 H 
ATOM     29  C   LIG d   1       7.060  -3.932  -4.937  0.00  0.00    -0.058 A 
ATOM     30  H   LIG d   1       8.275  -5.636  -5.376  0.00  0.00     0.062 H 
ATOM     31  H   LIG d   1       7.899  -3.304  -4.681  0.00  0.00     0.062 H 
ENDBRANCH   1  21
TORSDOF 3
ENDMDL
MODEL 10
REMARK VINA RESULT:      -5.1      2.354      3.753
REMARK  3 active torsions:
REMARK  status: ('A' for Active; 'I' for Inactive)
REMARK    1  A    between atoms: C_1  and  C_2 
REMARK    2  A    between atoms: C_2  and  C_3 
REMARK    3  A    between atoms: C_3  and  C_11 
ROOT
ATOM      1  C   LIG d   1       5.815  -0.583  -4.146  0.00  0.00     0.072 C 
ATOM      2  C   LIG d   1       5.437  -0.334  -2.681  0.00  0.00    -0.027 C 
ATOM      3  C   LIG d   1       4.210  -1.186  -2.342  0.00  0.00     0.026 C 
ATOM      4  C   LIG d   1       3.104  -0.869  -3.314  0.00  0.00     0.219 C 
ATOM      5  O   LIG d   1       1.950  -0.986  -2.960  0.00  0.00    -0.275 OA
ATOM      6  N   LIG d   1       3.371  -0.460  -4.562  0.00  0.00    -0.256 N 
ATOM      7  C   LIG d   1       4.622  -0.303  -5.020  0.00  0.00     0.230 C 
ATOM      8  O   LIG d   1       4.795   0.074  -6.158  0.00  0.00    -0.274 OA
ATOM      9  H   LIG d   1       5.201   0.721  -2.538  0.00  0.00     0.028 H 
ATOM     10  H   LIG d   1       6.268  -0.614  -2.033  0.00  0.00     0.028 H 
ATOM     11  H   LIG d   1       3.879  -0.963  -1.328  0.00  0.00     0.036 H 
ATOM     12  H   LIG d   1       4.468  -2.242  -2.417  0.00  0.00     0.036 H 
ATOM     13  H   LIG d   1       2.629  -0.273  -5.160  0.00  0.00     0.158 HD
ENDROOT
BRANCH   1  14
ATOM     14  C   LIG d   1       6.244  -2.041  -4.322  0.00  0.00    -0.038 C 
ATOM     15  H   LIG d   1       5.404  -2.697  -4.095  0.00  0.00     0.028 H 
ATOM     16  H   LIG d   1       6.564  -2.203  -5.351  0.00  0.00     0.028 H 
BRANCH  14  17
ATOM     17  C   LIG d   1       7.403  -2.350  -3.373  0.00  0.00    -0.064 C 
ATOM     18  H   LIG d   1       8.289  -1.801  -3.691  0.00  0.00     0.023 H 
ATOM     19  H   LIG d   1       7.134  -2.048  -2.360  0.00  0.00     0.023 H 
ATOM     20  H   LIG d   1       7.612  -3.419  -3.390  0.00  0.00     0.023 H 
ENDBRANCH  14  17
ENDBRANCH   1  14
BRANCH   1  21
ATOM     21  C   LIG d   1       6.951   0.327  -4.534  0.00  0.00    -0.032 A 
ATOM     22  C   LIG d   1       7.282   1.401  -3.729  0.00  0.00    -0.058 A 
ATOM     23  C   LIG d   1       8.324   2.237  -4.085  0.00  0.00    -0.061 A 
ATOM     24  H   LIG d   1       6.725   1.588  -2.823  0.00  0.00     0.062 H 
ATOM     25  C   LIG d   1       9.036   1.997  -5.245  0.00  0.00    -0.062 A 
ATOM     26  H   LIG d   1       8.582   3.077  -3.456  0.00  0.00     0.062 H 
ATOM     27  C   LIG d   1       8.706   0.923  -6.050  0.00  0.00    -0.061 A 
ATOM     28  H   LIG d   1       9.851   2.650  -5.523  0.00  0.00     0.062 H 
ATOM     29  C   LIG d   1       7.667   0.085  -5.692  0.00  0.00    -0.058 A 
ATOM     30  H   LIG d   1       9.263   0.736  -6.956  0.00  0.00     0.062 H 
ATOM     31  H   LIG d   1       7.411  -0.757  -6.318  0.00  0.00     0.062 H 
ENDBRANCH   1  21
TORSDOF 3
ENDMDL
