MODEL 1
REMARK VINA RESULT:      -6.7      0.000      0.000
REMARK  6 active torsions:
REMARK  status: ('A' for Active; 'I' for Inactive)
REMARK    1  A    between atoms: C_1  and  O_2 
REMARK    2  A    between atoms: O_2  and  C_3 
REMARK    3  A    between atoms: C_3  and  C_5 
REMARK    4  A    between atoms: C_8  and  N_11 
REMARK    5  A    between atoms: N_11  and  C_12 
REMARK    6  A    between atoms: C_20  and  N_22 
ROOT
ATOM      1  N   LIG d   1       8.586  -2.588  -3.947  0.00  0.00    -0.244 N 
ATOM      2  H   LIG d   1       9.227  -2.006  -4.384  0.00  0.00     0.159 HD
ENDROOT
BRANCH   1   3
ATOM      3  C   LIG d   1       8.997  -3.819  -3.442  0.00  0.00     0.037 A 
ATOM      4  C   LIG d   1       9.276  -3.954  -2.084  0.00  0.00    -0.040 A 
ATOM      5  C   LIG d   1       9.681  -5.169  -1.582  0.00  0.00    -0.046 A 
ATOM      6  H   LIG d   1       9.173  -3.104  -1.426  0.00  0.00     0.064 H 
ATOM      7  C   LIG d   1       9.814  -6.268  -2.436  0.00  0.00     0.059 A 
ATOM      8  H   LIG d   1       9.897  -5.273  -0.528  0.00  0.00     0.063 H 
ATOM      9  C   LIG d   1       9.539  -6.127  -3.799  0.00  0.00    -0.046 A 
ATOM     10  C   LIG d   1       9.127  -4.911  -4.294  0.00  0.00    -0.040 A 
ATOM     11  H   LIG d   1       9.644  -6.973  -4.462  0.00  0.00     0.063 H 
ATOM     12  H   LIG d   1       8.909  -4.803  -5.348  0.00  0.00     0.064 H 
BRANCH   7  13
ATOM     13  C   LIG d   1      10.250  -7.571  -1.900  0.00  0.00     0.339 C 
ATOM     14  O   LIG d   1       9.500  -8.526  -1.943  0.00  0.00    -0.245 OA
BRANCH  13  15
ATOM     15  O   LIG d   1      11.478  -7.701  -1.362  0.00  0.00    -0.465 OA
BRANCH  15  16
ATOM     16  C   LIG d   1      11.545  -8.058   0.020  0.00  0.00     0.082 C 
ATOM     17  H   LIG d   1      12.252  -8.878   0.150  0.00  0.00     0.066 H 
ATOM     18  H   LIG d   1      11.877  -7.198   0.603  0.00  0.00     0.066 H 
ATOM     19  H   LIG d   1      10.559  -8.370   0.363  0.00  0.00     0.066 H 
ENDBRANCH  15  16
ENDBRANCH  13  15
ENDBRANCH   7  13
ENDBRANCH   1   3
BRANCH   1  20
ATOM     20  C   LIG d   1       7.263  -2.197  -3.827  0.00  0.00     0.379 A 
ATOM     21  N   LIG d   1       6.323  -2.943  -4.400  0.00  0.00    -0.156 NA
ATOM     22  C   LIG d   1       5.041  -2.623  -4.315  0.00  0.00     0.138 A 
ATOM     23  C   LIG d   1       4.686  -1.450  -3.602  0.00  0.00     0.086 A 
ATOM     24  C   LIG d   1       5.721  -0.684  -3.013  0.00  0.00     0.219 A 
ATOM     25  C   LIG d   1       3.356  -1.037  -3.469  0.00  0.00    -0.045 A 
ATOM     26  N   LIG d   1       6.989  -1.096  -3.152  0.00  0.00    -0.174 N 
ATOM     27  C   LIG d   1       5.394   0.481  -2.305  0.00  0.00     0.011 A 
ATOM     28  H   LIG d   1       7.709  -0.582  -2.755  0.00  0.00     0.457 HD
ATOM     29  C   LIG d   1       4.088   0.856  -2.193  0.00  0.00    -0.056 A 
ATOM     30  H   LIG d   1       6.171   1.076  -1.849  0.00  0.00     0.068 H 
ATOM     31  C   LIG d   1       3.073   0.101  -2.772  0.00  0.00    -0.061 A 
ATOM     32  H   LIG d   1       3.838   1.753  -1.646  0.00  0.00     0.062 H 
ATOM     33  H   LIG d   1       2.046   0.420  -2.668  0.00  0.00     0.062 H 
ATOM     34  H   LIG d   1       2.559  -1.615  -3.914  0.00  0.00     0.063 H 
BRANCH  22  35
ATOM     35  N   LIG d   1       4.076  -3.407  -4.909  0.00  0.00    -0.342 N 
ATOM     36  H   LIG d   1       3.182  -3.056  -5.047  0.00  0.00     0.144 HD
ATOM     37  H   LIG d   1       4.290  -4.312  -5.189  0.00  0.00     0.144 HD
ENDBRANCH  22  35
ENDBRANCH   1  20
TORSDOF 6
ENDMDL
MODEL 2
REMARK VINA RESULT:      -6.6      6.136      8.337
REMARK  6 active torsions:
REMARK  status: ('A' for Active; 'I' for Inactive)
REMARK    1  A    between atoms: C_1  and  O_2 
REMARK    2  A    between atoms: O_2  and  C_3 
REMARK    3  A    between atoms: C_3  and  C_5 
REMARK    4  A    between atoms: C_8  and  N_11 
REMARK    5  A    between atoms: N_11  and  C_12 
REMARK    6  A    between atoms: C_20  and  N_22 
ROOT
ATOM      1  N   LIG d   1       8.752   2.029  -5.122  0.00  0.00    -0.244 N 
ATOM      2  H   LIG d   1       8.985   1.924  -6.058  0.00  0.00     0.159 HD
ENDROOT
BRANCH   1   3
ATOM      3  C   LIG d   1       9.282   3.087  -4.389  0.00  0.00     0.037 A 
ATOM      4  C   LIG d   1       9.986   2.833  -3.214  0.00  0.00    -0.040 A 
ATOM      5  C   LIG d   1      10.512   3.876  -2.487  0.00  0.00    -0.046 A 
ATOM      6  H   LIG d   1      10.120   1.817  -2.874  0.00  0.00     0.064 H 
ATOM      7  C   LIG d   1      10.339   5.192  -2.928  0.00  0.00     0.059 A 
ATOM      8  H   LIG d   1      11.059   3.679  -1.576  0.00  0.00     0.063 H 
ATOM      9  C   LIG d   1       9.626   5.443  -4.104  0.00  0.00    -0.046 A 
ATOM     10  C   LIG d   1       9.109   4.395  -4.831  0.00  0.00    -0.040 A 
ATOM     11  H   LIG d   1       9.487   6.458  -4.446  0.00  0.00     0.063 H 
ATOM     12  H   LIG d   1       8.562   4.588  -5.743  0.00  0.00     0.064 H 
BRANCH   7  13
ATOM     13  C   LIG d   1      10.900   6.311  -2.150  0.00  0.00     0.339 C 
ATOM     14  O   LIG d   1      11.941   6.832  -2.500  0.00  0.00    -0.245 OA
BRANCH  13  15
ATOM     15  O   LIG d   1      10.260   6.755  -1.051  0.00  0.00    -0.465 OA
BRANCH  15  16
ATOM     16  C   LIG d   1       9.429   7.907  -1.206  0.00  0.00     0.082 C 
ATOM     17  H   LIG d   1       9.561   8.319  -2.208  0.00  0.00     0.066 H 
ATOM     18  H   LIG d   1       8.386   7.626  -1.064  0.00  0.00     0.066 H 
ATOM     19  H   LIG d   1       9.706   8.658  -0.466  0.00  0.00     0.066 H 
ENDBRANCH  15  16
ENDBRANCH  13  15
ENDBRANCH   7  13
ENDBRANCH   1   3
BRANCH   1  20
ATOM     20  C   LIG d   1       7.892   1.129  -4.516  0.00  0.00     0.379 A 
ATOM     21  N   LIG d   1       8.129  -0.172  -4.657  0.00  0.00    -0.156 NA
ATOM     22  C   LIG d   1       7.345  -1.081  -4.097  0.00  0.00     0.138 A 
ATOM     23  C   LIG d   1       6.229  -0.635  -3.343  0.00  0.00     0.086 A 
ATOM     24  C   LIG d   1       6.015   0.760  -3.224  0.00  0.00     0.219 A 
ATOM     25  C   LIG d   1       5.349  -1.528  -2.723  0.00  0.00    -0.045 A 
ATOM     26  N   LIG d   1       6.870   1.598  -3.826  0.00  0.00    -0.174 N 
ATOM     27  C   LIG d   1       4.917   1.223  -2.485  0.00  0.00     0.011 A 
ATOM     28  H   LIG d   1       6.736   2.557  -3.754  0.00  0.00     0.457 HD
ATOM     29  C   LIG d   1       4.078   0.328  -1.892  0.00  0.00    -0.056 A 
ATOM     30  H   LIG d   1       4.740   2.283  -2.384  0.00  0.00     0.068 H 
ATOM     31  C   LIG d   1       4.292  -1.042  -2.010  0.00  0.00    -0.061 A 
ATOM     32  H   LIG d   1       3.234   0.687  -1.322  0.00  0.00     0.062 H 
ATOM     33  H   LIG d   1       3.612  -1.731  -1.530  0.00  0.00     0.062 H 
ATOM     34  H   LIG d   1       5.505  -2.593  -2.807  0.00  0.00     0.063 H 
BRANCH  22  35
ATOM     35  N   LIG d   1       7.603  -2.426  -4.247  0.00  0.00    -0.342 N 
ATOM     36  H   LIG d   1       8.141  -2.738  -4.991  0.00  0.00     0.144 HD
ATOM     37  H   LIG d   1       7.245  -3.063  -3.607  0.00  0.00     0.144 HD
ENDBRANCH  22  35
ENDBRANCH   1  20
TORSDOF 6
ENDMDL
MODEL 3
REMARK VINA RESULT:      -6.4      6.846      9.475
REMARK  6 active torsions:
REMARK  status: ('A' for Active; 'I' for Inactive)
REMARK    1  A    between atoms: C_1  and  O_2 
REMARK    2  A    between atoms: O_2  and  C_3 
REMARK    3  A    between atoms: C_3  and  C_5 
REMARK    4  A    between atoms: C_8  and  N_11 
REMARK    5  A    between atoms: N_11  and  C_12 
REMARK    6  A    between atoms: C_20  and  N_22 
ROOT
ATOM      1  N   LIG d   1       3.075   1.175  -7.732  0.00  0.00    -0.244 N 
ATOM      2  H   LIG d   1       2.766   2.086  -7.610  0.00  0.00     0.159 HD
ENDROOT
BRANCH   1   3
ATOM      3  C   LIG d   1       2.934   0.554  -8.971  0.00  0.00     0.037 A 
ATOM      4  C   LIG d   1       2.041  -0.504  -9.119  0.00  0.00    -0.040 A 
ATOM      5  C   LIG d   1       1.899  -1.119 -10.342  0.00  0.00    -0.046 A 
ATOM      6  H   LIG d   1       1.459  -0.841  -8.275  0.00  0.00     0.064 H 
ATOM      7  C   LIG d   1       2.653  -0.682 -11.435  0.00  0.00     0.059 A 
ATOM      8  H   LIG d   1       1.205  -1.940 -10.457  0.00  0.00     0.063 H 
ATOM      9  C   LIG d   1       3.553   0.377 -11.281  0.00  0.00    -0.046 A 
ATOM     10  C   LIG d   1       3.686   0.992 -10.057  0.00  0.00    -0.040 A 
ATOM     11  H   LIG d   1       4.140   0.715 -12.122  0.00  0.00     0.063 H 
ATOM     12  H   LIG d   1       4.378   1.814  -9.938  0.00  0.00     0.064 H 
BRANCH   7  13
ATOM     13  C   LIG d   1       2.504  -1.340 -12.746  0.00  0.00     0.339 C 
ATOM     14  O   LIG d   1       1.476  -1.927 -13.018  0.00  0.00    -0.245 OA
BRANCH  13  15
ATOM     15  O   LIG d   1       3.510  -1.292 -13.642  0.00  0.00    -0.465 OA
BRANCH  15  16
ATOM     16  C   LIG d   1       3.178  -1.570 -15.004  0.00  0.00     0.082 C 
ATOM     17  H   LIG d   1       3.794  -0.955 -15.661  0.00  0.00     0.066 H 
ATOM     18  H   LIG d   1       3.363  -2.623 -15.215  0.00  0.00     0.066 H 
ATOM     19  H   LIG d   1       2.126  -1.344 -15.175  0.00  0.00     0.066 H 
ENDBRANCH  15  16
ENDBRANCH  13  15
ENDBRANCH   7  13
ENDBRANCH   1   3
BRANCH   1  20
ATOM     20  C   LIG d   1       3.656   0.491  -6.678  0.00  0.00     0.379 A 
ATOM     21  N   LIG d   1       4.929   0.120  -6.782  0.00  0.00    -0.156 NA
ATOM     22  C   LIG d   1       5.540  -0.532  -5.804  0.00  0.00     0.138 A 
ATOM     23  C   LIG d   1       4.799  -0.840  -4.635  0.00  0.00     0.086 A 
ATOM     24  C   LIG d   1       3.445  -0.430  -4.571  0.00  0.00     0.219 A 
ATOM     25  C   LIG d   1       5.367  -1.530  -3.558  0.00  0.00    -0.045 A 
ATOM     26  N   LIG d   1       2.920   0.230  -5.613  0.00  0.00    -0.174 N 
ATOM     27  C   LIG d   1       2.693  -0.725  -3.425  0.00  0.00     0.011 A 
ATOM     28  H   LIG d   1       1.994   0.517  -5.585  0.00  0.00     0.457 HD
ATOM     29  C   LIG d   1       3.276  -1.398  -2.393  0.00  0.00    -0.056 A 
ATOM     30  H   LIG d   1       1.660  -0.419  -3.360  0.00  0.00     0.068 H 
ATOM     31  C   LIG d   1       4.606  -1.800  -2.458  0.00  0.00    -0.061 A 
ATOM     32  H   LIG d   1       2.694  -1.624  -1.510  0.00  0.00     0.062 H 
ATOM     33  H   LIG d   1       5.044  -2.332  -1.626  0.00  0.00     0.062 H 
ATOM     34  H   LIG d   1       6.398  -1.846  -3.597  0.00  0.00     0.063 H 
BRANCH  22  35
ATOM     35  N   LIG d   1       6.861  -0.906  -5.922  0.00  0.00    -0.342 N 
ATOM     36  H   LIG d   1       7.101  -1.846  -5.924  0.00  0.00     0.144 HD
ATOM     37  H   LIG d   1       7.551  -0.229  -6.001  0.00  0.00     0.144 HD
ENDBRANCH  22  35
ENDBRANCH   1  20
TORSDOF 6
ENDMDL
MODEL 4
REMARK VINA RESULT:      -6.3      1.170      2.306
REMARK  6 active torsions:
REMARK  status: ('A' for Active; 'I' for Inactive)
REMARK    1  A    between atoms: C_1  and  O_2 
REMARK    2  A    between atoms: O_2  and  C_3 
REMARK    3  A    between atoms: C_3  and  C_5 
REMARK    4  A    between atoms: C_8  and  N_11 
REMARK    5  A    between atoms: N_11  and  C_12 
REMARK    6  A    between atoms: C_20  and  N_22 
ROOT
ATOM      1  N   LIG d   1       8.495  -2.938  -4.959  0.00  0.00    -0.244 N 
ATOM      2  H   LIG d   1       8.758  -2.888  -5.891  0.00  0.00     0.159 HD
ENDROOT
BRANCH   1   3
ATOM      3  C   LIG d   1       8.871  -4.036  -4.189  0.00  0.00     0.037 A 
ATOM      4  C   LIG d   1       8.580  -5.325  -4.630  0.00  0.00    -0.040 A 
ATOM      5  C   LIG d   1       8.950  -6.411  -3.871  0.00  0.00    -0.046 A 
ATOM      6  H   LIG d   1       8.066  -5.471  -5.567  0.00  0.00     0.064 H 
ATOM      7  C   LIG d   1       9.618  -6.221  -2.657  0.00  0.00     0.059 A 
ATOM      8  H   LIG d   1       8.726  -7.411  -4.214  0.00  0.00     0.063 H 
ATOM      9  C   LIG d   1       9.901  -4.925  -2.215  0.00  0.00    -0.046 A 
ATOM     10  C   LIG d   1       9.535  -3.843  -2.981  0.00  0.00    -0.040 A 
ATOM     11  H   LIG d   1      10.413  -4.774  -1.276  0.00  0.00     0.063 H 
ATOM     12  H   LIG d   1       9.759  -2.841  -2.643  0.00  0.00     0.064 H 
BRANCH   7  13
ATOM     13  C   LIG d   1      10.014  -7.384  -1.842  0.00  0.00     0.339 C 
ATOM     14  O   LIG d   1       9.271  -8.341  -1.748  0.00  0.00    -0.245 OA
BRANCH  13  15
ATOM     15  O   LIG d   1      11.198  -7.383  -1.199  0.00  0.00    -0.465 OA
BRANCH  15  16
ATOM     16  C   LIG d   1      11.227  -7.962   0.107  0.00  0.00     0.082 C 
ATOM     17  H   LIG d   1      12.211  -8.393   0.292  0.00  0.00     0.066 H 
ATOM     18  H   LIG d   1      11.022  -7.192   0.851  0.00  0.00     0.066 H 
ATOM     19  H   LIG d   1      10.470  -8.743   0.175  0.00  0.00     0.066 H 
ENDBRANCH  15  16
ENDBRANCH  13  15
ENDBRANCH   7  13
ENDBRANCH   1   3
BRANCH   1  20
ATOM     20  C   LIG d   1       7.746  -1.920  -4.394  0.00  0.00     0.379 A 
ATOM     21  N   LIG d   1       8.152  -0.663  -4.559  0.00  0.00    -0.156 NA
ATOM     22  C   LIG d   1       7.475   0.353  -4.046  0.00  0.00     0.138 A 
ATOM     23  C   LIG d   1       6.301   0.073  -3.300  0.00  0.00     0.086 A 
ATOM     24  C   LIG d   1       5.911  -1.280  -3.147  0.00  0.00     0.219 A 
ATOM     25  C   LIG d   1       5.531   1.087  -2.722  0.00  0.00    -0.045 A 
ATOM     26  N   LIG d   1       6.663  -2.237  -3.710  0.00  0.00    -0.174 N 
ATOM     27  C   LIG d   1       4.755  -1.581  -2.413  0.00  0.00     0.011 A 
ATOM     28  H   LIG d   1       6.409  -3.168  -3.613  0.00  0.00     0.457 HD
ATOM     29  C   LIG d   1       4.027  -0.570  -1.861  0.00  0.00    -0.056 A 
ATOM     30  H   LIG d   1       4.444  -2.607  -2.287  0.00  0.00     0.068 H 
ATOM     31  C   LIG d   1       4.412   0.759  -2.014  0.00  0.00    -0.061 A 
ATOM     32  H   LIG d   1       3.136  -0.804  -1.297  0.00  0.00     0.062 H 
ATOM     33  H   LIG d   1       3.816   1.541  -1.567  0.00  0.00     0.062 H 
ATOM     34  H   LIG d   1       5.820   2.121  -2.833  0.00  0.00     0.063 H 
BRANCH  22  35
ATOM     35  N   LIG d   1       7.902   1.650  -4.228  0.00  0.00    -0.342 N 
ATOM     36  H   LIG d   1       8.782   1.824  -4.596  0.00  0.00     0.144 HD
ATOM     37  H   LIG d   1       7.322   2.390  -3.987  0.00  0.00     0.144 HD
ENDBRANCH  22  35
ENDBRANCH   1  20
TORSDOF 6
ENDMDL
MODEL 5
REMARK VINA RESULT:      -6.1      6.170      8.201
REMARK  6 active torsions:
REMARK  status: ('A' for Active; 'I' for Inactive)
REMARK    1  A    between atoms: C_1  and  O_2 
REMARK    2  A    between atoms: O_2  and  C_3 
REMARK    3  A    between atoms: C_3  and  C_5 
REMARK    4  A    between atoms: C_8  and  N_11 
REMARK    5  A    between atoms: N_11  and  C_12 
REMARK    6  A    between atoms: C_20  and  N_22 
ROOT
ATOM      1  N   LIG d   1       8.327   1.990  -3.898  0.00  0.00    -0.244 N 
ATOM      2  H   LIG d   1       8.824   2.345  -3.144  0.00  0.00     0.159 HD
ENDROOT
BRANCH   1   3
ATOM      3  C   LIG d   1       8.590   2.454  -5.184  0.00  0.00     0.037 A 
ATOM      4  C   LIG d   1       9.310   3.633  -5.363  0.00  0.00    -0.040 A 
ATOM      5  C   LIG d   1       9.571   4.094  -6.633  0.00  0.00    -0.046 A 
ATOM      6  H   LIG d   1       9.664   4.184  -4.505  0.00  0.00     0.064 H 
ATOM      7  C   LIG d   1       9.113   3.378  -7.744  0.00  0.00     0.059 A 
ATOM      8  H   LIG d   1      10.131   5.008  -6.772  0.00  0.00     0.063 H 
ATOM      9  C   LIG d   1       8.385   2.199  -7.559  0.00  0.00    -0.046 A 
ATOM     10  C   LIG d   1       8.133   1.739  -6.287  0.00  0.00    -0.040 A 
ATOM     11  H   LIG d   1       8.026   1.645  -8.415  0.00  0.00     0.063 H 
ATOM     12  H   LIG d   1       7.574   0.825  -6.144  0.00  0.00     0.064 H 
BRANCH   7  13
ATOM     13  C   LIG d   1       9.391   3.871  -9.105  0.00  0.00     0.339 C 
ATOM     14  O   LIG d   1      10.496   3.727  -9.590  0.00  0.00    -0.245 OA
BRANCH  13  15
ATOM     15  O   LIG d   1       8.420   4.482  -9.811  0.00  0.00    -0.465 OA
BRANCH  15  16
ATOM     16  C   LIG d   1       8.421   5.911  -9.812  0.00  0.00     0.082 C 
ATOM     17  H   LIG d   1       8.895   6.275  -8.899  0.00  0.00     0.066 H 
ATOM     18  H   LIG d   1       8.974   6.275 -10.677  0.00  0.00     0.066 H 
ATOM     19  H   LIG d   1       7.395   6.275  -9.857  0.00  0.00     0.066 H 
ENDBRANCH  15  16
ENDBRANCH  13  15
ENDBRANCH   7  13
ENDBRANCH   1   3
BRANCH   1  20
ATOM     20  C   LIG d   1       7.358   1.023  -3.695  0.00  0.00     0.379 A 
ATOM     21  N   LIG d   1       7.700  -0.258  -3.811  0.00  0.00    -0.156 NA
ATOM     22  C   LIG d   1       6.818  -1.227  -3.624  0.00  0.00     0.138 A 
ATOM     23  C   LIG d   1       5.483  -0.871  -3.305  0.00  0.00     0.086 A 
ATOM     24  C   LIG d   1       5.164   0.504  -3.197  0.00  0.00     0.219 A 
ATOM     25  C   LIG d   1       4.489  -1.833  -3.096  0.00  0.00    -0.045 A 
ATOM     26  N   LIG d   1       6.131   1.410  -3.400  0.00  0.00    -0.174 N 
ATOM     27  C   LIG d   1       3.850   0.880  -2.883  0.00  0.00     0.011 A 
ATOM     28  H   LIG d   1       5.928   2.356  -3.331  0.00  0.00     0.457 HD
ATOM     29  C   LIG d   1       2.904  -0.082  -2.686  0.00  0.00    -0.056 A 
ATOM     30  H   LIG d   1       3.590   1.924  -2.797  0.00  0.00     0.068 H 
ATOM     31  C   LIG d   1       3.221  -1.432  -2.792  0.00  0.00    -0.061 A 
ATOM     32  H   LIG d   1       1.892   0.210  -2.444  0.00  0.00     0.062 H 
ATOM     33  H   LIG d   1       2.452  -2.174  -2.631  0.00  0.00     0.062 H 
ATOM     34  H   LIG d   1       4.723  -2.884  -3.176  0.00  0.00     0.063 H 
BRANCH  22  35
ATOM     35  N   LIG d   1       7.187  -2.550  -3.742  0.00  0.00    -0.342 N 
ATOM     36  H   LIG d   1       7.907  -2.904  -3.198  0.00  0.00     0.144 HD
ATOM     37  H   LIG d   1       6.724  -3.128  -4.371  0.00  0.00     0.144 HD
ENDBRANCH  22  35
ENDBRANCH   1  20
TORSDOF 6
ENDMDL
MODEL 6
REMARK VINA RESULT:      -6.0      6.370      8.919
REMARK  6 active torsions:
REMARK  status: ('A' for Active; 'I' for Inactive)
REMARK    1  A    between atoms: C_1  and  O_2 
REMARK    2  A    between atoms: O_2  and  C_3 
REMARK    3  A    between atoms: C_3  and  C_5 
REMARK    4  A    between atoms: C_8  and  N_11 
REMARK    5  A    between atoms: N_11  and  C_12 
REMARK    6  A    between atoms: C_20  and  N_22 
ROOT
ATOM      1  N   LIG d   1       4.115  -1.093  -8.296  0.00  0.00    -0.244 N 
ATOM      2  H   LIG d   1       4.921  -0.780  -8.735  0.00  0.00     0.159 HD
ENDROOT
BRANCH   1   3
ATOM      3  C   LIG d   1       3.164  -1.810  -9.017  0.00  0.00     0.037 A 
ATOM      4  C   LIG d   1       2.108  -1.140  -9.631  0.00  0.00    -0.040 A 
ATOM      5  C   LIG d   1       1.167  -1.847 -10.345  0.00  0.00    -0.046 A 
ATOM      6  H   LIG d   1       2.029  -0.067  -9.548  0.00  0.00     0.064 H 
ATOM      7  C   LIG d   1       1.271  -3.237 -10.452  0.00  0.00     0.059 A 
ATOM      8  H   LIG d   1       0.349  -1.327 -10.822  0.00  0.00     0.063 H 
ATOM      9  C   LIG d   1       2.328  -3.906  -9.829  0.00  0.00    -0.046 A 
ATOM     10  C   LIG d   1       3.270  -3.193  -9.123  0.00  0.00    -0.040 A 
ATOM     11  H   LIG d   1       2.410  -4.980  -9.907  0.00  0.00     0.063 H 
ATOM     12  H   LIG d   1       4.091  -3.709  -8.644  0.00  0.00     0.064 H 
BRANCH   7  13
ATOM     13  C   LIG d   1       0.263  -3.996 -11.215  0.00  0.00     0.339 C 
ATOM     14  O   LIG d   1       0.331  -4.047 -12.427  0.00  0.00    -0.245 OA
BRANCH  13  15
ATOM     15  O   LIG d   1      -0.734  -4.630 -10.568  0.00  0.00    -0.465 OA
BRANCH  15  16
ATOM     16  C   LIG d   1      -0.672  -6.057 -10.522  0.00  0.00     0.082 C 
ATOM     17  H   LIG d   1      -1.309  -6.423  -9.717  0.00  0.00     0.066 H 
ATOM     18  H   LIG d   1      -1.015  -6.467 -11.471  0.00  0.00     0.066 H 
ATOM     19  H   LIG d   1       0.356  -6.370 -10.342  0.00  0.00     0.066 H 
ENDBRANCH  15  16
ENDBRANCH  13  15
ENDBRANCH   7  13
ENDBRANCH   1   3
BRANCH   1  20
ATOM     20  C   LIG d   1       3.909  -0.826  -6.953  0.00  0.00     0.379 A 
ATOM     21  N   LIG d   1       3.318   0.316  -6.612  0.00  0.00    -0.156 NA
ATOM     22  C   LIG d   1       3.090   0.623  -5.344  0.00  0.00     0.138 A 
ATOM     23  C   LIG d   1       3.502  -0.293  -4.344  0.00  0.00     0.086 A 
ATOM     24  C   LIG d   1       4.131  -1.494  -4.754  0.00  0.00     0.219 A 
ATOM     25  C   LIG d   1       3.303  -0.044  -2.982  0.00  0.00    -0.045 A 
ATOM     26  N   LIG d   1       4.312  -1.715  -6.063  0.00  0.00    -0.174 N 
ATOM     27  C   LIG d   1       4.548  -2.415  -3.782  0.00  0.00     0.011 A 
ATOM     28  H   LIG d   1       4.742  -2.532  -6.360  0.00  0.00     0.457 HD
ATOM     29  C   LIG d   1       4.340  -2.142  -2.463  0.00  0.00    -0.056 A 
ATOM     30  H   LIG d   1       5.029  -3.335  -4.077  0.00  0.00     0.068 H 
ATOM     31  C   LIG d   1       3.721  -0.962  -2.063  0.00  0.00    -0.061 A 
ATOM     32  H   LIG d   1       4.661  -2.854  -1.716  0.00  0.00     0.062 H 
ATOM     33  H   LIG d   1       3.567  -0.770  -1.011  0.00  0.00     0.062 H 
ATOM     34  H   LIG d   1       2.824   0.869  -2.660  0.00  0.00     0.063 H 
BRANCH  22  35
ATOM     35  N   LIG d   1       2.472   1.808  -5.005  0.00  0.00    -0.342 N 
ATOM     36  H   LIG d   1       1.996   1.883  -4.163  0.00  0.00     0.144 HD
ATOM     37  H   LIG d   1       2.513   2.567  -5.609  0.00  0.00     0.144 HD
ENDBRANCH  22  35
ENDBRANCH   1  20
TORSDOF 6
ENDMDL
MODEL 7
REMARK VINA RESULT:      -6.0      3.562      4.352
REMARK  6 active torsions:
REMARK  status: ('A' for Active; 'I' for Inactive)
REMARK    1  A    between atoms: C_1  and  O_2 
REMARK    2  A    between atoms: O_2  and  C_3 
REMARK    3  A    between atoms: C_3  and  C_5 
REMARK    4  A    between atoms: C_8  and  N_11 
REMARK    5  A    between atoms: N_11  and  C_12 
REMARK    6  A    between atoms: C_20  and  N_22 
ROOT
ATOM      1  N   LIG d   1       6.501  -3.365  -5.959  0.00  0.00    -0.244 N 
ATOM      2  H   LIG d   1       7.310  -3.165  -6.455  0.00  0.00     0.159 HD
ENDROOT
BRANCH   1   3
ATOM      3  C   LIG d   1       6.095  -4.687  -5.797  0.00  0.00     0.037 A 
ATOM      4  C   LIG d   1       7.047  -5.688  -5.620  0.00  0.00    -0.040 A 
ATOM      5  C   LIG d   1       6.649  -6.996  -5.459  0.00  0.00    -0.046 A 
ATOM      6  H   LIG d   1       8.097  -5.438  -5.609  0.00  0.00     0.064 H 
ATOM      7  C   LIG d   1       5.289  -7.319  -5.473  0.00  0.00     0.059 A 
ATOM      8  H   LIG d   1       7.388  -7.772  -5.321  0.00  0.00     0.063 H 
ATOM      9  C   LIG d   1       4.337  -6.311  -5.657  0.00  0.00    -0.046 A 
ATOM     10  C   LIG d   1       4.741  -5.005  -5.811  0.00  0.00    -0.040 A 
ATOM     11  H   LIG d   1       3.285  -6.557  -5.673  0.00  0.00     0.063 H 
ATOM     12  H   LIG d   1       4.005  -4.225  -5.948  0.00  0.00     0.064 H 
BRANCH   7  13
ATOM     13  C   LIG d   1       4.860  -8.719  -5.302  0.00  0.00     0.339 C 
ATOM     14  O   LIG d   1       4.323  -9.305  -6.221  0.00  0.00    -0.245 OA
BRANCH  13  15
ATOM     15  O   LIG d   1       5.062  -9.346  -4.128  0.00  0.00    -0.465 OA
BRANCH  15  16
ATOM     16  C   LIG d   1       3.913  -9.902  -3.484  0.00  0.00     0.082 C 
ATOM     17  H   LIG d   1       3.587  -9.238  -2.684  0.00  0.00     0.066 H 
ATOM     18  H   LIG d   1       3.109 -10.017  -4.210  0.00  0.00     0.066 H 
ATOM     19  H   LIG d   1       4.167 -10.876  -3.066  0.00  0.00     0.066 H 
ENDBRANCH  15  16
ENDBRANCH  13  15
ENDBRANCH   7  13
ENDBRANCH   1   3
BRANCH   1  20
ATOM     20  C   LIG d   1       5.749  -2.338  -5.413  0.00  0.00     0.379 A 
ATOM     21  N   LIG d   1       5.044  -1.561  -6.230  0.00  0.00    -0.156 NA
ATOM     22  C   LIG d   1       4.303  -0.566  -5.767  0.00  0.00     0.138 A 
ATOM     23  C   LIG d   1       4.282  -0.336  -4.368  0.00  0.00     0.086 A 
ATOM     24  C   LIG d   1       5.052  -1.187  -3.537  0.00  0.00     0.219 A 
ATOM     25  C   LIG d   1       3.529   0.695  -3.796  0.00  0.00    -0.045 A 
ATOM     26  N   LIG d   1       5.766  -2.170  -4.104  0.00  0.00    -0.174 N 
ATOM     27  C   LIG d   1       5.048  -0.978  -2.151  0.00  0.00     0.011 A 
ATOM     28  H   LIG d   1       6.299  -2.760  -3.549  0.00  0.00     0.457 HD
ATOM     29  C   LIG d   1       4.305   0.036  -1.625  0.00  0.00    -0.056 A 
ATOM     30  H   LIG d   1       5.630  -1.618  -1.504  0.00  0.00     0.068 H 
ATOM     31  C   LIG d   1       3.548   0.870  -2.443  0.00  0.00    -0.061 A 
ATOM     32  H   LIG d   1       4.302   0.195  -0.557  0.00  0.00     0.062 H 
ATOM     33  H   LIG d   1       2.967   1.665  -2.001  0.00  0.00     0.062 H 
ATOM     34  H   LIG d   1       2.939   1.348  -4.421  0.00  0.00     0.063 H 
BRANCH  22  35
ATOM     35  N   LIG d   1       3.573   0.230  -6.623  0.00  0.00    -0.342 N 
ATOM     36  H   LIG d   1       4.026   0.845  -7.220  0.00  0.00     0.144 HD
ATOM     37  H   LIG d   1       2.603   0.175  -6.628  0.00  0.00     0.144 HD
ENDBRANCH  22  35
ENDBRANCH   1  20
TORSDOF 6
ENDMDL
MODEL 8
REMARK VINA RESULT:      -5.9      3.330      4.443
REMARK  6 active torsions:
REMARK  status: ('A' for Active; 'I' for Inactive)
REMARK    1  A    between atoms: C_1  and  O_2 
REMARK    2  A    between atoms: O_2  and  C_3 
REMARK    3  A    between atoms: C_3  and  C_5 
REMARK    4  A    between atoms: C_8  and  N_11 
REMARK    5  A    between atoms: N_11  and  C_12 
REMARK    6  A    between atoms: C_20  and  N_22 
ROOT
ATOM      1  N   LIG d   1       6.997  -4.036  -6.093  0.00  0.00    -0.244 N 
ATOM      2  H   LIG d   1       7.518  -3.873  -6.895  0.00  0.00     0.159 HD
ENDROOT
BRANCH   1   3
ATOM      3  C   LIG d   1       6.552  -5.322  -5.802  0.00  0.00     0.037 A 
ATOM      4  C   LIG d   1       5.221  -5.664  -6.027  0.00  0.00    -0.040 A 
ATOM      5  C   LIG d   1       4.779  -6.935  -5.740  0.00  0.00    -0.046 A 
ATOM      6  H   LIG d   1       4.536  -4.931  -6.427  0.00  0.00     0.064 H 
ATOM      7  C   LIG d   1       5.666  -7.883  -5.223  0.00  0.00     0.059 A 
ATOM      8  H   LIG d   1       3.746  -7.200  -5.916  0.00  0.00     0.063 H 
ATOM      9  C   LIG d   1       7.000  -7.534  -4.992  0.00  0.00    -0.046 A 
ATOM     10  C   LIG d   1       7.438  -6.264  -5.287  0.00  0.00    -0.040 A 
ATOM     11  H   LIG d   1       7.688  -8.263  -4.589  0.00  0.00     0.063 H 
ATOM     12  H   LIG d   1       8.471  -5.995  -5.114  0.00  0.00     0.064 H 
BRANCH   7  13
ATOM     13  C   LIG d   1       5.194  -9.245  -4.913  0.00  0.00     0.339 C 
ATOM     14  O   LIG d   1       5.957 -10.187  -5.002  0.00  0.00    -0.245 OA
BRANCH  13  15
ATOM     15  O   LIG d   1       3.917  -9.446  -4.534  0.00  0.00    -0.465 OA
BRANCH  15  16
ATOM     16  C   LIG d   1       3.708 -10.135  -3.300  0.00  0.00     0.082 C 
ATOM     17  H   LIG d   1       2.728 -10.613  -3.312  0.00  0.00     0.066 H 
ATOM     18  H   LIG d   1       4.480 -10.894  -3.171  0.00  0.00     0.066 H 
ATOM     19  H   LIG d   1       3.755  -9.425  -2.475  0.00  0.00     0.066 H 
ENDBRANCH  15  16
ENDBRANCH  13  15
ENDBRANCH   7  13
ENDBRANCH   1   3
BRANCH   1  20
ATOM     20  C   LIG d   1       6.694  -2.989  -5.239  0.00  0.00     0.379 A 
ATOM     21  N   LIG d   1       7.548  -1.972  -5.149  0.00  0.00    -0.156 NA
ATOM     22  C   LIG d   1       7.310  -0.940  -4.353  0.00  0.00     0.138 A 
ATOM     23  C   LIG d   1       6.121  -0.945  -3.581  0.00  0.00     0.086 A 
ATOM     24  C   LIG d   1       5.245  -2.051  -3.706  0.00  0.00     0.219 A 
ATOM     25  C   LIG d   1       5.796   0.103  -2.713  0.00  0.00    -0.045 A 
ATOM     26  N   LIG d   1       5.574  -3.044  -4.544  0.00  0.00    -0.174 N 
ATOM     27  C   LIG d   1       4.063  -2.077  -2.952  0.00  0.00     0.011 A 
ATOM     28  H   LIG d   1       4.984  -3.809  -4.640  0.00  0.00     0.457 HD
ATOM     29  C   LIG d   1       3.776  -1.041  -2.114  0.00  0.00    -0.056 A 
ATOM     30  H   LIG d   1       3.385  -2.913  -3.035  0.00  0.00     0.068 H 
ATOM     31  C   LIG d   1       4.638   0.045  -1.994  0.00  0.00    -0.061 A 
ATOM     32  H   LIG d   1       2.864  -1.063  -1.535  0.00  0.00     0.062 H 
ATOM     33  H   LIG d   1       4.386   0.853  -1.324  0.00  0.00     0.062 H 
ATOM     34  H   LIG d   1       6.457   0.950  -2.611  0.00  0.00     0.063 H 
BRANCH  22  35
ATOM     35  N   LIG d   1       8.199   0.110  -4.273  0.00  0.00    -0.342 N 
ATOM     36  H   LIG d   1       7.876   1.008  -4.105  0.00  0.00     0.144 HD
ATOM     37  H   LIG d   1       9.150  -0.051  -4.385  0.00  0.00     0.144 HD
ENDBRANCH  22  35
ENDBRANCH   1  20
TORSDOF 6
ENDMDL
MODEL 9
REMARK VINA RESULT:      -5.7      5.966      7.877
REMARK  6 active torsions:
REMARK  status: ('A' for Active; 'I' for Inactive)
REMARK    1  A    between atoms: C_1  and  O_2 
REMARK    2  A    between atoms: O_2  and  C_3 
REMARK    3  A    between atoms: C_3  and  C_5 
REMARK    4  A    between atoms: C_8  and  N_11 
REMARK    5  A    between atoms: N_11  and  C_12 
REMARK    6  A    between atoms: C_20  and  N_22 
ROOT
ATOM      1  N   LIG d   1       5.231  -0.614  -7.786  0.00  0.00    -0.244 N 
ATOM      2  H   LIG d   1       4.750  -1.069  -8.495  0.00  0.00     0.159 HD
ENDROOT
BRANCH   1   3
ATOM      3  C   LIG d   1       6.140   0.393  -8.098  0.00  0.00     0.037 A 
ATOM      4  C   LIG d   1       5.710   1.533  -8.772  0.00  0.00    -0.040 A 
ATOM      5  C   LIG d   1       6.606   2.530  -9.082  0.00  0.00    -0.046 A 
ATOM      6  H   LIG d   1       4.671   1.635  -9.052  0.00  0.00     0.064 H 
ATOM      7  C   LIG d   1       7.950   2.398  -8.720  0.00  0.00     0.059 A 
ATOM      8  H   LIG d   1       6.272   3.414  -9.605  0.00  0.00     0.063 H 
ATOM      9  C   LIG d   1       8.380   1.249  -8.048  0.00  0.00    -0.046 A 
ATOM     10  C   LIG d   1       7.477   0.259  -7.735  0.00  0.00    -0.040 A 
ATOM     11  H   LIG d   1       9.418   1.141  -7.770  0.00  0.00     0.063 H 
ATOM     12  H   LIG d   1       7.807  -0.628  -7.212  0.00  0.00     0.064 H 
BRANCH   7  13
ATOM     13  C   LIG d   1       8.913   3.463  -9.051  0.00  0.00     0.339 C 
ATOM     14  O   LIG d   1       8.743   4.149 -10.040  0.00  0.00    -0.245 OA
BRANCH  13  15
ATOM     15  O   LIG d   1       9.982   3.675  -8.260  0.00  0.00    -0.465 OA
BRANCH  15  16
ATOM     16  C   LIG d   1       9.855   4.685  -7.257  0.00  0.00     0.082 C 
ATOM     17  H   LIG d   1       9.085   4.394  -6.542  0.00  0.00     0.066 H 
ATOM     18  H   LIG d   1      10.806   4.804  -6.737  0.00  0.00     0.066 H 
ATOM     19  H   LIG d   1       9.577   5.629  -7.725  0.00  0.00     0.066 H 
ENDBRANCH  15  16
ENDBRANCH  13  15
ENDBRANCH   7  13
ENDBRANCH   1   3
BRANCH   1  20
ATOM     20  C   LIG d   1       5.013  -0.964  -6.464  0.00  0.00     0.379 A 
ATOM     21  N   LIG d   1       4.843  -2.249  -6.165  0.00  0.00    -0.156 NA
ATOM     22  C   LIG d   1       4.636  -2.646  -4.919  0.00  0.00     0.138 A 
ATOM     23  C   LIG d   1       4.587  -1.663  -3.898  0.00  0.00     0.086 A 
ATOM     24  C   LIG d   1       4.769  -0.307  -4.265  0.00  0.00     0.219 A 
ATOM     25  C   LIG d   1       4.368  -1.996  -2.557  0.00  0.00    -0.045 A 
ATOM     26  N   LIG d   1       4.977  -0.009  -5.555  0.00  0.00    -0.174 N 
ATOM     27  C   LIG d   1       4.724   0.683  -3.273  0.00  0.00     0.011 A 
ATOM     28  H   LIG d   1       5.103   0.916  -5.822  0.00  0.00     0.457 HD
ATOM     29  C   LIG d   1       4.508   0.326  -1.975  0.00  0.00    -0.056 A 
ATOM     30  H   LIG d   1       4.860   1.721  -3.535  0.00  0.00     0.068 H 
ATOM     31  C   LIG d   1       4.331  -1.007  -1.618  0.00  0.00    -0.061 A 
ATOM     32  H   LIG d   1       4.475   1.090  -1.212  0.00  0.00     0.062 H 
ATOM     33  H   LIG d   1       4.163  -1.263  -0.582  0.00  0.00     0.062 H 
ATOM     34  H   LIG d   1       4.229  -3.027  -2.268  0.00  0.00     0.063 H 
BRANCH  22  35
ATOM     35  N   LIG d   1       4.466  -3.981  -4.621  0.00  0.00    -0.342 N 
ATOM     36  H   LIG d   1       3.579  -4.329  -4.441  0.00  0.00     0.144 HD
ATOM     37  H   LIG d   1       5.235  -4.572  -4.591  0.00  0.00     0.144 HD
ENDBRANCH  22  35
ENDBRANCH   1  20
TORSDOF 6
ENDMDL
MODEL 10
REMARK VINA RESULT:      -5.6      4.890      6.474
REMARK  6 active torsions:
REMARK  status: ('A' for Active; 'I' for Inactive)
REMARK    1  A    between atoms: C_1  and  O_2 
REMARK    2  A    between atoms: O_2  and  C_3 
REMARK    3  A    between atoms: C_3  and  C_5 
REMARK    4  A    between atoms: C_8  and  N_11 
REMARK    5  A    between atoms: N_11  and  C_12 
REMARK    6  A    between atoms: C_20  and  N_22 
ROOT
ATOM      1  N   LIG d   1       7.701   1.914  -4.824  0.00  0.00    -0.244 N 
ATOM      2  H   LIG d   1       7.386   2.582  -5.452  0.00  0.00     0.159 HD
ENDROOT
BRANCH   1   3
ATOM      3  C   LIG d   1       9.064   1.786  -4.571  0.00  0.00     0.037 A 
ATOM      4  C   LIG d   1       9.849   0.977  -5.389  0.00  0.00    -0.040 A 
ATOM      5  C   LIG d   1      11.197   0.849  -5.142  0.00  0.00    -0.046 A 
ATOM      6  H   LIG d   1       9.400   0.450  -6.218  0.00  0.00     0.064 H 
ATOM      7  C   LIG d   1      11.778   1.531  -4.069  0.00  0.00     0.059 A 
ATOM      8  H   LIG d   1      11.806   0.221  -5.777  0.00  0.00     0.063 H 
ATOM      9  C   LIG d   1      10.985   2.337  -3.246  0.00  0.00    -0.046 A 
ATOM     10  C   LIG d   1       9.640   2.467  -3.503  0.00  0.00    -0.040 A 
ATOM     11  H   LIG d   1      11.430   2.863  -2.414  0.00  0.00     0.063 H 
ATOM     12  H   LIG d   1       9.027   3.094  -2.870  0.00  0.00     0.064 H 
BRANCH   7  13
ATOM     13  C   LIG d   1      13.221   1.394  -3.801  0.00  0.00     0.339 C 
ATOM     14  O   LIG d   1      13.640   0.415  -3.217  0.00  0.00    -0.245 OA
BRANCH  13  15
ATOM     15  O   LIG d   1      14.074   2.357  -4.201  0.00  0.00    -0.465 OA
BRANCH  15  16
ATOM     16  C   LIG d   1      14.667   3.163  -3.181  0.00  0.00     0.082 C 
ATOM     17  H   LIG d   1      13.910   3.431  -2.444  0.00  0.00     0.066 H 
ATOM     18  H   LIG d   1      15.466   2.604  -2.694  0.00  0.00     0.066 H 
ATOM     19  H   LIG d   1      15.078   4.069  -3.626  0.00  0.00     0.066 H 
ENDBRANCH  15  16
ENDBRANCH  13  15
ENDBRANCH   7  13
ENDBRANCH   1   3
BRANCH   1  20
ATOM     20  C   LIG d   1       6.797   1.086  -4.180  0.00  0.00     0.379 A 
ATOM     21  N   LIG d   1       6.135   1.561  -3.128  0.00  0.00    -0.156 NA
ATOM     22  C   LIG d   1       5.255   0.819  -2.474  0.00  0.00     0.138 A 
ATOM     23  C   LIG d   1       5.035  -0.511  -2.915  0.00  0.00     0.086 A 
ATOM     24  C   LIG d   1       5.766  -0.974  -4.036  0.00  0.00     0.219 A 
ATOM     25  C   LIG d   1       4.126  -1.362  -2.278  0.00  0.00    -0.045 A 
ATOM     26  N   LIG d   1       6.632  -0.143  -4.632  0.00  0.00    -0.174 N 
ATOM     27  C   LIG d   1       5.566  -2.286  -4.489  0.00  0.00     0.011 A 
ATOM     28  H   LIG d   1       7.140  -0.446  -5.401  0.00  0.00     0.457 HD
ATOM     29  C   LIG d   1       4.674  -3.091  -3.846  0.00  0.00    -0.056 A 
ATOM     30  H   LIG d   1       6.115  -2.655  -5.342  0.00  0.00     0.068 H 
ATOM     31  C   LIG d   1       3.956  -2.633  -2.746  0.00  0.00    -0.061 A 
ATOM     32  H   LIG d   1       4.521  -4.102  -4.198  0.00  0.00     0.062 H 
ATOM     33  H   LIG d   1       3.254  -3.291  -2.255  0.00  0.00     0.062 H 
ATOM     34  H   LIG d   1       3.564  -1.018  -1.423  0.00  0.00     0.063 H 
BRANCH  22  35
ATOM     35  N   LIG d   1       4.572   1.325  -1.389  0.00  0.00    -0.342 N 
ATOM     36  H   LIG d   1       4.217   0.724  -0.716  0.00  0.00     0.144 HD
ATOM     37  H   LIG d   1       4.445   2.283  -1.300  0.00  0.00     0.144 HD
ENDBRANCH  22  35
ENDBRANCH   1  20
TORSDOF 6
ENDMDL
