MODEL 1
REMARK VINA RESULT:      -6.6      0.000      0.000
REMARK  13 active torsions:
REMARK  status: ('A' for Active; 'I' for Inactive)
REMARK    1  A    between atoms: C_1  and  C_2 
REMARK    2  A    between atoms: C_19  and  C_21 
REMARK    3  A    between atoms: C_21  and  N_22 
REMARK    4  A    between atoms: N_22  and  C_23 
REMARK    5  A    between atoms: N_22  and  C_32 
REMARK    6  A    between atoms: C_23  and  C_24 
REMARK    7  A    between atoms: C_24  and  C_25 
REMARK    8  A    between atoms: C_25  and  N_26 
REMARK    9  A    between atoms: C_32  and  C_33 
REMARK   10  A    between atoms: C_37  and  O_41 
REMARK   11  A    between atoms: C_38  and  O_39 
REMARK   12  A    between atoms: O_39  and  C_40 
REMARK   13  A    between atoms: O_41  and  C_42 
ROOT
ATOM      1  N   LIG d   1       6.151  -3.106  -8.353  0.00  0.00     0.239 N 
ATOM      2  H   LIG d   1       6.169  -2.274  -7.784  0.00  0.00     0.204 HD
ENDROOT
BRANCH   1   3
ATOM      3  C   LIG d   1       5.480  -4.187  -7.619  0.00  0.00    -0.018 C 
ATOM      4  H   LIG d   1       6.227  -4.825  -7.147  0.00  0.00     0.082 H 
ATOM      5  H   LIG d   1       4.882  -4.781  -8.312  0.00  0.00     0.082 H 
BRANCH   3   6
ATOM      6  C   LIG d   1       4.570  -3.587  -6.546  0.00  0.00     0.102 C 
ATOM      7  C   LIG d   1       5.232  -2.329  -5.907  0.00  0.00     0.015 C 
ATOM      8  C   LIG d   1       4.092  -1.374  -5.546  0.00  0.00    -0.039 C 
ATOM      9  H   LIG d   1       5.977  -1.866  -6.555  0.00  0.00     0.035 H 
ATOM     10  C   LIG d   1       5.851  -2.955  -4.642  0.00  0.00     0.107 C 
ATOM     11  C   LIG d   1       4.559  -0.348  -4.518  0.00  0.00    -0.014 C 
ATOM     12  H   LIG d   1       3.262  -1.946  -5.133  0.00  0.00     0.028 H 
ATOM     13  H   LIG d   1       3.759  -0.857  -6.446  0.00  0.00     0.028 H 
ATOM     14  C   LIG d   1       4.946  -1.099  -3.235  0.00  0.00    -0.022 C 
ATOM     15  C   LIG d   1       3.424   0.595  -4.193  0.00  0.00    -0.073 C 
ATOM     16  H   LIG d   1       5.418   0.207  -4.898  0.00  0.00     0.035 H 
ATOM     17  C   LIG d   1       6.156  -1.976  -3.553  0.00  0.00    -0.009 C 
ATOM     18  C   LIG d   1       5.281  -0.085  -2.142  0.00  0.00    -0.047 C 
ATOM     19  H   LIG d   1       6.981  -1.342  -3.877  0.00  0.00     0.031 H 
ATOM     20  H   LIG d   1       6.453  -2.515  -2.653  0.00  0.00     0.031 H 
ATOM     21  C   LIG d   1       4.035   0.734  -1.798  0.00  0.00    -0.049 C 
ATOM     22  H   LIG d   1       5.625  -0.613  -1.252  0.00  0.00     0.027 H 
ATOM     23  H   LIG d   1       6.068   0.581  -2.495  0.00  0.00     0.027 H 
ATOM     24  C   LIG d   1       3.597   1.541  -3.024  0.00  0.00    -0.032 C 
ATOM     25  H   LIG d   1       3.231   0.062  -1.499  0.00  0.00     0.027 H 
ATOM     26  H   LIG d   1       4.264   1.414  -0.978  0.00  0.00     0.027 H 
ATOM     27  H   LIG d   1       2.650   2.039  -2.815  0.00  0.00     0.031 H 
ATOM     28  H   LIG d   1       4.358   2.283  -3.264  0.00  0.00     0.031 H 
ATOM     29  C   LIG d   1       2.321   0.592  -4.901  0.00  0.00    -0.099 C 
ATOM     30  H   LIG d   1       1.520   1.272  -4.654  0.00  0.00     0.053 H 
ATOM     31  H   LIG d   1       2.215  -0.090  -5.732  0.00  0.00     0.053 H 
ATOM     32  H   LIG d   1       6.772  -3.469  -4.917  0.00  0.00     0.074 H 
ATOM     33  O   LIG d   1       4.881  -3.927  -4.233  0.00  0.00    -0.461 OA
ATOM     34  C   LIG d   1       4.429  -4.542  -5.348  0.00  0.00     0.316 C 
ATOM     35  O   LIG d   1       3.985  -5.666  -5.398  0.00  0.00    -0.250 OA
ATOM     36  H   LIG d   1       3.596  -3.335  -6.965  0.00  0.00     0.047 H 
BRANCH  14  37
ATOM     37  C   LIG d   1       3.778  -1.978  -2.782  0.00  0.00    -0.059 C 
ATOM     38  H   LIG d   1       4.154  -2.786  -2.155  0.00  0.00     0.024 H 
ATOM     39  H   LIG d   1       3.069  -1.375  -2.214  0.00  0.00     0.024 H 
ATOM     40  H   LIG d   1       3.280  -2.397  -3.656  0.00  0.00     0.024 H 
ENDBRANCH  14  37
ENDBRANCH   3   6
ENDBRANCH   1   3
BRANCH   1  41
ATOM     41  C   LIG d   1       7.527  -3.512  -8.671  0.00  0.00    -0.030 C 
ATOM     42  H   LIG d   1       7.715  -4.508  -8.270  0.00  0.00     0.082 H 
ATOM     43  H   LIG d   1       7.661  -3.525  -9.753  0.00  0.00     0.082 H 
BRANCH  41  44
ATOM     44  C   LIG d   1       8.509  -2.518  -8.047  0.00  0.00     0.000 C 
ATOM     45  H   LIG d   1       9.385  -2.424  -8.689  0.00  0.00     0.033 H 
ATOM     46  H   LIG d   1       8.027  -1.547  -7.944  0.00  0.00     0.033 H 
BRANCH  44  47
ATOM     47  C   LIG d   1       8.940  -3.024  -6.670  0.00  0.00     0.004 C 
ATOM     48  H   LIG d   1       8.101  -3.529  -6.190  0.00  0.00     0.043 H 
ATOM     49  H   LIG d   1       9.769  -3.722  -6.781  0.00  0.00     0.043 H 
BRANCH  47  50
ATOM     50  N   LIG d   1       9.364  -1.887  -5.841  0.00  0.00    -0.298 N 
ATOM     51  C   LIG d   1      10.789  -1.592  -6.040  0.00  0.00     0.022 C 
ATOM     52  C   LIG d   1      11.202  -0.442  -5.117  0.00  0.00     0.060 C 
ATOM     53  H   LIG d   1      11.380  -2.477  -5.805  0.00  0.00     0.045 H 
ATOM     54  H   LIG d   1      10.961  -1.305  -7.078  0.00  0.00     0.045 H 
ATOM     55  O   LIG d   1      10.372   0.693  -5.378  0.00  0.00    -0.377 OA
ATOM     56  H   LIG d   1      12.244  -0.182  -5.302  0.00  0.00     0.057 H 
ATOM     57  H   LIG d   1      11.082  -0.750  -4.078  0.00  0.00     0.057 H 
ATOM     58  C   LIG d   1       8.977   0.441  -5.193  0.00  0.00     0.060 C 
ATOM     59  C   LIG d   1       8.542  -0.700  -6.117  0.00  0.00     0.022 C 
ATOM     60  H   LIG d   1       8.409   1.340  -5.433  0.00  0.00     0.057 H 
ATOM     61  H   LIG d   1       8.792   0.160  -4.157  0.00  0.00     0.057 H 
ATOM     62  H   LIG d   1       8.677  -0.398  -7.156  0.00  0.00     0.045 H 
ATOM     63  H   LIG d   1       7.492  -0.933  -5.939  0.00  0.00     0.045 H 
ENDBRANCH  47  50
ENDBRANCH  44  47
ENDBRANCH  41  44
ENDBRANCH   1  41
BRANCH   1  64
ATOM     64  C   LIG d   1       5.421  -2.833  -9.598  0.00  0.00    -0.002 C 
ATOM     65  H   LIG d   1       6.121  -2.495 -10.362  0.00  0.00     0.087 H 
ATOM     66  H   LIG d   1       4.926  -3.742  -9.936  0.00  0.00     0.087 H 
BRANCH  64  67
ATOM     67  C   LIG d   1       4.391  -1.762  -9.351  0.00  0.00     0.042 A 
ATOM     68  C   LIG d   1       4.790  -0.494  -8.960  0.00  0.00     0.170 A 
ATOM     69  C   LIG d   1       3.836   0.496  -8.738  0.00  0.00     0.162 A 
ATOM     70  C   LIG d   1       2.491   0.205  -8.898  0.00  0.00    -0.016 A 
ATOM     71  C   LIG d   1       2.099  -1.065  -9.283  0.00  0.00    -0.058 A 
ATOM     72  H   LIG d   1       1.749   0.970  -8.723  0.00  0.00     0.066 H 
ATOM     73  C   LIG d   1       3.047  -2.045  -9.509  0.00  0.00    -0.050 A 
ATOM     74  H   LIG d   1       1.050  -1.290  -9.407  0.00  0.00     0.062 H 
ATOM     75  H   LIG d   1       2.737  -3.035  -9.810  0.00  0.00     0.062 H 
BRANCH  68  76
ATOM     76  O   LIG d   1       6.111  -0.214  -8.799  0.00  0.00    -0.491 OA
BRANCH  76  77
ATOM     77  C   LIG d   1       6.803   0.324  -9.927  0.00  0.00     0.079 C 
ATOM     78  H   LIG d   1       6.820   1.411  -9.858  0.00  0.00     0.066 H 
ATOM     79  H   LIG d   1       7.824  -0.056  -9.942  0.00  0.00     0.066 H 
ATOM     80  H   LIG d   1       6.291   0.026 -10.843  0.00  0.00     0.066 H 
ENDBRANCH  76  77
ENDBRANCH  68  76
BRANCH  69  81
ATOM     81  O   LIG d   1       4.223   1.744  -8.360  0.00  0.00    -0.491 OA
BRANCH  81  82
ATOM     82  C   LIG d   1       4.061   2.791  -9.318  0.00  0.00     0.079 C 
ATOM     83  H   LIG d   1       3.828   2.360 -10.292  0.00  0.00     0.066 H 
ATOM     84  H   LIG d   1       3.247   3.446  -9.007  0.00  0.00     0.066 H 
ATOM     85  H   LIG d   1       4.984   3.366  -9.388  0.00  0.00     0.066 H 
ENDBRANCH  81  82
ENDBRANCH  69  81
ENDBRANCH  64  67
ENDBRANCH   1  64
TORSDOF 13
ENDMDL
MODEL 2
REMARK VINA RESULT:      -6.5      1.446      1.796
REMARK  13 active torsions:
REMARK  status: ('A' for Active; 'I' for Inactive)
REMARK    1  A    between atoms: C_1  and  C_2 
REMARK    2  A    between atoms: C_19  and  C_21 
REMARK    3  A    between atoms: C_21  and  N_22 
REMARK    4  A    between atoms: N_22  and  C_23 
REMARK    5  A    between atoms: N_22  and  C_32 
REMARK    6  A    between atoms: C_23  and  C_24 
REMARK    7  A    between atoms: C_24  and  C_25 
REMARK    8  A    between atoms: C_25  and  N_26 
REMARK    9  A    between atoms: C_32  and  C_33 
REMARK   10  A    between atoms: C_37  and  O_41 
REMARK   11  A    between atoms: C_38  and  O_39 
REMARK   12  A    between atoms: O_39  and  C_40 
REMARK   13  A    between atoms: O_41  and  C_42 
ROOT
ATOM      1  N   LIG d   1       5.929  -3.177  -8.526  0.00  0.00     0.239 N 
ATOM      2  H   LIG d   1       5.985  -2.353  -7.947  0.00  0.00     0.204 HD
ENDROOT
BRANCH   1   3
ATOM      3  C   LIG d   1       5.310  -4.270  -7.763  0.00  0.00    -0.018 C 
ATOM      4  H   LIG d   1       6.089  -4.906  -7.342  0.00  0.00     0.082 H 
ATOM      5  H   LIG d   1       4.676  -4.861  -8.425  0.00  0.00     0.082 H 
BRANCH   3   6
ATOM      6  C   LIG d   1       4.462  -3.686  -6.632  0.00  0.00     0.102 C 
ATOM      7  C   LIG d   1       5.145  -2.420  -6.033  0.00  0.00     0.015 C 
ATOM      8  C   LIG d   1       4.017  -1.483  -5.597  0.00  0.00    -0.039 C 
ATOM      9  H   LIG d   1       5.839  -1.943  -6.726  0.00  0.00     0.035 H 
ATOM     10  C   LIG d   1       5.854  -3.038  -4.813  0.00  0.00     0.107 C 
ATOM     11  C   LIG d   1       4.533  -0.452  -4.597  0.00  0.00    -0.014 C 
ATOM     12  H   LIG d   1       3.223  -2.068  -5.132  0.00  0.00     0.028 H 
ATOM     13  H   LIG d   1       3.618  -0.969  -6.471  0.00  0.00     0.028 H 
ATOM     14  C   LIG d   1       5.013  -1.199  -3.345  0.00  0.00    -0.022 C 
ATOM     15  C   LIG d   1       3.406   0.473  -4.197  0.00  0.00    -0.073 C 
ATOM     16  H   LIG d   1       5.357   0.117  -5.030  0.00  0.00     0.035 H 
ATOM     17  C   LIG d   1       6.213  -2.057  -3.742  0.00  0.00    -0.009 C 
ATOM     18  C   LIG d   1       5.403  -0.183  -2.272  0.00  0.00    -0.047 C 
ATOM     19  H   LIG d   1       7.006  -1.410  -4.117  0.00  0.00     0.031 H 
ATOM     20  H   LIG d   1       6.576  -2.593  -2.865  0.00  0.00     0.031 H 
ATOM     21  C   LIG d   1       4.169   0.616  -1.846  0.00  0.00    -0.049 C 
ATOM     22  H   LIG d   1       5.811  -0.707  -1.408  0.00  0.00     0.027 H 
ATOM     23  H   LIG d   1       6.155   0.496  -2.673  0.00  0.00     0.027 H 
ATOM     24  C   LIG d   1       3.640   1.419  -3.038  0.00  0.00    -0.032 C 
ATOM     25  H   LIG d   1       3.396  -0.069  -1.498  0.00  0.00     0.027 H 
ATOM     26  H   LIG d   1       4.439   1.298  -1.040  0.00  0.00     0.027 H 
ATOM     27  H   LIG d   1       2.701   1.901  -2.767  0.00  0.00     0.031 H 
ATOM     28  H   LIG d   1       4.372   2.173  -3.325  0.00  0.00     0.031 H 
ATOM     29  C   LIG d   1       2.261   0.454  -4.832  0.00  0.00    -0.099 C 
ATOM     30  H   LIG d   1       1.467   1.121  -4.532  0.00  0.00     0.053 H 
ATOM     31  H   LIG d   1       2.111  -0.228  -5.656  0.00  0.00     0.053 H 
ATOM     32  H   LIG d   1       6.763  -3.537  -5.148  0.00  0.00     0.074 H 
ATOM     33  O   LIG d   1       4.927  -4.026  -4.344  0.00  0.00    -0.461 OA
ATOM     34  C   LIG d   1       4.414  -4.646  -5.430  0.00  0.00     0.316 C 
ATOM     35  O   LIG d   1       3.985  -5.776  -5.455  0.00  0.00    -0.250 OA
ATOM     36  H   LIG d   1       3.460  -3.448  -6.986  0.00  0.00     0.047 H 
BRANCH  14  37
ATOM     37  C   LIG d   1       3.891  -2.097  -2.820  0.00  0.00    -0.059 C 
ATOM     38  H   LIG d   1       3.772  -1.942  -1.748  0.00  0.00     0.024 H 
ATOM     39  H   LIG d   1       2.959  -1.850  -3.329  0.00  0.00     0.024 H 
ATOM     40  H   LIG d   1       4.142  -3.141  -3.010  0.00  0.00     0.024 H 
ENDBRANCH  14  37
ENDBRANCH   3   6
ENDBRANCH   1   3
BRANCH   1  41
ATOM     41  C   LIG d   1       7.280  -3.576  -8.943  0.00  0.00    -0.030 C 
ATOM     42  H   LIG d   1       7.328  -4.661  -9.035  0.00  0.00     0.082 H 
ATOM     43  H   LIG d   1       7.513  -3.119  -9.904  0.00  0.00     0.082 H 
BRANCH  41  44
ATOM     44  C   LIG d   1       8.295  -3.109  -7.897  0.00  0.00     0.000 C 
ATOM     45  H   LIG d   1       8.752  -2.175  -8.227  0.00  0.00     0.033 H 
ATOM     46  H   LIG d   1       7.790  -2.951  -6.945  0.00  0.00     0.033 H 
BRANCH  44  47
ATOM     47  C   LIG d   1       9.380  -4.175  -7.729  0.00  0.00     0.004 C 
ATOM     48  H   LIG d   1       9.080  -5.084  -8.250  0.00  0.00     0.043 H 
ATOM     49  H   LIG d   1      10.318  -3.809  -8.147  0.00  0.00     0.043 H 
BRANCH  47  50
ATOM     50  N   LIG d   1       9.561  -4.468  -6.301  0.00  0.00    -0.298 N 
ATOM     51  C   LIG d   1       9.543  -3.234  -5.503  0.00  0.00     0.022 C 
ATOM     52  C   LIG d   1       9.794  -3.579  -4.032  0.00  0.00     0.060 C 
ATOM     53  H   LIG d   1      10.324  -2.561  -5.856  0.00  0.00     0.045 H 
ATOM     54  H   LIG d   1       8.572  -2.750  -5.603  0.00  0.00     0.045 H 
ATOM     55  O   LIG d   1       8.810  -4.521  -3.595  0.00  0.00    -0.377 OA
ATOM     56  H   LIG d   1       9.725  -2.674  -3.429  0.00  0.00     0.057 H 
ATOM     57  H   LIG d   1      10.788  -4.013  -3.925  0.00  0.00     0.057 H 
ATOM     58  C   LIG d   1       8.801  -5.735  -4.350  0.00  0.00     0.060 C 
ATOM     59  C   LIG d   1       8.540  -5.412  -5.824  0.00  0.00     0.022 C 
ATOM     60  H   LIG d   1       8.013  -6.390  -3.977  0.00  0.00     0.057 H 
ATOM     61  H   LIG d   1       9.765  -6.233  -4.252  0.00  0.00     0.057 H 
ATOM     62  H   LIG d   1       7.552  -4.962  -5.928  0.00  0.00     0.045 H 
ATOM     63  H   LIG d   1       8.588  -6.329  -6.412  0.00  0.00     0.045 H 
ENDBRANCH  47  50
ENDBRANCH  44  47
ENDBRANCH  41  44
ENDBRANCH   1  41
BRANCH   1  64
ATOM     64  C   LIG d   1       5.116  -2.888  -9.715  0.00  0.00    -0.002 C 
ATOM     65  H   LIG d   1       5.769  -2.620 -10.544  0.00  0.00     0.087 H 
ATOM     66  H   LIG d   1       4.534  -3.770  -9.980  0.00  0.00     0.087 H 
BRANCH  64  67
ATOM     67  C   LIG d   1       4.184  -1.742  -9.418  0.00  0.00     0.042 A 
ATOM     68  C   LIG d   1       4.696  -0.516  -9.024  0.00  0.00     0.170 A 
ATOM     69  C   LIG d   1       3.833   0.542  -8.756  0.00  0.00     0.162 A 
ATOM     70  C   LIG d   1       2.464   0.363  -8.874  0.00  0.00    -0.016 A 
ATOM     71  C   LIG d   1       1.959  -0.865  -9.261  0.00  0.00    -0.058 A 
ATOM     72  H   LIG d   1       1.792   1.181  -8.663  0.00  0.00     0.066 H 
ATOM     73  C   LIG d   1       2.817  -1.915  -9.533  0.00  0.00    -0.050 A 
ATOM     74  H   LIG d   1       0.892  -1.004  -9.353  0.00  0.00     0.062 H 
ATOM     75  H   LIG d   1       2.418  -2.871  -9.836  0.00  0.00     0.062 H 
BRANCH  68  76
ATOM     76  O   LIG d   1       6.040  -0.346  -8.905  0.00  0.00    -0.491 OA
BRANCH  76  77
ATOM     77  C   LIG d   1       6.732   0.169 -10.043  0.00  0.00     0.079 C 
ATOM     78  H   LIG d   1       6.714  -0.569 -10.845  0.00  0.00     0.066 H 
ATOM     79  H   LIG d   1       6.247   1.085 -10.381  0.00  0.00     0.066 H 
ATOM     80  H   LIG d   1       7.766   0.385  -9.772  0.00  0.00     0.066 H 
ENDBRANCH  76  77
ENDBRANCH  68  76
BRANCH  69  81
ATOM     81  O   LIG d   1       4.331   1.749  -8.376  0.00  0.00    -0.491 OA
BRANCH  81  82
ATOM     82  C   LIG d   1       4.183   2.832  -9.296  0.00  0.00     0.079 C 
ATOM     83  H   LIG d   1       5.080   3.453  -9.273  0.00  0.00     0.066 H 
ATOM     84  H   LIG d   1       4.042   2.437 -10.302  0.00  0.00     0.066 H 
ATOM     85  H   LIG d   1       3.319   3.432  -9.015  0.00  0.00     0.066 H 
ENDBRANCH  81  82
ENDBRANCH  69  81
ENDBRANCH  64  67
ENDBRANCH   1  64
TORSDOF 13
ENDMDL
MODEL 3
REMARK VINA RESULT:      -6.3      2.396      3.699
REMARK  13 active torsions:
REMARK  status: ('A' for Active; 'I' for Inactive)
REMARK    1  A    between atoms: C_1  and  C_2 
REMARK    2  A    between atoms: C_19  and  C_21 
REMARK    3  A    between atoms: C_21  and  N_22 
REMARK    4  A    between atoms: N_22  and  C_23 
REMARK    5  A    between atoms: N_22  and  C_32 
REMARK    6  A    between atoms: C_23  and  C_24 
REMARK    7  A    between atoms: C_24  and  C_25 
REMARK    8  A    between atoms: C_25  and  N_26 
REMARK    9  A    between atoms: C_32  and  C_33 
REMARK   10  A    between atoms: C_37  and  O_41 
REMARK   11  A    between atoms: C_38  and  O_39 
REMARK   12  A    between atoms: O_39  and  C_40 
REMARK   13  A    between atoms: O_41  and  C_42 
ROOT
ATOM      1  N   LIG d   1       4.868  -3.483  -9.009  0.00  0.00     0.239 N 
ATOM      2  H   LIG d   1       4.746  -2.498  -8.826  0.00  0.00     0.204 HD
ENDROOT
BRANCH   1   3
ATOM      3  C   LIG d   1       5.191  -4.178  -7.756  0.00  0.00    -0.018 C 
ATOM      4  H   LIG d   1       6.252  -4.054  -7.534  0.00  0.00     0.082 H 
ATOM      5  H   LIG d   1       4.963  -5.239  -7.860  0.00  0.00     0.082 H 
BRANCH   3   6
ATOM      6  C   LIG d   1       4.360  -3.587  -6.616  0.00  0.00     0.102 C 
ATOM      7  C   LIG d   1       5.045  -2.310  -6.043  0.00  0.00     0.015 C 
ATOM      8  C   LIG d   1       3.918  -1.375  -5.597  0.00  0.00    -0.039 C 
ATOM      9  H   LIG d   1       5.723  -1.836  -6.753  0.00  0.00     0.035 H 
ATOM     10  C   LIG d   1       5.780  -2.910  -4.829  0.00  0.00     0.107 C 
ATOM     11  C   LIG d   1       4.445  -0.330  -4.618  0.00  0.00    -0.014 C 
ATOM     12  H   LIG d   1       3.137  -1.961  -5.111  0.00  0.00     0.028 H 
ATOM     13  H   LIG d   1       3.500  -0.874  -6.469  0.00  0.00     0.028 H 
ATOM     14  C   LIG d   1       4.953  -1.060  -3.366  0.00  0.00    -0.022 C 
ATOM     15  C   LIG d   1       3.320   0.591  -4.207  0.00  0.00    -0.073 C 
ATOM     16  H   LIG d   1       5.257   0.240  -5.071  0.00  0.00     0.035 H 
ATOM     17  C   LIG d   1       6.152  -1.914  -3.776  0.00  0.00    -0.009 C 
ATOM     18  C   LIG d   1       5.355  -0.030  -2.312  0.00  0.00    -0.047 C 
ATOM     19  H   LIG d   1       6.933  -1.266  -4.172  0.00  0.00     0.031 H 
ATOM     20  H   LIG d   1       6.534  -2.439  -2.899  0.00  0.00     0.031 H 
ATOM     21  C   LIG d   1       4.123   0.765  -1.872  0.00  0.00    -0.049 C 
ATOM     22  H   LIG d   1       5.782  -0.542  -1.450  0.00  0.00     0.027 H 
ATOM     23  H   LIG d   1       6.095   0.650  -2.734  0.00  0.00     0.027 H 
ATOM     24  C   LIG d   1       3.568   1.552  -3.064  0.00  0.00    -0.032 C 
ATOM     25  H   LIG d   1       3.362   0.079  -1.503  0.00  0.00     0.027 H 
ATOM     26  H   LIG d   1       4.404   1.458  -1.079  0.00  0.00     0.027 H 
ATOM     27  H   LIG d   1       2.631   2.031  -2.780  0.00  0.00     0.031 H 
ATOM     28  H   LIG d   1       4.290   2.308  -3.372  0.00  0.00     0.031 H 
ATOM     29  C   LIG d   1       2.163   0.558  -4.822  0.00  0.00    -0.099 C 
ATOM     30  H   LIG d   1       1.370   1.223  -4.515  0.00  0.00     0.053 H 
ATOM     31  H   LIG d   1       2.003  -0.134  -5.635  0.00  0.00     0.053 H 
ATOM     32  H   LIG d   1       6.686  -3.407  -5.175  0.00  0.00     0.074 H 
ATOM     33  O   LIG d   1       4.868  -3.898  -4.334  0.00  0.00    -0.461 OA
ATOM     34  C   LIG d   1       4.340  -4.534  -5.403  0.00  0.00     0.316 C 
ATOM     35  O   LIG d   1       3.918  -5.667  -5.408  0.00  0.00    -0.250 OA
ATOM     36  H   LIG d   1       3.349  -3.359  -6.954  0.00  0.00     0.047 H 
BRANCH  14  37
ATOM     37  C   LIG d   1       3.846  -1.960  -2.811  0.00  0.00    -0.059 C 
ATOM     38  H   LIG d   1       2.913  -1.400  -2.762  0.00  0.00     0.024 H 
ATOM     39  H   LIG d   1       3.719  -2.824  -3.465  0.00  0.00     0.024 H 
ATOM     40  H   LIG d   1       4.121  -2.298  -1.812  0.00  0.00     0.024 H 
ENDBRANCH  14  37
ENDBRANCH   3   6
ENDBRANCH   1   3
BRANCH   1  41
ATOM     41  C   LIG d   1       5.965  -3.669  -9.969  0.00  0.00    -0.030 C 
ATOM     42  H   LIG d   1       6.621  -4.466  -9.620  0.00  0.00     0.082 H 
ATOM     43  H   LIG d   1       5.554  -3.937 -10.942  0.00  0.00     0.082 H 
BRANCH  41  44
ATOM     44  C   LIG d   1       6.763  -2.369 -10.091  0.00  0.00     0.000 C 
ATOM     45  H   LIG d   1       6.927  -1.950  -9.098  0.00  0.00     0.033 H 
ATOM     46  H   LIG d   1       7.724  -2.576 -10.562  0.00  0.00     0.033 H 
BRANCH  44  47
ATOM     47  C   LIG d   1       5.981  -1.369 -10.944  0.00  0.00     0.004 C 
ATOM     48  H   LIG d   1       6.611  -1.016 -11.760  0.00  0.00     0.043 H 
ATOM     49  H   LIG d   1       5.094  -1.853 -11.352  0.00  0.00     0.043 H 
BRANCH  47  50
ATOM     50  N   LIG d   1       5.576  -0.228 -10.112  0.00  0.00    -0.298 N 
ATOM     51  C   LIG d   1       6.749   0.511  -9.622  0.00  0.00     0.022 C 
ATOM     52  C   LIG d   1       6.285   1.652  -8.714  0.00  0.00     0.060 C 
ATOM     53  H   LIG d   1       7.394  -0.164  -9.059  0.00  0.00     0.045 H 
ATOM     54  H   LIG d   1       7.301   0.920 -10.469  0.00  0.00     0.045 H 
ATOM     55  O   LIG d   1       5.379   2.492  -9.437  0.00  0.00    -0.377 OA
ATOM     56  H   LIG d   1       7.147   2.237  -8.394  0.00  0.00     0.057 H 
ATOM     57  H   LIG d   1       5.781   1.240  -7.840  0.00  0.00     0.057 H 
ATOM     58  C   LIG d   1       4.225   1.805  -9.927  0.00  0.00     0.060 C 
ATOM     59  C   LIG d   1       4.668   0.665 -10.847  0.00  0.00     0.022 C 
ATOM     60  H   LIG d   1       3.598   2.500 -10.485  0.00  0.00     0.057 H 
ATOM     61  H   LIG d   1       3.661   1.398  -9.089  0.00  0.00     0.057 H 
ATOM     62  H   LIG d   1       5.187   1.077 -11.713  0.00  0.00     0.045 H 
ATOM     63  H   LIG d   1       3.794   0.104 -11.179  0.00  0.00     0.045 H 
ENDBRANCH  47  50
ENDBRANCH  44  47
ENDBRANCH  41  44
ENDBRANCH   1  41
BRANCH   1  64
ATOM     64  C   LIG d   1       3.628  -4.035  -9.570  0.00  0.00    -0.002 C 
ATOM     65  H   LIG d   1       3.868  -4.692 -10.405  0.00  0.00     0.087 H 
ATOM     66  H   LIG d   1       3.102  -4.600  -8.802  0.00  0.00     0.087 H 
BRANCH  64  67
ATOM     67  C   LIG d   1       2.752  -2.909 -10.054  0.00  0.00     0.042 A 
ATOM     68  C   LIG d   1       2.250  -2.927 -11.345  0.00  0.00     0.170 A 
ATOM     69  C   LIG d   1       1.435  -1.888 -11.787  0.00  0.00     0.162 A 
ATOM     70  C   LIG d   1       1.138  -0.835 -10.937  0.00  0.00    -0.016 A 
ATOM     71  C   LIG d   1       1.647  -0.820  -9.651  0.00  0.00    -0.058 A 
ATOM     72  H   LIG d   1       0.510  -0.026 -11.278  0.00  0.00     0.066 H 
ATOM     73  C   LIG d   1       2.452  -1.855  -9.210  0.00  0.00    -0.050 A 
ATOM     74  H   LIG d   1       1.416   0.001  -8.989  0.00  0.00     0.062 H 
ATOM     75  H   LIG d   1       2.846  -1.840  -8.206  0.00  0.00     0.062 H 
BRANCH  68  76
ATOM     76  O   LIG d   1       2.548  -3.960 -12.177  0.00  0.00    -0.491 OA
BRANCH  76  77
ATOM     77  C   LIG d   1       3.674  -3.794 -13.040  0.00  0.00     0.079 C 
ATOM     78  H   LIG d   1       4.522  -3.426 -12.464  0.00  0.00     0.066 H 
ATOM     79  H   LIG d   1       3.929  -4.752 -13.493  0.00  0.00     0.066 H 
ATOM     80  H   LIG d   1       3.428  -3.077 -13.823  0.00  0.00     0.066 H 
ENDBRANCH  76  77
ENDBRANCH  68  76
BRANCH  69  81
ATOM     81  O   LIG d   1       0.935  -1.904 -13.052  0.00  0.00    -0.491 OA
BRANCH  81  82
ATOM     82  C   LIG d   1      -0.486  -1.960 -13.187  0.00  0.00     0.079 C 
ATOM     83  H   LIG d   1      -0.801  -3.000 -13.279  0.00  0.00     0.066 H 
ATOM     84  H   LIG d   1      -0.953  -1.516 -12.308  0.00  0.00     0.066 H 
ATOM     85  H   LIG d   1      -0.788  -1.409 -14.077  0.00  0.00     0.066 H 
ENDBRANCH  81  82
ENDBRANCH  69  81
ENDBRANCH  64  67
ENDBRANCH   1  64
TORSDOF 13
ENDMDL
MODEL 4
REMARK VINA RESULT:      -6.1      5.678      7.990
REMARK  13 active torsions:
REMARK  status: ('A' for Active; 'I' for Inactive)
REMARK    1  A    between atoms: C_1  and  C_2 
REMARK    2  A    between atoms: C_19  and  C_21 
REMARK    3  A    between atoms: C_21  and  N_22 
REMARK    4  A    between atoms: N_22  and  C_23 
REMARK    5  A    between atoms: N_22  and  C_32 
REMARK    6  A    between atoms: C_23  and  C_24 
REMARK    7  A    between atoms: C_24  and  C_25 
REMARK    8  A    between atoms: C_25  and  N_26 
REMARK    9  A    between atoms: C_32  and  C_33 
REMARK   10  A    between atoms: C_37  and  O_41 
REMARK   11  A    between atoms: C_38  and  O_39 
REMARK   12  A    between atoms: O_39  and  C_40 
REMARK   13  A    between atoms: O_41  and  C_42 
ROOT
ATOM      1  N   LIG d   1       9.734   4.346  -4.259  0.00  0.00     0.239 N 
ATOM      2  H   LIG d   1       8.845   4.769  -4.479  0.00  0.00     0.204 HD
ENDROOT
BRANCH   1   3
ATOM      3  C   LIG d   1       9.763   2.970  -4.772  0.00  0.00    -0.018 C 
ATOM      4  H   LIG d   1      10.322   2.336  -4.083  0.00  0.00     0.082 H 
ATOM      5  H   LIG d   1      10.246   2.957  -5.750  0.00  0.00     0.082 H 
BRANCH   3   6
ATOM      6  C   LIG d   1       8.333   2.444  -4.903  0.00  0.00     0.102 C 
ATOM      7  C   LIG d   1       8.091   1.264  -3.915  0.00  0.00     0.015 C 
ATOM      8  C   LIG d   1       6.623   1.348  -3.488  0.00  0.00    -0.039 C 
ATOM      9  H   LIG d   1       8.774   1.273  -3.066  0.00  0.00     0.035 H 
ATOM     10  C   LIG d   1       8.325   0.064  -4.854  0.00  0.00     0.107 C 
ATOM     11  C   LIG d   1       6.155   0.015  -2.912  0.00  0.00    -0.014 C 
ATOM     12  H   LIG d   1       6.011   1.600  -4.354  0.00  0.00     0.028 H 
ATOM     13  H   LIG d   1       6.513   2.127  -2.733  0.00  0.00     0.028 H 
ATOM     14  C   LIG d   1       6.246  -1.043  -4.021  0.00  0.00    -0.022 C 
ATOM     15  C   LIG d   1       4.712   0.130  -2.480  0.00  0.00    -0.073 C 
ATOM     16  H   LIG d   1       6.783  -0.275  -2.068  0.00  0.00     0.035 H 
ATOM     17  C   LIG d   1       7.720  -1.220  -4.381  0.00  0.00    -0.009 C 
ATOM     18  C   LIG d   1       5.649  -2.355  -3.513  0.00  0.00    -0.047 C 
ATOM     19  H   LIG d   1       8.265  -1.557  -3.499  0.00  0.00     0.031 H 
ATOM     20  H   LIG d   1       7.809  -1.973  -5.164  0.00  0.00     0.031 H 
ATOM     21  C   LIG d   1       4.158  -2.165  -3.223  0.00  0.00    -0.049 C 
ATOM     22  H   LIG d   1       5.775  -3.128  -4.270  0.00  0.00     0.027 H 
ATOM     23  H   LIG d   1       6.161  -2.656  -2.599  0.00  0.00     0.027 H 
ATOM     24  C   LIG d   1       3.980  -1.139  -2.100  0.00  0.00    -0.032 C 
ATOM     25  H   LIG d   1       3.656  -1.810  -4.123  0.00  0.00     0.027 H 
ATOM     26  H   LIG d   1       3.725  -3.117  -2.917  0.00  0.00     0.027 H 
ATOM     27  H   LIG d   1       2.920  -0.923  -1.967  0.00  0.00     0.031 H 
ATOM     28  H   LIG d   1       4.393  -1.536  -1.173  0.00  0.00     0.031 H 
ATOM     29  C   LIG d   1       4.111   1.294  -2.438  0.00  0.00    -0.099 C 
ATOM     30  H   LIG d   1       3.079   1.357  -2.128  0.00  0.00     0.053 H 
ATOM     31  H   LIG d   1       4.648   2.189  -2.713  0.00  0.00     0.053 H 
ATOM     32  H   LIG d   1       9.398  -0.082  -4.979  0.00  0.00     0.074 H 
ATOM     33  O   LIG d   1       7.765   0.493  -6.101  0.00  0.00    -0.461 OA
ATOM     34  C   LIG d   1       8.113   1.787  -6.278  0.00  0.00     0.316 C 
ATOM     35  O   LIG d   1       8.234   2.342  -7.345  0.00  0.00    -0.250 OA
ATOM     36  H   LIG d   1       7.612   3.242  -4.729  0.00  0.00     0.047 H 
BRANCH  14  37
ATOM     37  C   LIG d   1       5.469  -0.567  -5.251  0.00  0.00    -0.059 C 
ATOM     38  H   LIG d   1       6.140  -0.023  -5.916  0.00  0.00     0.024 H 
ATOM     39  H   LIG d   1       5.055  -1.428  -5.775  0.00  0.00     0.024 H 
ATOM     40  H   LIG d   1       4.658   0.090  -4.936  0.00  0.00     0.024 H 
ENDBRANCH  14  37
ENDBRANCH   3   6
ENDBRANCH   1   3
BRANCH   1  41
ATOM     41  C   LIG d   1       9.919   4.328  -2.801  0.00  0.00    -0.030 C 
ATOM     42  H   LIG d   1       8.947   4.276  -2.312  0.00  0.00     0.082 H 
ATOM     43  H   LIG d   1      10.514   3.459  -2.521  0.00  0.00     0.082 H 
BRANCH  41  44
ATOM     44  C   LIG d   1      10.642   5.604  -2.363  0.00  0.00     0.000 C 
ATOM     45  H   LIG d   1      11.648   5.612  -2.782  0.00  0.00     0.033 H 
ATOM     46  H   LIG d   1      10.092   6.474  -2.720  0.00  0.00     0.033 H 
BRANCH  44  47
ATOM     47  C   LIG d   1      10.726   5.644  -0.836  0.00  0.00     0.004 C 
ATOM     48  H   LIG d   1      10.057   4.891  -0.416  0.00  0.00     0.043 H 
ATOM     49  H   LIG d   1      11.748   5.438  -0.522  0.00  0.00     0.043 H 
BRANCH  47  50
ATOM     50  N   LIG d   1      10.325   6.974  -0.358  0.00  0.00    -0.298 N 
ATOM     51  C   LIG d   1      11.489   7.739   0.110  0.00  0.00     0.022 C 
ATOM     52  C   LIG d   1      11.020   9.092   0.652  0.00  0.00     0.060 C 
ATOM     53  H   LIG d   1      11.994   7.185   0.901  0.00  0.00     0.045 H 
ATOM     54  H   LIG d   1      12.177   7.899  -0.720  0.00  0.00     0.045 H 
ATOM     55  O   LIG d   1      10.292   9.782  -0.368  0.00  0.00    -0.377 OA
ATOM     56  H   LIG d   1      11.885   9.686   0.948  0.00  0.00     0.057 H 
ATOM     57  H   LIG d   1      10.375   8.933   1.516  0.00  0.00     0.057 H 
ATOM     58  C   LIG d   1       9.151   9.065  -0.845  0.00  0.00     0.060 C 
ATOM     59  C   LIG d   1       9.601   7.713  -1.403  0.00  0.00     0.022 C 
ATOM     60  H   LIG d   1       8.664   9.640  -1.634  0.00  0.00     0.057 H 
ATOM     61  H   LIG d   1       8.451   8.907  -0.026  0.00  0.00     0.057 H 
ATOM     62  H   LIG d   1      10.259   7.872  -2.258  0.00  0.00     0.045 H 
ATOM     63  H   LIG d   1       8.728   7.139  -1.717  0.00  0.00     0.045 H 
ENDBRANCH  47  50
ENDBRANCH  44  47
ENDBRANCH  41  44
ENDBRANCH   1  41
BRANCH   1  64
ATOM     64  C   LIG d   1      10.815   5.124  -4.880  0.00  0.00    -0.002 C 
ATOM     65  H   LIG d   1      11.366   5.659  -4.108  0.00  0.00     0.087 H 
ATOM     66  H   LIG d   1      11.489   4.451  -5.408  0.00  0.00     0.087 H 
BRANCH  64  67
ATOM     67  C   LIG d   1      10.226   6.111  -5.853  0.00  0.00     0.042 A 
ATOM     68  C   LIG d   1      10.212   5.824  -7.208  0.00  0.00     0.170 A 
ATOM     69  C   LIG d   1       9.662   6.736  -8.105  0.00  0.00     0.162 A 
ATOM     70  C   LIG d   1       9.140   7.932  -7.639  0.00  0.00    -0.016 A 
ATOM     71  C   LIG d   1       9.163   8.216  -6.285  0.00  0.00    -0.058 A 
ATOM     72  H   LIG d   1       8.717   8.643  -8.332  0.00  0.00     0.066 H 
ATOM     73  C   LIG d   1       9.705   7.307  -5.394  0.00  0.00    -0.050 A 
ATOM     74  H   LIG d   1       8.757   9.149  -5.923  0.00  0.00     0.062 H 
ATOM     75  H   LIG d   1       9.719   7.532  -4.339  0.00  0.00     0.062 H 
BRANCH  68  76
ATOM     76  O   LIG d   1      10.729   4.651  -7.662  0.00  0.00    -0.491 OA
BRANCH  76  77
ATOM     77  C   LIG d   1      12.078   4.676  -8.131  0.00  0.00     0.079 C 
ATOM     78  H   LIG d   1      12.545   3.709  -7.946  0.00  0.00     0.066 H 
ATOM     79  H   LIG d   1      12.087   4.885  -9.201  0.00  0.00     0.066 H 
ATOM     80  H   LIG d   1      12.631   5.454  -7.605  0.00  0.00     0.066 H 
ENDBRANCH  76  77
ENDBRANCH  68  76
BRANCH  69  81
ATOM     81  O   LIG d   1       9.640   6.456  -9.436  0.00  0.00    -0.491 OA
BRANCH  81  82
ATOM     82  C   LIG d   1       8.431   5.907  -9.963  0.00  0.00     0.079 C 
ATOM     83  H   LIG d   1       8.167   5.008  -9.405  0.00  0.00     0.066 H 
ATOM     84  H   LIG d   1       7.629   6.639  -9.874  0.00  0.00     0.066 H 
ATOM     85  H   LIG d   1       8.576   5.652 -11.013  0.00  0.00     0.066 H 
ENDBRANCH  81  82
ENDBRANCH  69  81
ENDBRANCH  64  67
ENDBRANCH   1  64
TORSDOF 13
ENDMDL
MODEL 5
REMARK VINA RESULT:      -6.0      5.868      8.168
REMARK  13 active torsions:
REMARK  status: ('A' for Active; 'I' for Inactive)
REMARK    1  A    between atoms: C_1  and  C_2 
REMARK    2  A    between atoms: C_19  and  C_21 
REMARK    3  A    between atoms: C_21  and  N_22 
REMARK    4  A    between atoms: N_22  and  C_23 
REMARK    5  A    between atoms: N_22  and  C_32 
REMARK    6  A    between atoms: C_23  and  C_24 
REMARK    7  A    between atoms: C_24  and  C_25 
REMARK    8  A    between atoms: C_25  and  N_26 
REMARK    9  A    between atoms: C_32  and  C_33 
REMARK   10  A    between atoms: C_37  and  O_41 
REMARK   11  A    between atoms: C_38  and  O_39 
REMARK   12  A    between atoms: O_39  and  C_40 
REMARK   13  A    between atoms: O_41  and  C_42 
ROOT
ATOM      1  N   LIG d   1       9.988   4.049  -4.454  0.00  0.00     0.239 N 
ATOM      2  H   LIG d   1       9.112   4.525  -4.609  0.00  0.00     0.204 HD
ENDROOT
BRANCH   1   3
ATOM      3  C   LIG d   1       9.891   2.670  -4.950  0.00  0.00    -0.018 C 
ATOM      4  H   LIG d   1      10.444   2.005  -4.286  0.00  0.00     0.082 H 
ATOM      5  H   LIG d   1      10.314   2.614  -5.953  0.00  0.00     0.082 H 
BRANCH   3   6
ATOM      6  C   LIG d   1       8.422   2.244  -4.990  0.00  0.00     0.102 C 
ATOM      7  C   LIG d   1       8.176   1.036  -4.038  0.00  0.00     0.015 C 
ATOM      8  C   LIG d   1       6.754   1.195  -3.493  0.00  0.00    -0.039 C 
ATOM      9  H   LIG d   1       8.920   0.960  -3.245  0.00  0.00     0.035 H 
ATOM     10  C   LIG d   1       8.257  -0.130  -5.042  0.00  0.00     0.107 C 
ATOM     11  C   LIG d   1       6.242  -0.132  -2.940  0.00  0.00    -0.014 C 
ATOM     12  H   LIG d   1       6.097   1.527  -4.297  0.00  0.00     0.028 H 
ATOM     13  H   LIG d   1       6.755   1.941  -2.699  0.00  0.00     0.028 H 
ATOM     14  C   LIG d   1       6.176  -1.139  -4.097  0.00  0.00    -0.022 C 
ATOM     15  C   LIG d   1       4.846   0.055  -2.391  0.00  0.00    -0.073 C 
ATOM     16  H   LIG d   1       6.910  -0.502  -2.161  0.00  0.00     0.035 H 
ATOM     17  C   LIG d   1       7.603  -1.393  -4.579  0.00  0.00    -0.009 C 
ATOM     18  C   LIG d   1       5.532  -2.433  -3.600  0.00  0.00    -0.047 C 
ATOM     19  H   LIG d   1       8.189  -1.806  -3.758  0.00  0.00     0.031 H 
ATOM     20  H   LIG d   1       7.581  -2.113  -5.398  0.00  0.00     0.031 H 
ATOM     21  C   LIG d   1       4.083  -2.162  -3.186  0.00  0.00    -0.049 C 
ATOM     22  H   LIG d   1       5.548  -3.175  -4.398  0.00  0.00     0.027 H 
ATOM     23  H   LIG d   1       6.090  -2.810  -2.743  0.00  0.00     0.027 H 
ATOM     24  C   LIG d   1       4.060  -1.181  -2.010  0.00  0.00    -0.032 C 
ATOM     25  H   LIG d   1       3.540  -1.732  -4.028  0.00  0.00     0.027 H 
ATOM     26  H   LIG d   1       3.611  -3.098  -2.888  0.00  0.00     0.027 H 
ATOM     27  H   LIG d   1       3.031  -0.904  -1.785  0.00  0.00     0.031 H 
ATOM     28  H   LIG d   1       4.515  -1.648  -1.136  0.00  0.00     0.031 H 
ATOM     29  C   LIG d   1       4.331   1.252  -2.252  0.00  0.00    -0.099 C 
ATOM     30  H   LIG d   1       3.332   1.366  -1.859  0.00  0.00     0.053 H 
ATOM     31  H   LIG d   1       4.905   2.123  -2.530  0.00  0.00     0.053 H 
ATOM     32  H   LIG d   1       9.305  -0.338  -5.258  0.00  0.00     0.074 H 
ATOM     33  O   LIG d   1       7.635   0.393  -6.222  0.00  0.00    -0.461 OA
ATOM     34  C   LIG d   1       8.056   1.669  -6.370  0.00  0.00     0.316 C 
ATOM     35  O   LIG d   1       8.133   2.266  -7.419  0.00  0.00    -0.250 OA
ATOM     36  H   LIG d   1       7.773   3.078  -4.726  0.00  0.00     0.047 H 
BRANCH  14  37
ATOM     37  C   LIG d   1       5.343  -0.555  -5.240  0.00  0.00    -0.059 C 
ATOM     38  H   LIG d   1       5.926   0.201  -5.765  0.00  0.00     0.024 H 
ATOM     39  H   LIG d   1       5.070  -1.351  -5.934  0.00  0.00     0.024 H 
ATOM     40  H   LIG d   1       4.439  -0.101  -4.835  0.00  0.00     0.024 H 
ENDBRANCH  14  37
ENDBRANCH   3   6
ENDBRANCH   1   3
BRANCH   1  41
ATOM     41  C   LIG d   1      10.288   4.032  -3.016  0.00  0.00    -0.030 C 
ATOM     42  H   LIG d   1       9.783   3.187  -2.549  0.00  0.00     0.082 H 
ATOM     43  H   LIG d   1      11.363   3.938  -2.870  0.00  0.00     0.082 H 
BRANCH  41  44
ATOM     44  C   LIG d   1       9.798   5.334  -2.377  0.00  0.00     0.000 C 
ATOM     45  H   LIG d   1       9.865   6.143  -3.105  0.00  0.00     0.033 H 
ATOM     46  H   LIG d   1       8.762   5.215  -2.059  0.00  0.00     0.033 H 
BRANCH  44  47
ATOM     47  C   LIG d   1      10.670   5.666  -1.165  0.00  0.00     0.004 C 
ATOM     48  H   LIG d   1      10.245   5.202  -0.274  0.00  0.00     0.043 H 
ATOM     49  H   LIG d   1      11.678   5.288  -1.327  0.00  0.00     0.043 H 
BRANCH  47  50
ATOM     50  N   LIG d   1      10.717   7.123  -0.981  0.00  0.00    -0.298 N 
ATOM     51  C   LIG d   1       9.437   7.744  -1.351  0.00  0.00     0.022 C 
ATOM     52  C   LIG d   1       9.550   9.263  -1.201  0.00  0.00     0.060 C 
ATOM     53  H   LIG d   1       9.200   7.497  -2.386  0.00  0.00     0.045 H 
ATOM     54  H   LIG d   1       8.649   7.370  -0.698  0.00  0.00     0.045 H 
ATOM     55  O   LIG d   1       9.935   9.577   0.140  0.00  0.00    -0.377 OA
ATOM     56  H   LIG d   1       8.586   9.723  -1.421  0.00  0.00     0.057 H 
ATOM     57  H   LIG d   1      10.301   9.643  -1.895  0.00  0.00     0.057 H 
ATOM     58  C   LIG d   1      11.178   8.990   0.534  0.00  0.00     0.060 C 
ATOM     59  C   LIG d   1      11.082   7.468   0.401  0.00  0.00     0.022 C 
ATOM     60  H   LIG d   1      11.392   9.252   1.570  0.00  0.00     0.057 H 
ATOM     61  H   LIG d   1      11.976   9.361  -0.108  0.00  0.00     0.057 H 
ATOM     62  H   LIG d   1      10.319   7.091   1.083  0.00  0.00     0.045 H 
ATOM     63  H   LIG d   1      12.045   7.019   0.647  0.00  0.00     0.045 H 
ENDBRANCH  47  50
ENDBRANCH  44  47
ENDBRANCH  41  44
ENDBRANCH   1  41
BRANCH   1  64
ATOM     64  C   LIG d   1      11.061   4.753  -5.169  0.00  0.00    -0.002 C 
ATOM     65  H   LIG d   1      11.609   5.384  -4.471  0.00  0.00     0.087 H 
ATOM     66  H   LIG d   1      11.740   4.026  -5.612  0.00  0.00     0.087 H 
BRANCH  64  67
ATOM     67  C   LIG d   1      10.463   5.608  -6.255  0.00  0.00     0.042 A 
ATOM     68  C   LIG d   1      10.098   6.917  -5.985  0.00  0.00     0.170 A 
ATOM     69  C   LIG d   1       9.551   7.707  -6.993  0.00  0.00     0.162 A 
ATOM     70  C   LIG d   1       9.363   7.177  -8.259  0.00  0.00    -0.016 A 
ATOM     71  C   LIG d   1       9.724   5.867  -8.521  0.00  0.00    -0.058 A 
ATOM     72  H   LIG d   1       8.935   7.786  -9.041  0.00  0.00     0.066 H 
ATOM     73  C   LIG d   1      10.273   5.085  -7.521  0.00  0.00    -0.050 A 
ATOM     74  H   LIG d   1       9.577   5.455  -9.508  0.00  0.00     0.062 H 
ATOM     75  H   LIG d   1      10.553   4.064  -7.730  0.00  0.00     0.062 H 
BRANCH  68  76
ATOM     76  O   LIG d   1      10.279   7.432  -4.740  0.00  0.00    -0.491 OA
BRANCH  76  77
ATOM     77  C   LIG d   1      11.509   8.116  -4.493  0.00  0.00     0.079 C 
ATOM     78  H   LIG d   1      11.654   8.227  -3.418  0.00  0.00     0.066 H 
ATOM     79  H   LIG d   1      12.335   7.543  -4.914  0.00  0.00     0.066 H 
ATOM     80  H   LIG d   1      11.476   9.101  -4.958  0.00  0.00     0.066 H 
ENDBRANCH  76  77
ENDBRANCH  68  76
BRANCH  69  81
ATOM     81  O   LIG d   1       9.197   8.994  -6.734  0.00  0.00    -0.491 OA
BRANCH  81  82
ATOM     82  C   LIG d   1       9.963  10.018  -7.371  0.00  0.00     0.079 C 
ATOM     83  H   LIG d   1       9.400  10.952  -7.362  0.00  0.00     0.066 H 
ATOM     84  H   LIG d   1      10.903  10.156  -6.835  0.00  0.00     0.066 H 
ATOM     85  H   LIG d   1      10.170   9.730  -8.401  0.00  0.00     0.066 H 
ENDBRANCH  81  82
ENDBRANCH  69  81
ENDBRANCH  64  67
ENDBRANCH   1  64
TORSDOF 13
ENDMDL
MODEL 6
REMARK VINA RESULT:      -5.8      5.811      9.177
REMARK  13 active torsions:
REMARK  status: ('A' for Active; 'I' for Inactive)
REMARK    1  A    between atoms: C_1  and  C_2 
REMARK    2  A    between atoms: C_19  and  C_21 
REMARK    3  A    between atoms: C_21  and  N_22 
REMARK    4  A    between atoms: N_22  and  C_23 
REMARK    5  A    between atoms: N_22  and  C_32 
REMARK    6  A    between atoms: C_23  and  C_24 
REMARK    7  A    between atoms: C_24  and  C_25 
REMARK    8  A    between atoms: C_25  and  N_26 
REMARK    9  A    between atoms: C_32  and  C_33 
REMARK   10  A    between atoms: C_37  and  O_41 
REMARK   11  A    between atoms: C_38  and  O_39 
REMARK   12  A    between atoms: O_39  and  C_40 
REMARK   13  A    between atoms: O_41  and  C_42 
ROOT
ATOM      1  N   LIG d   1      10.249   4.016  -4.168  0.00  0.00     0.239 N 
ATOM      2  H   LIG d   1      11.137   4.396  -4.462  0.00  0.00     0.204 HD
ENDROOT
BRANCH   1   3
ATOM      3  C   LIG d   1      10.122   2.635  -4.653  0.00  0.00    -0.018 C 
ATOM      4  H   LIG d   1      10.602   1.956  -3.948  0.00  0.00     0.082 H 
ATOM      5  H   LIG d   1      10.602   2.547  -5.627  0.00  0.00     0.082 H 
BRANCH   3   6
ATOM      6  C   LIG d   1       8.641   2.274  -4.780  0.00  0.00     0.102 C 
ATOM      7  C   LIG d   1       8.301   1.038  -3.894  0.00  0.00     0.015 C 
ATOM      8  C   LIG d   1       6.862   1.233  -3.409  0.00  0.00    -0.039 C 
ATOM      9  H   LIG d   1       9.003   0.897  -3.072  0.00  0.00     0.035 H 
ATOM     10  C   LIG d   1       8.382  -0.086  -4.945  0.00  0.00     0.107 C 
ATOM     11  C   LIG d   1       6.271  -0.093  -2.939  0.00  0.00    -0.014 C 
ATOM     12  H   LIG d   1       6.258   1.626  -4.226  0.00  0.00     0.028 H 
ATOM     13  H   LIG d   1       6.855   1.944  -2.583  0.00  0.00     0.028 H 
ATOM     14  C   LIG d   1       6.220  -1.047  -4.142  0.00  0.00    -0.022 C 
ATOM     15  C   LIG d   1       4.859   0.129  -2.448  0.00  0.00    -0.073 C 
ATOM     16  H   LIG d   1       6.886  -0.524  -2.148  0.00  0.00     0.035 H 
ATOM     17  C   LIG d   1       7.657  -1.340  -4.569  0.00  0.00    -0.009 C 
ATOM     18  C   LIG d   1       5.501  -2.332  -3.733  0.00  0.00    -0.047 C 
ATOM     19  H   LIG d   1       8.186  -1.812  -3.741  0.00  0.00     0.031 H 
ATOM     20  H   LIG d   1       7.645  -2.022  -5.420  0.00  0.00     0.031 H 
ATOM     21  C   LIG d   1       4.047  -2.018  -3.375  0.00  0.00    -0.049 C 
ATOM     22  H   LIG d   1       5.525  -3.039  -4.562  0.00  0.00     0.027 H 
ATOM     23  H   LIG d   1       6.002  -2.768  -2.869  0.00  0.00     0.027 H 
ATOM     24  C   LIG d   1       4.007  -1.088  -2.158  0.00  0.00    -0.032 C 
ATOM     25  H   LIG d   1       3.562  -1.530  -4.221  0.00  0.00     0.027 H 
ATOM     26  H   LIG d   1       3.523  -2.945  -3.141  0.00  0.00     0.027 H 
ATOM     27  H   LIG d   1       2.980  -0.777  -1.969  0.00  0.00     0.031 H 
ATOM     28  H   LIG d   1       4.400  -1.610  -1.286  0.00  0.00     0.031 H 
ATOM     29  C   LIG d   1       4.387   1.339  -2.279  0.00  0.00    -0.099 C 
ATOM     30  H   LIG d   1       3.375   1.479  -1.928  0.00  0.00     0.053 H 
ATOM     31  H   LIG d   1       5.008   2.196  -2.491  0.00  0.00     0.053 H 
ATOM     32  H   LIG d   1       9.430  -0.330  -5.121  0.00  0.00     0.074 H 
ATOM     33  O   LIG d   1       7.839   0.512  -6.128  0.00  0.00    -0.461 OA
ATOM     34  C   LIG d   1       8.317   1.774  -6.199  0.00  0.00     0.316 C 
ATOM     35  O   LIG d   1       8.468   2.411  -7.215  0.00  0.00    -0.250 OA
ATOM     36  H   LIG d   1       8.013   3.123  -4.509  0.00  0.00     0.047 H 
BRANCH  14  37
ATOM     37  C   LIG d   1       5.466  -0.380  -5.295  0.00  0.00    -0.059 C 
ATOM     38  H   LIG d   1       4.492  -0.853  -5.415  0.00  0.00     0.024 H 
ATOM     39  H   LIG d   1       5.333   0.680  -5.077  0.00  0.00     0.024 H 
ATOM     40  H   LIG d   1       6.040  -0.491  -6.215  0.00  0.00     0.024 H 
ENDBRANCH  14  37
ENDBRANCH   3   6
ENDBRANCH   1   3
BRANCH   1  41
ATOM     41  C   LIG d   1       9.160   4.832  -4.722  0.00  0.00    -0.030 C 
ATOM     42  H   LIG d   1       8.432   4.184  -5.210  0.00  0.00     0.082 H 
ATOM     43  H   LIG d   1       8.674   5.383  -3.918  0.00  0.00     0.082 H 
BRANCH  41  44
ATOM     44  C   LIG d   1       9.730   5.817  -5.745  0.00  0.00     0.000 C 
ATOM     45  H   LIG d   1      10.694   5.453  -6.100  0.00  0.00     0.033 H 
ATOM     46  H   LIG d   1       9.043   5.906  -6.586  0.00  0.00     0.033 H 
BRANCH  44  47
ATOM     47  C   LIG d   1       9.913   7.186  -5.087  0.00  0.00     0.004 C 
ATOM     48  H   LIG d   1       9.284   7.249  -4.199  0.00  0.00     0.043 H 
ATOM     49  H   LIG d   1      10.957   7.317  -4.804  0.00  0.00     0.043 H 
BRANCH  47  50
ATOM     50  N   LIG d   1       9.527   8.240  -6.034  0.00  0.00    -0.298 N 
ATOM     51  C   LIG d   1      10.400   9.415  -5.902  0.00  0.00     0.022 C 
ATOM     52  C   LIG d   1       9.927  10.508  -6.863  0.00  0.00     0.060 C 
ATOM     53  H   LIG d   1      10.357   9.786  -4.878  0.00  0.00     0.045 H 
ATOM     54  H   LIG d   1      11.425   9.135  -6.145  0.00  0.00     0.045 H 
ATOM     55  O   LIG d   1       9.914   9.990  -8.197  0.00  0.00    -0.377 OA
ATOM     56  H   LIG d   1      10.605  11.360  -6.809  0.00  0.00     0.057 H 
ATOM     57  H   LIG d   1       8.921  10.826  -6.586  0.00  0.00     0.057 H 
ATOM     58  C   LIG d   1       9.072   8.847  -8.362  0.00  0.00     0.060 C 
ATOM     59  C   LIG d   1       9.537   7.736  -7.416  0.00  0.00     0.022 C 
ATOM     60  H   LIG d   1       9.133   8.496  -9.392  0.00  0.00     0.057 H 
ATOM     61  H   LIG d   1       8.043   9.115  -8.129  0.00  0.00     0.057 H 
ATOM     62  H   LIG d   1      10.549   7.430  -7.683  0.00  0.00     0.045 H 
ATOM     63  H   LIG d   1       8.864   6.883  -7.498  0.00  0.00     0.045 H 
ENDBRANCH  47  50
ENDBRANCH  44  47
ENDBRANCH  41  44
ENDBRANCH   1  41
BRANCH   1  64
ATOM     64  C   LIG d   1      10.172   4.030  -2.701  0.00  0.00    -0.002 C 
ATOM     65  H   LIG d   1       9.311   4.618  -2.388  0.00  0.00     0.087 H 
ATOM     66  H   LIG d   1      10.069   3.009  -2.333  0.00  0.00     0.087 H 
BRANCH  64  67
ATOM     67  C   LIG d   1      11.429   4.641  -2.139  0.00  0.00     0.042 A 
ATOM     68  C   LIG d   1      11.347   5.591  -1.133  0.00  0.00     0.170 A 
ATOM     69  C   LIG d   1      12.511   6.151  -0.611  0.00  0.00     0.162 A 
ATOM     70  C   LIG d   1      13.745   5.763  -1.107  0.00  0.00    -0.016 A 
ATOM     71  C   LIG d   1      13.819   4.818  -2.116  0.00  0.00    -0.058 A 
ATOM     72  H   LIG d   1      14.649   6.198  -0.707  0.00  0.00     0.066 H 
ATOM     73  C   LIG d   1      12.664   4.259  -2.629  0.00  0.00    -0.050 A 
ATOM     74  H   LIG d   1      14.782   4.517  -2.502  0.00  0.00     0.062 H 
ATOM     75  H   LIG d   1      12.726   3.522  -3.416  0.00  0.00     0.062 H 
BRANCH  68  76
ATOM     76  O   LIG d   1      10.134   5.973  -0.653  0.00  0.00    -0.491 OA
BRANCH  76  77
ATOM     77  C   LIG d   1       9.539   7.131  -1.240  0.00  0.00     0.079 C 
ATOM     78  H   LIG d   1       8.986   6.843  -2.133  0.00  0.00     0.066 H 
ATOM     79  H   LIG d   1       8.859   7.593  -0.524  0.00  0.00     0.066 H 
ATOM     80  H   LIG d   1      10.320   7.843  -1.510  0.00  0.00     0.066 H 
ENDBRANCH  76  77
ENDBRANCH  68  76
BRANCH  69  81
ATOM     81  O   LIG d   1      12.436   7.079   0.380  0.00  0.00    -0.491 OA
BRANCH  81  82
ATOM     82  C   LIG d   1      12.824   8.413   0.050  0.00  0.00     0.079 C 
ATOM     83  H   LIG d   1      13.405   8.836   0.870  0.00  0.00     0.066 H 
ATOM     84  H   LIG d   1      13.430   8.403  -0.856  0.00  0.00     0.066 H 
ATOM     85  H   LIG d   1      11.934   9.020  -0.115  0.00  0.00     0.066 H 
ENDBRANCH  81  82
ENDBRANCH  69  81
ENDBRANCH  64  67
ENDBRANCH   1  64
TORSDOF 13
ENDMDL
MODEL 7
REMARK VINA RESULT:      -5.8      4.828      7.805
REMARK  13 active torsions:
REMARK  status: ('A' for Active; 'I' for Inactive)
REMARK    1  A    between atoms: C_1  and  C_2 
REMARK    2  A    between atoms: C_19  and  C_21 
REMARK    3  A    between atoms: C_21  and  N_22 
REMARK    4  A    between atoms: N_22  and  C_23 
REMARK    5  A    between atoms: N_22  and  C_32 
REMARK    6  A    between atoms: C_23  and  C_24 
REMARK    7  A    between atoms: C_24  and  C_25 
REMARK    8  A    between atoms: C_25  and  N_26 
REMARK    9  A    between atoms: C_32  and  C_33 
REMARK   10  A    between atoms: C_37  and  O_41 
REMARK   11  A    between atoms: C_38  and  O_39 
REMARK   12  A    between atoms: O_39  and  C_40 
REMARK   13  A    between atoms: O_41  and  C_42 
ROOT
ATOM      1  N   LIG d   1      10.237   3.341  -5.491  0.00  0.00     0.239 N 
ATOM      2  H   LIG d   1      11.103   3.437  -4.982  0.00  0.00     0.204 HD
ENDROOT
BRANCH   1   3
ATOM      3  C   LIG d   1       9.925   1.916  -5.662  0.00  0.00    -0.018 C 
ATOM      4  H   LIG d   1      10.484   1.330  -4.933  0.00  0.00     0.082 H 
ATOM      5  H   LIG d   1      10.201   1.602  -6.669  0.00  0.00     0.082 H 
BRANCH   3   6
ATOM      6  C   LIG d   1       8.426   1.693  -5.453  0.00  0.00     0.102 C 
ATOM      7  C   LIG d   1       8.180   0.478  -4.509  0.00  0.00     0.015 C 
ATOM      8  C   LIG d   1       6.910   0.795  -3.715  0.00  0.00    -0.039 C 
ATOM      9  H   LIG d   1       9.031   0.260  -3.865  0.00  0.00     0.035 H 
ATOM     10  C   LIG d   1       7.920  -0.631  -5.547  0.00  0.00     0.107 C 
ATOM     11  C   LIG d   1       6.319  -0.480  -3.119  0.00  0.00    -0.014 C 
ATOM     12  H   LIG d   1       6.178   1.255  -4.377  0.00  0.00     0.028 H 
ATOM     13  H   LIG d   1       7.153   1.489  -2.911  0.00  0.00     0.028 H 
ATOM     14  C   LIG d   1       5.912  -1.404  -4.276  0.00  0.00    -0.022 C 
ATOM     15  C   LIG d   1       5.079  -0.139  -2.324  0.00  0.00    -0.073 C 
ATOM     16  H   LIG d   1       7.053  -0.978  -2.485  0.00  0.00     0.035 H 
ATOM     17  C   LIG d   1       7.184  -1.819  -5.013  0.00  0.00    -0.009 C 
ATOM     18  C   LIG d   1       5.188  -2.625  -3.712  0.00  0.00    -0.047 C 
ATOM     19  H   LIG d   1       7.839  -2.352  -4.324  0.00  0.00     0.031 H 
ATOM     20  H   LIG d   1       6.920  -2.483  -5.837  0.00  0.00     0.031 H 
ATOM     21  C   LIG d   1       3.886  -2.187  -3.038  0.00  0.00    -0.049 C 
ATOM     22  H   LIG d   1       4.960  -3.318  -4.522  0.00  0.00     0.027 H 
ATOM     23  H   LIG d   1       5.827  -3.120  -2.981  0.00  0.00     0.027 H 
ATOM     24  C   LIG d   1       4.205  -1.278  -1.847  0.00  0.00    -0.032 C 
ATOM     25  H   LIG d   1       3.271  -1.643  -3.755  0.00  0.00     0.027 H 
ATOM     26  H   LIG d   1       3.344  -3.066  -2.689  0.00  0.00     0.027 H 
ATOM     27  H   LIG d   1       3.279  -0.878  -1.433  0.00  0.00     0.031 H 
ATOM     28  H   LIG d   1       4.733  -1.849  -1.083  0.00  0.00     0.031 H 
ATOM     29  C   LIG d   1       4.770   1.106  -2.059  0.00  0.00    -0.099 C 
ATOM     30  H   LIG d   1       3.880   1.332  -1.490  0.00  0.00     0.053 H 
ATOM     31  H   LIG d   1       5.405   1.907  -2.408  0.00  0.00     0.053 H 
ATOM     32  H   LIG d   1       8.875  -0.966  -5.953  0.00  0.00     0.074 H 
ATOM     33  O   LIG d   1       7.183   0.035  -6.580  0.00  0.00    -0.461 OA
ATOM     34  C   LIG d   1       7.748   1.249  -6.762  0.00  0.00     0.316 C 
ATOM     35  O   LIG d   1       7.726   1.887  -7.789  0.00  0.00    -0.250 OA
ATOM     36  H   LIG d   1       7.956   2.590  -5.051  0.00  0.00     0.047 H 
BRANCH  14  37
ATOM     37  C   LIG d   1       4.985  -0.652  -5.234  0.00  0.00    -0.059 C 
ATOM     38  H   LIG d   1       3.960  -0.993  -5.091  0.00  0.00     0.024 H 
ATOM     39  H   LIG d   1       5.044   0.418  -5.031  0.00  0.00     0.024 H 
ATOM     40  H   LIG d   1       5.292  -0.844  -6.262  0.00  0.00     0.024 H 
ENDBRANCH  14  37
ENDBRANCH   3   6
ENDBRANCH   1   3
BRANCH   1  41
ATOM     41  C   LIG d   1      10.371   3.974  -6.810  0.00  0.00    -0.030 C 
ATOM     42  H   LIG d   1      10.392   3.206  -7.582  0.00  0.00     0.082 H 
ATOM     43  H   LIG d   1       9.526   4.640  -6.981  0.00  0.00     0.082 H 
BRANCH  41  44
ATOM     44  C   LIG d   1      11.672   4.779  -6.859  0.00  0.00     0.000 C 
ATOM     45  H   LIG d   1      11.801   5.318  -5.919  0.00  0.00     0.033 H 
ATOM     46  H   LIG d   1      12.513   4.102  -7.008  0.00  0.00     0.033 H 
BRANCH  44  47
ATOM     47  C   LIG d   1      11.609   5.779  -8.015  0.00  0.00     0.004 C 
ATOM     48  H   LIG d   1      11.391   6.773  -7.623  0.00  0.00     0.043 H 
ATOM     49  H   LIG d   1      12.566   5.795  -8.535  0.00  0.00     0.043 H 
BRANCH  47  50
ATOM     50  N   LIG d   1      10.550   5.380  -8.951  0.00  0.00    -0.298 N 
ATOM     51  C   LIG d   1       9.548   6.445  -9.099  0.00  0.00     0.022 C 
ATOM     52  C   LIG d   1       8.434   5.965 -10.034  0.00  0.00     0.060 C 
ATOM     53  H   LIG d   1       9.125   6.684  -8.123  0.00  0.00     0.045 H 
ATOM     54  H   LIG d   1      10.019   7.333  -9.519  0.00  0.00     0.045 H 
ATOM     55  O   LIG d   1       9.005   5.581 -11.288  0.00  0.00    -0.377 OA
ATOM     56  H   LIG d   1       7.718   6.772 -10.191  0.00  0.00     0.057 H 
ATOM     57  H   LIG d   1       7.927   5.110  -9.587  0.00  0.00     0.057 H 
ATOM     58  C   LIG d   1       9.984   4.545 -11.180  0.00  0.00     0.060 C 
ATOM     59  C   LIG d   1      11.113   5.010 -10.257  0.00  0.00     0.022 C 
ATOM     60  H   LIG d   1      10.390   4.324 -12.168  0.00  0.00     0.057 H 
ATOM     61  H   LIG d   1       9.523   3.648 -10.768  0.00  0.00     0.057 H 
ATOM     62  H   LIG d   1      11.610   5.875 -10.697  0.00  0.00     0.045 H 
ATOM     63  H   LIG d   1      11.834   4.202 -10.128  0.00  0.00     0.045 H 
ENDBRANCH  47  50
ENDBRANCH  44  47
ENDBRANCH  41  44
ENDBRANCH   1  41
BRANCH   1  64
ATOM     64  C   LIG d   1       9.153   3.993  -4.743  0.00  0.00    -0.002 C 
ATOM     65  H   LIG d   1       8.612   4.669  -5.404  0.00  0.00     0.087 H 
ATOM     66  H   LIG d   1       8.470   3.236  -4.359  0.00  0.00     0.087 H 
BRANCH  64  67
ATOM     67  C   LIG d   1       9.736   4.774  -3.594  0.00  0.00     0.042 A 
ATOM     68  C   LIG d   1       9.526   6.140  -3.508  0.00  0.00     0.170 A 
ATOM     69  C   LIG d   1      10.062   6.858  -2.442  0.00  0.00     0.162 A 
ATOM     70  C   LIG d   1      10.810   6.204  -1.477  0.00  0.00    -0.016 A 
ATOM     71  C   LIG d   1      11.021   4.840  -1.572  0.00  0.00    -0.058 A 
ATOM     72  H   LIG d   1      11.230   6.758  -0.651  0.00  0.00     0.066 H 
ATOM     73  C   LIG d   1      10.485   4.127  -2.628  0.00  0.00    -0.050 A 
ATOM     74  H   LIG d   1      11.605   4.331  -0.820  0.00  0.00     0.062 H 
ATOM     75  H   LIG d   1      10.651   3.062  -2.698  0.00  0.00     0.062 H 
BRANCH  68  76
ATOM     76  O   LIG d   1       8.796   6.779  -4.459  0.00  0.00    -0.491 OA
BRANCH  76  77
ATOM     77  C   LIG d   1       9.519   7.480  -5.472  0.00  0.00     0.079 C 
ATOM     78  H   LIG d   1       9.288   7.053  -6.447  0.00  0.00     0.066 H 
ATOM     79  H   LIG d   1       9.236   8.533  -5.459  0.00  0.00     0.066 H 
ATOM     80  H   LIG d   1      10.589   7.391  -5.281  0.00  0.00     0.066 H 
ENDBRANCH  76  77
ENDBRANCH  68  76
BRANCH  69  81
ATOM     81  O   LIG d   1       9.854   8.199  -2.349  0.00  0.00    -0.491 OA
BRANCH  81  82
ATOM     82  C   LIG d   1      11.012   9.034  -2.313  0.00  0.00     0.079 C 
ATOM     83  H   LIG d   1      10.806   9.915  -1.704  0.00  0.00     0.066 H 
ATOM     84  H   LIG d   1      11.846   8.481  -1.881  0.00  0.00     0.066 H 
ATOM     85  H   LIG d   1      11.267   9.346  -3.326  0.00  0.00     0.066 H 
ENDBRANCH  81  82
ENDBRANCH  69  81
ENDBRANCH  64  67
ENDBRANCH   1  64
TORSDOF 13
ENDMDL
MODEL 8
REMARK VINA RESULT:      -5.7      3.035      6.672
REMARK  13 active torsions:
REMARK  status: ('A' for Active; 'I' for Inactive)
REMARK    1  A    between atoms: C_1  and  C_2 
REMARK    2  A    between atoms: C_19  and  C_21 
REMARK    3  A    between atoms: C_21  and  N_22 
REMARK    4  A    between atoms: N_22  and  C_23 
REMARK    5  A    between atoms: N_22  and  C_32 
REMARK    6  A    between atoms: C_23  and  C_24 
REMARK    7  A    between atoms: C_24  and  C_25 
REMARK    8  A    between atoms: C_25  and  N_26 
REMARK    9  A    between atoms: C_32  and  C_33 
REMARK   10  A    between atoms: C_37  and  O_41 
REMARK   11  A    between atoms: C_38  and  O_39 
REMARK   12  A    between atoms: O_39  and  C_40 
REMARK   13  A    between atoms: O_41  and  C_42 
ROOT
ATOM      1  N   LIG d   1       5.000  -5.568  -7.817  0.00  0.00     0.239 N 
ATOM      2  H   LIG d   1       4.313  -5.880  -7.146  0.00  0.00     0.204 HD
ENDROOT
BRANCH   1   3
ATOM      3  C   LIG d   1       5.564  -4.284  -7.380  0.00  0.00    -0.018 C 
ATOM      4  H   LIG d   1       5.701  -3.634  -8.243  0.00  0.00     0.082 H 
ATOM      5  H   LIG d   1       6.527  -4.456  -6.898  0.00  0.00     0.082 H 
BRANCH   3   6
ATOM      6  C   LIG d   1       4.609  -3.619  -6.387  0.00  0.00     0.102 C 
ATOM      7  C   LIG d   1       5.260  -2.344  -5.771  0.00  0.00     0.015 C 
ATOM      8  C   LIG d   1       4.121  -1.354  -5.517  0.00  0.00    -0.039 C 
ATOM      9  H   LIG d   1       6.047  -1.923  -6.397  0.00  0.00     0.035 H 
ATOM     10  C   LIG d   1       5.798  -2.919  -4.447  0.00  0.00     0.107 C 
ATOM     11  C   LIG d   1       4.551  -0.288  -4.513  0.00  0.00    -0.014 C 
ATOM     12  H   LIG d   1       3.259  -1.891  -5.124  0.00  0.00     0.028 H 
ATOM     13  H   LIG d   1       3.846  -0.874  -6.457  0.00  0.00     0.028 H 
ATOM     14  C   LIG d   1       4.854  -0.984  -3.178  0.00  0.00    -0.022 C 
ATOM     15  C   LIG d   1       3.418   0.687  -4.294  0.00  0.00    -0.073 C 
ATOM     16  H   LIG d   1       5.440   0.234  -4.871  0.00  0.00     0.035 H 
ATOM     17  C   LIG d   1       6.062  -1.895  -3.389  0.00  0.00    -0.009 C 
ATOM     18  C   LIG d   1       5.149   0.074  -2.116  0.00  0.00    -0.047 C 
ATOM     19  H   LIG d   1       6.916  -1.291  -3.696  0.00  0.00     0.031 H 
ATOM     20  H   LIG d   1       6.300  -2.396  -2.449  0.00  0.00     0.031 H 
ATOM     21  C   LIG d   1       3.902   0.928  -1.879  0.00  0.00    -0.049 C 
ATOM     22  H   LIG d   1       5.435  -0.417  -1.186  0.00  0.00     0.027 H 
ATOM     23  H   LIG d   1       5.967   0.710  -2.456  0.00  0.00     0.027 H 
ATOM     24  C   LIG d   1       3.546   1.684  -3.163  0.00  0.00    -0.032 C 
ATOM     25  H   LIG d   1       3.070   0.284  -1.594  0.00  0.00     0.027 H 
ATOM     26  H   LIG d   1       4.099   1.643  -1.080  0.00  0.00     0.027 H 
ATOM     27  H   LIG d   1       2.599   2.207  -3.028  0.00  0.00     0.031 H 
ATOM     28  H   LIG d   1       4.333   2.402  -3.395  0.00  0.00     0.031 H 
ATOM     29  C   LIG d   1       2.356   0.669  -5.061  0.00  0.00    -0.099 C 
ATOM     30  H   LIG d   1       1.555   1.374  -4.890  0.00  0.00     0.053 H 
ATOM     31  H   LIG d   1       2.281  -0.049  -5.864  0.00  0.00     0.053 H 
ATOM     32  H   LIG d   1       6.722  -3.461  -4.647  0.00  0.00     0.074 H 
ATOM     33  O   LIG d   1       4.789  -3.855  -4.047  0.00  0.00    -0.461 OA
ATOM     34  C   LIG d   1       4.386  -4.515  -5.155  0.00  0.00     0.316 C 
ATOM     35  O   LIG d   1       3.924  -5.632  -5.178  0.00  0.00    -0.250 OA
ATOM     36  H   LIG d   1       3.664  -3.371  -6.869  0.00  0.00     0.047 H 
BRANCH  14  37
ATOM     37  C   LIG d   1       3.647  -1.822  -2.750  0.00  0.00    -0.059 C 
ATOM     38  H   LIG d   1       3.640  -1.921  -1.664  0.00  0.00     0.024 H 
ATOM     39  H   LIG d   1       2.730  -1.331  -3.077  0.00  0.00     0.024 H 
ATOM     40  H   LIG d   1       3.712  -2.810  -3.204  0.00  0.00     0.024 H 
ENDBRANCH  14  37
ENDBRANCH   3   6
ENDBRANCH   1   3
BRANCH   1  41
ATOM     41  C   LIG d   1       4.361  -5.400  -9.129  0.00  0.00    -0.030 C 
ATOM     42  H   LIG d   1       4.412  -6.338  -9.682  0.00  0.00     0.082 H 
ATOM     43  H   LIG d   1       3.318  -5.116  -8.992  0.00  0.00     0.082 H 
BRANCH  41  44
ATOM     44  C   LIG d   1       5.088  -4.306  -9.915  0.00  0.00     0.000 C 
ATOM     45  H   LIG d   1       5.110  -3.390  -9.325  0.00  0.00     0.033 H 
ATOM     46  H   LIG d   1       6.108  -4.628 -10.126  0.00  0.00     0.033 H 
BRANCH  44  47
ATOM     47  C   LIG d   1       4.351  -4.048 -11.230  0.00  0.00     0.004 C 
ATOM     48  H   LIG d   1       5.074  -3.806 -12.010  0.00  0.00     0.043 H 
ATOM     49  H   LIG d   1       3.792  -4.938 -11.516  0.00  0.00     0.043 H 
BRANCH  47  50
ATOM     50  N   LIG d   1       3.424  -2.921 -11.059  0.00  0.00    -0.298 N 
ATOM     51  C   LIG d   1       3.995  -1.680 -11.601  0.00  0.00     0.022 C 
ATOM     52  C   LIG d   1       3.024  -0.524 -11.349  0.00  0.00     0.060 C 
ATOM     53  H   LIG d   1       4.945  -1.472 -11.109  0.00  0.00     0.045 H 
ATOM     54  H   LIG d   1       4.158  -1.792 -12.673  0.00  0.00     0.045 H 
ATOM     55  O   LIG d   1       1.757  -0.837 -11.933  0.00  0.00    -0.377 OA
ATOM     56  H   LIG d   1       3.418   0.388 -11.799  0.00  0.00     0.057 H 
ATOM     57  H   LIG d   1       2.905  -0.377 -10.275  0.00  0.00     0.057 H 
ATOM     58  C   LIG d   1       1.171  -2.039 -11.426  0.00  0.00     0.060 C 
ATOM     59  C   LIG d   1       2.123  -3.210 -11.679  0.00  0.00     0.022 C 
ATOM     60  H   LIG d   1       0.224  -2.224 -11.934  0.00  0.00     0.057 H 
ATOM     61  H   LIG d   1       0.997  -1.936 -10.356  0.00  0.00     0.057 H 
ATOM     62  H   LIG d   1       2.255  -3.346 -12.753  0.00  0.00     0.045 H 
ATOM     63  H   LIG d   1       1.706  -4.119 -11.245  0.00  0.00     0.045 H 
ENDBRANCH  47  50
ENDBRANCH  44  47
ENDBRANCH  41  44
ENDBRANCH   1  41
BRANCH   1  64
ATOM     64  C   LIG d   1       6.073  -6.566  -7.920  0.00  0.00    -0.002 C 
ATOM     65  H   LIG d   1       5.942  -7.146  -8.832  0.00  0.00     0.087 H 
ATOM     66  H   LIG d   1       7.038  -6.060  -7.947  0.00  0.00     0.087 H 
BRANCH  64  67
ATOM     67  C   LIG d   1       6.020  -7.484  -6.728  0.00  0.00     0.042 A 
ATOM     68  C   LIG d   1       4.993  -8.406  -6.608  0.00  0.00     0.170 A 
ATOM     69  C   LIG d   1       4.950  -9.258  -5.508  0.00  0.00     0.162 A 
ATOM     70  C   LIG d   1       5.929  -9.173  -4.531  0.00  0.00    -0.016 A 
ATOM     71  C   LIG d   1       6.949  -8.246  -4.653  0.00  0.00    -0.058 A 
ATOM     72  H   LIG d   1       5.896  -9.829  -3.674  0.00  0.00     0.066 H 
ATOM     73  C   LIG d   1       6.994  -7.404  -5.749  0.00  0.00    -0.050 A 
ATOM     74  H   LIG d   1       7.711  -8.180  -3.891  0.00  0.00     0.062 H 
ATOM     75  H   LIG d   1       7.792  -6.683  -5.841  0.00  0.00     0.062 H 
BRANCH  68  76
ATOM     76  O   LIG d   1       4.032  -8.483  -7.566  0.00  0.00    -0.491 OA
BRANCH  76  77
ATOM     77  C   LIG d   1       4.252  -9.406  -8.634  0.00  0.00     0.079 C 
ATOM     78  H   LIG d   1       4.122 -10.424  -8.268  0.00  0.00     0.066 H 
ATOM     79  H   LIG d   1       3.538  -9.213  -9.435  0.00  0.00     0.066 H 
ATOM     80  H   LIG d   1       5.266  -9.283  -9.016  0.00  0.00     0.066 H 
ENDBRANCH  76  77
ENDBRANCH  68  76
BRANCH  69  81
ATOM     81  O   LIG d   1       3.947 -10.169  -5.389  0.00  0.00    -0.491 OA
BRANCH  81  82
ATOM     82  C   LIG d   1       4.219 -11.336  -4.612  0.00  0.00     0.079 C 
ATOM     83  H   LIG d   1       4.755 -11.052  -3.705  0.00  0.00     0.066 H 
ATOM     84  H   LIG d   1       3.281 -11.821  -4.342  0.00  0.00     0.066 H 
ATOM     85  H   LIG d   1       4.831 -12.026  -5.194  0.00  0.00     0.066 H 
ENDBRANCH  81  82
ENDBRANCH  69  81
ENDBRANCH  64  67
ENDBRANCH   1  64
TORSDOF 13
ENDMDL
MODEL 9
REMARK VINA RESULT:      -5.6      5.181      7.347
REMARK  13 active torsions:
REMARK  status: ('A' for Active; 'I' for Inactive)
REMARK    1  A    between atoms: C_1  and  C_2 
REMARK    2  A    between atoms: C_19  and  C_21 
REMARK    3  A    between atoms: C_21  and  N_22 
REMARK    4  A    between atoms: N_22  and  C_23 
REMARK    5  A    between atoms: N_22  and  C_32 
REMARK    6  A    between atoms: C_23  and  C_24 
REMARK    7  A    between atoms: C_24  and  C_25 
REMARK    8  A    between atoms: C_25  and  N_26 
REMARK    9  A    between atoms: C_32  and  C_33 
REMARK   10  A    between atoms: C_37  and  O_41 
REMARK   11  A    between atoms: C_38  and  O_39 
REMARK   12  A    between atoms: O_39  and  C_40 
REMARK   13  A    between atoms: O_41  and  C_42 
ROOT
ATOM      1  N   LIG d   1       9.813   4.041  -5.710  0.00  0.00     0.239 N 
ATOM      2  H   LIG d   1       8.995   4.226  -6.271  0.00  0.00     0.204 HD
ENDROOT
BRANCH   1   3
ATOM      3  C   LIG d   1       9.756   2.664  -5.201  0.00  0.00    -0.018 C 
ATOM      4  H   LIG d   1      10.176   2.630  -4.196  0.00  0.00     0.082 H 
ATOM      5  H   LIG d   1      10.332   2.010  -5.857  0.00  0.00     0.082 H 
BRANCH   3   6
ATOM      6  C   LIG d   1       8.301   2.194  -5.163  0.00  0.00     0.102 C 
ATOM      7  C   LIG d   1       8.134   1.011  -4.163  0.00  0.00     0.015 C 
ATOM      8  C   LIG d   1       6.733   1.145  -3.561  0.00  0.00    -0.039 C 
ATOM      9  H   LIG d   1       8.914   0.983  -3.403  0.00  0.00     0.035 H 
ATOM     10  C   LIG d   1       8.206  -0.184  -5.134  0.00  0.00     0.107 C 
ATOM     11  C   LIG d   1       6.286  -0.177  -2.944  0.00  0.00    -0.014 C 
ATOM     12  H   LIG d   1       6.031   1.432  -4.344  0.00  0.00     0.028 H 
ATOM     13  H   LIG d   1       6.745   1.916  -2.791  0.00  0.00     0.028 H 
ATOM     14  C   LIG d   1       6.200  -1.223  -4.065  0.00  0.00    -0.022 C 
ATOM     15  C   LIG d   1       4.911  -0.014  -2.339  0.00  0.00    -0.073 C 
ATOM     16  H   LIG d   1       6.999  -0.502  -2.185  0.00  0.00     0.035 H 
ATOM     17  C   LIG d   1       7.612  -1.450  -4.602  0.00  0.00    -0.009 C 
ATOM     18  C   LIG d   1       5.619  -2.518  -3.500  0.00  0.00    -0.047 C 
ATOM     19  H   LIG d   1       8.246  -1.820  -3.796  0.00  0.00     0.031 H 
ATOM     20  H   LIG d   1       7.577  -2.196  -5.397  0.00  0.00     0.031 H 
ATOM     21  C   LIG d   1       4.182  -2.277  -3.030  0.00  0.00    -0.049 C 
ATOM     22  H   LIG d   1       5.623  -3.285  -4.274  0.00  0.00     0.027 H 
ATOM     23  H   LIG d   1       6.226  -2.851  -2.658  0.00  0.00     0.027 H 
ATOM     24  C   LIG d   1       4.181  -1.260  -1.885  0.00  0.00    -0.032 C 
ATOM     25  H   LIG d   1       3.590  -1.891  -3.860  0.00  0.00     0.027 H 
ATOM     26  H   LIG d   1       3.752  -3.216  -2.683  0.00  0.00     0.027 H 
ATOM     27  H   LIG d   1       3.154  -1.005  -1.623  0.00  0.00     0.031 H 
ATOM     28  H   LIG d   1       4.688  -1.684  -1.018  0.00  0.00     0.031 H 
ATOM     29  C   LIG d   1       4.366   1.171  -2.215  0.00  0.00    -0.099 C 
ATOM     30  H   LIG d   1       3.382   1.269  -1.781  0.00  0.00     0.053 H 
ATOM     31  H   LIG d   1       4.900   2.049  -2.545  0.00  0.00     0.053 H 
ATOM     32  H   LIG d   1       9.249  -0.369  -5.389  0.00  0.00     0.074 H 
ATOM     33  O   LIG d   1       7.517   0.282  -6.300  0.00  0.00    -0.461 OA
ATOM     34  C   LIG d   1       7.892   1.564  -6.506  0.00  0.00     0.316 C 
ATOM     35  O   LIG d   1       7.904   2.129  -7.575  0.00  0.00    -0.250 OA
ATOM     36  H   LIG d   1       7.638   3.017  -4.896  0.00  0.00     0.047 H 
BRANCH  14  37
ATOM     37  C   LIG d   1       5.301  -0.701  -5.188  0.00  0.00    -0.059 C 
ATOM     38  H   LIG d   1       4.272  -0.646  -4.833  0.00  0.00     0.024 H 
ATOM     39  H   LIG d   1       5.635   0.292  -5.489  0.00  0.00     0.024 H 
ATOM     40  H   LIG d   1       5.356  -1.377  -6.041  0.00  0.00     0.024 H 
ENDBRANCH  14  37
ENDBRANCH   3   6
ENDBRANCH   1   3
BRANCH   1  41
ATOM     41  C   LIG d   1       9.855   4.979  -4.580  0.00  0.00    -0.030 C 
ATOM     42  H   LIG d   1       9.080   5.734  -4.706  0.00  0.00     0.082 H 
ATOM     43  H   LIG d   1       9.687   4.436  -3.651  0.00  0.00     0.082 H 
BRANCH  41  44
ATOM     44  C   LIG d   1      11.225   5.659  -4.533  0.00  0.00     0.000 C 
ATOM     45  H   LIG d   1      11.993   4.951  -4.846  0.00  0.00     0.033 H 
ATOM     46  H   LIG d   1      11.228   6.519  -5.203  0.00  0.00     0.033 H 
BRANCH  44  47
ATOM     47  C   LIG d   1      11.514   6.124  -3.104  0.00  0.00     0.004 C 
ATOM     48  H   LIG d   1      11.366   5.292  -2.415  0.00  0.00     0.043 H 
ATOM     49  H   LIG d   1      12.544   6.474  -3.036  0.00  0.00     0.043 H 
BRANCH  47  50
ATOM     50  N   LIG d   1      10.600   7.219  -2.751  0.00  0.00    -0.298 N 
ATOM     51  C   LIG d   1      10.273   7.191  -1.319  0.00  0.00     0.022 C 
ATOM     52  C   LIG d   1       9.274   8.309  -1.006  0.00  0.00     0.060 C 
ATOM     53  H   LIG d   1       9.830   6.227  -1.065  0.00  0.00     0.045 H 
ATOM     54  H   LIG d   1      11.181   7.340  -0.734  0.00  0.00     0.045 H 
ATOM     55  O   LIG d   1       9.831   9.564  -1.411  0.00  0.00    -0.377 OA
ATOM     56  H   LIG d   1       9.072   8.328   0.064  0.00  0.00     0.057 H 
ATOM     57  H   LIG d   1       8.346   8.130  -1.549  0.00  0.00     0.057 H 
ATOM     58  C   LIG d   1      10.160   9.626  -2.800  0.00  0.00     0.060 C 
ATOM     59  C   LIG d   1      11.167   8.521  -3.131  0.00  0.00     0.022 C 
ATOM     60  H   LIG d   1      10.599  10.598  -3.027  0.00  0.00     0.057 H 
ATOM     61  H   LIG d   1       9.258   9.486  -3.395  0.00  0.00     0.057 H 
ATOM     62  H   LIG d   1      12.090   8.692  -2.575  0.00  0.00     0.045 H 
ATOM     63  H   LIG d   1      11.379   8.529  -4.200  0.00  0.00     0.045 H 
ENDBRANCH  47  50
ENDBRANCH  44  47
ENDBRANCH  41  44
ENDBRANCH   1  41
BRANCH   1  64
ATOM     64  C   LIG d   1      11.020   4.210  -6.532  0.00  0.00    -0.002 C 
ATOM     65  H   LIG d   1      11.405   5.221  -6.406  0.00  0.00     0.087 H 
ATOM     66  H   LIG d   1      11.776   3.491  -6.219  0.00  0.00     0.087 H 
BRANCH  64  67
ATOM     67  C   LIG d   1      10.676   3.979  -7.980  0.00  0.00     0.042 A 
ATOM     68  C   LIG d   1       9.831   4.857  -8.640  0.00  0.00     0.170 A 
ATOM     69  C   LIG d   1       9.520   4.644  -9.980  0.00  0.00     0.162 A 
ATOM     70  C   LIG d   1      10.049   3.550 -10.646  0.00  0.00    -0.016 A 
ATOM     71  C   LIG d   1      10.888   2.675  -9.980  0.00  0.00    -0.058 A 
ATOM     72  H   LIG d   1       9.807   3.381 -11.685  0.00  0.00     0.066 H 
ATOM     73  C   LIG d   1      11.201   2.889  -8.650  0.00  0.00    -0.050 A 
ATOM     74  H   LIG d   1      11.300   1.822 -10.499  0.00  0.00     0.062 H 
ATOM     75  H   LIG d   1      11.857   2.204  -8.134  0.00  0.00     0.062 H 
BRANCH  68  76
ATOM     76  O   LIG d   1       9.310   5.926  -7.982  0.00  0.00    -0.491 OA
BRANCH  76  77
ATOM     77  C   LIG d   1      10.032   7.155  -8.067  0.00  0.00     0.079 C 
ATOM     78  H   LIG d   1       9.382   7.979  -7.773  0.00  0.00     0.066 H 
ATOM     79  H   LIG d   1      10.895   7.117  -7.402  0.00  0.00     0.066 H 
ATOM     80  H   LIG d   1      10.370   7.307  -9.092  0.00  0.00     0.066 H 
ENDBRANCH  76  77
ENDBRANCH  68  76
BRANCH  69  81
ATOM     81  O   LIG d   1       8.696   5.505 -10.634  0.00  0.00    -0.491 OA
BRANCH  81  82
ATOM     82  C   LIG d   1       9.238   6.191 -11.764  0.00  0.00     0.079 C 
ATOM     83  H   LIG d   1       8.870   5.728 -12.681  0.00  0.00     0.066 H 
ATOM     84  H   LIG d   1       8.929   7.237 -11.738  0.00  0.00     0.066 H 
ATOM     85  H   LIG d   1      10.326   6.131 -11.738  0.00  0.00     0.066 H 
ENDBRANCH  81  82
ENDBRANCH  69  81
ENDBRANCH  64  67
ENDBRANCH   1  64
TORSDOF 13
ENDMDL
