MODEL 1
REMARK VINA RESULT:      -4.8      0.000      0.000
REMARK  1 active torsions:
REMARK  status: ('A' for Active; 'I' for Inactive)
REMARK    1  A    between atoms: C_6  and  C_10 
ROOT
ATOM      1  C   LIG d   1       7.556   1.232  -4.120  0.00  0.00     0.019 A 
ATOM      2  C   LIG d   1       8.655   0.993  -4.838  0.00  0.00    -0.004 A 
ATOM      3  S   LIG d   1       8.582  -0.781  -5.031  0.00  0.00    -0.058 SA
ATOM      4  C   LIG d   1       7.074  -1.052  -4.128  0.00  0.00     0.179 A 
ATOM      5  N   LIG d   1       6.725   0.204  -3.743  0.00  0.00    -0.291 N 
ATOM      6  C   LIG d   1       5.529   0.038  -3.021  0.00  0.00     0.108 A 
ATOM      7  C   LIG d   1       5.245  -1.314  -3.019  0.00  0.00     0.158 A 
ATOM      8  N   LIG d   1       6.201  -1.932  -3.704  0.00  0.00    -0.209 NA
ATOM      9 CL   LIG d   1       3.878  -2.071  -2.261  0.00  0.00    -0.060 Cl
ATOM     10  H   LIG d   1       7.315   2.246  -3.835  0.00  0.00     0.082 H 
ATOM     11  H   LIG d   1       9.394   1.689  -5.204  0.00  0.00     0.071 H 
ENDROOT
BRANCH   6  12
ATOM     12  C   LIG d   1       4.767   1.059  -2.409  0.00  0.00     0.091 C 
ATOM     13  O   LIG d   1       4.793   1.197  -1.199  0.00  0.00    -0.543 OA
ATOM     14  O   LIG d   1       4.009   1.881  -3.165  0.00  0.00    -0.543 OA
ENDBRANCH   6  12
TORSDOF 1
ENDMDL
MODEL 2
REMARK VINA RESULT:      -4.5      3.873      4.356
REMARK  1 active torsions:
REMARK  status: ('A' for Active; 'I' for Inactive)
REMARK    1  A    between atoms: C_6  and  C_10 
ROOT
ATOM      1  C   LIG d   1       4.291  -1.584  -6.948  0.00  0.00     0.019 A 
ATOM      2  C   LIG d   1       3.922  -1.249  -8.184  0.00  0.00    -0.004 A 
ATOM      3  S   LIG d   1       2.977   0.239  -7.888  0.00  0.00    -0.058 SA
ATOM      4  C   LIG d   1       3.161   0.284  -6.120  0.00  0.00     0.179 A 
ATOM      5  N   LIG d   1       3.918  -0.818  -5.869  0.00  0.00    -0.291 N 
ATOM      6  C   LIG d   1       4.092  -0.823  -4.473  0.00  0.00     0.108 A 
ATOM      7  C   LIG d   1       3.419   0.279  -3.981  0.00  0.00     0.158 A 
ATOM      8  N   LIG d   1       2.878   0.920  -5.011  0.00  0.00    -0.209 NA
ATOM      9 CL   LIG d   1       3.304   0.746  -2.312  0.00  0.00    -0.060 Cl
ATOM     10  H   LIG d   1       4.893  -2.468  -6.792  0.00  0.00     0.082 H 
ATOM     11  H   LIG d   1       4.135  -1.746  -9.119  0.00  0.00     0.071 H 
ENDROOT
BRANCH   6  12
ATOM     12  C   LIG d   1       4.811  -1.776  -3.718  0.00  0.00     0.091 C 
ATOM     13  O   LIG d   1       5.901  -1.490  -3.255  0.00  0.00    -0.543 OA
ATOM     14  O   LIG d   1       4.291  -3.004  -3.509  0.00  0.00    -0.543 OA
ENDBRANCH   6  12
TORSDOF 1
ENDMDL
MODEL 3
REMARK VINA RESULT:      -4.3      2.230      2.552
REMARK  1 active torsions:
REMARK  status: ('A' for Active; 'I' for Inactive)
REMARK    1  A    between atoms: C_6  and  C_10 
ROOT
ATOM      1  C   LIG d   1       6.881  -1.550  -3.301  0.00  0.00     0.019 A 
ATOM      2  C   LIG d   1       7.544  -2.598  -3.792  0.00  0.00    -0.004 A 
ATOM      3  S   LIG d   1       6.522  -3.051  -5.187  0.00  0.00    -0.058 SA
ATOM      4  C   LIG d   1       5.287  -1.787  -4.990  0.00  0.00     0.179 A 
ATOM      5  N   LIG d   1       5.722  -1.110  -3.894  0.00  0.00    -0.291 N 
ATOM      6  C   LIG d   1       4.769  -0.093  -3.700  0.00  0.00     0.108 A 
ATOM      7  C   LIG d   1       3.821  -0.235  -4.696  0.00  0.00     0.158 A 
ATOM      8  N   LIG d   1       4.178  -1.266  -5.453  0.00  0.00    -0.209 NA
ATOM      9 CL   LIG d   1       2.416   0.761  -4.919  0.00  0.00    -0.060 Cl
ATOM     10  H   LIG d   1       7.260  -1.040  -2.427  0.00  0.00     0.082 H 
ATOM     11  H   LIG d   1       8.456  -3.055  -3.439  0.00  0.00     0.071 H 
ENDROOT
BRANCH   6  12
ATOM     12  C   LIG d   1       4.776   0.883  -2.678  0.00  0.00     0.091 C 
ATOM     13  O   LIG d   1       5.742   1.611  -2.538  0.00  0.00    -0.543 OA
ATOM     14  O   LIG d   1       3.712   1.008  -1.856  0.00  0.00    -0.543 OA
ENDBRANCH   6  12
TORSDOF 1
ENDMDL
MODEL 4
REMARK VINA RESULT:      -4.3      2.153      2.716
REMARK  1 active torsions:
REMARK  status: ('A' for Active; 'I' for Inactive)
REMARK    1  A    between atoms: C_6  and  C_10 
ROOT
ATOM      1  C   LIG d   1       5.474  -1.093  -6.270  0.00  0.00     0.019 A 
ATOM      2  C   LIG d   1       6.599  -1.544  -6.826  0.00  0.00    -0.004 A 
ATOM      3  S   LIG d   1       7.782  -1.283  -5.512  0.00  0.00    -0.058 SA
ATOM      4  C   LIG d   1       6.659  -0.586  -4.322  0.00  0.00     0.179 A 
ATOM      5  N   LIG d   1       5.472  -0.597  -4.988  0.00  0.00    -0.291 N 
ATOM      6  C   LIG d   1       4.547  -0.052  -4.079  0.00  0.00     0.108 A 
ATOM      7  C   LIG d   1       5.247   0.254  -2.927  0.00  0.00     0.158 A 
ATOM      8  N   LIG d   1       6.516  -0.090  -3.119  0.00  0.00    -0.209 NA
ATOM      9 CL   LIG d   1       4.586   0.960  -1.485  0.00  0.00    -0.060 Cl
ATOM     10  H   LIG d   1       4.552  -1.119  -6.833  0.00  0.00     0.082 H 
ATOM     11  H   LIG d   1       6.755  -1.958  -7.810  0.00  0.00     0.071 H 
ENDROOT
BRANCH   6  12
ATOM     12  C   LIG d   1       3.166   0.150  -4.303  0.00  0.00     0.091 C 
ATOM     13  O   LIG d   1       2.795   1.010  -5.081  0.00  0.00    -0.543 OA
ATOM     14  O   LIG d   1       2.259  -0.610  -3.653  0.00  0.00    -0.543 OA
ENDBRANCH   6  12
TORSDOF 1
ENDMDL
MODEL 5
REMARK VINA RESULT:      -4.1      3.387      3.688
REMARK  1 active torsions:
REMARK  status: ('A' for Active; 'I' for Inactive)
REMARK    1  A    between atoms: C_6  and  C_10 
ROOT
ATOM      1  C   LIG d   1       2.798   0.202  -6.781  0.00  0.00     0.019 A 
ATOM      2  C   LIG d   1       2.724  -0.107  -8.076  0.00  0.00    -0.004 A 
ATOM      3  S   LIG d   1       4.006  -1.343  -8.226  0.00  0.00    -0.058 SA
ATOM      4  C   LIG d   1       4.534  -1.339  -6.528  0.00  0.00     0.179 A 
ATOM      5  N   LIG d   1       3.714  -0.413  -5.961  0.00  0.00    -0.291 N 
ATOM      6  C   LIG d   1       4.097  -0.377  -4.608  0.00  0.00     0.108 A 
ATOM      7  C   LIG d   1       5.129  -1.284  -4.458  0.00  0.00     0.158 A 
ATOM      8  N   LIG d   1       5.354  -1.844  -5.641  0.00  0.00    -0.209 NA
ATOM      9 CL   LIG d   1       5.977  -1.633  -2.983  0.00  0.00    -0.060 Cl
ATOM     10  H   LIG d   1       2.128   0.943  -6.369  0.00  0.00     0.082 H 
ATOM     11  H   LIG d   1       2.065   0.286  -8.834  0.00  0.00     0.071 H 
ENDROOT
BRANCH   6  12
ATOM     12  C   LIG d   1       3.538   0.436  -3.597  0.00  0.00     0.091 C 
ATOM     13  O   LIG d   1       2.902  -0.070  -2.690  0.00  0.00    -0.543 OA
ATOM     14  O   LIG d   1       3.709   1.775  -3.636  0.00  0.00    -0.543 OA
ENDBRANCH   6  12
TORSDOF 1
ENDMDL
MODEL 6
REMARK VINA RESULT:      -4.1      3.003      3.857
REMARK  1 active torsions:
REMARK  status: ('A' for Active; 'I' for Inactive)
REMARK    1  A    between atoms: C_6  and  C_10 
ROOT
ATOM      1  C   LIG d   1       5.184   1.177  -2.541  0.00  0.00     0.019 A 
ATOM      2  C   LIG d   1       4.143   0.672  -1.877  0.00  0.00    -0.004 A 
ATOM      3  S   LIG d   1       4.389  -1.084  -2.101  0.00  0.00    -0.058 SA
ATOM      4  C   LIG d   1       5.877  -0.989  -3.070  0.00  0.00     0.179 A 
ATOM      5  N   LIG d   1       6.091   0.351  -3.162  0.00  0.00    -0.291 N 
ATOM      6  C   LIG d   1       7.267   0.475  -3.925  0.00  0.00     0.108 A 
ATOM      7  C   LIG d   1       7.675  -0.806  -4.244  0.00  0.00     0.158 A 
ATOM      8  N   LIG d   1       6.809  -1.656  -3.703  0.00  0.00    -0.209 NA
ATOM      9 CL   LIG d   1       9.073  -1.229  -5.183  0.00  0.00    -0.060 Cl
ATOM     10  H   LIG d   1       5.318   2.248  -2.589  0.00  0.00     0.082 H 
ATOM     11  H   LIG d   1       3.358   1.188  -1.346  0.00  0.00     0.071 H 
ENDROOT
BRANCH   6  12
ATOM     12  C   LIG d   1       7.904   1.679  -4.299  0.00  0.00     0.091 C 
ATOM     13  O   LIG d   1       7.817   2.085  -5.443  0.00  0.00    -0.543 OA
ATOM     14  O   LIG d   1       8.611   2.380  -3.387  0.00  0.00    -0.543 OA
ENDBRANCH   6  12
TORSDOF 1
ENDMDL
MODEL 7
REMARK VINA RESULT:      -4.0      3.217      3.818
REMARK  1 active torsions:
REMARK  status: ('A' for Active; 'I' for Inactive)
REMARK    1  A    between atoms: C_6  and  C_10 
ROOT
ATOM      1  C   LIG d   1       4.945  -2.183  -7.365  0.00  0.00     0.019 A 
ATOM      2  C   LIG d   1       5.095  -3.224  -8.185  0.00  0.00    -0.004 A 
ATOM      3  S   LIG d   1       4.922  -4.600  -7.058  0.00  0.00    -0.058 SA
ATOM      4  C   LIG d   1       4.660  -3.655  -5.575  0.00  0.00     0.179 A 
ATOM      5  N   LIG d   1       4.719  -2.372  -6.022  0.00  0.00    -0.291 N 
ATOM      6  C   LIG d   1       4.515  -1.583  -4.875  0.00  0.00     0.108 A 
ATOM      7  C   LIG d   1       4.353  -2.452  -3.813  0.00  0.00     0.158 A 
ATOM      8  N   LIG d   1       4.443  -3.692  -4.284  0.00  0.00    -0.209 NA
ATOM      9 CL   LIG d   1       4.076  -2.005  -2.158  0.00  0.00    -0.060 Cl
ATOM     10  H   LIG d   1       4.999  -1.179  -7.761  0.00  0.00     0.082 H 
ATOM     11  H   LIG d   1       5.275  -3.233  -9.249  0.00  0.00     0.071 H 
ENDROOT
BRANCH   6  12
ATOM     12  C   LIG d   1       4.488  -0.171  -4.818  0.00  0.00     0.091 C 
ATOM     13  O   LIG d   1       5.464   0.441  -4.424  0.00  0.00    -0.543 OA
ATOM     14  O   LIG d   1       3.380   0.498  -5.201  0.00  0.00    -0.543 OA
ENDBRANCH   6  12
TORSDOF 1
ENDMDL
MODEL 8
REMARK VINA RESULT:      -4.0      8.922      9.785
REMARK  1 active torsions:
REMARK  status: ('A' for Active; 'I' for Inactive)
REMARK    1  A    between atoms: C_6  and  C_10 
ROOT
ATOM      1  C   LIG d   1      10.609   9.382   0.420  0.00  0.00     0.019 A 
ATOM      2  C   LIG d   1      10.165  10.595   0.088  0.00  0.00    -0.004 A 
ATOM      3  S   LIG d   1       9.375  10.274  -1.482  0.00  0.00    -0.058 SA
ATOM      4  C   LIG d   1       9.709   8.529  -1.559  0.00  0.00     0.179 A 
ATOM      5  N   LIG d   1      10.390   8.303  -0.403  0.00  0.00    -0.291 N 
ATOM      6  C   LIG d   1      10.677   6.926  -0.420  0.00  0.00     0.108 A 
ATOM      7  C   LIG d   1      10.150   6.420  -1.593  0.00  0.00     0.158 A 
ATOM      8  N   LIG d   1       9.572   7.423  -2.245  0.00  0.00    -0.209 NA
ATOM      9 CL   LIG d   1      10.227   4.767  -2.119  0.00  0.00    -0.060 Cl
ATOM     10  H   LIG d   1      11.146   9.245   1.348  0.00  0.00     0.082 H 
ATOM     11  H   LIG d   1      10.259  11.527   0.626  0.00  0.00     0.071 H 
ENDROOT
BRANCH   6  12
ATOM     12  C   LIG d   1      11.375   6.199   0.571  0.00  0.00     0.091 C 
ATOM     13  O   LIG d   1      12.575   6.020   0.462  0.00  0.00    -0.543 OA
ATOM     14  O   LIG d   1      10.713   5.704   1.638  0.00  0.00    -0.543 OA
ENDBRANCH   6  12
TORSDOF 1
ENDMDL
MODEL 9
REMARK VINA RESULT:      -3.9      7.178      8.105
REMARK  1 active torsions:
REMARK  status: ('A' for Active; 'I' for Inactive)
REMARK    1  A    between atoms: C_6  and  C_10 
ROOT
ATOM      1  C   LIG d   1      10.991   3.775  -2.136  0.00  0.00     0.019 A 
ATOM      2  C   LIG d   1      10.722   3.093  -3.250  0.00  0.00    -0.004 A 
ATOM      3  S   LIG d   1       9.715   4.259  -4.154  0.00  0.00    -0.058 SA
ATOM      4  C   LIG d   1       9.741   5.570  -2.953  0.00  0.00     0.179 A 
ATOM      5  N   LIG d   1      10.504   5.048  -1.955  0.00  0.00    -0.291 N 
ATOM      6  C   LIG d   1      10.554   6.057  -0.976  0.00  0.00     0.108 A 
ATOM      7  C   LIG d   1       9.810   7.119  -1.456  0.00  0.00     0.158 A 
ATOM      8  N   LIG d   1       9.344   6.781  -2.653  0.00  0.00    -0.209 NA
ATOM      9 CL   LIG d   1       9.536   8.626  -0.639  0.00  0.00    -0.060 Cl
ATOM     10  H   LIG d   1      11.601   3.323  -1.367  0.00  0.00     0.082 H 
ATOM     11  H   LIG d   1      11.031   2.098  -3.531  0.00  0.00     0.071 H 
ENDROOT
BRANCH   6  12
ATOM     12  C   LIG d   1      11.230   5.995   0.263  0.00  0.00     0.091 C 
ATOM     13  O   LIG d   1      10.607   5.787   1.287  0.00  0.00    -0.543 OA
ATOM     14  O   LIG d   1      12.568   6.168   0.310  0.00  0.00    -0.543 OA
ENDBRANCH   6  12
TORSDOF 1
ENDMDL
MODEL 10
REMARK VINA RESULT:      -3.9     10.317     11.053
REMARK  1 active torsions:
REMARK  status: ('A' for Active; 'I' for Inactive)
REMARK    1  A    between atoms: C_6  and  C_10 
ROOT
ATOM      1  C   LIG d   1      10.559  10.792  -0.111  0.00  0.00     0.019 A 
ATOM      2  C   LIG d   1      11.069  11.872   0.482  0.00  0.00    -0.004 A 
ATOM      3  S   LIG d   1      12.042  11.141   1.790  0.00  0.00    -0.058 SA
ATOM      4  C   LIG d   1      11.679   9.438   1.426  0.00  0.00     0.179 A 
ATOM      5  N   LIG d   1      10.855   9.531   0.349  0.00  0.00    -0.291 N 
ATOM      6  C   LIG d   1      10.540   8.199   0.022  0.00  0.00     0.108 A 
ATOM      7  C   LIG d   1      11.198   7.396   0.935  0.00  0.00     0.158 A 
ATOM      8  N   LIG d   1      11.876   8.187   1.759  0.00  0.00    -0.209 NA
ATOM      9 CL   LIG d   1      11.149   5.661   0.992  0.00  0.00    -0.060 Cl
ATOM     10  H   LIG d   1       9.908  10.910  -0.965  0.00  0.00     0.082 H 
ATOM     11  H   LIG d   1      10.930  12.914   0.238  0.00  0.00     0.071 H 
ENDROOT
BRANCH   6  12
ATOM     12  C   LIG d   1       9.707   7.765  -1.033  0.00  0.00     0.091 C 
ATOM     13  O   LIG d   1       8.498   7.761  -0.891  0.00  0.00    -0.543 OA
ATOM     14  O   LIG d   1      10.251   7.355  -2.198  0.00  0.00    -0.543 OA
ENDBRANCH   6  12
TORSDOF 1
ENDMDL
