MODEL 1
REMARK VINA RESULT:      -6.0      0.000      0.000
REMARK  8 active torsions:
REMARK  status: ('A' for Active; 'I' for Inactive)
REMARK    1  A    between atoms: C_1  and  C_2 
REMARK    2  A    between atoms: C_3  and  O_25 
REMARK    3  A    between atoms: C_4  and  C_22 
REMARK    4  A    between atoms: C_7  and  O_8 
REMARK    5  A    between atoms: C_9  and  C_21 
REMARK    6  A    between atoms: C_14  and  C_17 
REMARK    7  A    between atoms: C_17  and  C_19 
REMARK    8  A    between atoms: C_22  and  C_24 
ROOT
ATOM      1  C   LIG d   1       6.022  -5.233  -6.047  0.00  0.00     0.034 A 
ATOM      2  C   LIG d   1       7.332  -5.364  -5.624  0.00  0.00     0.137 A 
ATOM      3  C   LIG d   1       7.868  -4.453  -4.699  0.00  0.00     0.101 A 
ATOM      4  C   LIG d   1       7.074  -3.389  -4.217  0.00  0.00     0.150 A 
ATOM      5  C   LIG d   1       5.758  -3.291  -4.647  0.00  0.00     0.054 A 
ATOM      6  C   LIG d   1       5.238  -4.196  -5.558  0.00  0.00     0.131 A 
ATOM      7  C   LIG d   1       5.184  -2.115  -3.910  0.00  0.00     0.070 C 
ATOM      8  C   LIG d   1       6.422  -1.452  -3.323  0.00  0.00     0.123 C 
ATOM      9  C   LIG d   1       6.482  -0.132  -3.036  0.00  0.00     0.025 C 
ATOM     10  C   LIG d   1       5.431   0.725  -3.401  0.00  0.00     0.192 C 
ATOM     11  O   LIG d   1       5.493   1.896  -3.081  0.00  0.00    -0.287 OA
ATOM     12  C   LIG d   1       4.229   0.249  -4.173  0.00  0.00     0.053 C 
ATOM     13  C   LIG d   1       4.535  -1.095  -4.815  0.00  0.00    -0.100 C 
ATOM     14  O   LIG d   1       4.275  -1.331  -5.971  0.00  0.00    -0.875 OA
ATOM     15  O   LIG d   1       7.379  -2.382  -3.360  0.00  0.00    -0.458 OA
ATOM     16  H   LIG d   1       7.358   0.277  -2.512  0.00  0.00     0.069 H 
ENDROOT
BRANCH   3  17
ATOM     17  C   LIG d   1       9.247  -4.602  -4.239  0.00  0.00     0.167 C 
ATOM     18  O   LIG d   1      10.167  -4.399  -5.003  0.00  0.00    -0.292 OA
BRANCH  17  19
ATOM     19  C   LIG d   1       9.526  -5.006  -2.814  0.00  0.00    -0.001 C 
ATOM     20  H   LIG d   1      10.201  -4.272  -2.350  0.00  0.00     0.031 H 
ATOM     21  H   LIG d   1      10.000  -5.999  -2.801  0.00  0.00     0.031 H 
ATOM     22  H   LIG d   1       8.582  -5.043  -2.251  0.00  0.00     0.031 H 
ENDBRANCH  17  19
ENDBRANCH   3  17
BRANCH   2  23
ATOM     23  O   LIG d   1       8.099  -6.377  -6.099  0.00  0.00    -0.506 OA
ATOM     24  H   LIG d   1       8.735  -6.218  -6.983  0.00  0.00     0.292 HD
ENDBRANCH   2  23
BRANCH   1  25
ATOM     25  C   LIG d   1       5.448  -6.210  -7.040  0.00  0.00    -0.033 C 
ATOM     26  H   LIG d   1       4.669  -5.712  -7.636  0.00  0.00     0.028 H 
ATOM     27  H   LIG d   1       5.011  -7.064  -6.503  0.00  0.00     0.028 H 
ATOM     28  H   LIG d   1       6.248  -6.567  -7.707  0.00  0.00     0.028 H 
ENDBRANCH   1  25
BRANCH   6  29
ATOM     29  O   LIG d   1       3.953  -4.067  -5.975  0.00  0.00    -0.506 OA
ATOM     30  H   LIG d   1       3.647  -4.478  -6.948  0.00  0.00     0.292 HD
ENDBRANCH   6  29
BRANCH   7  31
ATOM     31  C   LIG d   1       4.221  -2.567  -2.810  0.00  0.00    -0.045 C 
ATOM     32  H   LIG d   1       3.437  -3.202  -3.246  0.00  0.00     0.025 H 
ATOM     33  H   LIG d   1       3.760  -1.685  -2.341  0.00  0.00     0.025 H 
ATOM     34  H   LIG d   1       4.776  -3.139  -2.050  0.00  0.00     0.025 H 
ENDBRANCH   7  31
BRANCH  12  35
ATOM     35  C   LIG d   1       2.823   0.663  -4.521  0.00  0.00     0.163 C 
ATOM     36  O   LIG d   1       2.616   1.754  -4.998  0.00  0.00    -0.292 OA
BRANCH  35  37
ATOM     37  C   LIG d   1       1.676  -0.282  -4.275  0.00  0.00    -0.001 C 
ATOM     38  H   LIG d   1       1.250  -0.599  -5.238  0.00  0.00     0.031 H 
ATOM     39  H   LIG d   1       0.902   0.227  -3.683  0.00  0.00     0.031 H 
ATOM     40  H   LIG d   1       2.038  -1.163  -3.726  0.00  0.00     0.031 H 
ENDBRANCH  35  37
ENDBRANCH  12  35
TORSDOF 8
ENDMDL
MODEL 2
REMARK VINA RESULT:      -5.6      8.828     11.761
REMARK  8 active torsions:
REMARK  status: ('A' for Active; 'I' for Inactive)
REMARK    1  A    between atoms: C_1  and  C_2 
REMARK    2  A    between atoms: C_3  and  O_25 
REMARK    3  A    between atoms: C_4  and  C_22 
REMARK    4  A    between atoms: C_7  and  O_8 
REMARK    5  A    between atoms: C_9  and  C_21 
REMARK    6  A    between atoms: C_14  and  C_17 
REMARK    7  A    between atoms: C_17  and  C_19 
REMARK    8  A    between atoms: C_22  and  C_24 
ROOT
ATOM      1  C   LIG d   1       9.670   6.944  -4.985  0.00  0.00     0.034 A 
ATOM      2  C   LIG d   1       9.704   5.578  -4.768  0.00  0.00     0.137 A 
ATOM      3  C   LIG d   1       9.833   5.076  -3.462  0.00  0.00     0.101 A 
ATOM      4  C   LIG d   1       9.953   5.967  -2.373  0.00  0.00     0.150 A 
ATOM      5  C   LIG d   1       9.901   7.332  -2.619  0.00  0.00     0.054 A 
ATOM      6  C   LIG d   1       9.770   7.818  -3.910  0.00  0.00     0.131 A 
ATOM      7  C   LIG d   1       9.988   7.985  -1.269  0.00  0.00     0.070 C 
ATOM      8  C   LIG d   1      10.407   6.832  -0.367  0.00  0.00     0.123 C 
ATOM      9  C   LIG d   1      11.094   7.012   0.782  0.00  0.00     0.025 C 
ATOM     10  C   LIG d   1      11.579   8.284   1.132  0.00  0.00     0.192 C 
ATOM     11  O   LIG d   1      12.147   8.421   2.197  0.00  0.00    -0.287 OA
ATOM     12  C   LIG d   1      11.421   9.483   0.236  0.00  0.00     0.053 C 
ATOM     13  C   LIG d   1      11.075   9.028  -1.172  0.00  0.00    -0.100 C 
ATOM     14  O   LIG d   1      11.633   9.470  -2.148  0.00  0.00    -0.875 OA
ATOM     15  O   LIG d   1      10.120   5.720  -1.049  0.00  0.00    -0.458 OA
ATOM     16  H   LIG d   1      11.277   6.160   1.453  0.00  0.00     0.069 H 
ENDROOT
BRANCH   3  17
ATOM     17  C   LIG d   1       9.851   3.633  -3.231  0.00  0.00     0.167 C 
ATOM     18  O   LIG d   1       8.822   2.994  -3.309  0.00  0.00    -0.292 OA
BRANCH  17  19
ATOM     19  C   LIG d   1      11.146   2.940  -2.897  0.00  0.00    -0.001 C 
ATOM     20  H   LIG d   1      11.687   3.521  -2.136  0.00  0.00     0.031 H 
ATOM     21  H   LIG d   1      11.763   2.860  -3.804  0.00  0.00     0.031 H 
ATOM     22  H   LIG d   1      10.934   1.934  -2.507  0.00  0.00     0.031 H 
ENDBRANCH  17  19
ENDBRANCH   3  17
BRANCH   2  23
ATOM     23  O   LIG d   1       9.605   4.723  -5.816  0.00  0.00    -0.506 OA
ATOM     24  H   LIG d   1       8.645   4.605  -6.341  0.00  0.00     0.292 HD
ENDBRANCH   2  23
BRANCH   1  25
ATOM     25  C   LIG d   1       9.532   7.482  -6.386  0.00  0.00    -0.033 C 
ATOM     26  H   LIG d   1       9.399   6.647  -7.088  0.00  0.00     0.028 H 
ATOM     27  H   LIG d   1      10.438   8.045  -6.652  0.00  0.00     0.028 H 
ATOM     28  H   LIG d   1       8.658   8.148  -6.438  0.00  0.00     0.028 H 
ENDBRANCH   1  25
BRANCH   6  29
ATOM     29  O   LIG d   1       9.740   9.157  -4.125  0.00  0.00    -0.506 OA
ATOM     30  H   LIG d   1       8.920   9.603  -4.707  0.00  0.00     0.292 HD
ENDBRANCH   6  29
BRANCH   7  31
ATOM     31  C   LIG d   1       8.635   8.559  -0.844  0.00  0.00    -0.045 C 
ATOM     32  H   LIG d   1       7.876   7.762  -0.858  0.00  0.00     0.025 H 
ATOM     33  H   LIG d   1       8.340   9.357  -1.542  0.00  0.00     0.025 H 
ATOM     34  H   LIG d   1       8.715   8.971   0.173  0.00  0.00     0.025 H 
ENDBRANCH   7  31
BRANCH  12  35
ATOM     35  C   LIG d   1      11.493  10.988   0.273  0.00  0.00     0.163 C 
ATOM     36  O   LIG d   1      12.567  11.542   0.267  0.00  0.00    -0.292 OA
BRANCH  35  37
ATOM     37  C   LIG d   1      10.225  11.802   0.317  0.00  0.00    -0.001 C 
ATOM     38  H   LIG d   1      10.100  12.229   1.323  0.00  0.00     0.031 H 
ATOM     39  H   LIG d   1       9.366  11.156   0.083  0.00  0.00     0.031 H 
ATOM     40  H   LIG d   1      10.286  12.614  -0.422  0.00  0.00     0.031 H 
ENDBRANCH  35  37
ENDBRANCH  12  35
TORSDOF 8
ENDMDL
MODEL 3
REMARK VINA RESULT:      -5.6      3.790      6.002
REMARK  8 active torsions:
REMARK  status: ('A' for Active; 'I' for Inactive)
REMARK    1  A    between atoms: C_1  and  C_2 
REMARK    2  A    between atoms: C_3  and  O_25 
REMARK    3  A    between atoms: C_4  and  C_22 
REMARK    4  A    between atoms: C_7  and  O_8 
REMARK    5  A    between atoms: C_9  and  C_21 
REMARK    6  A    between atoms: C_14  and  C_17 
REMARK    7  A    between atoms: C_17  and  C_19 
REMARK    8  A    between atoms: C_22  and  C_24 
ROOT
ATOM      1  C   LIG d   1       5.498  -2.451  -5.008  0.00  0.00     0.034 A 
ATOM      2  C   LIG d   1       4.878  -1.720  -4.011  0.00  0.00     0.137 A 
ATOM      3  C   LIG d   1       3.989  -0.685  -4.348  0.00  0.00     0.101 A 
ATOM      4  C   LIG d   1       3.747  -0.377  -5.704  0.00  0.00     0.150 A 
ATOM      5  C   LIG d   1       4.371  -1.137  -6.683  0.00  0.00     0.054 A 
ATOM      6  C   LIG d   1       5.244  -2.158  -6.342  0.00  0.00     0.131 A 
ATOM      7  C   LIG d   1       3.858  -0.605  -7.990  0.00  0.00     0.070 C 
ATOM      8  C   LIG d   1       3.173   0.690  -7.578  0.00  0.00     0.123 C 
ATOM      9  C   LIG d   1       3.026   1.742  -8.414  0.00  0.00     0.025 C 
ATOM     10  C   LIG d   1       3.631   1.734  -9.683  0.00  0.00     0.192 C 
ATOM     11  O   LIG d   1       3.435   2.672 -10.430  0.00  0.00    -0.287 OA
ATOM     12  C   LIG d   1       4.513   0.607 -10.151  0.00  0.00     0.053 C 
ATOM     13  C   LIG d   1       4.953  -0.227  -8.959  0.00  0.00    -0.100 C 
ATOM     14  O   LIG d   1       6.102  -0.564  -8.796  0.00  0.00    -0.875 OA
ATOM     15  O   LIG d   1       2.969   0.585  -6.262  0.00  0.00    -0.458 OA
ATOM     16  H   LIG d   1       2.428   2.611  -8.105  0.00  0.00     0.069 H 
ENDROOT
BRANCH   3  17
ATOM     17  C   LIG d   1       3.321   0.077  -3.295  0.00  0.00     0.167 C 
ATOM     18  O   LIG d   1       2.399  -0.418  -2.680  0.00  0.00    -0.292 OA
BRANCH  17  19
ATOM     19  C   LIG d   1       3.777   1.476  -2.972  0.00  0.00    -0.001 C 
ATOM     20  H   LIG d   1       4.316   1.474  -2.014  0.00  0.00     0.031 H 
ATOM     21  H   LIG d   1       2.902   2.139  -2.899  0.00  0.00     0.031 H 
ATOM     22  H   LIG d   1       4.445   1.838  -3.767  0.00  0.00     0.031 H 
ENDBRANCH  17  19
ENDBRANCH   3  17
BRANCH   2  23
ATOM     23  O   LIG d   1       5.123  -2.005  -2.709  0.00  0.00    -0.506 OA
ATOM     24  H   LIG d   1       4.310  -2.365  -2.062  0.00  0.00     0.292 HD
ENDBRANCH   2  23
BRANCH   1  25
ATOM     25  C   LIG d   1       6.452  -3.560  -4.647  0.00  0.00    -0.033 C 
ATOM     26  H   LIG d   1       5.890  -4.405  -4.225  0.00  0.00     0.028 H 
ATOM     27  H   LIG d   1       7.176  -3.193  -3.905  0.00  0.00     0.028 H 
ATOM     28  H   LIG d   1       6.988  -3.891  -5.549  0.00  0.00     0.028 H 
ENDBRANCH   1  25
BRANCH   6  29
ATOM     29  O   LIG d   1       5.855  -2.875  -7.318  0.00  0.00    -0.506 OA
ATOM     30  H   LIG d   1       5.437  -3.842  -7.634  0.00  0.00     0.292 HD
ENDBRANCH   6  29
BRANCH   7  31
ATOM     31  C   LIG d   1       2.867  -1.578  -8.633  0.00  0.00    -0.045 C 
ATOM     32  H   LIG d   1       3.208  -1.833  -9.647  0.00  0.00     0.025 H 
ATOM     33  H   LIG d   1       1.875  -1.106  -8.688  0.00  0.00     0.025 H 
ATOM     34  H   LIG d   1       2.806  -2.493  -8.026  0.00  0.00     0.025 H 
ENDBRANCH   7  31
BRANCH  12  35
ATOM     35  C   LIG d   1       5.104   0.031 -11.412  0.00  0.00     0.163 C 
ATOM     36  O   LIG d   1       6.301  -0.104 -11.510  0.00  0.00    -0.292 OA
BRANCH  35  37
ATOM     37  C   LIG d   1       4.204  -0.376 -12.549  0.00  0.00    -0.001 C 
ATOM     38  H   LIG d   1       3.993   0.499 -13.180  0.00  0.00     0.031 H 
ATOM     39  H   LIG d   1       3.261  -0.773 -12.146  0.00  0.00     0.031 H 
ATOM     40  H   LIG d   1       4.701  -1.151 -13.150  0.00  0.00     0.031 H 
ENDBRANCH  35  37
ENDBRANCH  12  35
TORSDOF 8
ENDMDL
MODEL 4
REMARK VINA RESULT:      -5.3      1.535      3.583
REMARK  8 active torsions:
REMARK  status: ('A' for Active; 'I' for Inactive)
REMARK    1  A    between atoms: C_1  and  C_2 
REMARK    2  A    between atoms: C_3  and  O_25 
REMARK    3  A    between atoms: C_4  and  C_22 
REMARK    4  A    between atoms: C_7  and  O_8 
REMARK    5  A    between atoms: C_9  and  C_21 
REMARK    6  A    between atoms: C_14  and  C_17 
REMARK    7  A    between atoms: C_17  and  C_19 
REMARK    8  A    between atoms: C_22  and  C_24 
ROOT
ATOM      1  C   LIG d   1       8.704  -5.027  -4.115  0.00  0.00     0.034 A 
ATOM      2  C   LIG d   1       8.252  -5.802  -5.167  0.00  0.00     0.137 A 
ATOM      3  C   LIG d   1       7.353  -5.262  -6.103  0.00  0.00     0.101 A 
ATOM      4  C   LIG d   1       6.893  -3.935  -5.954  0.00  0.00     0.150 A 
ATOM      5  C   LIG d   1       7.375  -3.177  -4.898  0.00  0.00     0.054 A 
ATOM      6  C   LIG d   1       8.263  -3.716  -3.982  0.00  0.00     0.131 A 
ATOM      7  C   LIG d   1       6.752  -1.820  -5.063  0.00  0.00     0.070 C 
ATOM      8  C   LIG d   1       5.676  -2.072  -6.109  0.00  0.00     0.123 C 
ATOM      9  C   LIG d   1       4.554  -1.324  -6.203  0.00  0.00     0.025 C 
ATOM     10  C   LIG d   1       4.264  -0.349  -5.235  0.00  0.00     0.192 C 
ATOM     11  O   LIG d   1       3.274   0.342  -5.378  0.00  0.00    -0.287 OA
ATOM     12  C   LIG d   1       5.133  -0.127  -4.025  0.00  0.00     0.053 C 
ATOM     13  C   LIG d   1       6.044  -1.326  -3.824  0.00  0.00    -0.100 C 
ATOM     14  O   LIG d   1       6.193  -1.849  -2.745  0.00  0.00    -0.875 OA
ATOM     15  O   LIG d   1       6.011  -3.221  -6.700  0.00  0.00    -0.458 OA
ATOM     16  H   LIG d   1       3.861  -1.476  -7.044  0.00  0.00     0.069 H 
ENDROOT
BRANCH   3  17
ATOM     17  C   LIG d   1       6.889  -6.075  -7.225  0.00  0.00     0.167 C 
ATOM     18  O   LIG d   1       7.633  -6.308  -8.154  0.00  0.00    -0.292 OA
BRANCH  17  19
ATOM     19  C   LIG d   1       5.486  -6.624  -7.228  0.00  0.00    -0.001 C 
ATOM     20  H   LIG d   1       4.864  -6.039  -7.921  0.00  0.00     0.031 H 
ATOM     21  H   LIG d   1       5.065  -6.559  -6.214  0.00  0.00     0.031 H 
ATOM     22  H   LIG d   1       5.503  -7.675  -7.550  0.00  0.00     0.031 H 
ENDBRANCH  17  19
ENDBRANCH   3  17
BRANCH   2  23
ATOM     23  O   LIG d   1       8.681  -7.081  -5.301  0.00  0.00    -0.506 OA
ATOM     24  H   LIG d   1       9.259  -7.378  -6.189  0.00  0.00     0.292 HD
ENDBRANCH   2  23
BRANCH   1  25
ATOM     25  C   LIG d   1       9.668  -5.606  -3.111  0.00  0.00    -0.033 C 
ATOM     26  H   LIG d   1       9.856  -6.662  -3.351  0.00  0.00     0.028 H 
ATOM     27  H   LIG d   1       9.236  -5.529  -2.103  0.00  0.00     0.028 H 
ATOM     28  H   LIG d   1      10.615  -5.047  -3.148  0.00  0.00     0.028 H 
ENDBRANCH   1  25
BRANCH   6  29
ATOM     29  O   LIG d   1       8.706  -2.958  -2.947  0.00  0.00    -0.506 OA
ATOM     30  H   LIG d   1       8.969  -3.433  -1.990  0.00  0.00     0.292 HD
ENDBRANCH   6  29
BRANCH   7  31
ATOM     31  C   LIG d   1       7.777  -0.797  -5.556  0.00  0.00    -0.045 C 
ATOM     32  H   LIG d   1       8.321  -1.207  -6.420  0.00  0.00     0.025 H 
ATOM     33  H   LIG d   1       8.489  -0.573  -4.748  0.00  0.00     0.025 H 
ATOM     34  H   LIG d   1       7.259   0.127  -5.855  0.00  0.00     0.025 H 
ENDBRANCH   7  31
BRANCH  12  35
ATOM     35  C   LIG d   1       5.398   0.892  -2.947  0.00  0.00     0.163 C 
ATOM     36  O   LIG d   1       6.386   1.586  -3.002  0.00  0.00    -0.292 OA
BRANCH  35  37
ATOM     37  C   LIG d   1       4.431   1.048  -1.802  0.00  0.00    -0.001 C 
ATOM     38  H   LIG d   1       4.836   0.548  -0.911  0.00  0.00     0.031 H 
ATOM     39  H   LIG d   1       3.467   0.592  -2.073  0.00  0.00     0.031 H 
ATOM     40  H   LIG d   1       4.284   2.117  -1.589  0.00  0.00     0.031 H 
ENDBRANCH  35  37
ENDBRANCH  12  35
TORSDOF 8
ENDMDL
MODEL 5
REMARK VINA RESULT:      -5.1     11.946     14.757
REMARK  8 active torsions:
REMARK  status: ('A' for Active; 'I' for Inactive)
REMARK    1  A    between atoms: C_1  and  C_2 
REMARK    2  A    between atoms: C_3  and  O_25 
REMARK    3  A    between atoms: C_4  and  C_22 
REMARK    4  A    between atoms: C_7  and  O_8 
REMARK    5  A    between atoms: C_9  and  C_21 
REMARK    6  A    between atoms: C_14  and  C_17 
REMARK    7  A    between atoms: C_17  and  C_19 
REMARK    8  A    between atoms: C_22  and  C_24 
ROOT
ATOM      1  C   LIG d   1      10.397  11.774  -1.141  0.00  0.00     0.034 A 
ATOM      2  C   LIG d   1      10.109  10.513  -0.649  0.00  0.00     0.137 A 
ATOM      3  C   LIG d   1      10.051   9.414  -1.523  0.00  0.00     0.101 A 
ATOM      4  C   LIG d   1      10.266   9.601  -2.906  0.00  0.00     0.150 A 
ATOM      5  C   LIG d   1      10.568  10.874  -3.368  0.00  0.00     0.054 A 
ATOM      6  C   LIG d   1      10.625  11.951  -2.499  0.00  0.00     0.131 A 
ATOM      7  C   LIG d   1      10.799  10.719  -4.844  0.00  0.00     0.070 C 
ATOM      8  C   LIG d   1      10.272   9.317  -5.119  0.00  0.00     0.123 C 
ATOM      9  C   LIG d   1       9.795   8.935  -6.325  0.00  0.00     0.025 C 
ATOM     10  C   LIG d   1       9.637   9.874  -7.359  0.00  0.00     0.192 C 
ATOM     11  O   LIG d   1       9.256   9.487  -8.446  0.00  0.00    -0.287 OA
ATOM     12  C   LIG d   1       9.922  11.340  -7.170  0.00  0.00     0.053 C 
ATOM     13  C   LIG d   1       9.975  11.664  -5.686  0.00  0.00    -0.100 C 
ATOM     14  O   LIG d   1       9.399  12.613  -5.212  0.00  0.00    -0.875 OA
ATOM     15  O   LIG d   1      10.227   8.711  -3.930  0.00  0.00    -0.458 OA
ATOM     16  H   LIG d   1       9.530   7.883  -6.503  0.00  0.00     0.069 H 
ENDROOT
BRANCH   3  17
ATOM     17  C   LIG d   1       9.764   8.079  -1.002  0.00  0.00     0.167 C 
ATOM     18  O   LIG d   1       8.615   7.714  -0.869  0.00  0.00    -0.292 OA
BRANCH  17  19
ATOM     19  C   LIG d   1      10.896   7.156  -0.630  0.00  0.00    -0.001 C 
ATOM     20  H   LIG d   1      11.728   7.295  -1.336  0.00  0.00     0.031 H 
ATOM     21  H   LIG d   1      10.548   6.114  -0.674  0.00  0.00     0.031 H 
ATOM     22  H   LIG d   1      11.238   7.386   0.389  0.00  0.00     0.031 H 
ENDBRANCH  17  19
ENDBRANCH   3  17
BRANCH   2  23
ATOM     23  O   LIG d   1       9.887  10.337   0.676  0.00  0.00    -0.506 OA
ATOM     24  H   LIG d   1       9.326  11.092   1.246  0.00  0.00     0.292 HD
ENDBRANCH   2  23
BRANCH   1  25
ATOM     25  C   LIG d   1      10.458  12.953  -0.204  0.00  0.00    -0.033 C 
ATOM     26  H   LIG d   1      10.280  12.612   0.826  0.00  0.00     0.028 H 
ATOM     27  H   LIG d   1       9.688  13.685  -0.487  0.00  0.00     0.028 H 
ATOM     28  H   LIG d   1      11.451  13.422  -0.269  0.00  0.00     0.028 H 
ENDBRANCH   1  25
BRANCH   6  29
ATOM     29  O   LIG d   1      10.905  13.189  -2.980  0.00  0.00    -0.506 OA
ATOM     30  H   LIG d   1      10.274  13.630  -3.765  0.00  0.00     0.292 HD
ENDBRANCH   6  29
BRANCH   7  31
ATOM     31  C   LIG d   1      12.286  10.830  -5.187  0.00  0.00    -0.045 C 
ATOM     32  H   LIG d   1      12.411  11.450  -6.087  0.00  0.00     0.025 H 
ATOM     33  H   LIG d   1      12.695   9.827  -5.373  0.00  0.00     0.025 H 
ATOM     34  H   LIG d   1      12.822  11.295  -4.345  0.00  0.00     0.025 H 
ENDBRANCH   7  31
BRANCH  12  35
ATOM     35  C   LIG d   1      10.172  12.595  -7.967  0.00  0.00     0.163 C 
ATOM     36  O   LIG d   1       9.244  13.296  -8.295  0.00  0.00    -0.292 OA
BRANCH  35  37
ATOM     37  C   LIG d   1      11.578  12.975  -8.354  0.00  0.00    -0.001 C 
ATOM     38  H   LIG d   1      12.221  12.955  -7.463  0.00  0.00     0.031 H 
ATOM     39  H   LIG d   1      11.578  13.987  -8.784  0.00  0.00     0.031 H 
ATOM     40  H   LIG d   1      11.958  12.260  -9.098  0.00  0.00     0.031 H 
ENDBRANCH  35  37
ENDBRANCH  12  35
TORSDOF 8
ENDMDL
MODEL 6
REMARK VINA RESULT:      -5.0      2.217      3.108
REMARK  8 active torsions:
REMARK  status: ('A' for Active; 'I' for Inactive)
REMARK    1  A    between atoms: C_1  and  C_2 
REMARK    2  A    between atoms: C_3  and  O_25 
REMARK    3  A    between atoms: C_4  and  C_22 
REMARK    4  A    between atoms: C_7  and  O_8 
REMARK    5  A    between atoms: C_9  and  C_21 
REMARK    6  A    between atoms: C_14  and  C_17 
REMARK    7  A    between atoms: C_17  and  C_19 
REMARK    8  A    between atoms: C_22  and  C_24 
ROOT
ATOM      1  C   LIG d   1       9.385  -1.841  -6.602  0.00  0.00     0.034 A 
ATOM      2  C   LIG d   1       9.867  -2.721  -5.650  0.00  0.00     0.137 A 
ATOM      3  C   LIG d   1       8.987  -3.303  -4.722  0.00  0.00     0.101 A 
ATOM      4  C   LIG d   1       7.615  -2.972  -4.748  0.00  0.00     0.150 A 
ATOM      5  C   LIG d   1       7.158  -2.099  -5.723  0.00  0.00     0.054 A 
ATOM      6  C   LIG d   1       8.032  -1.531  -6.636  0.00  0.00     0.131 A 
ATOM      7  C   LIG d   1       5.672  -2.012  -5.518  0.00  0.00     0.070 C 
ATOM      8  C   LIG d   1       5.485  -2.670  -4.158  0.00  0.00     0.123 C 
ATOM      9  C   LIG d   1       4.451  -2.378  -3.338  0.00  0.00     0.025 C 
ATOM     10  C   LIG d   1       3.563  -1.335  -3.652  0.00  0.00     0.192 C 
ATOM     11  O   LIG d   1       2.615  -1.134  -2.920  0.00  0.00    -0.287 OA
ATOM     12  C   LIG d   1       3.743  -0.458  -4.863  0.00  0.00     0.053 C 
ATOM     13  C   LIG d   1       5.163  -0.596  -5.388  0.00  0.00    -0.100 C 
ATOM     14  O   LIG d   1       5.838   0.361  -5.682  0.00  0.00    -0.875 OA
ATOM     15  O   LIG d   1       6.598  -3.375  -3.944  0.00  0.00    -0.458 OA
ATOM     16  H   LIG d   1       4.299  -2.959  -2.417  0.00  0.00     0.069 H 
ENDROOT
BRANCH   3  17
ATOM     17  C   LIG d   1       9.493  -4.247  -3.727  0.00  0.00     0.167 C 
ATOM     18  O   LIG d   1      10.136  -3.844  -2.780  0.00  0.00    -0.292 OA
BRANCH  17  19
ATOM     19  C   LIG d   1       9.215  -5.720  -3.877  0.00  0.00    -0.001 C 
ATOM     20  H   LIG d   1      10.164  -6.277  -3.851  0.00  0.00     0.031 H 
ATOM     21  H   LIG d   1       8.710  -5.902  -4.837  0.00  0.00     0.031 H 
ATOM     22  H   LIG d   1       8.570  -6.058  -3.054  0.00  0.00     0.031 H 
ENDBRANCH  17  19
ENDBRANCH   3  17
BRANCH   2  23
ATOM     23  O   LIG d   1      11.187  -3.026  -5.616  0.00  0.00    -0.506 OA
ATOM     24  H   LIG d   1      11.519  -3.991  -5.204  0.00  0.00     0.292 HD
ENDBRANCH   2  23
BRANCH   1  25
ATOM     25  C   LIG d   1      10.329  -1.215  -7.597  0.00  0.00    -0.033 C 
ATOM     26  H   LIG d   1      10.540  -0.178  -7.300  0.00  0.00     0.028 H 
ATOM     27  H   LIG d   1       9.868  -1.225  -8.595  0.00  0.00     0.028 H 
ATOM     28  H   LIG d   1      11.268  -1.788  -7.622  0.00  0.00     0.028 H 
ENDBRANCH   1  25
BRANCH   6  29
ATOM     29  O   LIG d   1       7.561  -0.665  -7.569  0.00  0.00    -0.506 OA
ATOM     30  H   LIG d   1       7.751  -0.850  -8.637  0.00  0.00     0.292 HD
ENDBRANCH   6  29
BRANCH   7  31
ATOM     31  C   LIG d   1       4.917  -2.770  -6.612  0.00  0.00    -0.045 C 
ATOM     32  H   LIG d   1       4.444  -3.664  -6.179  0.00  0.00     0.025 H 
ATOM     33  H   LIG d   1       5.622  -3.074  -7.400  0.00  0.00     0.025 H 
ATOM     34  H   LIG d   1       4.143  -2.118  -7.042  0.00  0.00     0.025 H 
ENDBRANCH   7  31
BRANCH  12  35
ATOM     35  C   LIG d   1       2.981   0.513  -5.726  0.00  0.00     0.163 C 
ATOM     36  O   LIG d   1       2.562   1.543  -5.252  0.00  0.00    -0.292 OA
BRANCH  35  37
ATOM     37  C   LIG d   1       2.742   0.202  -7.181  0.00  0.00    -0.001 C 
ATOM     38  H   LIG d   1       1.707   0.461  -7.446  0.00  0.00     0.031 H 
ATOM     39  H   LIG d   1       2.908  -0.871  -7.358  0.00  0.00     0.031 H 
ATOM     40  H   LIG d   1       3.437   0.787  -7.800  0.00  0.00     0.031 H 
ENDBRANCH  35  37
ENDBRANCH  12  35
TORSDOF 8
ENDMDL
MODEL 7
REMARK VINA RESULT:      -5.0     10.420     13.289
REMARK  8 active torsions:
REMARK  status: ('A' for Active; 'I' for Inactive)
REMARK    1  A    between atoms: C_1  and  C_2 
REMARK    2  A    between atoms: C_3  and  O_25 
REMARK    3  A    between atoms: C_4  and  C_22 
REMARK    4  A    between atoms: C_7  and  O_8 
REMARK    5  A    between atoms: C_9  and  C_21 
REMARK    6  A    between atoms: C_14  and  C_17 
REMARK    7  A    between atoms: C_17  and  C_19 
REMARK    8  A    between atoms: C_22  and  C_24 
ROOT
ATOM      1  C   LIG d   1       9.615  11.023  -4.177  0.00  0.00     0.034 A 
ATOM      2  C   LIG d   1       9.563  10.846  -5.548  0.00  0.00     0.137 A 
ATOM      3  C   LIG d   1       9.868   9.594  -6.108  0.00  0.00     0.101 A 
ATOM      4  C   LIG d   1      10.250   8.522  -5.271  0.00  0.00     0.150 A 
ATOM      5  C   LIG d   1      10.279   8.725  -3.899  0.00  0.00     0.054 A 
ATOM      6  C   LIG d   1       9.974   9.962  -3.356  0.00  0.00     0.131 A 
ATOM      7  C   LIG d   1      10.652   7.396  -3.307  0.00  0.00     0.070 C 
ATOM      8  C   LIG d   1      11.114   6.606  -4.524  0.00  0.00     0.123 C 
ATOM      9  C   LIG d   1      12.001   5.589  -4.446  0.00  0.00     0.025 C 
ATOM     10  C   LIG d   1      12.649   5.300  -3.233  0.00  0.00     0.192 C 
ATOM     11  O   LIG d   1      13.401   4.346  -3.184  0.00  0.00    -0.287 OA
ATOM     12  C   LIG d   1      12.449   6.128  -1.991  0.00  0.00     0.053 C 
ATOM     13  C   LIG d   1      11.829   7.465  -2.363  0.00  0.00    -0.100 C 
ATOM     14  O   LIG d   1      12.249   8.513  -1.933  0.00  0.00    -0.875 OA
ATOM     15  O   LIG d   1      10.618   7.253  -5.581  0.00  0.00    -0.458 OA
ATOM     16  H   LIG d   1      12.218   4.979  -5.335  0.00  0.00     0.069 H 
ENDROOT
BRANCH   3  17
ATOM     17  C   LIG d   1       9.795   9.402  -7.555  0.00  0.00     0.167 C 
ATOM     18  O   LIG d   1      10.508  10.053  -8.290  0.00  0.00    -0.292 OA
BRANCH  17  19
ATOM     19  C   LIG d   1       8.836   8.395  -8.133  0.00  0.00    -0.001 C 
ATOM     20  H   LIG d   1       9.140   7.382  -7.829  0.00  0.00     0.031 H 
ATOM     21  H   LIG d   1       8.847   8.466  -9.231  0.00  0.00     0.031 H 
ATOM     22  H   LIG d   1       7.821   8.599  -7.763  0.00  0.00     0.031 H 
ENDBRANCH  17  19
ENDBRANCH   3  17
BRANCH   2  23
ATOM     23  O   LIG d   1       9.211  11.880  -6.352  0.00  0.00    -0.506 OA
ATOM     24  H   LIG d   1       8.647  11.690  -7.278  0.00  0.00     0.292 HD
ENDBRANCH   2  23
BRANCH   1  25
ATOM     25  C   LIG d   1       9.289  12.367  -3.577  0.00  0.00    -0.033 C 
ATOM     26  H   LIG d   1       9.318  12.295  -2.481  0.00  0.00     0.028 H 
ATOM     27  H   LIG d   1       8.284  12.677  -3.899  0.00  0.00     0.028 H 
ATOM     28  H   LIG d   1      10.027  13.109  -3.917  0.00  0.00     0.028 H 
ENDBRANCH   1  25
BRANCH   6  29
ATOM     29  O   LIG d   1      10.027  10.138  -2.011  0.00  0.00    -0.506 OA
ATOM     30  H   LIG d   1      10.192  11.143  -1.594  0.00  0.00     0.292 HD
ENDBRANCH   6  29
BRANCH   7  31
ATOM     31  C   LIG d   1       9.448   6.731  -2.637  0.00  0.00    -0.045 C 
ATOM     32  H   LIG d   1       8.739   6.393  -3.407  0.00  0.00     0.025 H 
ATOM     33  H   LIG d   1       8.952   7.454  -1.974  0.00  0.00     0.025 H 
ATOM     34  H   LIG d   1       9.788   5.865  -2.048  0.00  0.00     0.025 H 
ENDBRANCH   7  31
BRANCH  12  35
ATOM     35  C   LIG d   1      12.660   6.070  -0.501  0.00  0.00     0.163 C 
ATOM     36  O   LIG d   1      13.763   6.244  -0.039  0.00  0.00    -0.292 OA
BRANCH  35  37
ATOM     37  C   LIG d   1      11.495   5.795   0.415  0.00  0.00    -0.001 C 
ATOM     38  H   LIG d   1      11.562   6.446   1.299  0.00  0.00     0.031 H 
ATOM     39  H   LIG d   1      11.519   4.742   0.733  0.00  0.00     0.031 H 
ATOM     40  H   LIG d   1      10.554   5.995  -0.118  0.00  0.00     0.031 H 
ENDBRANCH  35  37
ENDBRANCH  12  35
TORSDOF 8
ENDMDL
MODEL 8
REMARK VINA RESULT:      -5.0      2.590      5.024
REMARK  8 active torsions:
REMARK  status: ('A' for Active; 'I' for Inactive)
REMARK    1  A    between atoms: C_1  and  C_2 
REMARK    2  A    between atoms: C_3  and  O_25 
REMARK    3  A    between atoms: C_4  and  C_22 
REMARK    4  A    between atoms: C_7  and  O_8 
REMARK    5  A    between atoms: C_9  and  C_21 
REMARK    6  A    between atoms: C_14  and  C_17 
REMARK    7  A    between atoms: C_17  and  C_19 
REMARK    8  A    between atoms: C_22  and  C_24 
ROOT
ATOM      1  C   LIG d   1       4.372  -6.724  -7.255  0.00  0.00     0.034 A 
ATOM      2  C   LIG d   1       3.674  -6.494  -8.427  0.00  0.00     0.137 A 
ATOM      3  C   LIG d   1       3.442  -5.178  -8.862  0.00  0.00     0.101 A 
ATOM      4  C   LIG d   1       3.903  -4.090  -8.090  0.00  0.00     0.150 A 
ATOM      5  C   LIG d   1       4.613  -4.350  -6.927  0.00  0.00     0.054 A 
ATOM      6  C   LIG d   1       4.840  -5.651  -6.507  0.00  0.00     0.131 A 
ATOM      7  C   LIG d   1       5.008  -3.004  -6.390  0.00  0.00     0.070 C 
ATOM      8  C   LIG d   1       4.158  -2.051  -7.219  0.00  0.00     0.123 C 
ATOM      9  C   LIG d   1       3.778  -0.832  -6.776  0.00  0.00     0.025 C 
ATOM     10  C   LIG d   1       4.043  -0.439  -5.454  0.00  0.00     0.192 C 
ATOM     11  O   LIG d   1       3.735   0.684  -5.104  0.00  0.00    -0.287 OA
ATOM     12  C   LIG d   1       4.694  -1.356  -4.453  0.00  0.00     0.053 C 
ATOM     13  C   LIG d   1       4.615  -2.791  -4.947  0.00  0.00    -0.100 C 
ATOM     14  O   LIG d   1       4.262  -3.700  -4.235  0.00  0.00    -0.875 OA
ATOM     15  O   LIG d   1       3.770  -2.753  -8.286  0.00  0.00    -0.458 OA
ATOM     16  H   LIG d   1       3.258  -0.138  -7.453  0.00  0.00     0.069 H 
ENDROOT
BRANCH   3  17
ATOM     17  C   LIG d   1       2.720  -4.936 -10.109  0.00  0.00     0.167 C 
ATOM     18  O   LIG d   1       1.521  -5.116 -10.161  0.00  0.00    -0.292 OA
BRANCH  17  19
ATOM     19  C   LIG d   1       3.465  -4.462 -11.330  0.00  0.00    -0.001 C 
ATOM     20  H   LIG d   1       2.745  -4.118 -12.087  0.00  0.00     0.031 H 
ATOM     21  H   LIG d   1       4.060  -5.291 -11.741  0.00  0.00     0.031 H 
ATOM     22  H   LIG d   1       4.132  -3.633 -11.055  0.00  0.00     0.031 H 
ENDBRANCH  17  19
ENDBRANCH   3  17
BRANCH   2  23
ATOM     23  O   LIG d   1       3.218  -7.540  -9.160  0.00  0.00    -0.506 OA
ATOM     24  H   LIG d   1       2.783  -7.366 -10.156  0.00  0.00     0.292 HD
ENDBRANCH   2  23
BRANCH   1  25
ATOM     25  C   LIG d   1       4.620  -8.135  -6.789  0.00  0.00    -0.033 C 
ATOM     26  H   LIG d   1       4.761  -8.141  -5.699  0.00  0.00     0.028 H 
ATOM     27  H   LIG d   1       5.522  -8.530  -7.279  0.00  0.00     0.028 H 
ATOM     28  H   LIG d   1       3.756  -8.764  -7.051  0.00  0.00     0.028 H 
ENDBRANCH   1  25
BRANCH   6  29
ATOM     29  O   LIG d   1       5.522  -5.878  -5.356  0.00  0.00    -0.506 OA
ATOM     30  H   LIG d   1       6.418  -6.515  -5.365  0.00  0.00     0.292 HD
ENDBRANCH   6  29
BRANCH   7  31
ATOM     31  C   LIG d   1       6.501  -2.741  -6.598  0.00  0.00    -0.045 C 
ATOM     32  H   LIG d   1       6.707  -1.668  -6.464  0.00  0.00     0.025 H 
ATOM     33  H   LIG d   1       6.788  -3.045  -7.615  0.00  0.00     0.025 H 
ATOM     34  H   LIG d   1       7.081  -3.319  -5.864  0.00  0.00     0.025 H 
ENDBRANCH   7  31
BRANCH  12  35
ATOM     35  C   LIG d   1       5.399  -1.322  -3.121  0.00  0.00     0.163 C 
ATOM     36  O   LIG d   1       6.594  -1.492  -3.066  0.00  0.00    -0.292 OA
BRANCH  35  37
ATOM     37  C   LIG d   1       4.614  -1.075  -1.859  0.00  0.00    -0.001 C 
ATOM     38  H   LIG d   1       4.519  -2.015  -1.297  0.00  0.00     0.031 H 
ATOM     39  H   LIG d   1       3.613  -0.699  -2.117  0.00  0.00     0.031 H 
ATOM     40  H   LIG d   1       5.138  -0.330  -1.242  0.00  0.00     0.031 H 
ENDBRANCH  35  37
ENDBRANCH  12  35
TORSDOF 8
ENDMDL
MODEL 9
REMARK VINA RESULT:      -5.0     10.108     13.207
REMARK  8 active torsions:
REMARK  status: ('A' for Active; 'I' for Inactive)
REMARK    1  A    between atoms: C_1  and  C_2 
REMARK    2  A    between atoms: C_3  and  O_25 
REMARK    3  A    between atoms: C_4  and  C_22 
REMARK    4  A    between atoms: C_7  and  O_8 
REMARK    5  A    between atoms: C_9  and  C_21 
REMARK    6  A    between atoms: C_14  and  C_17 
REMARK    7  A    between atoms: C_17  and  C_19 
REMARK    8  A    between atoms: C_22  and  C_24 
ROOT
ATOM      1  C   LIG d   1      10.249   8.967  -1.386  0.00  0.00     0.034 A 
ATOM      2  C   LIG d   1      10.322   7.586  -1.432  0.00  0.00     0.137 A 
ATOM      3  C   LIG d   1      10.607   6.937  -2.646  0.00  0.00     0.101 A 
ATOM      4  C   LIG d   1      10.796   7.694  -3.822  0.00  0.00     0.150 A 
ATOM      5  C   LIG d   1      10.732   9.077  -3.743  0.00  0.00     0.054 A 
ATOM      6  C   LIG d   1      10.454   9.709  -2.542  0.00  0.00     0.131 A 
ATOM      7  C   LIG d   1      11.038   9.571  -5.128  0.00  0.00     0.070 C 
ATOM      8  C   LIG d   1      10.944   8.302  -5.964  0.00  0.00     0.123 C 
ATOM      9  C   LIG d   1      10.631   8.310  -7.278  0.00  0.00     0.025 C 
ATOM     10  C   LIG d   1      10.238   9.502  -7.911  0.00  0.00     0.192 C 
ATOM     11  O   LIG d   1      10.014   9.485  -9.105  0.00  0.00    -0.287 OA
ATOM     12  C   LIG d   1      10.084  10.801  -7.164  0.00  0.00     0.053 C 
ATOM     13  C   LIG d   1      10.001  10.525  -5.671  0.00  0.00    -0.100 C 
ATOM     14  O   LIG d   1       9.163  11.035  -4.967  0.00  0.00    -0.875 OA
ATOM     15  O   LIG d   1      11.043   7.293  -5.096  0.00  0.00    -0.458 OA
ATOM     16  H   LIG d   1      10.684   7.380  -7.862  0.00  0.00     0.069 H 
ENDROOT
BRANCH   3  17
ATOM     17  C   LIG d   1      10.701   5.479  -2.691  0.00  0.00     0.167 C 
ATOM     18  O   LIG d   1       9.700   4.802  -2.577  0.00  0.00    -0.292 OA
BRANCH  17  19
ATOM     19  C   LIG d   1      12.041   4.817  -2.879  0.00  0.00    -0.001 C 
ATOM     20  H   LIG d   1      11.954   3.744  -2.655  0.00  0.00     0.031 H 
ATOM     21  H   LIG d   1      12.775   5.275  -2.200  0.00  0.00     0.031 H 
ATOM     22  H   LIG d   1      12.373   4.948  -3.920  0.00  0.00     0.031 H 
ENDBRANCH  17  19
ENDBRANCH   3  17
BRANCH   2  23
ATOM     23  O   LIG d   1      10.124   6.859  -0.305  0.00  0.00    -0.506 OA
ATOM     24  H   LIG d   1      10.727   5.958  -0.118  0.00  0.00     0.292 HD
ENDBRANCH   2  23
BRANCH   1  25
ATOM     25  C   LIG d   1       9.943   9.663  -0.085  0.00  0.00    -0.033 C 
ATOM     26  H   LIG d   1      10.695  10.443   0.099  0.00  0.00     0.028 H 
ATOM     27  H   LIG d   1       9.964   8.931   0.735  0.00  0.00     0.028 H 
ATOM     28  H   LIG d   1       8.944  10.121  -0.141  0.00  0.00     0.028 H 
ENDBRANCH   1  25
BRANCH   6  29
ATOM     29  O   LIG d   1      10.379  11.063  -2.496  0.00  0.00    -0.506 OA
ATOM     30  H   LIG d   1      11.265  11.654  -2.219  0.00  0.00     0.292 HD
ENDBRANCH   6  29
BRANCH   7  31
ATOM     31  C   LIG d   1      12.440  10.182  -5.201  0.00  0.00    -0.045 C 
ATOM     32  H   LIG d   1      13.115   9.491  -5.727  0.00  0.00     0.025 H 
ATOM     33  H   LIG d   1      12.816  10.358  -4.183  0.00  0.00     0.025 H 
ATOM     34  H   LIG d   1      12.396  11.136  -5.747  0.00  0.00     0.025 H 
ENDBRANCH   7  31
BRANCH  12  35
ATOM     35  C   LIG d   1       9.984  12.285  -7.407  0.00  0.00     0.163 C 
ATOM     36  O   LIG d   1       8.966  12.756  -7.854  0.00  0.00    -0.292 OA
BRANCH  35  37
ATOM     37  C   LIG d   1      11.154  13.180  -7.091  0.00  0.00    -0.001 C 
ATOM     38  H   LIG d   1      11.999  12.925  -7.747  0.00  0.00     0.031 H 
ATOM     39  H   LIG d   1      11.450  13.040  -6.041  0.00  0.00     0.031 H 
ATOM     40  H   LIG d   1      10.867  14.229  -7.255  0.00  0.00     0.031 H 
ENDBRANCH  35  37
ENDBRANCH  12  35
TORSDOF 8
ENDMDL
MODEL 10
REMARK VINA RESULT:      -4.9      3.689      5.934
REMARK  8 active torsions:
REMARK  status: ('A' for Active; 'I' for Inactive)
REMARK    1  A    between atoms: C_1  and  C_2 
REMARK    2  A    between atoms: C_3  and  O_25 
REMARK    3  A    between atoms: C_4  and  C_22 
REMARK    4  A    between atoms: C_7  and  O_8 
REMARK    5  A    between atoms: C_9  and  C_21 
REMARK    6  A    between atoms: C_14  and  C_17 
REMARK    7  A    between atoms: C_17  and  C_19 
REMARK    8  A    between atoms: C_22  and  C_24 
ROOT
ATOM      1  C   LIG d   1       7.771  -0.918  -5.417  0.00  0.00     0.034 A 
ATOM      2  C   LIG d   1       7.111  -0.345  -4.345  0.00  0.00     0.137 A 
ATOM      3  C   LIG d   1       5.721  -0.147  -4.399  0.00  0.00     0.101 A 
ATOM      4  C   LIG d   1       5.001  -0.513  -5.557  0.00  0.00     0.150 A 
ATOM      5  C   LIG d   1       5.687  -1.100  -6.611  0.00  0.00     0.054 A 
ATOM      6  C   LIG d   1       7.057  -1.293  -6.548  0.00  0.00     0.131 A 
ATOM      7  C   LIG d   1       4.640  -1.422  -7.639  0.00  0.00     0.070 C 
ATOM      8  C   LIG d   1       3.427  -0.654  -7.132  0.00  0.00     0.123 C 
ATOM      9  C   LIG d   1       2.442  -0.218  -7.947  0.00  0.00     0.025 C 
ATOM     10  C   LIG d   1       2.564  -0.339  -9.342  0.00  0.00     0.192 C 
ATOM     11  O   LIG d   1       1.637   0.016 -10.044  0.00  0.00    -0.287 OA
ATOM     12  C   LIG d   1       3.801  -0.890 -10.000  0.00  0.00     0.053 C 
ATOM     13  C   LIG d   1       4.955  -0.878  -9.012  0.00  0.00    -0.100 C 
ATOM     14  O   LIG d   1       6.050  -0.461  -9.304  0.00  0.00    -0.875 OA
ATOM     15  O   LIG d   1       3.681  -0.388  -5.849  0.00  0.00    -0.458 OA
ATOM     16  H   LIG d   1       1.534   0.234  -7.521  0.00  0.00     0.069 H 
ENDROOT
BRANCH   3  17
ATOM     17  C   LIG d   1       5.021   0.442  -3.259  0.00  0.00     0.167 C 
ATOM     18  O   LIG d   1       5.040   1.644  -3.091  0.00  0.00    -0.292 OA
BRANCH  17  19
ATOM     19  C   LIG d   1       4.274  -0.442  -2.294  0.00  0.00    -0.001 C 
ATOM     20  H   LIG d   1       4.302  -1.481  -2.654  0.00  0.00     0.031 H 
ATOM     21  H   LIG d   1       3.230  -0.107  -2.223  0.00  0.00     0.031 H 
ATOM     22  H   LIG d   1       4.746  -0.385  -1.303  0.00  0.00     0.031 H 
ENDBRANCH  17  19
ENDBRANCH   3  17
BRANCH   2  23
ATOM     23  O   LIG d   1       7.805   0.021  -3.239  0.00  0.00    -0.506 OA
ATOM     24  H   LIG d   1       7.429   0.832  -2.596  0.00  0.00     0.292 HD
ENDBRANCH   2  23
BRANCH   1  25
ATOM     25  C   LIG d   1       9.262  -1.129  -5.359  0.00  0.00    -0.033 C 
ATOM     26  H   LIG d   1       9.703  -0.429  -4.636  0.00  0.00     0.028 H 
ATOM     27  H   LIG d   1       9.695  -0.951  -6.354  0.00  0.00     0.028 H 
ATOM     28  H   LIG d   1       9.474  -2.163  -5.047  0.00  0.00     0.028 H 
ENDBRANCH   1  25
BRANCH   6  29
ATOM     29  O   LIG d   1       7.707  -1.853  -7.600  0.00  0.00    -0.506 OA
ATOM     30  H   LIG d   1       8.734  -2.226  -7.477  0.00  0.00     0.292 HD
ENDBRANCH   6  29
BRANCH   7  31
ATOM     31  C   LIG d   1       4.363  -2.926  -7.693  0.00  0.00    -0.045 C 
ATOM     32  H   LIG d   1       3.553  -3.125  -8.410  0.00  0.00     0.025 H 
ATOM     33  H   LIG d   1       4.064  -3.280  -6.695  0.00  0.00     0.025 H 
ATOM     34  H   LIG d   1       5.273  -3.455  -8.014  0.00  0.00     0.025 H 
ENDBRANCH   7  31
BRANCH  12  35
ATOM     35  C   LIG d   1       4.273  -1.451 -11.317  0.00  0.00     0.163 C 
ATOM     36  O   LIG d   1       4.589  -2.614 -11.399  0.00  0.00    -0.292 OA
BRANCH  35  37
ATOM     37  C   LIG d   1       4.351  -0.561 -12.531  0.00  0.00    -0.001 C 
ATOM     38  H   LIG d   1       3.394  -0.037 -12.662  0.00  0.00     0.031 H 
ATOM     39  H   LIG d   1       4.559  -1.173 -13.421  0.00  0.00     0.031 H 
ATOM     40  H   LIG d   1       5.158   0.174 -12.394  0.00  0.00     0.031 H 
ENDBRANCH  35  37
ENDBRANCH  12  35
TORSDOF 8
ENDMDL
