MODEL 1
REMARK VINA RESULT:      -6.7      0.000      0.000
REMARK  7 active torsions:
REMARK  status: ('A' for Active; 'I' for Inactive)
REMARK    1  A    between atoms: C_1  and  O_2 
REMARK    2  A    between atoms: O_2  and  C_3 
REMARK    3  A    between atoms: C_6  and  C_11 
REMARK    4  A    between atoms: C_8  and  O_9 
REMARK    5  A    between atoms: O_9  and  C_10 
REMARK    6  A    between atoms: C_11  and  N_12 
REMARK    7  A    between atoms: C_22  and  C_25 
ROOT
ATOM      1  N   LIG d   1       8.806   1.001  -5.509  0.00  0.00    -0.262 N 
ATOM      2  C   LIG d   1       9.377   1.948  -4.542  0.00  0.00     0.034 C 
ATOM      3  C   LIG d   1       9.580   3.287  -5.204  0.00  0.00     0.051 A 
ATOM      4  C   LIG d   1       9.587   3.404  -6.582  0.00  0.00     0.130 A 
ATOM      5  C   LIG d   1       9.782   4.648  -7.184  0.00  0.00    -0.019 A 
ATOM      6  C   LIG d   1       9.965   5.764  -6.422  0.00  0.00    -0.044 A 
ATOM      7  C   LIG d   1       9.957   5.661  -5.030  0.00  0.00     0.065 A 
ATOM      8  C   LIG d   1       9.763   4.416  -4.409  0.00  0.00     0.146 A 
ATOM      9  O   LIG d   1       9.753   4.302  -3.069  0.00  0.00    -0.462 OA
ATOM     10  C   LIG d   1       9.924   5.352  -2.271  0.00  0.00     0.104 A 
ATOM     11  C   LIG d   1      10.124   6.617  -2.721  0.00  0.00     0.064 A 
ATOM     12  C   LIG d   1      10.152   6.848  -4.177  0.00  0.00     0.200 A 
ATOM     13  O   LIG d   1      10.325   7.958  -4.649  0.00  0.00    -0.286 OA
ATOM     14  O   LIG d   1       9.406   2.312  -7.372  0.00  0.00    -0.476 OA
ATOM     15  C   LIG d   1       9.577   1.031  -6.764  0.00  0.00     0.144 C 
ATOM     16  H   LIG d   1       8.690   2.062  -3.691  0.00  0.00     0.048 H 
ATOM     17  H   LIG d   1      10.345   1.568  -4.183  0.00  0.00     0.048 H 
ATOM     18  H   LIG d   1       9.789   4.727  -8.261  0.00  0.00     0.065 H 
ATOM     19  H   LIG d   1      10.116   6.724  -6.893  0.00  0.00     0.063 H 
ATOM     20  H   LIG d   1       9.904   5.189  -1.204  0.00  0.00     0.104 H 
ATOM     21  H   LIG d   1      10.642   0.859  -6.544  0.00  0.00     0.087 H 
ATOM     22  H   LIG d   1       9.210   0.244  -7.438  0.00  0.00     0.087 H 
ENDROOT
BRANCH   1  23
ATOM     23  C   LIG d   1       8.761  -0.358  -4.952  0.00  0.00     0.028 C 
ATOM     24  H   LIG d   1       9.361  -0.397  -4.031  0.00  0.00     0.048 H 
ATOM     25  H   LIG d   1       9.167  -1.069  -5.686  0.00  0.00     0.048 H 
BRANCH  23  26
ATOM     26  C   LIG d   1       7.333  -0.724  -4.637  0.00  0.00    -0.030 A 
ATOM     27  C   LIG d   1       7.059  -1.608  -3.610  0.00  0.00    -0.054 A 
ATOM     28  C   LIG d   1       5.751  -1.948  -3.318  0.00  0.00    -0.016 A 
ATOM     29  H   LIG d   1       7.868  -2.039  -3.039  0.00  0.00     0.062 H 
ATOM     30  C   LIG d   1       4.712  -1.400  -4.054  0.00  0.00     0.162 A 
ATOM     31  H   LIG d   1       5.538  -2.639  -2.515  0.00  0.00     0.066 H 
ATOM     32  C   LIG d   1       4.988  -0.510  -5.087  0.00  0.00     0.162 A 
ATOM     33  C   LIG d   1       6.301  -0.175  -5.376  0.00  0.00    -0.012 A 
ATOM     34  H   LIG d   1       6.518   0.516  -6.177  0.00  0.00     0.066 H 
BRANCH  30  35
ATOM     35  O   LIG d   1       3.424  -1.733  -3.766  0.00  0.00    -0.491 OA
BRANCH  35  36
ATOM     36  C   LIG d   1       2.711  -0.864  -2.884  0.00  0.00     0.079 C 
ATOM     37  H   LIG d   1       1.631  -0.963  -3.066  0.00  0.00     0.066 H 
ATOM     38  H   LIG d   1       3.020   0.176  -3.065  0.00  0.00     0.066 H 
ATOM     39  H   LIG d   1       2.934  -1.136  -1.842  0.00  0.00     0.066 H 
ENDBRANCH  35  36
ENDBRANCH  30  35
BRANCH  32  40
ATOM     40  O   LIG d   1       3.972   0.029  -5.812  0.00  0.00    -0.491 OA
BRANCH  40  41
ATOM     41  C   LIG d   1       3.810  -0.442  -7.151  0.00  0.00     0.079 C 
ATOM     42  H   LIG d   1       4.556   0.037  -7.801  0.00  0.00     0.066 H 
ATOM     43  H   LIG d   1       2.799  -0.192  -7.508  0.00  0.00     0.066 H 
ATOM     44  H   LIG d   1       3.947  -1.533  -7.176  0.00  0.00     0.066 H 
ENDBRANCH  40  41
ENDBRANCH  32  40
ENDBRANCH  23  26
ENDBRANCH   1  23
BRANCH  11  45
ATOM     45  C   LIG d   1      10.309   7.741  -1.772  0.00  0.00    -0.011 A 
ATOM     46  C   LIG d   1      11.591   8.104  -1.360  0.00  0.00    -0.052 A 
ATOM     47  C   LIG d   1      11.757   9.151  -0.477  0.00  0.00    -0.043 A 
ATOM     48  H   LIG d   1      12.450   7.567  -1.731  0.00  0.00     0.062 H 
ATOM     49  C   LIG d   1      10.655   9.841  -0.001  0.00  0.00     0.041 A 
ATOM     50  H   LIG d   1      12.750   9.433  -0.157  0.00  0.00     0.063 H 
ATOM     51  C   LIG d   1       9.382   9.484  -0.407  0.00  0.00    -0.043 A 
ATOM     52 CL   LIG d   1      10.873  11.158   1.109  0.00  0.00    -0.084 Cl
ATOM     53  C   LIG d   1       9.204   8.442  -1.294  0.00  0.00    -0.052 A 
ATOM     54  H   LIG d   1       8.525  10.025  -0.034  0.00  0.00     0.063 H 
ATOM     55  H   LIG d   1       8.209   8.167  -1.614  0.00  0.00     0.062 H 
ENDBRANCH  11  45
TORSDOF 7
ENDMDL
MODEL 2
REMARK VINA RESULT:      -6.6      5.089      7.630
REMARK  7 active torsions:
REMARK  status: ('A' for Active; 'I' for Inactive)
REMARK    1  A    between atoms: C_1  and  O_2 
REMARK    2  A    between atoms: O_2  and  C_3 
REMARK    3  A    between atoms: C_6  and  C_11 
REMARK    4  A    between atoms: C_8  and  O_9 
REMARK    5  A    between atoms: O_9  and  C_10 
REMARK    6  A    between atoms: C_11  and  N_12 
REMARK    7  A    between atoms: C_22  and  C_25 
ROOT
ATOM      1  N   LIG d   1       6.249  -5.015  -5.244  0.00  0.00    -0.262 N 
ATOM      2  C   LIG d   1       6.873  -3.717  -5.533  0.00  0.00     0.034 C 
ATOM      3  C   LIG d   1       6.177  -2.635  -4.747  0.00  0.00     0.051 A 
ATOM      4  C   LIG d   1       4.927  -2.849  -4.197  0.00  0.00     0.130 A 
ATOM      5  C   LIG d   1       4.289  -1.838  -3.477  0.00  0.00    -0.019 A 
ATOM      6  C   LIG d   1       4.892  -0.626  -3.305  0.00  0.00    -0.044 A 
ATOM      7  C   LIG d   1       6.155  -0.397  -3.852  0.00  0.00     0.065 A 
ATOM      8  C   LIG d   1       6.809  -1.405  -4.580  0.00  0.00     0.146 A 
ATOM      9  O   LIG d   1       8.027  -1.198  -5.113  0.00  0.00    -0.462 OA
ATOM     10  C   LIG d   1       8.667  -0.040  -4.979  0.00  0.00     0.104 A 
ATOM     11  C   LIG d   1       8.165   1.026  -4.307  0.00  0.00     0.064 A 
ATOM     12  C   LIG d   1       6.835   0.900  -3.685  0.00  0.00     0.200 A 
ATOM     13  O   LIG d   1       6.325   1.818  -3.065  0.00  0.00    -0.286 OA
ATOM     14  O   LIG d   1       4.298  -4.045  -4.348  0.00  0.00    -0.476 OA
ATOM     15  C   LIG d   1       4.785  -4.914  -5.372  0.00  0.00     0.144 C 
ATOM     16  H   LIG d   1       7.935  -3.749  -5.248  0.00  0.00     0.048 H 
ATOM     17  H   LIG d   1       6.788  -3.500  -6.608  0.00  0.00     0.048 H 
ATOM     18  H   LIG d   1       3.311  -2.015  -3.054  0.00  0.00     0.065 H 
ATOM     19  H   LIG d   1       4.394   0.154  -2.748  0.00  0.00     0.063 H 
ATOM     20  H   LIG d   1       9.643   0.057  -5.432  0.00  0.00     0.104 H 
ATOM     21  H   LIG d   1       4.532  -4.506  -6.362  0.00  0.00     0.087 H 
ATOM     22  H   LIG d   1       4.338  -5.912  -5.261  0.00  0.00     0.087 H 
ENDROOT
BRANCH   1  23
ATOM     23  C   LIG d   1       6.782  -6.064  -6.123  0.00  0.00     0.028 C 
ATOM     24  H   LIG d   1       7.859  -5.900  -6.279  0.00  0.00     0.048 H 
ATOM     25  H   LIG d   1       6.261  -6.032  -7.091  0.00  0.00     0.048 H 
BRANCH  23  26
ATOM     26  C   LIG d   1       6.568  -7.412  -5.484  0.00  0.00    -0.030 A 
ATOM     27  C   LIG d   1       7.468  -7.881  -4.545  0.00  0.00    -0.054 A 
ATOM     28  C   LIG d   1       7.277  -9.118  -3.956  0.00  0.00    -0.016 A 
ATOM     29  H   LIG d   1       8.325  -7.283  -4.274  0.00  0.00     0.062 H 
ATOM     30  C   LIG d   1       6.180  -9.889  -4.307  0.00  0.00     0.162 A 
ATOM     31  H   LIG d   1       7.981  -9.482  -3.223  0.00  0.00     0.066 H 
ATOM     32  C   LIG d   1       5.274  -9.417  -5.252  0.00  0.00     0.162 A 
ATOM     33  C   LIG d   1       5.473  -8.178  -5.839  0.00  0.00    -0.012 A 
ATOM     34  H   LIG d   1       4.771  -7.809  -6.572  0.00  0.00     0.066 H 
BRANCH  30  35
ATOM     35  O   LIG d   1       5.989 -11.105  -3.728  0.00  0.00    -0.491 OA
BRANCH  35  36
ATOM     36  C   LIG d   1       5.494 -11.116  -2.388  0.00  0.00     0.079 C 
ATOM     37  H   LIG d   1       4.720 -11.891  -2.290  0.00  0.00     0.066 H 
ATOM     38  H   LIG d   1       5.063 -10.132  -2.149  0.00  0.00     0.066 H 
ATOM     39  H   LIG d   1       6.319 -11.332  -1.693  0.00  0.00     0.066 H 
ENDBRANCH  35  36
ENDBRANCH  30  35
BRANCH  32  40
ATOM     40  O   LIG d   1       4.197 -10.171  -5.599  0.00  0.00    -0.491 OA
BRANCH  40  41
ATOM     41  C   LIG d   1       4.333 -11.005  -6.752  0.00  0.00     0.079 C 
ATOM     42  H   LIG d   1       3.646 -10.660  -7.538  0.00  0.00     0.066 H 
ATOM     43  H   LIG d   1       4.091 -12.044  -6.483  0.00  0.00     0.066 H 
ATOM     44  H   LIG d   1       5.369 -10.955  -7.121  0.00  0.00     0.066 H 
ENDBRANCH  40  41
ENDBRANCH  32  40
ENDBRANCH  23  26
ENDBRANCH   1  23
BRANCH  11  45
ATOM     45  C   LIG d   1       8.936   2.288  -4.199  0.00  0.00    -0.011 A 
ATOM     46  C   LIG d   1       9.809   2.485  -3.130  0.00  0.00    -0.052 A 
ATOM     47  C   LIG d   1      10.525   3.661  -3.035  0.00  0.00    -0.043 A 
ATOM     48  H   LIG d   1       9.924   1.719  -2.378  0.00  0.00     0.062 H 
ATOM     49  C   LIG d   1      10.379   4.643  -4.000  0.00  0.00     0.041 A 
ATOM     50  H   LIG d   1      11.201   3.815  -2.207  0.00  0.00     0.063 H 
ATOM     51  C   LIG d   1       9.513   4.452  -5.063  0.00  0.00    -0.043 A 
ATOM     52 CL   LIG d   1      11.284   6.119  -3.874  0.00  0.00    -0.084 Cl
ATOM     53  C   LIG d   1       8.797   3.278  -5.170  0.00  0.00    -0.052 A 
ATOM     54  H   LIG d   1       9.403   5.221  -5.813  0.00  0.00     0.063 H 
ATOM     55  H   LIG d   1       8.125   3.128  -6.003  0.00  0.00     0.062 H 
ENDBRANCH  11  45
TORSDOF 7
ENDMDL
MODEL 3
REMARK VINA RESULT:      -6.3      4.887      7.650
REMARK  7 active torsions:
REMARK  status: ('A' for Active; 'I' for Inactive)
REMARK    1  A    between atoms: C_1  and  O_2 
REMARK    2  A    between atoms: O_2  and  C_3 
REMARK    3  A    between atoms: C_6  and  C_11 
REMARK    4  A    between atoms: C_8  and  O_9 
REMARK    5  A    between atoms: O_9  and  C_10 
REMARK    6  A    between atoms: C_11  and  N_12 
REMARK    7  A    between atoms: C_22  and  C_25 
ROOT
ATOM      1  N   LIG d   1       6.309  -5.006  -5.211  0.00  0.00    -0.262 N 
ATOM      2  C   LIG d   1       6.934  -3.706  -5.488  0.00  0.00     0.034 C 
ATOM      3  C   LIG d   1       6.201  -2.622  -4.740  0.00  0.00     0.051 A 
ATOM      4  C   LIG d   1       4.932  -2.840  -4.235  0.00  0.00     0.130 A 
ATOM      5  C   LIG d   1       4.260  -1.827  -3.550  0.00  0.00    -0.019 A 
ATOM      6  C   LIG d   1       4.847  -0.609  -3.366  0.00  0.00    -0.044 A 
ATOM      7  C   LIG d   1       6.129  -0.376  -3.867  0.00  0.00     0.065 A 
ATOM      8  C   LIG d   1       6.817  -1.386  -4.560  0.00  0.00     0.146 A 
ATOM      9  O   LIG d   1       8.053  -1.174  -5.048  0.00  0.00    -0.462 OA
ATOM     10  C   LIG d   1       8.680  -0.011  -4.901  0.00  0.00     0.104 A 
ATOM     11  C   LIG d   1       8.144   1.058  -4.258  0.00  0.00     0.064 A 
ATOM     12  C   LIG d   1       6.792   0.928  -3.686  0.00  0.00     0.200 A 
ATOM     13  O   LIG d   1       6.253   1.848  -3.095  0.00  0.00    -0.286 OA
ATOM     14  O   LIG d   1       4.318  -4.042  -4.399  0.00  0.00    -0.476 OA
ATOM     15  C   LIG d   1       4.850  -4.917  -5.396  0.00  0.00     0.144 C 
ATOM     16  H   LIG d   1       7.985  -3.728  -5.163  0.00  0.00     0.048 H 
ATOM     17  H   LIG d   1       6.889  -3.500  -6.567  0.00  0.00     0.048 H 
ATOM     18  H   LIG d   1       3.268  -2.008  -3.163  0.00  0.00     0.065 H 
ATOM     19  H   LIG d   1       4.323   0.171  -2.836  0.00  0.00     0.063 H 
ATOM     20  H   LIG d   1       9.671   0.090  -5.317  0.00  0.00     0.104 H 
ATOM     21  H   LIG d   1       4.632  -4.519  -6.399  0.00  0.00     0.087 H 
ATOM     22  H   LIG d   1       4.406  -5.917  -5.293  0.00  0.00     0.087 H 
ENDROOT
BRANCH   1  23
ATOM     23  C   LIG d   1       6.883  -6.059  -6.059  0.00  0.00     0.028 C 
ATOM     24  H   LIG d   1       7.732  -5.650  -6.627  0.00  0.00     0.048 H 
ATOM     25  H   LIG d   1       6.116  -6.426  -6.757  0.00  0.00     0.048 H 
BRANCH  23  26
ATOM     26  C   LIG d   1       7.360  -7.197  -5.194  0.00  0.00    -0.030 A 
ATOM     27  C   LIG d   1       6.636  -8.373  -5.141  0.00  0.00    -0.054 A 
ATOM     28  C   LIG d   1       7.069  -9.420  -4.348  0.00  0.00    -0.016 A 
ATOM     29  H   LIG d   1       5.728  -8.473  -5.717  0.00  0.00     0.062 H 
ATOM     30  C   LIG d   1       8.231  -9.291  -3.605  0.00  0.00     0.162 A 
ATOM     31  H   LIG d   1       6.502 -10.339  -4.309  0.00  0.00     0.066 H 
ATOM     32  C   LIG d   1       8.960  -8.107  -3.658  0.00  0.00     0.162 A 
ATOM     33  C   LIG d   1       8.520  -7.062  -4.453  0.00  0.00    -0.012 A 
ATOM     34  H   LIG d   1       9.083  -6.141  -4.496  0.00  0.00     0.066 H 
BRANCH  30  35
ATOM     35  O   LIG d   1       8.659 -10.320  -2.825  0.00  0.00    -0.491 OA
BRANCH  35  36
ATOM     36  C   LIG d   1       7.986 -10.514  -1.579  0.00  0.00     0.079 C 
ATOM     37  H   LIG d   1       8.471  -9.906  -0.802  0.00  0.00     0.066 H 
ATOM     38  H   LIG d   1       8.034 -11.577  -1.298  0.00  0.00     0.066 H 
ATOM     39  H   LIG d   1       6.933 -10.210  -1.680  0.00  0.00     0.066 H 
ENDBRANCH  35  36
ENDBRANCH  30  35
BRANCH  32  40
ATOM     40  O   LIG d   1      10.100  -7.976  -2.929  0.00  0.00    -0.491 OA
BRANCH  40  41
ATOM     41  C   LIG d   1      10.131  -6.932  -1.954  0.00  0.00     0.079 C 
ATOM     42  H   LIG d   1      11.045  -7.021  -1.349  0.00  0.00     0.066 H 
ATOM     43  H   LIG d   1       9.249  -7.014  -1.300  0.00  0.00     0.066 H 
ATOM     44  H   LIG d   1      10.120  -5.955  -2.461  0.00  0.00     0.066 H 
ENDBRANCH  40  41
ENDBRANCH  32  40
ENDBRANCH  23  26
ENDBRANCH   1  23
BRANCH  11  45
ATOM     45  C   LIG d   1       8.902   2.327  -4.133  0.00  0.00    -0.011 A 
ATOM     46  C   LIG d   1       8.748   3.329  -5.089  0.00  0.00    -0.052 A 
ATOM     47  C   LIG d   1       9.455   4.509  -4.968  0.00  0.00    -0.043 A 
ATOM     48  H   LIG d   1       8.079   3.183  -5.923  0.00  0.00     0.062 H 
ATOM     49  C   LIG d   1      10.313   4.697  -3.898  0.00  0.00     0.041 A 
ATOM     50  H   LIG d   1       9.338   5.286  -5.708  0.00  0.00     0.063 H 
ATOM     51  C   LIG d   1      10.469   3.704  -2.946  0.00  0.00    -0.043 A 
ATOM     52 CL   LIG d   1      11.198   6.183  -3.751  0.00  0.00    -0.084 Cl
ATOM     53  C   LIG d   1       9.763   2.523  -3.056  0.00  0.00    -0.052 A 
ATOM     54  H   LIG d   1      11.140   3.856  -2.113  0.00  0.00     0.063 H 
ATOM     55  H   LIG d   1       9.882   1.751  -2.310  0.00  0.00     0.062 H 
ENDBRANCH  11  45
TORSDOF 7
ENDMDL
MODEL 4
REMARK VINA RESULT:      -6.3      3.591      8.865
REMARK  7 active torsions:
REMARK  status: ('A' for Active; 'I' for Inactive)
REMARK    1  A    between atoms: C_1  and  O_2 
REMARK    2  A    between atoms: O_2  and  C_3 
REMARK    3  A    between atoms: C_6  and  C_11 
REMARK    4  A    between atoms: C_8  and  O_9 
REMARK    5  A    between atoms: O_9  and  C_10 
REMARK    6  A    between atoms: C_11  and  N_12 
REMARK    7  A    between atoms: C_22  and  C_25 
ROOT
ATOM      1  N   LIG d   1      12.440   5.655  -5.069  0.00  0.00    -0.262 N 
ATOM      2  C   LIG d   1      11.243   5.035  -4.483  0.00  0.00     0.034 C 
ATOM      3  C   LIG d   1      10.498   4.268  -5.545  0.00  0.00     0.051 A 
ATOM      4  C   LIG d   1      10.740   4.497  -6.888  0.00  0.00     0.130 A 
ATOM      5  C   LIG d   1      10.040   3.785  -7.863  0.00  0.00    -0.019 A 
ATOM      6  C   LIG d   1       9.110   2.853  -7.505  0.00  0.00    -0.044 A 
ATOM      7  C   LIG d   1       8.858   2.610  -6.154  0.00  0.00     0.065 A 
ATOM      8  C   LIG d   1       9.554   3.320  -5.161  0.00  0.00     0.146 A 
ATOM      9  O   LIG d   1       9.321   3.095  -3.855  0.00  0.00    -0.462 OA
ATOM     10  C   LIG d   1       8.429   2.200  -3.442  0.00  0.00     0.104 A 
ATOM     11  C   LIG d   1       7.679   1.440  -4.280  0.00  0.00     0.064 A 
ATOM     12  C   LIG d   1       7.860   1.610  -5.733  0.00  0.00     0.200 A 
ATOM     13  O   LIG d   1       7.220   0.960  -6.541  0.00  0.00    -0.286 OA
ATOM     14  O   LIG d   1      11.661   5.417  -7.280  0.00  0.00    -0.476 OA
ATOM     15  C   LIG d   1      12.086   6.372  -6.305  0.00  0.00     0.144 C 
ATOM     16  H   LIG d   1      11.542   4.348  -3.678  0.00  0.00     0.048 H 
ATOM     17  H   LIG d   1      10.589   5.818  -4.072  0.00  0.00     0.048 H 
ATOM     18  H   LIG d   1      10.235   3.974  -8.908  0.00  0.00     0.065 H 
ATOM     19  H   LIG d   1       8.571   2.306  -8.263  0.00  0.00     0.063 H 
ATOM     20  H   LIG d   1       8.292   2.070  -2.379  0.00  0.00     0.104 H 
ATOM     21  H   LIG d   1      11.271   7.081  -6.096  0.00  0.00     0.087 H 
ATOM     22  H   LIG d   1      12.964   6.920  -6.675  0.00  0.00     0.087 H 
ENDROOT
BRANCH   1  23
ATOM     23  C   LIG d   1      13.092   6.553  -4.108  0.00  0.00     0.028 C 
ATOM     24  H   LIG d   1      13.648   7.331  -4.652  0.00  0.00     0.048 H 
ATOM     25  H   LIG d   1      13.786   5.977  -3.479  0.00  0.00     0.048 H 
BRANCH  23  26
ATOM     26  C   LIG d   1      12.046   7.201  -3.236  0.00  0.00    -0.030 A 
ATOM     27  C   LIG d   1      11.515   8.426  -3.591  0.00  0.00    -0.054 A 
ATOM     28  C   LIG d   1      10.556   9.025  -2.794  0.00  0.00    -0.016 A 
ATOM     29  H   LIG d   1      11.853   8.921  -4.489  0.00  0.00     0.062 H 
ATOM     30  C   LIG d   1      10.126   8.394  -1.637  0.00  0.00     0.162 A 
ATOM     31  H   LIG d   1      10.143   9.983  -3.073  0.00  0.00     0.066 H 
ATOM     32  C   LIG d   1      10.661   7.160  -1.280  0.00  0.00     0.162 A 
ATOM     33  C   LIG d   1      11.622   6.567  -2.083  0.00  0.00    -0.012 A 
ATOM     34  H   LIG d   1      12.038   5.609  -1.808  0.00  0.00     0.066 H 
BRANCH  30  35
ATOM     35  O   LIG d   1       9.182   8.981  -0.852  0.00  0.00    -0.491 OA
BRANCH  35  36
ATOM     36  C   LIG d   1       9.553  10.188  -0.184  0.00  0.00     0.079 C 
ATOM     37  H   LIG d   1      10.331  10.704  -0.765  0.00  0.00     0.066 H 
ATOM     38  H   LIG d   1       9.939   9.948   0.818  0.00  0.00     0.066 H 
ATOM     39  H   LIG d   1       8.672  10.841  -0.090  0.00  0.00     0.066 H 
ENDBRANCH  35  36
ENDBRANCH  30  35
BRANCH  32  40
ATOM     40  O   LIG d   1      10.241   6.538  -0.146  0.00  0.00    -0.491 OA
BRANCH  40  41
ATOM     41  C   LIG d   1      11.117   6.586   0.982  0.00  0.00     0.079 C 
ATOM     42  H   LIG d   1      11.449   5.568   1.232  0.00  0.00     0.066 H 
ATOM     43  H   LIG d   1      10.585   7.020   1.842  0.00  0.00     0.066 H 
ATOM     44  H   LIG d   1      11.992   7.209   0.742  0.00  0.00     0.066 H 
ENDBRANCH  40  41
ENDBRANCH  32  40
ENDBRANCH  23  26
ENDBRANCH   1  23
BRANCH  11  45
ATOM     45  C   LIG d   1       6.701   0.461  -3.747  0.00  0.00    -0.011 A 
ATOM     46  C   LIG d   1       5.593   0.902  -3.024  0.00  0.00    -0.052 A 
ATOM     47  C   LIG d   1       4.686  -0.014  -2.531  0.00  0.00    -0.043 A 
ATOM     48  H   LIG d   1       5.447   1.957  -2.849  0.00  0.00     0.062 H 
ATOM     49  C   LIG d   1       4.873  -1.366  -2.756  0.00  0.00     0.041 A 
ATOM     50  H   LIG d   1       3.828   0.327  -1.970  0.00  0.00     0.063 H 
ATOM     51  C   LIG d   1       5.970  -1.808  -3.473  0.00  0.00    -0.043 A 
ATOM     52 CL   LIG d   1       3.726  -2.512  -2.134  0.00  0.00    -0.084 Cl
ATOM     53  C   LIG d   1       6.881  -0.902  -3.975  0.00  0.00    -0.052 A 
ATOM     54  H   LIG d   1       6.111  -2.866  -3.646  0.00  0.00     0.063 H 
ATOM     55  H   LIG d   1       7.735  -1.248  -4.539  0.00  0.00     0.062 H 
ENDBRANCH  11  45
TORSDOF 7
ENDMDL
MODEL 5
REMARK VINA RESULT:      -6.2      2.805      3.861
REMARK  7 active torsions:
REMARK  status: ('A' for Active; 'I' for Inactive)
REMARK    1  A    between atoms: C_1  and  O_2 
REMARK    2  A    between atoms: O_2  and  C_3 
REMARK    3  A    between atoms: C_6  and  C_11 
REMARK    4  A    between atoms: C_8  and  O_9 
REMARK    5  A    between atoms: O_9  and  C_10 
REMARK    6  A    between atoms: C_11  and  N_12 
REMARK    7  A    between atoms: C_22  and  C_25 
ROOT
ATOM      1  N   LIG d   1       9.568   3.129  -3.874  0.00  0.00    -0.262 N 
ATOM      2  C   LIG d   1      10.288   3.621  -2.691  0.00  0.00     0.034 C 
ATOM      3  C   LIG d   1      10.155   5.120  -2.604  0.00  0.00     0.051 A 
ATOM      4  C   LIG d   1       9.759   5.863  -3.702  0.00  0.00     0.130 A 
ATOM      5  C   LIG d   1       9.646   7.250  -3.612  0.00  0.00    -0.019 A 
ATOM      6  C   LIG d   1       9.920   7.892  -2.440  0.00  0.00    -0.044 A 
ATOM      7  C   LIG d   1      10.317   7.155  -1.323  0.00  0.00     0.065 A 
ATOM      8  C   LIG d   1      10.437   5.757  -1.399  0.00  0.00     0.146 A 
ATOM      9  O   LIG d   1      10.819   5.035  -0.330  0.00  0.00    -0.462 OA
ATOM     10  C   LIG d   1      11.098   5.600   0.840  0.00  0.00     0.104 A 
ATOM     11  C   LIG d   1      11.030   6.936   1.067  0.00  0.00     0.064 A 
ATOM     12  C   LIG d   1      10.621   7.817  -0.041  0.00  0.00     0.200 A 
ATOM     13  O   LIG d   1      10.538   9.026   0.094  0.00  0.00    -0.286 OA
ATOM     14  O   LIG d   1       9.477   5.255  -4.885  0.00  0.00    -0.476 OA
ATOM     15  C   LIG d   1       9.945   3.916  -5.060  0.00  0.00     0.144 C 
ATOM     16  H   LIG d   1       9.862   3.163  -1.786  0.00  0.00     0.048 H 
ATOM     17  H   LIG d   1      11.351   3.353  -2.771  0.00  0.00     0.048 H 
ATOM     18  H   LIG d   1       9.339   7.821  -4.476  0.00  0.00     0.065 H 
ATOM     19  H   LIG d   1       9.831   8.967  -2.375  0.00  0.00     0.063 H 
ATOM     20  H   LIG d   1      11.398   4.960   1.657  0.00  0.00     0.104 H 
ATOM     21  H   LIG d   1      11.040   3.914  -5.169  0.00  0.00     0.087 H 
ATOM     22  H   LIG d   1       9.486   3.473  -5.955  0.00  0.00     0.087 H 
ENDROOT
BRANCH   1  23
ATOM     23  C   LIG d   1       9.824   1.699  -4.089  0.00  0.00     0.028 C 
ATOM     24  H   LIG d   1      10.225   1.255  -3.167  0.00  0.00     0.048 H 
ATOM     25  H   LIG d   1      10.552   1.575  -4.904  0.00  0.00     0.048 H 
BRANCH  23  26
ATOM     26  C   LIG d   1       8.535   1.009  -4.459  0.00  0.00    -0.030 A 
ATOM     27  C   LIG d   1       8.531   0.040  -5.445  0.00  0.00    -0.054 A 
ATOM     28  C   LIG d   1       7.352  -0.595  -5.789  0.00  0.00    -0.016 A 
ATOM     29  H   LIG d   1       9.449  -0.217  -5.952  0.00  0.00     0.062 H 
ATOM     30  C   LIG d   1       6.172  -0.262  -5.143  0.00  0.00     0.162 A 
ATOM     31  H   LIG d   1       7.350  -1.352  -6.560  0.00  0.00     0.066 H 
ATOM     32  C   LIG d   1       6.177   0.713  -4.150  0.00  0.00     0.162 A 
ATOM     33  C   LIG d   1       7.361   1.347  -3.812  0.00  0.00    -0.012 A 
ATOM     34  H   LIG d   1       7.368   2.104  -3.042  0.00  0.00     0.066 H 
BRANCH  30  35
ATOM     35  O   LIG d   1       5.011  -0.887  -5.479  0.00  0.00    -0.491 OA
BRANCH  35  36
ATOM     36  C   LIG d   1       5.040  -2.313  -5.555  0.00  0.00     0.079 C 
ATOM     37  H   LIG d   1       4.847  -2.629  -6.590  0.00  0.00     0.066 H 
ATOM     38  H   LIG d   1       4.268  -2.731  -4.892  0.00  0.00     0.066 H 
ATOM     39  H   LIG d   1       6.029  -2.677  -5.239  0.00  0.00     0.066 H 
ENDBRANCH  35  36
ENDBRANCH  30  35
BRANCH  32  40
ATOM     40  O   LIG d   1       5.021   1.044  -3.514  0.00  0.00    -0.491 OA
BRANCH  40  41
ATOM     41  C   LIG d   1       5.043   1.040  -2.085  0.00  0.00     0.079 C 
ATOM     42  H   LIG d   1       5.600   0.161  -1.729  0.00  0.00     0.066 H 
ATOM     43  H   LIG d   1       4.012   1.000  -1.703  0.00  0.00     0.066 H 
ATOM     44  H   LIG d   1       5.532   1.956  -1.723  0.00  0.00     0.066 H 
ENDBRANCH  40  41
ENDBRANCH  32  40
ENDBRANCH  23  26
ENDBRANCH   1  23
BRANCH  11  45
ATOM     45  C   LIG d   1      11.359   7.498   2.400  0.00  0.00    -0.011 A 
ATOM     46  C   LIG d   1      11.916   8.772   2.504  0.00  0.00    -0.052 A 
ATOM     47  C   LIG d   1      12.220   9.290   3.747  0.00  0.00    -0.043 A 
ATOM     48  H   LIG d   1      12.111   9.351   1.613  0.00  0.00     0.062 H 
ATOM     49  C   LIG d   1      11.969   8.548   4.888  0.00  0.00     0.041 A 
ATOM     50  H   LIG d   1      12.652  10.276   3.828  0.00  0.00     0.063 H 
ATOM     51  C   LIG d   1      11.416   7.284   4.790  0.00  0.00    -0.043 A 
ATOM     52 CL   LIG d   1      12.352   9.207   6.448  0.00  0.00    -0.084 Cl
ATOM     53  C   LIG d   1      11.104   6.758   3.553  0.00  0.00    -0.052 A 
ATOM     54  H   LIG d   1      11.223   6.709   5.684  0.00  0.00     0.063 H 
ATOM     55  H   LIG d   1      10.668   5.772   3.478  0.00  0.00     0.062 H 
ENDBRANCH  11  45
TORSDOF 7
ENDMDL
MODEL 6
REMARK VINA RESULT:      -6.1      6.691     10.616
REMARK  7 active torsions:
REMARK  status: ('A' for Active; 'I' for Inactive)
REMARK    1  A    between atoms: C_1  and  O_2 
REMARK    2  A    between atoms: O_2  and  C_3 
REMARK    3  A    between atoms: C_6  and  C_11 
REMARK    4  A    between atoms: C_8  and  O_9 
REMARK    5  A    between atoms: O_9  and  C_10 
REMARK    6  A    between atoms: C_11  and  N_12 
REMARK    7  A    between atoms: C_22  and  C_25 
ROOT
ATOM      1  N   LIG d   1       1.447  -4.910 -10.375  0.00  0.00    -0.262 N 
ATOM      2  C   LIG d   1       2.666  -4.315  -9.807  0.00  0.00     0.034 C 
ATOM      3  C   LIG d   1       2.501  -2.820  -9.711  0.00  0.00     0.051 A 
ATOM      4  C   LIG d   1       1.516  -2.166 -10.428  0.00  0.00     0.130 A 
ATOM      5  C   LIG d   1       1.378  -0.780 -10.336  0.00  0.00    -0.019 A 
ATOM      6  C   LIG d   1       2.210  -0.054  -9.535  0.00  0.00    -0.044 A 
ATOM      7  C   LIG d   1       3.206  -0.701  -8.803  0.00  0.00     0.065 A 
ATOM      8  C   LIG d   1       3.359  -2.095  -8.887  0.00  0.00     0.146 A 
ATOM      9  O   LIG d   1       4.315  -2.732  -8.187  0.00  0.00    -0.462 OA
ATOM     10  C   LIG d   1       5.156  -2.082  -7.388  0.00  0.00     0.104 A 
ATOM     11  C   LIG d   1       5.134  -0.737  -7.205  0.00  0.00     0.064 A 
ATOM     12  C   LIG d   1       4.122   0.053  -7.928  0.00  0.00     0.200 A 
ATOM     13  O   LIG d   1       4.046   1.264  -7.809  0.00  0.00    -0.286 OA
ATOM     14  O   LIG d   1       0.669  -2.859 -11.234  0.00  0.00    -0.476 OA
ATOM     15  C   LIG d   1       1.052  -4.187 -11.596  0.00  0.00     0.144 C 
ATOM     16  H   LIG d   1       2.842  -4.729  -8.804  0.00  0.00     0.048 H 
ATOM     17  H   LIG d   1       3.523  -4.547 -10.456  0.00  0.00     0.048 H 
ATOM     18  H   LIG d   1       0.607  -0.279 -10.902  0.00  0.00     0.065 H 
ATOM     19  H   LIG d   1       2.099   1.018  -9.467  0.00  0.00     0.063 H 
ATOM     20  H   LIG d   1       5.899  -2.656  -6.855  0.00  0.00     0.104 H 
ATOM     21  H   LIG d   1       1.902  -4.155 -12.294  0.00  0.00     0.087 H 
ATOM     22  H   LIG d   1       0.206  -4.705 -12.071  0.00  0.00     0.087 H 
ENDROOT
BRANCH   1  23
ATOM     23  C   LIG d   1       1.638  -6.340 -10.649  0.00  0.00     0.028 C 
ATOM     24  H   LIG d   1       2.394  -6.748  -9.963  0.00  0.00     0.048 H 
ATOM     25  H   LIG d   1       1.973  -6.473 -11.688  0.00  0.00     0.048 H 
BRANCH  23  26
ATOM     26  C   LIG d   1       0.333  -7.068 -10.447  0.00  0.00    -0.030 A 
ATOM     27  C   LIG d   1       0.158  -8.330 -10.982  0.00  0.00    -0.054 A 
ATOM     28  C   LIG d   1      -1.038  -9.002 -10.801  0.00  0.00    -0.016 A 
ATOM     29  H   LIG d   1       0.953  -8.791 -11.548  0.00  0.00     0.062 H 
ATOM     30  C   LIG d   1      -2.062  -8.409 -10.080  0.00  0.00     0.162 A 
ATOM     31  H   LIG d   1      -1.173  -9.988 -11.220  0.00  0.00     0.066 H 
ATOM     32  C   LIG d   1      -1.885  -7.138  -9.541  0.00  0.00     0.162 A 
ATOM     33  C   LIG d   1      -0.686  -6.471  -9.728  0.00  0.00    -0.012 A 
ATOM     34  H   LIG d   1      -0.546  -5.484  -9.311  0.00  0.00     0.066 H 
BRANCH  30  35
ATOM     35  O   LIG d   1      -3.238  -9.068  -9.899  0.00  0.00    -0.491 OA
BRANCH  35  36
ATOM     36  C   LIG d   1      -4.129  -9.124 -11.015  0.00  0.00     0.079 C 
ATOM     37  H   LIG d   1      -5.143  -9.363 -10.663  0.00  0.00     0.066 H 
ATOM     38  H   LIG d   1      -3.790  -9.901 -11.716  0.00  0.00     0.066 H 
ATOM     39  H   LIG d   1      -4.139  -8.149 -11.525  0.00  0.00     0.066 H 
ENDBRANCH  35  36
ENDBRANCH  30  35
BRANCH  32  40
ATOM     40  O   LIG d   1      -2.888  -6.553  -8.833  0.00  0.00    -0.491 OA
BRANCH  40  41
ATOM     41  C   LIG d   1      -3.613  -5.505  -9.481  0.00  0.00     0.079 C 
ATOM     42  H   LIG d   1      -4.647  -5.832  -9.663  0.00  0.00     0.066 H 
ATOM     43  H   LIG d   1      -3.130  -5.263 -10.440  0.00  0.00     0.066 H 
ATOM     44  H   LIG d   1      -3.619  -4.611  -8.839  0.00  0.00     0.066 H 
ENDBRANCH  40  41
ENDBRANCH  32  40
ENDBRANCH  23  26
ENDBRANCH   1  23
BRANCH  11  45
ATOM     45  C   LIG d   1       6.105  -0.078  -6.299  0.00  0.00    -0.011 A 
ATOM     46  C   LIG d   1       7.202   0.603  -6.825  0.00  0.00    -0.052 A 
ATOM     47  C   LIG d   1       8.102   1.216  -5.977  0.00  0.00    -0.043 A 
ATOM     48  H   LIG d   1       7.346   0.651  -7.894  0.00  0.00     0.062 H 
ATOM     49  C   LIG d   1       7.917   1.155  -4.607  0.00  0.00     0.041 A 
ATOM     50  H   LIG d   1       8.952   1.743  -6.384  0.00  0.00     0.063 H 
ATOM     51  C   LIG d   1       6.830   0.480  -4.080  0.00  0.00    -0.043 A 
ATOM     52 CL   LIG d   1       9.053   1.929  -3.546  0.00  0.00    -0.084 Cl
ATOM     53  C   LIG d   1       5.921  -0.132  -4.919  0.00  0.00    -0.052 A 
ATOM     54  H   LIG d   1       6.689   0.436  -3.009  0.00  0.00     0.063 H 
ATOM     55  H   LIG d   1       5.070  -0.655  -4.506  0.00  0.00     0.062 H 
ENDBRANCH  11  45
TORSDOF 7
ENDMDL
MODEL 7
REMARK VINA RESULT:      -6.0      8.016     10.194
REMARK  7 active torsions:
REMARK  status: ('A' for Active; 'I' for Inactive)
REMARK    1  A    between atoms: C_1  and  O_2 
REMARK    2  A    between atoms: O_2  and  C_3 
REMARK    3  A    between atoms: C_6  and  C_11 
REMARK    4  A    between atoms: C_8  and  O_9 
REMARK    5  A    between atoms: O_9  and  C_10 
REMARK    6  A    between atoms: C_11  and  N_12 
REMARK    7  A    between atoms: C_22  and  C_25 
ROOT
ATOM      1  N   LIG d   1       3.638   0.637  -9.378  0.00  0.00    -0.262 N 
ATOM      2  C   LIG d   1       4.801   0.045  -8.704  0.00  0.00     0.034 C 
ATOM      3  C   LIG d   1       4.474  -0.201  -7.253  0.00  0.00     0.051 A 
ATOM      4  C   LIG d   1       3.396   0.423  -6.652  0.00  0.00     0.130 A 
ATOM      5  C   LIG d   1       3.106   0.193  -5.307  0.00  0.00    -0.019 A 
ATOM      6  C   LIG d   1       3.879  -0.654  -4.568  0.00  0.00    -0.044 A 
ATOM      7  C   LIG d   1       4.968  -1.294  -5.162  0.00  0.00     0.065 A 
ATOM      8  C   LIG d   1       5.273  -1.070  -6.515  0.00  0.00     0.146 A 
ATOM      9  O   LIG d   1       6.320  -1.681  -7.100  0.00  0.00    -0.462 OA
ATOM     10  C   LIG d   1       7.110  -2.518  -6.435  0.00  0.00     0.104 A 
ATOM     11  C   LIG d   1       6.944  -2.831  -5.125  0.00  0.00     0.064 A 
ATOM     12  C   LIG d   1       5.824  -2.215  -4.392  0.00  0.00     0.200 A 
ATOM     13  O   LIG d   1       5.617  -2.454  -3.215  0.00  0.00    -0.286 OA
ATOM     14  O   LIG d   1       2.603   1.272  -7.359  0.00  0.00    -0.476 OA
ATOM     15  C   LIG d   1       3.120   1.771  -8.595  0.00  0.00     0.144 C 
ATOM     16  H   LIG d   1       5.060  -0.908  -9.187  0.00  0.00     0.048 H 
ATOM     17  H   LIG d   1       5.656   0.735  -8.773  0.00  0.00     0.048 H 
ATOM     18  H   LIG d   1       2.264   0.688  -4.847  0.00  0.00     0.065 H 
ATOM     19  H   LIG d   1       3.651  -0.829  -3.527  0.00  0.00     0.063 H 
ATOM     20  H   LIG d   1       7.932  -2.973  -6.967  0.00  0.00     0.104 H 
ATOM     21  H   LIG d   1       3.935   2.484  -8.399  0.00  0.00     0.087 H 
ATOM     22  H   LIG d   1       2.321   2.273  -9.160  0.00  0.00     0.087 H 
ENDROOT
BRANCH   1  23
ATOM     23  C   LIG d   1       3.978   1.054 -10.745  0.00  0.00     0.028 C 
ATOM     24  H   LIG d   1       5.065   1.200 -10.825  0.00  0.00     0.048 H 
ATOM     25  H   LIG d   1       3.462   1.997 -10.980  0.00  0.00     0.048 H 
BRANCH  23  26
ATOM     26  C   LIG d   1       3.541  -0.011 -11.718  0.00  0.00    -0.030 A 
ATOM     27  C   LIG d   1       4.304  -0.273 -12.841  0.00  0.00    -0.054 A 
ATOM     28  C   LIG d   1       3.908  -1.249 -13.737  0.00  0.00    -0.016 A 
ATOM     29  H   LIG d   1       5.208   0.288 -13.022  0.00  0.00     0.062 H 
ATOM     30  C   LIG d   1       2.744  -1.967 -13.509  0.00  0.00     0.162 A 
ATOM     31  H   LIG d   1       4.505  -1.452 -14.614  0.00  0.00     0.066 H 
ATOM     32  C   LIG d   1       1.977  -1.703 -12.379  0.00  0.00     0.162 A 
ATOM     33  C   LIG d   1       2.379  -0.723 -11.486  0.00  0.00    -0.012 A 
ATOM     34  H   LIG d   1       1.785  -0.516 -10.608  0.00  0.00     0.066 H 
BRANCH  30  35
ATOM     35  O   LIG d   1       2.353  -2.928 -14.390  0.00  0.00    -0.491 OA
BRANCH  35  36
ATOM     36  C   LIG d   1       2.997  -4.200 -14.290  0.00  0.00     0.079 C 
ATOM     37  H   LIG d   1       2.244  -4.976 -14.086  0.00  0.00     0.066 H 
ATOM     38  H   LIG d   1       3.731  -4.175 -13.471  0.00  0.00     0.066 H 
ATOM     39  H   LIG d   1       3.510  -4.427 -15.236  0.00  0.00     0.066 H 
ENDBRANCH  35  36
ENDBRANCH  30  35
BRANCH  32  40
ATOM     40  O   LIG d   1       0.834  -2.404 -12.153  0.00  0.00    -0.491 OA
BRANCH  40  41
ATOM     41  C   LIG d   1       0.829  -3.291 -11.031  0.00  0.00     0.079 C 
ATOM     42  H   LIG d   1       1.498  -4.140 -11.232  0.00  0.00     0.066 H 
ATOM     43  H   LIG d   1      -0.193  -3.661 -10.861  0.00  0.00     0.066 H 
ATOM     44  H   LIG d   1       1.177  -2.753 -10.137  0.00  0.00     0.066 H 
ENDBRANCH  40  41
ENDBRANCH  32  40
ENDBRANCH  23  26
ENDBRANCH   1  23
BRANCH  11  45
ATOM     45  C   LIG d   1       7.867  -3.773  -4.447  0.00  0.00    -0.011 A 
ATOM     46  C   LIG d   1       7.937  -5.103  -4.861  0.00  0.00    -0.052 A 
ATOM     47  C   LIG d   1       8.798  -5.976  -4.227  0.00  0.00    -0.043 A 
ATOM     48  H   LIG d   1       7.318  -5.449  -5.675  0.00  0.00     0.062 H 
ATOM     49  C   LIG d   1       9.592  -5.532  -3.183  0.00  0.00     0.041 A 
ATOM     50  H   LIG d   1       8.853  -7.006  -4.546  0.00  0.00     0.063 H 
ATOM     51  C   LIG d   1       9.526  -4.213  -2.770  0.00  0.00    -0.043 A 
ATOM     52 CL   LIG d   1      10.674  -6.634  -2.391  0.00  0.00    -0.084 Cl
ATOM     53  C   LIG d   1       8.672  -3.331  -3.400  0.00  0.00    -0.052 A 
ATOM     54  H   LIG d   1      10.148  -3.871  -1.955  0.00  0.00     0.063 H 
ATOM     55  H   LIG d   1       8.625  -2.300  -3.079  0.00  0.00     0.062 H 
ENDBRANCH  11  45
TORSDOF 7
ENDMDL
MODEL 8
REMARK VINA RESULT:      -6.0      5.612     11.177
REMARK  7 active torsions:
REMARK  status: ('A' for Active; 'I' for Inactive)
REMARK    1  A    between atoms: C_1  and  O_2 
REMARK    2  A    between atoms: O_2  and  C_3 
REMARK    3  A    between atoms: C_6  and  C_11 
REMARK    4  A    between atoms: C_8  and  O_9 
REMARK    5  A    between atoms: O_9  and  C_10 
REMARK    6  A    between atoms: C_11  and  N_12 
REMARK    7  A    between atoms: C_22  and  C_25 
ROOT
ATOM      1  N   LIG d   1       8.604   1.783  -5.228  0.00  0.00    -0.262 N 
ATOM      2  C   LIG d   1       8.542   0.324  -5.391  0.00  0.00     0.034 C 
ATOM      3  C   LIG d   1       7.342  -0.216  -4.656  0.00  0.00     0.051 A 
ATOM      4  C   LIG d   1       6.702   0.538  -3.689  0.00  0.00     0.130 A 
ATOM      5  C   LIG d   1       5.596   0.025  -3.011  0.00  0.00    -0.019 A 
ATOM      6  C   LIG d   1       5.130  -1.226  -3.293  0.00  0.00    -0.044 A 
ATOM      7  C   LIG d   1       5.764  -1.997  -4.268  0.00  0.00     0.065 A 
ATOM      8  C   LIG d   1       6.880  -1.495  -4.959  0.00  0.00     0.146 A 
ATOM      9  O   LIG d   1       7.501  -2.227  -5.901  0.00  0.00    -0.462 OA
ATOM     10  C   LIG d   1       7.095  -3.452  -6.223  0.00  0.00     0.104 A 
ATOM     11  C   LIG d   1       6.036  -4.072  -5.644  0.00  0.00     0.064 A 
ATOM     12  C   LIG d   1       5.287  -3.352  -4.598  0.00  0.00     0.200 A 
ATOM     13  O   LIG d   1       4.325  -3.850  -4.038  0.00  0.00    -0.286 OA
ATOM     14  O   LIG d   1       7.138   1.789  -3.384  0.00  0.00    -0.476 OA
ATOM     15  C   LIG d   1       8.456   2.142  -3.808  0.00  0.00     0.144 C 
ATOM     16  H   LIG d   1       8.458   0.077  -6.459  0.00  0.00     0.048 H 
ATOM     17  H   LIG d   1       9.456  -0.130  -4.980  0.00  0.00     0.048 H 
ATOM     18  H   LIG d   1       5.105   0.622  -2.256  0.00  0.00     0.065 H 
ATOM     19  H   LIG d   1       4.274  -1.619  -2.765  0.00  0.00     0.063 H 
ATOM     20  H   LIG d   1       7.640  -3.984  -6.989  0.00  0.00     0.104 H 
ATOM     21  H   LIG d   1       9.201   1.593  -3.212  0.00  0.00     0.087 H 
ATOM     22  H   LIG d   1       8.613   3.223  -3.685  0.00  0.00     0.087 H 
ENDROOT
BRANCH   1  23
ATOM     23  C   LIG d   1       9.854   2.322  -5.779  0.00  0.00     0.028 C 
ATOM     24  H   LIG d   1      10.515   1.492  -6.070  0.00  0.00     0.048 H 
ATOM     25  H   LIG d   1      10.353   2.941  -5.020  0.00  0.00     0.048 H 
BRANCH  23  26
ATOM     26  C   LIG d   1       9.547   3.165  -6.990  0.00  0.00    -0.030 A 
ATOM     27  C   LIG d   1       8.990   2.583  -8.113  0.00  0.00    -0.054 A 
ATOM     28  C   LIG d   1       8.706   3.352  -9.227  0.00  0.00    -0.016 A 
ATOM     29  H   LIG d   1       8.780   1.523  -8.123  0.00  0.00     0.062 H 
ATOM     30  C   LIG d   1       8.981   4.710  -9.218  0.00  0.00     0.162 A 
ATOM     31  H   LIG d   1       8.271   2.894 -10.103  0.00  0.00     0.066 H 
ATOM     32  C   LIG d   1       9.542   5.297  -8.088  0.00  0.00     0.162 A 
ATOM     33  C   LIG d   1       9.824   4.520  -6.976  0.00  0.00    -0.012 A 
ATOM     34  H   LIG d   1      10.259   4.973  -6.097  0.00  0.00     0.066 H 
BRANCH  30  35
ATOM     35  O   LIG d   1       8.702   5.469 -10.313  0.00  0.00    -0.491 OA
BRANCH  35  36
ATOM     36  C   LIG d   1       9.656   5.449 -11.376  0.00  0.00     0.079 C 
ATOM     37  H   LIG d   1       9.613   6.400 -11.925  0.00  0.00     0.066 H 
ATOM     38  H   LIG d   1       9.425   4.618 -12.060  0.00  0.00     0.066 H 
ATOM     39  H   LIG d   1      10.666   5.310 -10.961  0.00  0.00     0.066 H 
ENDBRANCH  35  36
ENDBRANCH  30  35
BRANCH  32  40
ATOM     40  O   LIG d   1       9.813   6.629  -8.075  0.00  0.00    -0.491 OA
BRANCH  40  41
ATOM     41  C   LIG d   1      11.183   7.011  -7.935  0.00  0.00     0.079 C 
ATOM     42  H   LIG d   1      11.279   8.095  -8.091  0.00  0.00     0.066 H 
ATOM     43  H   LIG d   1      11.790   6.477  -8.681  0.00  0.00     0.066 H 
ATOM     44  H   LIG d   1      11.534   6.753  -6.925  0.00  0.00     0.066 H 
ENDBRANCH  40  41
ENDBRANCH  32  40
ENDBRANCH  23  26
ENDBRANCH   1  23
BRANCH  11  45
ATOM     45  C   LIG d   1       5.641  -5.441  -6.053  0.00  0.00    -0.011 A 
ATOM     46  C   LIG d   1       4.637  -5.625  -7.004  0.00  0.00    -0.052 A 
ATOM     47  C   LIG d   1       4.274  -6.901  -7.382  0.00  0.00    -0.043 A 
ATOM     48  H   LIG d   1       4.146  -4.769  -7.442  0.00  0.00     0.062 H 
ATOM     49  C   LIG d   1       4.905  -7.998  -6.820  0.00  0.00     0.041 A 
ATOM     50  H   LIG d   1       3.496  -7.044  -8.117  0.00  0.00     0.063 H 
ATOM     51  C   LIG d   1       5.901  -7.821  -5.876  0.00  0.00    -0.043 A 
ATOM     52 CL   LIG d   1       4.443  -9.601  -7.301  0.00  0.00    -0.084 Cl
ATOM     53  C   LIG d   1       6.276  -6.549  -5.495  0.00  0.00    -0.052 A 
ATOM     54  H   LIG d   1       6.390  -8.680  -5.441  0.00  0.00     0.063 H 
ATOM     55  H   LIG d   1       7.057  -6.412  -4.761  0.00  0.00     0.062 H 
ENDBRANCH  11  45
TORSDOF 7
ENDMDL
MODEL 9
REMARK VINA RESULT:      -6.0      4.231     10.597
REMARK  7 active torsions:
REMARK  status: ('A' for Active; 'I' for Inactive)
REMARK    1  A    between atoms: C_1  and  O_2 
REMARK    2  A    between atoms: O_2  and  C_3 
REMARK    3  A    between atoms: C_6  and  C_11 
REMARK    4  A    between atoms: C_8  and  O_9 
REMARK    5  A    between atoms: O_9  and  C_10 
REMARK    6  A    between atoms: C_11  and  N_12 
REMARK    7  A    between atoms: C_22  and  C_25 
ROOT
ATOM      1  N   LIG d   1       9.491   3.290  -5.314  0.00  0.00    -0.262 N 
ATOM      2  C   LIG d   1       8.789   2.396  -6.246  0.00  0.00     0.034 C 
ATOM      3  C   LIG d   1       7.912   1.446  -5.472  0.00  0.00     0.051 A 
ATOM      4  C   LIG d   1       8.104   1.245  -4.117  0.00  0.00     0.130 A 
ATOM      5  C   LIG d   1       7.290   0.357  -3.412  0.00  0.00    -0.019 A 
ATOM      6  C   LIG d   1       6.293  -0.322  -4.050  0.00  0.00    -0.044 A 
ATOM      7  C   LIG d   1       6.086  -0.126  -5.416  0.00  0.00     0.065 A 
ATOM      8  C   LIG d   1       6.898   0.763  -6.139  0.00  0.00     0.146 A 
ATOM      9  O   LIG d   1       6.709   0.961  -7.456  0.00  0.00    -0.462 OA
ATOM     10  C   LIG d   1       5.754   0.331  -8.134  0.00  0.00     0.104 A 
ATOM     11  C   LIG d   1       4.894  -0.557  -7.576  0.00  0.00     0.064 A 
ATOM     12  C   LIG d   1       5.017  -0.843  -6.135  0.00  0.00     0.200 A 
ATOM     13  O   LIG d   1       4.276  -1.629  -5.570  0.00  0.00    -0.286 OA
ATOM     14  O   LIG d   1       9.088   1.906  -3.450  0.00  0.00    -0.476 OA
ATOM     15  C   LIG d   1      10.118   2.507  -4.236  0.00  0.00     0.144 C 
ATOM     16  H   LIG d   1       8.168   2.994  -6.929  0.00  0.00     0.048 H 
ATOM     17  H   LIG d   1       9.526   1.823  -6.827  0.00  0.00     0.048 H 
ATOM     18  H   LIG d   1       7.451   0.206  -2.355  0.00  0.00     0.065 H 
ATOM     19  H   LIG d   1       5.666  -1.008  -3.500  0.00  0.00     0.063 H 
ATOM     20  H   LIG d   1       5.658   0.538  -9.190  0.00  0.00     0.104 H 
ATOM     21  H   LIG d   1      10.758   1.727  -4.675  0.00  0.00     0.087 H 
ATOM     22  H   LIG d   1      10.729   3.172  -3.608  0.00  0.00     0.087 H 
ENDROOT
BRANCH   1  23
ATOM     23  C   LIG d   1      10.486   4.109  -6.017  0.00  0.00     0.028 C 
ATOM     24  H   LIG d   1      10.461   3.876  -7.092  0.00  0.00     0.048 H 
ATOM     25  H   LIG d   1      11.488   3.893  -5.618  0.00  0.00     0.048 H 
BRANCH  23  26
ATOM     26  C   LIG d   1      10.170   5.569  -5.814  0.00  0.00    -0.030 A 
ATOM     27  C   LIG d   1       9.839   6.360  -6.898  0.00  0.00    -0.054 A 
ATOM     28  C   LIG d   1       9.549   7.700  -6.716  0.00  0.00    -0.016 A 
ATOM     29  H   LIG d   1       9.813   5.933  -7.889  0.00  0.00     0.062 H 
ATOM     30  C   LIG d   1       9.589   8.251  -5.445  0.00  0.00     0.162 A 
ATOM     31  H   LIG d   1       9.291   8.317  -7.565  0.00  0.00     0.066 H 
ATOM     32  C   LIG d   1       9.921   7.455  -4.354  0.00  0.00     0.162 A 
ATOM     33  C   LIG d   1      10.212   6.113  -4.543  0.00  0.00    -0.012 A 
ATOM     34  H   LIG d   1      10.470   5.492  -3.698  0.00  0.00     0.066 H 
BRANCH  30  35
ATOM     35  O   LIG d   1       9.302   9.569  -5.265  0.00  0.00    -0.491 OA
BRANCH  35  36
ATOM     36  C   LIG d   1       9.841  10.487  -6.219  0.00  0.00     0.079 C 
ATOM     37  H   LIG d   1       9.018  10.966  -6.771  0.00  0.00     0.066 H 
ATOM     38  H   LIG d   1      10.489   9.944  -6.923  0.00  0.00     0.066 H 
ATOM     39  H   LIG d   1      10.429  11.256  -5.697  0.00  0.00     0.066 H 
ENDBRANCH  35  36
ENDBRANCH  30  35
BRANCH  32  40
ATOM     40  O   LIG d   1       9.961   7.991  -3.106  0.00  0.00    -0.491 OA
BRANCH  40  41
ATOM     41  C   LIG d   1       9.518   7.163  -2.029  0.00  0.00     0.079 C 
ATOM     42  H   LIG d   1      10.248   7.207  -1.207  0.00  0.00     0.066 H 
ATOM     43  H   LIG d   1       9.424   6.124  -2.380  0.00  0.00     0.066 H 
ATOM     44  H   LIG d   1       8.540   7.518  -1.671  0.00  0.00     0.066 H 
ENDBRANCH  40  41
ENDBRANCH  32  40
ENDBRANCH  23  26
ENDBRANCH   1  23
BRANCH  11  45
ATOM     45  C   LIG d   1       3.852  -1.223  -8.394  0.00  0.00    -0.011 A 
ATOM     46  C   LIG d   1       2.726  -0.513  -8.807  0.00  0.00    -0.052 A 
ATOM     47  C   LIG d   1       1.760  -1.137  -9.570  0.00  0.00    -0.043 A 
ATOM     48  H   LIG d   1       2.610   0.524  -8.529  0.00  0.00     0.062 H 
ATOM     49  C   LIG d   1       1.909  -2.466  -9.926  0.00  0.00     0.041 A 
ATOM     50  H   LIG d   1       0.887  -0.588  -9.889  0.00  0.00     0.063 H 
ATOM     51  C   LIG d   1       3.026  -3.176  -9.519  0.00  0.00    -0.043 A 
ATOM     52 CL   LIG d   1       0.691  -3.245 -10.887  0.00  0.00    -0.084 Cl
ATOM     53  C   LIG d   1       4.000  -2.560  -8.761  0.00  0.00    -0.052 A 
ATOM     54  H   LIG d   1       3.137  -4.213  -9.800  0.00  0.00     0.063 H 
ATOM     55  H   LIG d   1       4.873  -3.113  -8.447  0.00  0.00     0.062 H 
ENDBRANCH  11  45
TORSDOF 7
ENDMDL
