MODEL 1
REMARK VINA RESULT:      -6.5      0.000      0.000
REMARK  10 active torsions:
REMARK  status: ('A' for Active; 'I' for Inactive)
REMARK    1  A    between atoms: C_1  and  O_2 
REMARK    2  A    between atoms: O_2  and  C_3 
REMARK    3  A    between atoms: C_6  and  O_9 
REMARK    4  A    between atoms: O_9  and  C_10 
REMARK    5  A    between atoms: C_13  and  N_32 
REMARK    6  A    between atoms: C_15  and  C_16 
REMARK    7  A    between atoms: C_19  and  O_23 
REMARK    8  A    between atoms: C_21  and  O_22 
REMARK    9  A    between atoms: O_23  and  C_24 
REMARK   10  A    between atoms: C_24  and  C_25 
ROOT
ATOM      1  C   LIG d   1       8.991  -9.507  -1.712  0.00  0.00     0.172 A 
ATOM      2  C   LIG d   1       9.315 -10.807  -1.355  0.00  0.00     0.076 A 
ATOM      3  N   LIG d   1      10.580 -11.198  -1.413  0.00  0.00    -0.219 NA
ATOM      4  C   LIG d   1      11.533 -10.369  -1.810  0.00  0.00     0.213 A 
ATOM      5  N   LIG d   1      11.270  -9.122  -2.165  0.00  0.00    -0.211 NA
ATOM      6  C   LIG d   1      10.023  -8.655  -2.133  0.00  0.00     0.122 A 
ATOM      7  H   LIG d   1       8.547 -11.493  -1.030  0.00  0.00     0.087 H 
ENDROOT
BRANCH   6   8
ATOM      8  C   LIG d   1       9.732  -7.259  -2.529  0.00  0.00     0.046 A 
ATOM      9  C   LIG d   1       9.888  -6.220  -1.604  0.00  0.00     0.130 A 
ATOM     10  C   LIG d   1       9.612  -4.916  -1.982  0.00  0.00     0.022 A 
ATOM     11  C   LIG d   1       9.185  -4.642  -3.272  0.00  0.00     0.124 A 
ATOM     12  H   LIG d   1       9.731  -4.112  -1.270  0.00  0.00     0.069 H 
ATOM     13  C   LIG d   1       9.025  -5.674  -4.189  0.00  0.00    -0.019 A 
ATOM     14  C   LIG d   1       9.302  -6.975  -3.825  0.00  0.00    -0.045 A 
ATOM     15  H   LIG d   1       8.688  -5.456  -5.192  0.00  0.00     0.065 H 
ATOM     16  H   LIG d   1       9.181  -7.773  -4.541  0.00  0.00     0.063 H 
BRANCH   9  17
ATOM     17  O   LIG d   1      10.306  -6.489  -0.341  0.00  0.00    -0.506 OA
ATOM     18  H   LIG d   1       9.599  -6.476   0.319  0.00  0.00     0.292 HD
ENDBRANCH   9  17
BRANCH  11  19
ATOM     19  O   LIG d   1       8.916  -3.363  -3.639  0.00  0.00    -0.487 OA
BRANCH  19  20
ATOM     20  C   LIG d   1       7.798  -3.159  -4.506  0.00  0.00     0.115 C 
ATOM     21  H   LIG d   1       7.247  -4.093  -4.614  0.00  0.00     0.075 H 
ATOM     22  H   LIG d   1       8.152  -2.831  -5.484  0.00  0.00     0.075 H 
BRANCH  20  23
ATOM     23  C   LIG d   1       6.894  -2.106  -3.920  0.00  0.00    -0.010 A 
ATOM     24  C   LIG d   1       7.321  -0.794  -3.841  0.00  0.00    -0.054 A 
ATOM     25  C   LIG d   1       6.490   0.174  -3.310  0.00  0.00    -0.047 A 
ATOM     26  H   LIG d   1       8.306  -0.524  -4.194  0.00  0.00     0.062 H 
ATOM     27  C   LIG d   1       5.229  -0.171  -2.857  0.00  0.00     0.018 A 
ATOM     28  H   LIG d   1       6.824   1.199  -3.246  0.00  0.00     0.063 H 
ATOM     29  C   LIG d   1       4.800  -1.484  -2.936  0.00  0.00    -0.047 A 
ATOM     30 BR   LIG d   1       4.091   1.152  -2.128  0.00  0.00    -0.050 Br
ATOM     31  C   LIG d   1       5.633  -2.450  -3.469  0.00  0.00    -0.054 A 
ATOM     32  H   LIG d   1       3.817  -1.754  -2.582  0.00  0.00     0.063 H 
ATOM     33  H   LIG d   1       5.300  -3.476  -3.531  0.00  0.00     0.062 H 
ENDBRANCH  20  23
ENDBRANCH  19  20
ENDBRANCH  11  19
ENDBRANCH   6   8
BRANCH   1  34
ATOM     34  O   LIG d   1       7.705  -9.069  -1.659  0.00  0.00    -0.452 OA
BRANCH  34  35
ATOM     35  C   LIG d   1       6.796  -9.660  -2.479  0.00  0.00     0.129 A 
ATOM     36  C   LIG d   1       6.861  -9.452  -3.850  0.00  0.00    -0.016 A 
ATOM     37  C   LIG d   1       5.937 -10.052  -4.683  0.00  0.00    -0.017 A 
ATOM     38  H   LIG d   1       7.633  -8.821  -4.264  0.00  0.00     0.066 H 
ATOM     39  C   LIG d   1       4.945 -10.862  -4.151  0.00  0.00     0.120 A 
ATOM     40  H   LIG d   1       5.988  -9.890  -5.750  0.00  0.00     0.066 H 
ATOM     41  C   LIG d   1       4.880 -11.069  -2.781  0.00  0.00    -0.017 A 
ATOM     42  C   LIG d   1       5.807 -10.474  -1.948  0.00  0.00    -0.016 A 
ATOM     43  H   LIG d   1       4.108 -11.701  -2.367  0.00  0.00     0.066 H 
ATOM     44  H   LIG d   1       5.759 -10.639  -0.881  0.00  0.00     0.066 H 
BRANCH  39  45
ATOM     45  O   LIG d   1       4.036 -11.452  -4.972  0.00  0.00    -0.495 OA
BRANCH  45  46
ATOM     46  C   LIG d   1       4.517 -12.476  -5.844  0.00  0.00     0.079 C 
ATOM     47  H   LIG d   1       3.870 -12.542  -6.720  0.00  0.00     0.066 H 
ATOM     48  H   LIG d   1       5.532 -12.236  -6.160  0.00  0.00     0.066 H 
ATOM     49  H   LIG d   1       4.516 -13.432  -5.319  0.00  0.00     0.066 H 
ENDBRANCH  45  46
ENDBRANCH  39  45
ENDBRANCH  34  35
ENDBRANCH   1  34
BRANCH   4  50
ATOM     50  N   LIG d   1      12.843 -10.821  -1.857  0.00  0.00    -0.328 N 
ATOM     51  H   LIG d   1      13.291 -11.094  -1.041  0.00  0.00     0.145 HD
ATOM     52  H   LIG d   1      13.311 -10.866  -2.704  0.00  0.00     0.145 HD
ENDBRANCH   4  50
TORSDOF 10
ENDMDL
MODEL 2
REMARK VINA RESULT:      -6.3      6.032      9.216
REMARK  10 active torsions:
REMARK  status: ('A' for Active; 'I' for Inactive)
REMARK    1  A    between atoms: C_1  and  O_2 
REMARK    2  A    between atoms: O_2  and  C_3 
REMARK    3  A    between atoms: C_6  and  O_9 
REMARK    4  A    between atoms: O_9  and  C_10 
REMARK    5  A    between atoms: C_13  and  N_32 
REMARK    6  A    between atoms: C_15  and  C_16 
REMARK    7  A    between atoms: C_19  and  O_23 
REMARK    8  A    between atoms: C_21  and  O_22 
REMARK    9  A    between atoms: O_23  and  C_24 
REMARK   10  A    between atoms: C_24  and  C_25 
ROOT
ATOM      1  C   LIG d   1       3.281  -3.625  -9.608  0.00  0.00     0.172 A 
ATOM      2  C   LIG d   1       2.215  -3.483 -10.483  0.00  0.00     0.076 A 
ATOM      3  N   LIG d   1       1.400  -4.509 -10.683  0.00  0.00    -0.219 NA
ATOM      4  C   LIG d   1       1.592  -5.664 -10.063  0.00  0.00     0.213 A 
ATOM      5  N   LIG d   1       2.599  -5.847  -9.224  0.00  0.00    -0.211 NA
ATOM      6  C   LIG d   1       3.461  -4.863  -8.972  0.00  0.00     0.122 A 
ATOM      7  H   LIG d   1       2.047  -2.547 -10.994  0.00  0.00     0.087 H 
ENDROOT
BRANCH   6   8
ATOM      8  C   LIG d   1       4.585  -5.069  -8.033  0.00  0.00     0.046 A 
ATOM      9  C   LIG d   1       4.337  -5.217  -6.663  0.00  0.00     0.130 A 
ATOM     10  C   LIG d   1       5.394  -5.409  -5.789  0.00  0.00     0.022 A 
ATOM     11  C   LIG d   1       6.693  -5.456  -6.271  0.00  0.00     0.124 A 
ATOM     12  H   LIG d   1       5.206  -5.523  -4.732  0.00  0.00     0.069 H 
ATOM     13  C   LIG d   1       6.941  -5.304  -7.630  0.00  0.00    -0.019 A 
ATOM     14  C   LIG d   1       5.895  -5.118  -8.509  0.00  0.00    -0.045 A 
ATOM     15  H   LIG d   1       7.955  -5.337  -8.000  0.00  0.00     0.065 H 
ATOM     16  H   LIG d   1       6.091  -5.004  -9.564  0.00  0.00     0.063 H 
BRANCH   9  17
ATOM     17  O   LIG d   1       3.065  -5.171  -6.192  0.00  0.00    -0.506 OA
ATOM     18  H   LIG d   1       2.426  -4.804  -6.819  0.00  0.00     0.292 HD
ENDBRANCH   9  17
BRANCH  11  19
ATOM     19  O   LIG d   1       7.728  -5.644  -5.411  0.00  0.00    -0.487 OA
BRANCH  19  20
ATOM     20  C   LIG d   1       8.805  -4.707  -5.478  0.00  0.00     0.115 C 
ATOM     21  H   LIG d   1       9.170  -4.647  -6.504  0.00  0.00     0.075 H 
ATOM     22  H   LIG d   1       9.613  -5.034  -4.824  0.00  0.00     0.075 H 
BRANCH  20  23
ATOM     23  C   LIG d   1       8.318  -3.351  -5.038  0.00  0.00    -0.010 A 
ATOM     24  C   LIG d   1       8.396  -2.275  -5.902  0.00  0.00    -0.054 A 
ATOM     25  C   LIG d   1       7.944  -1.032  -5.503  0.00  0.00    -0.047 A 
ATOM     26  H   LIG d   1       8.810  -2.405  -6.892  0.00  0.00     0.062 H 
ATOM     27  C   LIG d   1       7.413  -0.864  -4.236  0.00  0.00     0.018 A 
ATOM     28  H   LIG d   1       8.006  -0.191  -6.177  0.00  0.00     0.063 H 
ATOM     29  C   LIG d   1       7.335  -1.940  -3.370  0.00  0.00    -0.047 A 
ATOM     30 BR   LIG d   1       6.796   0.838  -3.687  0.00  0.00    -0.050 Br
ATOM     31  C   LIG d   1       7.787  -3.183  -3.773  0.00  0.00    -0.054 A 
ATOM     32  H   LIG d   1       6.922  -1.810  -2.381  0.00  0.00     0.063 H 
ATOM     33  H   LIG d   1       7.727  -4.024  -3.098  0.00  0.00     0.062 H 
ENDBRANCH  20  23
ENDBRANCH  19  20
ENDBRANCH  11  19
ENDBRANCH   6   8
BRANCH   1  34
ATOM     34  O   LIG d   1       4.134  -2.592  -9.376  0.00  0.00    -0.452 OA
BRANCH  34  35
ATOM     35  C   LIG d   1       3.814  -1.709  -8.394  0.00  0.00     0.129 A 
ATOM     36  C   LIG d   1       4.475  -1.757  -7.175  0.00  0.00    -0.016 A 
ATOM     37  C   LIG d   1       4.150  -0.860  -6.177  0.00  0.00    -0.017 A 
ATOM     38  H   LIG d   1       5.244  -2.497  -7.007  0.00  0.00     0.066 H 
ATOM     39  C   LIG d   1       3.162   0.091  -6.393  0.00  0.00     0.120 A 
ATOM     40  H   LIG d   1       4.665  -0.897  -5.229  0.00  0.00     0.066 H 
ATOM     41  C   LIG d   1       2.500   0.138  -7.611  0.00  0.00    -0.017 A 
ATOM     42  C   LIG d   1       2.830  -0.755  -8.611  0.00  0.00    -0.016 A 
ATOM     43  H   LIG d   1       1.732   0.878  -7.779  0.00  0.00     0.066 H 
ATOM     44  H   LIG d   1       2.319  -0.715  -9.562  0.00  0.00     0.066 H 
BRANCH  39  45
ATOM     45  O   LIG d   1       2.841   0.974  -5.410  0.00  0.00    -0.495 OA
BRANCH  45  46
ATOM     46  C   LIG d   1       3.003   0.531  -4.062  0.00  0.00     0.079 C 
ATOM     47  H   LIG d   1       2.384   1.139  -3.402  0.00  0.00     0.066 H 
ATOM     48  H   LIG d   1       2.700  -0.513  -3.984  0.00  0.00     0.066 H 
ATOM     49  H   LIG d   1       4.049   0.628  -3.770  0.00  0.00     0.066 H 
ENDBRANCH  45  46
ENDBRANCH  39  45
ENDBRANCH  34  35
ENDBRANCH   1  34
BRANCH   4  50
ATOM     50  N   LIG d   1       0.715  -6.711 -10.302  0.00  0.00    -0.328 N 
ATOM     51  H   LIG d   1       0.133  -7.027  -9.593  0.00  0.00     0.145 HD
ATOM     52  H   LIG d   1       0.683  -7.126 -11.177  0.00  0.00     0.145 HD
ENDBRANCH   4  50
TORSDOF 10
ENDMDL
MODEL 3
REMARK VINA RESULT:      -6.3      9.389     14.942
REMARK  10 active torsions:
REMARK  status: ('A' for Active; 'I' for Inactive)
REMARK    1  A    between atoms: C_1  and  O_2 
REMARK    2  A    between atoms: O_2  and  C_3 
REMARK    3  A    between atoms: C_6  and  O_9 
REMARK    4  A    between atoms: O_9  and  C_10 
REMARK    5  A    between atoms: C_13  and  N_32 
REMARK    6  A    between atoms: C_15  and  C_16 
REMARK    7  A    between atoms: C_19  and  O_23 
REMARK    8  A    between atoms: C_21  and  O_22 
REMARK    9  A    between atoms: O_23  and  C_24 
REMARK   10  A    between atoms: C_24  and  C_25 
ROOT
ATOM      1  C   LIG d   1      10.841   8.236  -3.832  0.00  0.00     0.172 A 
ATOM      2  C   LIG d   1      10.910   9.605  -3.620  0.00  0.00     0.076 A 
ATOM      3  N   LIG d   1      10.270  10.133  -2.587  0.00  0.00    -0.219 NA
ATOM      4  C   LIG d   1       9.565   9.375  -1.761  0.00  0.00     0.213 A 
ATOM      5  N   LIG d   1       9.466   8.067  -1.926  0.00  0.00    -0.211 NA
ATOM      6  C   LIG d   1      10.081   7.462  -2.942  0.00  0.00     0.122 A 
ATOM      7  H   LIG d   1      11.482  10.233  -4.287  0.00  0.00     0.087 H 
ENDROOT
BRANCH   6   8
ATOM      8  C   LIG d   1       9.970   5.998  -3.124  0.00  0.00     0.046 A 
ATOM      9  C   LIG d   1      10.618   5.129  -2.237  0.00  0.00     0.130 A 
ATOM     10  C   LIG d   1      10.510   3.759  -2.415  0.00  0.00     0.022 A 
ATOM     11  C   LIG d   1       9.762   3.252  -3.467  0.00  0.00     0.124 A 
ATOM     12  H   LIG d   1      11.008   3.087  -1.733  0.00  0.00     0.069 H 
ATOM     13  C   LIG d   1       9.124   4.115  -4.351  0.00  0.00    -0.019 A 
ATOM     14  C   LIG d   1       9.221   5.479  -4.179  0.00  0.00    -0.045 A 
ATOM     15  H   LIG d   1       8.547   3.714  -5.171  0.00  0.00     0.065 H 
ATOM     16  H   LIG d   1       8.720   6.146  -4.865  0.00  0.00     0.063 H 
BRANCH   9  17
ATOM     17  O   LIG d   1      11.349   5.626  -1.208  0.00  0.00    -0.506 OA
ATOM     18  H   LIG d   1      10.894   6.309  -0.696  0.00  0.00     0.292 HD
ENDBRANCH   9  17
BRANCH  11  19
ATOM     19  O   LIG d   1       9.659   1.909  -3.638  0.00  0.00    -0.487 OA
BRANCH  19  20
ATOM     20  C   LIG d   1       8.794   1.453  -4.680  0.00  0.00     0.115 C 
ATOM     21  H   LIG d   1       9.353   0.810  -5.361  0.00  0.00     0.075 H 
ATOM     22  H   LIG d   1       8.402   2.309  -5.229  0.00  0.00     0.075 H 
BRANCH  20  23
ATOM     23  C   LIG d   1       7.653   0.674  -4.079  0.00  0.00    -0.010 A 
ATOM     24  C   LIG d   1       6.639   1.337  -3.414  0.00  0.00    -0.054 A 
ATOM     25  C   LIG d   1       5.588   0.625  -2.868  0.00  0.00    -0.047 A 
ATOM     26  H   LIG d   1       6.667   2.413  -3.320  0.00  0.00     0.062 H 
ATOM     27  C   LIG d   1       5.550  -0.753  -2.987  0.00  0.00     0.018 A 
ATOM     28  H   LIG d   1       4.796   1.143  -2.347  0.00  0.00     0.063 H 
ATOM     29  C   LIG d   1       6.565  -1.417  -3.653  0.00  0.00    -0.047 A 
ATOM     30 BR   LIG d   1       4.114  -1.729  -2.239  0.00  0.00    -0.050 Br
ATOM     31  C   LIG d   1       7.615  -0.703  -4.200  0.00  0.00    -0.054 A 
ATOM     32  H   LIG d   1       6.537  -2.492  -3.746  0.00  0.00     0.063 H 
ATOM     33  H   LIG d   1       8.407  -1.220  -4.720  0.00  0.00     0.062 H 
ENDBRANCH  20  23
ENDBRANCH  19  20
ENDBRANCH  11  19
ENDBRANCH   6   8
BRANCH   1  34
ATOM     34  O   LIG d   1      11.490   7.659  -4.878  0.00  0.00    -0.452 OA
BRANCH  34  35
ATOM     35  C   LIG d   1      11.097   7.994  -6.135  0.00  0.00     0.129 A 
ATOM     36  C   LIG d   1       9.753   7.943  -6.479  0.00  0.00    -0.016 A 
ATOM     37  C   LIG d   1       9.354   8.284  -7.756  0.00  0.00    -0.017 A 
ATOM     38  H   LIG d   1       9.021   7.637  -5.747  0.00  0.00     0.066 H 
ATOM     39  C   LIG d   1      10.296   8.677  -8.696  0.00  0.00     0.120 A 
ATOM     40  H   LIG d   1       8.309   8.245  -8.024  0.00  0.00     0.066 H 
ATOM     41  C   LIG d   1      11.639   8.727  -8.353  0.00  0.00    -0.017 A 
ATOM     42  C   LIG d   1      12.038   8.392  -7.074  0.00  0.00    -0.016 A 
ATOM     43  H   LIG d   1      12.372   9.033  -9.085  0.00  0.00     0.066 H 
ATOM     44  H   LIG d   1      13.083   8.436  -6.805  0.00  0.00     0.066 H 
BRANCH  39  45
ATOM     45  O   LIG d   1       9.903   9.012  -9.954  0.00  0.00    -0.495 OA
BRANCH  45  46
ATOM     46  C   LIG d   1      10.360   8.178 -11.020  0.00  0.00     0.079 C 
ATOM     47  H   LIG d   1       9.509   7.674 -11.479  0.00  0.00     0.066 H 
ATOM     48  H   LIG d   1      10.866   8.789 -11.767  0.00  0.00     0.066 H 
ATOM     49  H   LIG d   1      11.054   7.433 -10.628  0.00  0.00     0.066 H 
ENDBRANCH  45  46
ENDBRANCH  39  45
ENDBRANCH  34  35
ENDBRANCH   1  34
BRANCH   4  50
ATOM     50  N   LIG d   1       8.911   9.971  -0.693  0.00  0.00    -0.328 N 
ATOM     51  H   LIG d   1       8.515  10.851  -0.796  0.00  0.00     0.145 HD
ATOM     52  H   LIG d   1       8.848   9.508   0.156  0.00  0.00     0.145 HD
ENDBRANCH   4  50
TORSDOF 10
ENDMDL
MODEL 4
REMARK VINA RESULT:      -6.2      5.981      9.783
REMARK  10 active torsions:
REMARK  status: ('A' for Active; 'I' for Inactive)
REMARK    1  A    between atoms: C_1  and  O_2 
REMARK    2  A    between atoms: O_2  and  C_3 
REMARK    3  A    between atoms: C_6  and  O_9 
REMARK    4  A    between atoms: O_9  and  C_10 
REMARK    5  A    between atoms: C_13  and  N_32 
REMARK    6  A    between atoms: C_15  and  C_16 
REMARK    7  A    between atoms: C_19  and  O_23 
REMARK    8  A    between atoms: C_21  and  O_22 
REMARK    9  A    between atoms: O_23  and  C_24 
REMARK   10  A    between atoms: C_24  and  C_25 
ROOT
ATOM      1  C   LIG d   1       4.955  -2.116  -6.128  0.00  0.00     0.172 A 
ATOM      2  C   LIG d   1       4.548  -0.856  -5.717  0.00  0.00     0.076 A 
ATOM      3  N   LIG d   1       4.056  -0.701  -4.496  0.00  0.00    -0.219 NA
ATOM      4  C   LIG d   1       3.944  -1.730  -3.670  0.00  0.00     0.213 A 
ATOM      5  N   LIG d   1       4.314  -2.950  -4.020  0.00  0.00    -0.211 NA
ATOM      6  C   LIG d   1       4.818  -3.186  -5.231  0.00  0.00     0.122 A 
ATOM      7  H   LIG d   1       4.634  -0.009  -6.382  0.00  0.00     0.087 H 
ENDROOT
BRANCH   6   8
ATOM      8  C   LIG d   1       5.233  -4.552  -5.620  0.00  0.00     0.046 A 
ATOM      9  C   LIG d   1       4.291  -5.453  -6.133  0.00  0.00     0.130 A 
ATOM     10  C   LIG d   1       4.687  -6.730  -6.494  0.00  0.00     0.022 A 
ATOM     11  C   LIG d   1       6.012  -7.113  -6.349  0.00  0.00     0.124 A 
ATOM     12  H   LIG d   1       3.963  -7.427  -6.889  0.00  0.00     0.069 H 
ATOM     13  C   LIG d   1       6.945  -6.221  -5.836  0.00  0.00    -0.019 A 
ATOM     14  C   LIG d   1       6.563  -4.946  -5.478  0.00  0.00    -0.045 A 
ATOM     15  H   LIG d   1       7.975  -6.527  -5.722  0.00  0.00     0.065 H 
ATOM     16  H   LIG d   1       7.292  -4.255  -5.084  0.00  0.00     0.063 H 
BRANCH   9  17
ATOM     17  O   LIG d   1       2.995  -5.076  -6.274  0.00  0.00    -0.506 OA
ATOM     18  H   LIG d   1       2.769  -4.766  -7.162  0.00  0.00     0.292 HD
ENDBRANCH   9  17
BRANCH  11  19
ATOM     19  O   LIG d   1       6.396  -8.366  -6.704  0.00  0.00    -0.487 OA
BRANCH  19  20
ATOM     20  C   LIG d   1       5.467  -9.424  -6.457  0.00  0.00     0.115 C 
ATOM     21  H   LIG d   1       5.624 -10.222  -7.183  0.00  0.00     0.075 H 
ATOM     22  H   LIG d   1       4.450  -9.044  -6.548  0.00  0.00     0.075 H 
BRANCH  20  23
ATOM     23  C   LIG d   1       5.679  -9.963  -5.066  0.00  0.00    -0.010 A 
ATOM     24  C   LIG d   1       6.941 -10.358  -4.663  0.00  0.00    -0.054 A 
ATOM     25  C   LIG d   1       7.139 -10.847  -3.385  0.00  0.00    -0.047 A 
ATOM     26  H   LIG d   1       7.774 -10.285  -5.347  0.00  0.00     0.062 H 
ATOM     27  C   LIG d   1       6.072 -10.940  -2.509  0.00  0.00     0.018 A 
ATOM     28  H   LIG d   1       8.124 -11.156  -3.071  0.00  0.00     0.063 H 
ATOM     29  C   LIG d   1       4.809 -10.545  -2.911  0.00  0.00    -0.047 A 
ATOM     30 BR   LIG d   1       6.341 -11.610  -0.761  0.00  0.00    -0.050 Br
ATOM     31  C   LIG d   1       4.614 -10.056  -4.189  0.00  0.00    -0.054 A 
ATOM     32  H   LIG d   1       3.977 -10.619  -2.228  0.00  0.00     0.063 H 
ATOM     33  H   LIG d   1       3.628  -9.747  -4.505  0.00  0.00     0.062 H 
ENDBRANCH  20  23
ENDBRANCH  19  20
ENDBRANCH  11  19
ENDBRANCH   6   8
BRANCH   1  34
ATOM     34  O   LIG d   1       5.469  -2.312  -7.372  0.00  0.00    -0.452 OA
BRANCH  34  35
ATOM     35  C   LIG d   1       4.715  -1.942  -8.439  0.00  0.00     0.129 A 
ATOM     36  C   LIG d   1       5.144  -0.915  -9.270  0.00  0.00    -0.016 A 
ATOM     37  C   LIG d   1       4.377  -0.539 -10.355  0.00  0.00    -0.017 A 
ATOM     38  H   LIG d   1       6.077  -0.411  -9.066  0.00  0.00     0.066 H 
ATOM     39  C   LIG d   1       3.179  -1.187 -10.616  0.00  0.00     0.120 A 
ATOM     40  H   LIG d   1       4.711   0.259 -11.001  0.00  0.00     0.066 H 
ATOM     41  C   LIG d   1       2.749  -2.212  -9.786  0.00  0.00    -0.017 A 
ATOM     42  C   LIG d   1       3.519  -2.592  -8.704  0.00  0.00    -0.016 A 
ATOM     43  H   LIG d   1       1.816  -2.716  -9.989  0.00  0.00     0.066 H 
ATOM     44  H   LIG d   1       3.187  -3.394  -8.060  0.00  0.00     0.066 H 
BRANCH  39  45
ATOM     45  O   LIG d   1       2.424  -0.816 -11.684  0.00  0.00    -0.495 OA
BRANCH  45  46
ATOM     46  C   LIG d   1       1.058  -1.234 -11.690  0.00  0.00     0.079 C 
ATOM     47  H   LIG d   1       0.532  -0.748 -12.512  0.00  0.00     0.066 H 
ATOM     48  H   LIG d   1       1.010  -2.316 -11.817  0.00  0.00     0.066 H 
ATOM     49  H   LIG d   1       0.588  -0.958 -10.745  0.00  0.00     0.066 H 
ENDBRANCH  45  46
ENDBRANCH  39  45
ENDBRANCH  34  35
ENDBRANCH   1  34
BRANCH   4  50
ATOM     50  N   LIG d   1       3.423  -1.521  -2.402  0.00  0.00    -0.328 N 
ATOM     51  H   LIG d   1       2.753  -0.834  -2.259  0.00  0.00     0.145 HD
ATOM     52  H   LIG d   1       3.727  -2.063  -1.658  0.00  0.00     0.145 HD
ENDBRANCH   4  50
TORSDOF 10
ENDMDL
MODEL 5
REMARK VINA RESULT:      -6.2      6.895      9.384
REMARK  10 active torsions:
REMARK  status: ('A' for Active; 'I' for Inactive)
REMARK    1  A    between atoms: C_1  and  O_2 
REMARK    2  A    between atoms: O_2  and  C_3 
REMARK    3  A    between atoms: C_6  and  O_9 
REMARK    4  A    between atoms: O_9  and  C_10 
REMARK    5  A    between atoms: C_13  and  N_32 
REMARK    6  A    between atoms: C_15  and  C_16 
REMARK    7  A    between atoms: C_19  and  O_23 
REMARK    8  A    between atoms: C_21  and  O_22 
REMARK    9  A    between atoms: O_23  and  C_24 
REMARK   10  A    between atoms: C_24  and  C_25 
ROOT
ATOM      1  C   LIG d   1       4.326  -2.041  -4.201  0.00  0.00     0.172 A 
ATOM      2  C   LIG d   1       4.188  -2.286  -2.843  0.00  0.00     0.076 A 
ATOM      3  N   LIG d   1       4.273  -1.274  -1.991  0.00  0.00    -0.219 NA
ATOM      4  C   LIG d   1       4.491  -0.039  -2.418  0.00  0.00     0.213 A 
ATOM      5  N   LIG d   1       4.633   0.241  -3.703  0.00  0.00    -0.211 NA
ATOM      6  C   LIG d   1       4.561  -0.723  -4.620  0.00  0.00     0.122 A 
ATOM      7  H   LIG d   1       4.010  -3.288  -2.484  0.00  0.00     0.087 H 
ENDROOT
BRANCH   6   8
ATOM      8  C   LIG d   1       4.720  -0.407  -6.057  0.00  0.00     0.046 A 
ATOM      9  C   LIG d   1       3.601  -0.077  -6.831  0.00  0.00     0.130 A 
ATOM     10  C   LIG d   1       3.757   0.216  -8.176  0.00  0.00     0.022 A 
ATOM     11  C   LIG d   1       5.018   0.185  -8.751  0.00  0.00     0.124 A 
ATOM     12  H   LIG d   1       2.896   0.470  -8.775  0.00  0.00     0.069 H 
ATOM     13  C   LIG d   1       6.129  -0.147  -7.984  0.00  0.00    -0.019 A 
ATOM     14  C   LIG d   1       5.985  -0.435  -6.644  0.00  0.00    -0.045 A 
ATOM     15  H   LIG d   1       7.108  -0.174  -8.439  0.00  0.00     0.065 H 
ATOM     16  H   LIG d   1       6.850  -0.689  -6.050  0.00  0.00     0.063 H 
BRANCH   9  17
ATOM     17  O   LIG d   1       2.367  -0.047  -6.267  0.00  0.00    -0.506 OA
ATOM     18  H   LIG d   1       2.206   0.729  -5.713  0.00  0.00     0.292 HD
ENDBRANCH   9  17
BRANCH  11  19
ATOM     19  O   LIG d   1       5.168   0.473 -10.070  0.00  0.00    -0.487 OA
BRANCH  19  20
ATOM     20  C   LIG d   1       4.023   0.984 -10.756  0.00  0.00     0.115 C 
ATOM     21  H   LIG d   1       4.300   1.885 -11.304  0.00  0.00     0.075 H 
ATOM     22  H   LIG d   1       3.242   1.223 -10.034  0.00  0.00     0.075 H 
BRANCH  20  23
ATOM     23  C   LIG d   1       3.513  -0.053 -11.722  0.00  0.00    -0.010 A 
ATOM     24  C   LIG d   1       4.257  -0.382 -12.840  0.00  0.00    -0.054 A 
ATOM     25  C   LIG d   1       3.793  -1.338 -13.724  0.00  0.00    -0.047 A 
ATOM     26  H   LIG d   1       5.201   0.109 -13.024  0.00  0.00     0.062 H 
ATOM     27  C   LIG d   1       2.583  -1.967 -13.489  0.00  0.00     0.018 A 
ATOM     28  H   LIG d   1       4.374  -1.593 -14.598  0.00  0.00     0.063 H 
ATOM     29  C   LIG d   1       1.839  -1.639 -12.371  0.00  0.00    -0.047 A 
ATOM     30 BR   LIG d   1       1.948  -3.274 -14.699  0.00  0.00    -0.050 Br
ATOM     31  C   LIG d   1       2.304  -0.683 -11.487  0.00  0.00    -0.054 A 
ATOM     32  H   LIG d   1       0.894  -2.130 -12.188  0.00  0.00     0.063 H 
ATOM     33  H   LIG d   1       1.723  -0.427 -10.614  0.00  0.00     0.062 H 
ENDBRANCH  20  23
ENDBRANCH  19  20
ENDBRANCH  11  19
ENDBRANCH   6   8
BRANCH   1  34
ATOM     34  O   LIG d   1       4.239  -3.054  -5.105  0.00  0.00    -0.452 OA
BRANCH  34  35
ATOM     35  C   LIG d   1       5.270  -3.936  -5.175  0.00  0.00     0.129 A 
ATOM     36  C   LIG d   1       5.031  -5.254  -5.539  0.00  0.00    -0.016 A 
ATOM     37  C   LIG d   1       6.079  -6.151  -5.609  0.00  0.00    -0.017 A 
ATOM     38  H   LIG d   1       4.027  -5.577  -5.766  0.00  0.00     0.066 H 
ATOM     39  C   LIG d   1       7.370  -5.735  -5.317  0.00  0.00     0.120 A 
ATOM     40  H   LIG d   1       5.893  -7.176  -5.893  0.00  0.00     0.066 H 
ATOM     41  C   LIG d   1       7.608  -4.418  -4.952  0.00  0.00    -0.017 A 
ATOM     42  C   LIG d   1       6.561  -3.520  -4.887  0.00  0.00    -0.016 A 
ATOM     43  H   LIG d   1       8.613  -4.095  -4.725  0.00  0.00     0.066 H 
ATOM     44  H   LIG d   1       6.747  -2.493  -4.608  0.00  0.00     0.066 H 
BRANCH  39  45
ATOM     45  O   LIG d   1       8.401  -6.619  -5.386  0.00  0.00    -0.495 OA
BRANCH  45  46
ATOM     46  C   LIG d   1       8.549  -7.529  -4.295  0.00  0.00     0.079 C 
ATOM     47  H   LIG d   1       9.604  -7.774  -4.167  0.00  0.00     0.066 H 
ATOM     48  H   LIG d   1       8.169  -7.068  -3.384  0.00  0.00     0.066 H 
ATOM     49  H   LIG d   1       7.988  -8.441  -4.503  0.00  0.00     0.066 H 
ENDBRANCH  45  46
ENDBRANCH  39  45
ENDBRANCH  34  35
ENDBRANCH   1  34
BRANCH   4  50
ATOM     50  N   LIG d   1       4.573   0.989  -1.491  0.00  0.00    -0.328 N 
ATOM     51  H   LIG d   1       4.949   0.821  -0.612  0.00  0.00     0.145 HD
ATOM     52  H   LIG d   1       4.256   1.875  -1.721  0.00  0.00     0.145 HD
ENDBRANCH   4  50
TORSDOF 10
ENDMDL
MODEL 6
REMARK VINA RESULT:      -6.2      8.851     13.925
REMARK  10 active torsions:
REMARK  status: ('A' for Active; 'I' for Inactive)
REMARK    1  A    between atoms: C_1  and  O_2 
REMARK    2  A    between atoms: O_2  and  C_3 
REMARK    3  A    between atoms: C_6  and  O_9 
REMARK    4  A    between atoms: O_9  and  C_10 
REMARK    5  A    between atoms: C_13  and  N_32 
REMARK    6  A    between atoms: C_15  and  C_16 
REMARK    7  A    between atoms: C_19  and  O_23 
REMARK    8  A    between atoms: C_21  and  O_22 
REMARK    9  A    between atoms: O_23  and  C_24 
REMARK   10  A    between atoms: C_24  and  C_25 
ROOT
ATOM      1  C   LIG d   1      11.606   7.338  -2.855  0.00  0.00     0.172 A 
ATOM      2  C   LIG d   1      11.647   8.645  -2.393  0.00  0.00     0.076 A 
ATOM      3  N   LIG d   1      10.602   9.135  -1.743  0.00  0.00    -0.219 NA
ATOM      4  C   LIG d   1       9.521   8.398  -1.534  0.00  0.00     0.213 A 
ATOM      5  N   LIG d   1       9.435   7.149  -1.961  0.00  0.00    -0.211 NA
ATOM      6  C   LIG d   1      10.445   6.586  -2.622  0.00  0.00     0.122 A 
ATOM      7  H   LIG d   1      12.523   9.256  -2.557  0.00  0.00     0.087 H 
ENDROOT
BRANCH   6   8
ATOM      8  C   LIG d   1      10.347   5.188  -3.097  0.00  0.00     0.046 A 
ATOM      9  C   LIG d   1      10.692   4.131  -2.246  0.00  0.00     0.130 A 
ATOM     10  C   LIG d   1      10.598   2.825  -2.698  0.00  0.00     0.022 A 
ATOM     11  C   LIG d   1      10.163   2.567  -3.989  0.00  0.00     0.124 A 
ATOM     12  H   LIG d   1      10.863   2.008  -2.044  0.00  0.00     0.069 H 
ATOM     13  C   LIG d   1       9.827   3.616  -4.836  0.00  0.00    -0.019 A 
ATOM     14  C   LIG d   1       9.911   4.919  -4.394  0.00  0.00    -0.045 A 
ATOM     15  H   LIG d   1       9.493   3.409  -5.842  0.00  0.00     0.065 H 
ATOM     16  H   LIG d   1       9.644   5.731  -5.054  0.00  0.00     0.063 H 
BRANCH   9  17
ATOM     17  O   LIG d   1      11.117   4.385  -0.982  0.00  0.00    -0.506 OA
ATOM     18  H   LIG d   1      11.876   4.983  -0.935  0.00  0.00     0.292 HD
ENDBRANCH   9  17
BRANCH  11  19
ATOM     19  O   LIG d   1      10.073   1.286  -4.429  0.00  0.00    -0.487 OA
BRANCH  19  20
ATOM     20  C   LIG d   1       8.985   0.974  -5.301  0.00  0.00     0.115 C 
ATOM     21  H   LIG d   1       9.314   0.253  -6.050  0.00  0.00     0.075 H 
ATOM     22  H   LIG d   1       8.644   1.883  -5.797  0.00  0.00     0.075 H 
BRANCH  20  23
ATOM     23  C   LIG d   1       7.853   0.384  -4.500  0.00  0.00    -0.010 A 
ATOM     24  C   LIG d   1       7.011   1.211  -3.781  0.00  0.00    -0.054 A 
ATOM     25  C   LIG d   1       5.968   0.672  -3.051  0.00  0.00    -0.047 A 
ATOM     26  H   LIG d   1       7.166   2.280  -3.790  0.00  0.00     0.062 H 
ATOM     27  C   LIG d   1       5.768  -0.697  -3.040  0.00  0.00     0.018 A 
ATOM     28  H   LIG d   1       5.311   1.318  -2.489  0.00  0.00     0.063 H 
ATOM     29  C   LIG d   1       6.612  -1.526  -3.759  0.00  0.00    -0.047 A 
ATOM     30 BR   LIG d   1       4.343  -1.437  -2.040  0.00  0.00    -0.050 Br
ATOM     31  C   LIG d   1       7.653  -0.984  -4.489  0.00  0.00    -0.054 A 
ATOM     32  H   LIG d   1       6.456  -2.594  -3.750  0.00  0.00     0.063 H 
ATOM     33  H   LIG d   1       8.312  -1.630  -5.051  0.00  0.00     0.062 H 
ENDBRANCH  20  23
ENDBRANCH  19  20
ENDBRANCH  11  19
ENDBRANCH   6   8
BRANCH   1  34
ATOM     34  O   LIG d   1      12.663   6.801  -3.521  0.00  0.00    -0.452 OA
BRANCH  34  35
ATOM     35  C   LIG d   1      13.545   6.046  -2.814  0.00  0.00     0.129 A 
ATOM     36  C   LIG d   1      14.058   4.880  -3.366  0.00  0.00    -0.016 A 
ATOM     37  C   LIG d   1      14.954   4.113  -2.648  0.00  0.00    -0.017 A 
ATOM     38  H   LIG d   1      13.755   4.573  -4.356  0.00  0.00     0.066 H 
ATOM     39  C   LIG d   1      15.342   4.507  -1.376  0.00  0.00     0.120 A 
ATOM     40  H   LIG d   1      15.353   3.206  -3.078  0.00  0.00     0.066 H 
ATOM     41  C   LIG d   1      14.829   5.672  -0.824  0.00  0.00    -0.017 A 
ATOM     42  C   LIG d   1      13.938   6.442  -1.544  0.00  0.00    -0.016 A 
ATOM     43  H   LIG d   1      15.132   5.978   0.166  0.00  0.00     0.066 H 
ATOM     44  H   LIG d   1      13.542   7.352  -1.117  0.00  0.00     0.066 H 
BRANCH  39  45
ATOM     45  O   LIG d   1      16.224   3.751  -0.669  0.00  0.00    -0.495 OA
BRANCH  45  46
ATOM     46  C   LIG d   1      17.487   3.485  -1.281  0.00  0.00     0.079 C 
ATOM     47  H   LIG d   1      18.257   4.094  -0.806  0.00  0.00     0.066 H 
ATOM     48  H   LIG d   1      17.733   2.430  -1.162  0.00  0.00     0.066 H 
ATOM     49  H   LIG d   1      17.436   3.730  -2.343  0.00  0.00     0.066 H 
ENDBRANCH  45  46
ENDBRANCH  39  45
ENDBRANCH  34  35
ENDBRANCH   1  34
BRANCH   4  50
ATOM     50  N   LIG d   1       8.450   8.952  -0.850  0.00  0.00    -0.328 N 
ATOM     51  H   LIG d   1       8.605   9.626  -0.170  0.00  0.00     0.145 HD
ATOM     52  H   LIG d   1       7.546   8.667  -1.052  0.00  0.00     0.145 HD
ENDBRANCH   4  50
TORSDOF 10
ENDMDL
MODEL 7
REMARK VINA RESULT:      -6.2      5.704      9.143
REMARK  10 active torsions:
REMARK  status: ('A' for Active; 'I' for Inactive)
REMARK    1  A    between atoms: C_1  and  O_2 
REMARK    2  A    between atoms: O_2  and  C_3 
REMARK    3  A    between atoms: C_6  and  O_9 
REMARK    4  A    between atoms: O_9  and  C_10 
REMARK    5  A    between atoms: C_13  and  N_32 
REMARK    6  A    between atoms: C_15  and  C_16 
REMARK    7  A    between atoms: C_19  and  O_23 
REMARK    8  A    between atoms: C_21  and  O_22 
REMARK    9  A    between atoms: O_23  and  C_24 
REMARK   10  A    between atoms: C_24  and  C_25 
ROOT
ATOM      1  C   LIG d   1       7.551  -3.283  -5.334  0.00  0.00     0.172 A 
ATOM      2  C   LIG d   1       8.015  -4.496  -4.848  0.00  0.00     0.076 A 
ATOM      3  N   LIG d   1       7.492  -5.622  -5.312  0.00  0.00    -0.219 NA
ATOM      4  C   LIG d   1       6.534  -5.604  -6.226  0.00  0.00     0.213 A 
ATOM      5  N   LIG d   1       6.057  -4.471  -6.715  0.00  0.00    -0.211 NA
ATOM      6  C   LIG d   1       6.531  -3.298  -6.297  0.00  0.00     0.122 A 
ATOM      7  H   LIG d   1       8.796  -4.524  -4.103  0.00  0.00     0.087 H 
ENDROOT
BRANCH   6   8
ATOM      8  C   LIG d   1       5.996  -2.032  -6.846  0.00  0.00     0.046 A 
ATOM      9  C   LIG d   1       4.721  -1.589  -6.475  0.00  0.00     0.130 A 
ATOM     10  C   LIG d   1       4.227  -0.403  -6.994  0.00  0.00     0.022 A 
ATOM     11  C   LIG d   1       4.995   0.341  -7.877  0.00  0.00     0.124 A 
ATOM     12  H   LIG d   1       3.245  -0.059  -6.709  0.00  0.00     0.069 H 
ATOM     13  C   LIG d   1       6.258  -0.102  -8.250  0.00  0.00    -0.019 A 
ATOM     14  C   LIG d   1       6.761  -1.277  -7.735  0.00  0.00    -0.045 A 
ATOM     15  H   LIG d   1       6.849   0.480  -8.942  0.00  0.00     0.065 H 
ATOM     16  H   LIG d   1       7.745  -1.616  -8.024  0.00  0.00     0.063 H 
BRANCH   9  17
ATOM     17  O   LIG d   1       3.972  -2.318  -5.610  0.00  0.00    -0.506 OA
ATOM     18  H   LIG d   1       4.127  -2.108  -4.679  0.00  0.00     0.292 HD
ENDBRANCH   9  17
BRANCH  11  19
ATOM     19  O   LIG d   1       4.507   1.502  -8.384  0.00  0.00    -0.487 OA
BRANCH  19  20
ATOM     20  C   LIG d   1       3.141   1.503  -8.806  0.00  0.00     0.115 C 
ATOM     21  H   LIG d   1       2.842   2.519  -9.066  0.00  0.00     0.075 H 
ATOM     22  H   LIG d   1       2.510   1.134  -7.998  0.00  0.00     0.075 H 
BRANCH  20  23
ATOM     23  C   LIG d   1       2.989   0.612 -10.011  0.00  0.00    -0.010 A 
ATOM     24  C   LIG d   1       3.886   0.706 -11.059  0.00  0.00    -0.054 A 
ATOM     25  C   LIG d   1       3.751  -0.115 -12.162  0.00  0.00    -0.047 A 
ATOM     26  H   LIG d   1       4.693   1.423 -11.016  0.00  0.00     0.062 H 
ATOM     27  C   LIG d   1       2.716  -1.033 -12.218  0.00  0.00     0.018 A 
ATOM     28  H   LIG d   1       4.450  -0.040 -12.981  0.00  0.00     0.063 H 
ATOM     29  C   LIG d   1       1.818  -1.128 -11.170  0.00  0.00    -0.047 A 
ATOM     30 BR   LIG d   1       2.530  -2.156 -13.728  0.00  0.00    -0.050 Br
ATOM     31  C   LIG d   1       1.956  -0.306 -10.067  0.00  0.00    -0.054 A 
ATOM     32  H   LIG d   1       1.011  -1.843 -11.213  0.00  0.00     0.063 H 
ATOM     33  H   LIG d   1       1.255  -0.379  -9.248  0.00  0.00     0.062 H 
ENDBRANCH  20  23
ENDBRANCH  19  20
ENDBRANCH  11  19
ENDBRANCH   6   8
BRANCH   1  34
ATOM     34  O   LIG d   1       8.067  -2.108  -4.885  0.00  0.00    -0.452 OA
BRANCH  34  35
ATOM     35  C   LIG d   1       7.270  -1.309  -4.129  0.00  0.00     0.129 A 
ATOM     36  C   LIG d   1       6.377  -1.872  -3.227  0.00  0.00    -0.016 A 
ATOM     37  C   LIG d   1       5.567  -1.059  -2.459  0.00  0.00    -0.017 A 
ATOM     38  H   LIG d   1       6.316  -2.945  -3.128  0.00  0.00     0.066 H 
ATOM     39  C   LIG d   1       5.646   0.320  -2.588  0.00  0.00     0.120 A 
ATOM     40  H   LIG d   1       4.873  -1.497  -1.758  0.00  0.00     0.066 H 
ATOM     41  C   LIG d   1       6.537   0.883  -3.489  0.00  0.00    -0.017 A 
ATOM     42  C   LIG d   1       7.352   0.070  -4.253  0.00  0.00    -0.016 A 
ATOM     43  H   LIG d   1       6.598   1.957  -3.588  0.00  0.00     0.066 H 
ATOM     44  H   LIG d   1       8.050   0.509  -4.951  0.00  0.00     0.066 H 
BRANCH  39  45
ATOM     45  O   LIG d   1       4.847   1.120  -1.832  0.00  0.00    -0.495 OA
BRANCH  45  46
ATOM     46  C   LIG d   1       3.598   1.514  -2.401  0.00  0.00     0.079 C 
ATOM     47  H   LIG d   1       3.542   1.166  -3.433  0.00  0.00     0.066 H 
ATOM     48  H   LIG d   1       2.783   1.077  -1.826  0.00  0.00     0.066 H 
ATOM     49  H   LIG d   1       3.516   2.602  -2.380  0.00  0.00     0.066 H 
ENDBRANCH  45  46
ENDBRANCH  39  45
ENDBRANCH  34  35
ENDBRANCH   1  34
BRANCH   4  50
ATOM     50  N   LIG d   1       6.016  -6.806  -6.683  0.00  0.00    -0.328 N 
ATOM     51  H   LIG d   1       6.381  -7.646  -6.360  0.00  0.00     0.145 HD
ATOM     52  H   LIG d   1       5.289  -6.809  -7.324  0.00  0.00     0.145 HD
ENDBRANCH   4  50
TORSDOF 10
ENDMDL
MODEL 8
REMARK VINA RESULT:      -6.1      7.300     10.699
REMARK  10 active torsions:
REMARK  status: ('A' for Active; 'I' for Inactive)
REMARK    1  A    between atoms: C_1  and  O_2 
REMARK    2  A    between atoms: O_2  and  C_3 
REMARK    3  A    between atoms: C_6  and  O_9 
REMARK    4  A    between atoms: O_9  and  C_10 
REMARK    5  A    between atoms: C_13  and  N_32 
REMARK    6  A    between atoms: C_15  and  C_16 
REMARK    7  A    between atoms: C_19  and  O_23 
REMARK    8  A    between atoms: C_21  and  O_22 
REMARK    9  A    between atoms: O_23  and  C_24 
REMARK   10  A    between atoms: C_24  and  C_25 
ROOT
ATOM      1  C   LIG d   1       1.818  -2.736 -10.729  0.00  0.00     0.172 A 
ATOM      2  C   LIG d   1       0.982  -2.752 -11.835  0.00  0.00     0.076 A 
ATOM      3  N   LIG d   1       1.255  -3.572 -12.841  0.00  0.00    -0.219 NA
ATOM      4  C   LIG d   1       2.313  -4.368 -12.804  0.00  0.00     0.213 A 
ATOM      5  N   LIG d   1       3.140  -4.383 -11.772  0.00  0.00    -0.211 NA
ATOM      6  C   LIG d   1       2.933  -3.587 -10.724  0.00  0.00     0.122 A 
ATOM      7  H   LIG d   1       0.116  -2.108 -11.876  0.00  0.00     0.087 H 
ENDROOT
BRANCH   6   8
ATOM      8  C   LIG d   1       3.859  -3.607  -9.570  0.00  0.00     0.046 A 
ATOM      9  C   LIG d   1       5.106  -2.977  -9.660  0.00  0.00     0.130 A 
ATOM     10  C   LIG d   1       5.968  -3.000  -8.576  0.00  0.00     0.022 A 
ATOM     11  C   LIG d   1       5.596  -3.644  -7.406  0.00  0.00     0.124 A 
ATOM     12  H   LIG d   1       6.931  -2.515  -8.642  0.00  0.00     0.069 H 
ATOM     13  C   LIG d   1       4.360  -4.274  -7.318  0.00  0.00    -0.019 A 
ATOM     14  C   LIG d   1       3.493  -4.252  -8.389  0.00  0.00    -0.045 A 
ATOM     15  H   LIG d   1       4.077  -4.778  -6.406  0.00  0.00     0.065 H 
ATOM     16  H   LIG d   1       2.532  -4.740  -8.316  0.00  0.00     0.063 H 
BRANCH   9  17
ATOM     17  O   LIG d   1       5.470  -2.346 -10.805  0.00  0.00    -0.506 OA
ATOM     18  H   LIG d   1       5.972  -2.901 -11.418  0.00  0.00     0.292 HD
ENDBRANCH   9  17
BRANCH  11  19
ATOM     19  O   LIG d   1       6.443  -3.665  -6.346  0.00  0.00    -0.487 OA
BRANCH  19  20
ATOM     20  C   LIG d   1       5.900  -4.076  -5.089  0.00  0.00     0.115 C 
ATOM     21  H   LIG d   1       6.632  -4.686  -4.559  0.00  0.00     0.075 H 
ATOM     22  H   LIG d   1       4.995  -4.659  -5.257  0.00  0.00     0.075 H 
BRANCH  20  23
ATOM     23  C   LIG d   1       5.569  -2.860  -4.264  0.00  0.00    -0.010 A 
ATOM     24  C   LIG d   1       6.513  -1.865  -4.090  0.00  0.00    -0.054 A 
ATOM     25  C   LIG d   1       6.209  -0.746  -3.339  0.00  0.00    -0.047 A 
ATOM     26  H   LIG d   1       7.490  -1.962  -4.542  0.00  0.00     0.062 H 
ATOM     27  C   LIG d   1       4.958  -0.621  -2.760  0.00  0.00     0.018 A 
ATOM     28  H   LIG d   1       6.947   0.031  -3.202  0.00  0.00     0.063 H 
ATOM     29  C   LIG d   1       4.013  -1.616  -2.934  0.00  0.00    -0.047 A 
ATOM     30 BR   LIG d   1       4.542   0.910  -1.730  0.00  0.00    -0.050 Br
ATOM     31  C   LIG d   1       4.319  -2.734  -3.686  0.00  0.00    -0.054 A 
ATOM     32  H   LIG d   1       3.038  -1.519  -2.482  0.00  0.00     0.063 H 
ATOM     33  H   LIG d   1       3.582  -3.512  -3.822  0.00  0.00     0.062 H 
ENDBRANCH  20  23
ENDBRANCH  19  20
ENDBRANCH  11  19
ENDBRANCH   6   8
BRANCH   1  34
ATOM     34  O   LIG d   1       1.565  -1.913  -9.676  0.00  0.00    -0.452 OA
BRANCH  34  35
ATOM     35  C   LIG d   1       2.384  -0.843  -9.493  0.00  0.00     0.129 A 
ATOM     36  C   LIG d   1       2.783  -0.487  -8.212  0.00  0.00    -0.016 A 
ATOM     37  C   LIG d   1       3.614   0.600  -8.026  0.00  0.00    -0.017 A 
ATOM     38  H   LIG d   1       2.442  -1.059  -7.362  0.00  0.00     0.066 H 
ATOM     39  C   LIG d   1       4.051   1.335  -9.118  0.00  0.00     0.120 A 
ATOM     40  H   LIG d   1       3.925   0.877  -7.029  0.00  0.00     0.066 H 
ATOM     41  C   LIG d   1       3.652   0.980 -10.398  0.00  0.00    -0.017 A 
ATOM     42  C   LIG d   1       2.825  -0.111 -10.585  0.00  0.00    -0.016 A 
ATOM     43  H   LIG d   1       3.992   1.552 -11.248  0.00  0.00     0.066 H 
ATOM     44  H   LIG d   1       2.518  -0.391 -11.582  0.00  0.00     0.066 H 
BRANCH  39  45
ATOM     45  O   LIG d   1       4.869   2.406  -8.934  0.00  0.00    -0.495 OA
BRANCH  45  46
ATOM     46  C   LIG d   1       6.275   2.157  -8.944  0.00  0.00     0.079 C 
ATOM     47  H   LIG d   1       6.772   2.847  -8.260  0.00  0.00     0.066 H 
ATOM     48  H   LIG d   1       6.465   1.132  -8.626  0.00  0.00     0.066 H 
ATOM     49  H   LIG d   1       6.664   2.303  -9.952  0.00  0.00     0.066 H 
ENDBRANCH  45  46
ENDBRANCH  39  45
ENDBRANCH  34  35
ENDBRANCH   1  34
BRANCH   4  50
ATOM     50  N   LIG d   1       2.560  -5.208 -13.879  0.00  0.00    -0.328 N 
ATOM     51  H   LIG d   1       3.420  -5.182 -14.328  0.00  0.00     0.145 HD
ATOM     52  H   LIG d   1       1.875  -5.823 -14.181  0.00  0.00     0.145 HD
ENDBRANCH   4  50
TORSDOF 10
ENDMDL
MODEL 9
REMARK VINA RESULT:      -6.1      4.599      6.678
REMARK  10 active torsions:
REMARK  status: ('A' for Active; 'I' for Inactive)
REMARK    1  A    between atoms: C_1  and  O_2 
REMARK    2  A    between atoms: O_2  and  C_3 
REMARK    3  A    between atoms: C_6  and  O_9 
REMARK    4  A    between atoms: O_9  and  C_10 
REMARK    5  A    between atoms: C_13  and  N_32 
REMARK    6  A    between atoms: C_15  and  C_16 
REMARK    7  A    between atoms: C_19  and  O_23 
REMARK    8  A    between atoms: C_21  and  O_22 
REMARK    9  A    between atoms: O_23  and  C_24 
REMARK   10  A    between atoms: C_24  and  C_25 
ROOT
ATOM      1  C   LIG d   1       6.262  -9.136  -4.580  0.00  0.00     0.172 A 
ATOM      2  C   LIG d   1       6.345 -10.129  -3.615  0.00  0.00     0.076 A 
ATOM      3  N   LIG d   1       5.231 -10.611  -3.085  0.00  0.00    -0.219 NA
ATOM      4  C   LIG d   1       4.044 -10.156  -3.459  0.00  0.00     0.213 A 
ATOM      5  N   LIG d   1       3.917  -9.207  -4.372  0.00  0.00    -0.211 NA
ATOM      6  C   LIG d   1       4.991  -8.672  -4.951  0.00  0.00     0.122 A 
ATOM      7  H   LIG d   1       7.307 -10.508  -3.301  0.00  0.00     0.087 H 
ENDROOT
BRANCH   6   8
ATOM      8  C   LIG d   1       4.846  -7.612  -5.972  0.00  0.00     0.046 A 
ATOM      9  C   LIG d   1       4.677  -7.953  -7.320  0.00  0.00     0.130 A 
ATOM     10  C   LIG d   1       4.543  -6.955  -8.271  0.00  0.00     0.022 A 
ATOM     11  C   LIG d   1       4.574  -5.623  -7.888  0.00  0.00     0.124 A 
ATOM     12  H   LIG d   1       4.413  -7.215  -9.310  0.00  0.00     0.069 H 
ATOM     13  C   LIG d   1       4.746  -5.284  -6.551  0.00  0.00    -0.019 A 
ATOM     14  C   LIG d   1       4.875  -6.269  -5.596  0.00  0.00    -0.045 A 
ATOM     15  H   LIG d   1       4.773  -4.244  -6.259  0.00  0.00     0.065 H 
ATOM     16  H   LIG d   1       5.005  -6.002  -4.558  0.00  0.00     0.063 H 
BRANCH   9  17
ATOM     17  O   LIG d   1       4.648  -9.258  -7.693  0.00  0.00    -0.506 OA
ATOM     18  H   LIG d   1       5.200  -9.460  -8.461  0.00  0.00     0.292 HD
ENDBRANCH   9  17
BRANCH  11  19
ATOM     19  O   LIG d   1       4.442  -4.647  -8.822  0.00  0.00    -0.487 OA
BRANCH  19  20
ATOM     20  C   LIG d   1       3.115  -4.206  -9.117  0.00  0.00     0.115 C 
ATOM     21  H   LIG d   1       2.417  -4.657  -8.411  0.00  0.00     0.075 H 
ATOM     22  H   LIG d   1       2.849  -4.503 -10.131  0.00  0.00     0.075 H 
BRANCH  20  23
ATOM     23  C   LIG d   1       3.047  -2.705  -8.999  0.00  0.00    -0.010 A 
ATOM     24  C   LIG d   1       3.892  -2.042  -8.129  0.00  0.00    -0.054 A 
ATOM     25  C   LIG d   1       3.836  -0.665  -8.024  0.00  0.00    -0.047 A 
ATOM     26  H   LIG d   1       4.598  -2.599  -7.531  0.00  0.00     0.062 H 
ATOM     27  C   LIG d   1       2.932   0.050  -8.791  0.00  0.00     0.018 A 
ATOM     28  H   LIG d   1       4.495  -0.146  -7.344  0.00  0.00     0.063 H 
ATOM     29  C   LIG d   1       2.086  -0.613  -9.661  0.00  0.00    -0.047 A 
ATOM     30 BR   LIG d   1       2.853   1.934  -8.647  0.00  0.00    -0.050 Br
ATOM     31  C   LIG d   1       2.145  -1.991  -9.765  0.00  0.00    -0.054 A 
ATOM     32  H   LIG d   1       1.381  -0.056 -10.259  0.00  0.00     0.063 H 
ATOM     33  H   LIG d   1       1.485  -2.510 -10.445  0.00  0.00     0.062 H 
ENDBRANCH  20  23
ENDBRANCH  19  20
ENDBRANCH  11  19
ENDBRANCH   6   8
BRANCH   1  34
ATOM     34  O   LIG d   1       7.385  -8.622  -5.150  0.00  0.00    -0.452 OA
BRANCH  34  35
ATOM     35  C   LIG d   1       8.088  -7.694  -4.449  0.00  0.00     0.129 A 
ATOM     36  C   LIG d   1       8.189  -6.394  -4.925  0.00  0.00    -0.016 A 
ATOM     37  C   LIG d   1       8.904  -5.452  -4.214  0.00  0.00    -0.017 A 
ATOM     38  H   LIG d   1       7.708  -6.121  -5.853  0.00  0.00     0.066 H 
ATOM     39  C   LIG d   1       9.521  -5.803  -3.022  0.00  0.00     0.120 A 
ATOM     40  H   LIG d   1       8.981  -4.440  -4.584  0.00  0.00     0.066 H 
ATOM     41  C   LIG d   1       9.421  -7.102  -2.546  0.00  0.00    -0.017 A 
ATOM     42  C   LIG d   1       8.701  -8.044  -3.255  0.00  0.00    -0.016 A 
ATOM     43  H   LIG d   1       9.901  -7.375  -1.618  0.00  0.00     0.066 H 
ATOM     44  H   LIG d   1       8.619  -9.054  -2.882  0.00  0.00     0.066 H 
BRANCH  39  45
ATOM     45  O   LIG d   1      10.225  -4.875  -2.321  0.00  0.00    -0.495 OA
BRANCH  45  46
ATOM     46  C   LIG d   1      11.058  -3.991  -3.072  0.00  0.00     0.079 C 
ATOM     47  H   LIG d   1      11.901  -4.547  -3.485  0.00  0.00     0.066 H 
ATOM     48  H   LIG d   1      10.481  -3.550  -3.884  0.00  0.00     0.066 H 
ATOM     49  H   LIG d   1      11.431  -3.200  -2.420  0.00  0.00     0.066 H 
ENDBRANCH  45  46
ENDBRANCH  39  45
ENDBRANCH  34  35
ENDBRANCH   1  34
BRANCH   4  50
ATOM     50  N   LIG d   1       2.904 -10.690  -2.877  0.00  0.00    -0.328 N 
ATOM     51  H   LIG d   1       2.060 -10.216  -2.942  0.00  0.00     0.145 HD
ATOM     52  H   LIG d   1       2.951 -11.536  -2.407  0.00  0.00     0.145 HD
ENDBRANCH   4  50
TORSDOF 10
ENDMDL
