MODEL 1
REMARK VINA RESULT:      -5.5      0.000      0.000
REMARK  13 active torsions:
REMARK  status: ('A' for Active; 'I' for Inactive)
REMARK    1  A    between atoms: C_1  and  C_2 
REMARK    2  A    between atoms: C_2  and  C_3 
REMARK    3  A    between atoms: C_3  and  C_4 
REMARK    4  A    between atoms: C_4  and  O_5 
REMARK    5  A    between atoms: O_5  and  P_6 
REMARK    6  A    between atoms: P_6  and  O_8 
REMARK    7  A    between atoms: P_6  and  S_13 
REMARK    8  A    between atoms: O_8  and  C_9 
REMARK    9  A    between atoms: C_9  and  C_10 
REMARK   10  A    between atoms: C_10  and  C_11 
REMARK   11  A    between atoms: C_11  and  C_12 
REMARK   12  A    between atoms: S_13  and  C_14 
REMARK   13  A    between atoms: C_14  and  C_15 
ROOT
ATOM      1  S   LIG d   1       4.679  -3.111  -6.744  0.00  0.00    -0.041 SA
ENDROOT
BRANCH   1   2
ATOM      2  P   LIG d   1       5.168  -2.336  -4.833  0.00  0.00     0.391 P 
ATOM      3  O   LIG d   1       6.344  -3.056  -4.294  0.00  0.00    -0.246 OA
BRANCH   2   4
ATOM      4  O   LIG d   1       5.513  -0.768  -4.962  0.00  0.00    -0.300 OA
BRANCH   4   5
ATOM      5  C   LIG d   1       6.821  -0.238  -4.735  0.00  0.00     0.058 C 
ATOM      6  H   LIG d   1       6.741   0.797  -4.405  0.00  0.00     0.057 H 
ATOM      7  H   LIG d   1       7.324  -0.827  -3.968  0.00  0.00     0.057 H 
BRANCH   5   8
ATOM      8  C   LIG d   1       7.627  -0.299  -6.035  0.00  0.00    -0.029 C 
ATOM      9  H   LIG d   1       8.620  -0.697  -5.828  0.00  0.00     0.029 H 
ATOM     10  H   LIG d   1       7.116  -0.945  -6.749  0.00  0.00     0.029 H 
BRANCH   8  11
ATOM     11  C   LIG d   1       7.755   1.109  -6.622  0.00  0.00    -0.054 C 
ATOM     12  H   LIG d   1       7.324   1.832  -5.928  0.00  0.00     0.026 H 
ATOM     13  H   LIG d   1       8.808   1.342  -6.780  0.00  0.00     0.026 H 
BRANCH  11  14
ATOM     14  C   LIG d   1       7.011   1.174  -7.957  0.00  0.00    -0.065 C 
ATOM     15  H   LIG d   1       7.607   0.688  -8.729  0.00  0.00     0.023 H 
ATOM     16  H   LIG d   1       6.052   0.664  -7.863  0.00  0.00     0.023 H 
ATOM     17  H   LIG d   1       6.844   2.217  -8.229  0.00  0.00     0.023 H 
ENDBRANCH  11  14
ENDBRANCH   8  11
ENDBRANCH   5   8
ENDBRANCH   4   5
ENDBRANCH   2   4
BRANCH   2  18
ATOM     18  O   LIG d   1       3.918  -2.530  -3.838  0.00  0.00    -0.300 OA
BRANCH  18  19
ATOM     19  C   LIG d   1       3.750  -1.767  -2.641  0.00  0.00     0.058 C 
ATOM     20  H   LIG d   1       3.400  -2.419  -1.842  0.00  0.00     0.057 H 
ATOM     21  H   LIG d   1       4.706  -1.324  -2.358  0.00  0.00     0.057 H 
BRANCH  19  22
ATOM     22  C   LIG d   1       2.725  -0.657  -2.882  0.00  0.00    -0.029 C 
ATOM     23  H   LIG d   1       2.397  -0.685  -3.921  0.00  0.00     0.029 H 
ATOM     24  H   LIG d   1       1.868  -0.807  -2.226  0.00  0.00     0.029 H 
BRANCH  22  25
ATOM     25  C   LIG d   1       3.364   0.700  -2.584  0.00  0.00    -0.054 C 
ATOM     26  H   LIG d   1       3.643   1.185  -3.520  0.00  0.00     0.026 H 
ATOM     27  H   LIG d   1       2.651   1.328  -2.049  0.00  0.00     0.026 H 
BRANCH  25  28
ATOM     28  C   LIG d   1       4.612   0.498  -1.723  0.00  0.00    -0.065 C 
ATOM     29  H   LIG d   1       5.173  -0.360  -2.091  0.00  0.00     0.023 H 
ATOM     30  H   LIG d   1       5.237   1.389  -1.774  0.00  0.00     0.023 H 
ATOM     31  H   LIG d   1       4.315   0.321  -0.689  0.00  0.00     0.023 H 
ENDBRANCH  25  28
ENDBRANCH  22  25
ENDBRANCH  19  22
ENDBRANCH  18  19
ENDBRANCH   2  18
ENDBRANCH   1   2
BRANCH   1  32
ATOM     32  C   LIG d   1       4.590  -1.642  -7.805  0.00  0.00     0.013 C 
ATOM     33  H   LIG d   1       5.386  -1.683  -8.548  0.00  0.00     0.039 H 
ATOM     34  H   LIG d   1       4.707  -0.747  -7.195  0.00  0.00     0.039 H 
BRANCH  32  35
ATOM     35  C   LIG d   1       3.233  -1.605  -8.511  0.00  0.00     0.012 C 
ATOM     36  H   LIG d   1       2.446  -1.850  -7.798  0.00  0.00     0.036 H 
ATOM     37  C   LIG d   1       2.992  -0.199  -9.072  0.00  0.00    -0.017 C 
ATOM     38  H   LIG d   1       2.007  -0.157  -9.536  0.00  0.00     0.085 H 
ATOM     39  C   LIG d   1       3.054   0.795  -7.908  0.00  0.00    -0.009 C 
ATOM     40  N   LIG d   1       4.047   0.130 -10.066  0.00  0.00     0.238 N 
ATOM     41  C   LIG d   1       2.863   2.219  -8.431  0.00  0.00    -0.043 C 
ATOM     42  H   LIG d   1       2.266   0.563  -7.192  0.00  0.00     0.032 H 
ATOM     43  H   LIG d   1       4.024   0.717  -7.417  0.00  0.00     0.032 H 
ATOM     44  C   LIG d   1       3.952   2.512  -9.467  0.00  0.00    -0.012 C 
ATOM     45  H   LIG d   1       1.881   2.310  -8.894  0.00  0.00     0.027 H 
ATOM     46  H   LIG d   1       2.944   2.926  -7.604  0.00  0.00     0.027 H 
ATOM     47  C   LIG d   1       3.844   1.489 -10.598  0.00  0.00    -0.032 C 
ATOM     48  H   LIG d   1       3.814   3.516  -9.869  0.00  0.00     0.032 H 
ATOM     49  H   LIG d   1       4.933   2.438  -8.999  0.00  0.00     0.032 H 
ATOM     50  H   LIG d   1       2.862   1.570 -11.066  0.00  0.00     0.081 H 
ATOM     51  H   LIG d   1       4.616   1.688 -11.341  0.00  0.00     0.081 H 
ATOM     52  C   LIG d   1       4.015  -0.832 -11.183  0.00  0.00    -0.032 C 
ATOM     53  H   LIG d   1       4.963   0.082  -9.606  0.00  0.00     0.204 HD
ATOM     54  C   LIG d   1       4.306  -2.240 -10.664  0.00  0.00    -0.012 C 
ATOM     55  H   LIG d   1       4.780  -0.549 -11.906  0.00  0.00     0.081 H 
ATOM     56  H   LIG d   1       3.039  -0.819 -11.666  0.00  0.00     0.081 H 
ATOM     57  C   LIG d   1       3.225  -2.627  -9.649  0.00  0.00    -0.040 C 
ATOM     58  H   LIG d   1       4.295  -2.946 -11.496  0.00  0.00     0.032 H 
ATOM     59  H   LIG d   1       5.284  -2.258 -10.184  0.00  0.00     0.032 H 
ATOM     60  H   LIG d   1       2.249  -2.624 -10.135  0.00  0.00     0.027 H 
ATOM     61  H   LIG d   1       3.434  -3.620  -9.253  0.00  0.00     0.027 H 
ENDBRANCH  32  35
ENDBRANCH   1  32
TORSDOF 13
ENDMDL
MODEL 2
REMARK VINA RESULT:      -5.4      1.952      3.708
REMARK  13 active torsions:
REMARK  status: ('A' for Active; 'I' for Inactive)
REMARK    1  A    between atoms: C_1  and  C_2 
REMARK    2  A    between atoms: C_2  and  C_3 
REMARK    3  A    between atoms: C_3  and  C_4 
REMARK    4  A    between atoms: C_4  and  O_5 
REMARK    5  A    between atoms: O_5  and  P_6 
REMARK    6  A    between atoms: P_6  and  O_8 
REMARK    7  A    between atoms: P_6  and  S_13 
REMARK    8  A    between atoms: O_8  and  C_9 
REMARK    9  A    between atoms: C_9  and  C_10 
REMARK   10  A    between atoms: C_10  and  C_11 
REMARK   11  A    between atoms: C_11  and  C_12 
REMARK   12  A    between atoms: S_13  and  C_14 
REMARK   13  A    between atoms: C_14  and  C_15 
ROOT
ATOM      1  S   LIG d   1       5.064  -1.853  -5.886  0.00  0.00    -0.041 SA
ENDROOT
BRANCH   1   2
ATOM      2  P   LIG d   1       6.172  -0.282  -4.993  0.00  0.00     0.391 P 
ATOM      3  O   LIG d   1       6.846   0.508  -6.048  0.00  0.00    -0.246 OA
BRANCH   2   4
ATOM      4  O   LIG d   1       5.176   0.673  -4.162  0.00  0.00    -0.300 OA
BRANCH   4   5
ATOM      5  C   LIG d   1       5.367   0.981  -2.780  0.00  0.00     0.058 C 
ATOM      6  H   LIG d   1       6.314   0.561  -2.442  0.00  0.00     0.057 H 
ATOM      7  H   LIG d   1       5.381   2.063  -2.647  0.00  0.00     0.057 H 
BRANCH   5   8
ATOM      8  C   LIG d   1       4.222   0.382  -1.961  0.00  0.00    -0.029 C 
ATOM      9  H   LIG d   1       4.082   0.964  -1.051  0.00  0.00     0.029 H 
ATOM     10  H   LIG d   1       3.305   0.402  -2.551  0.00  0.00     0.029 H 
BRANCH   8  11
ATOM     11  C   LIG d   1       4.560  -1.065  -1.594  0.00  0.00    -0.054 C 
ATOM     12  H   LIG d   1       5.609  -1.261  -1.819  0.00  0.00     0.026 H 
ATOM     13  H   LIG d   1       4.383  -1.220  -0.530  0.00  0.00     0.026 H 
BRANCH  11  14
ATOM     14  C   LIG d   1       3.677  -2.016  -2.403  0.00  0.00    -0.065 C 
ATOM     15  H   LIG d   1       3.573  -1.639  -3.420  0.00  0.00     0.023 H 
ATOM     16  H   LIG d   1       4.136  -3.005  -2.427  0.00  0.00     0.023 H 
ATOM     17  H   LIG d   1       2.693  -2.083  -1.938  0.00  0.00     0.023 H 
ENDBRANCH  11  14
ENDBRANCH   8  11
ENDBRANCH   5   8
ENDBRANCH   4   5
ENDBRANCH   2   4
BRANCH   2  18
ATOM     18  O   LIG d   1       7.276  -0.901  -3.998  0.00  0.00    -0.300 OA
BRANCH  18  19
ATOM     19  C   LIG d   1       7.345  -2.293  -3.682  0.00  0.00     0.058 C 
ATOM     20  H   LIG d   1       7.393  -2.418  -2.601  0.00  0.00     0.057 H 
ATOM     21  H   LIG d   1       6.458  -2.796  -4.068  0.00  0.00     0.057 H 
BRANCH  19  22
ATOM     22  C   LIG d   1       8.595  -2.900  -4.322  0.00  0.00    -0.029 C 
ATOM     23  H   LIG d   1       8.452  -2.973  -5.400  0.00  0.00     0.029 H 
ATOM     24  H   LIG d   1       9.455  -2.264  -4.111  0.00  0.00     0.029 H 
BRANCH  22  25
ATOM     25  C   LIG d   1       8.838  -4.295  -3.743  0.00  0.00    -0.054 C 
ATOM     26  H   LIG d   1       7.881  -4.782  -3.553  0.00  0.00     0.026 H 
ATOM     27  H   LIG d   1       9.412  -4.889  -4.456  0.00  0.00     0.026 H 
BRANCH  25  28
ATOM     28  C   LIG d   1       9.619  -4.175  -2.433  0.00  0.00    -0.065 C 
ATOM     29  H   LIG d   1       9.267  -3.305  -1.879  0.00  0.00     0.023 H 
ATOM     30  H   LIG d   1       9.465  -5.073  -1.835  0.00  0.00     0.023 H 
ATOM     31  H   LIG d   1      10.681  -4.061  -2.653  0.00  0.00     0.023 H 
ENDBRANCH  25  28
ENDBRANCH  22  25
ENDBRANCH  19  22
ENDBRANCH  18  19
ENDBRANCH   2  18
ENDBRANCH   1   2
BRANCH   1  32
ATOM     32  C   LIG d   1       5.034  -1.423  -7.648  0.00  0.00     0.013 C 
ATOM     33  H   LIG d   1       5.716  -2.076  -8.192  0.00  0.00     0.039 H 
ATOM     34  H   LIG d   1       5.345  -0.386  -7.774  0.00  0.00     0.039 H 
BRANCH  32  35
ATOM     35  C   LIG d   1       3.615  -1.600  -8.191  0.00  0.00     0.012 C 
ATOM     36  H   LIG d   1       2.935  -1.813  -7.367  0.00  0.00     0.036 H 
ATOM     37  C   LIG d   1       3.176  -0.309  -8.892  0.00  0.00    -0.017 C 
ATOM     38  H   LIG d   1       2.148  -0.416  -9.241  0.00  0.00     0.085 H 
ATOM     39  C   LIG d   1       3.257   0.835  -7.877  0.00  0.00    -0.009 C 
ATOM     40  N   LIG d   1       4.083  -0.028 -10.035  0.00  0.00     0.238 N 
ATOM     41  C   LIG d   1       2.870   2.153  -8.549  0.00  0.00    -0.043 C 
ATOM     42  H   LIG d   1       2.575   0.635  -7.051  0.00  0.00     0.032 H 
ATOM     43  H   LIG d   1       4.276   0.909  -7.496  0.00  0.00     0.032 H 
ATOM     44  C   LIG d   1       3.810   2.396  -9.733  0.00  0.00    -0.012 C 
ATOM     45  H   LIG d   1       1.841   2.095  -8.903  0.00  0.00     0.027 H 
ATOM     46  H   LIG d   1       2.964   2.970  -7.832  0.00  0.00     0.027 H 
ATOM     47  C   LIG d   1       3.690   1.223 -10.706  0.00  0.00    -0.032 C 
ATOM     48  H   LIG d   1       3.530   3.321 -10.238  0.00  0.00     0.032 H 
ATOM     49  H   LIG d   1       4.837   2.471  -9.375  0.00  0.00     0.032 H 
ATOM     50  H   LIG d   1       2.662   1.155 -11.064  0.00  0.00     0.081 H 
ATOM     51  H   LIG d   1       4.357   1.386 -11.553  0.00  0.00     0.081 H 
ATOM     52  C   LIG d   1       4.034  -1.132 -11.011  0.00  0.00    -0.032 C 
ATOM     53  H   LIG d   1       5.042   0.067  -9.682  0.00  0.00     0.204 HD
ATOM     54  C   LIG d   1       4.517  -2.426 -10.357  0.00  0.00    -0.012 C 
ATOM     55  H   LIG d   1       4.687  -0.884 -11.848  0.00  0.00     0.081 H 
ATOM     56  H   LIG d   1       3.016  -1.269 -11.376  0.00  0.00     0.081 H 
ATOM     57  C   LIG d   1       3.592  -2.763  -9.184  0.00  0.00    -0.040 C 
ATOM     58  H   LIG d   1       4.492  -3.236 -11.087  0.00  0.00     0.032 H 
ATOM     59  H   LIG d   1       5.537  -2.294  -9.995  0.00  0.00     0.032 H 
ATOM     60  H   LIG d   1       2.576  -2.911  -9.550  0.00  0.00     0.027 H 
ATOM     61  H   LIG d   1       3.940  -3.672  -8.693  0.00  0.00     0.027 H 
ENDBRANCH  32  35
ENDBRANCH   1  32
TORSDOF 13
ENDMDL
MODEL 3
REMARK VINA RESULT:      -5.4      3.423      6.185
REMARK  13 active torsions:
REMARK  status: ('A' for Active; 'I' for Inactive)
REMARK    1  A    between atoms: C_1  and  C_2 
REMARK    2  A    between atoms: C_2  and  C_3 
REMARK    3  A    between atoms: C_3  and  C_4 
REMARK    4  A    between atoms: C_4  and  O_5 
REMARK    5  A    between atoms: O_5  and  P_6 
REMARK    6  A    between atoms: P_6  and  O_8 
REMARK    7  A    between atoms: P_6  and  S_13 
REMARK    8  A    between atoms: O_8  and  C_9 
REMARK    9  A    between atoms: C_9  and  C_10 
REMARK   10  A    between atoms: C_10  and  C_11 
REMARK   11  A    between atoms: C_11  and  C_12 
REMARK   12  A    between atoms: S_13  and  C_14 
REMARK   13  A    between atoms: C_14  and  C_15 
ROOT
ATOM      1  S   LIG d   1       8.275  -0.691  -6.209  0.00  0.00    -0.041 SA
ENDROOT
BRANCH   1   2
ATOM      2  P   LIG d   1       8.499   1.208  -7.125  0.00  0.00     0.391 P 
ATOM      3  O   LIG d   1       9.329   1.073  -8.344  0.00  0.00    -0.246 OA
BRANCH   2   4
ATOM      4  O   LIG d   1       7.050   1.786  -7.525  0.00  0.00    -0.300 OA
BRANCH   4   5
ATOM      5  C   LIG d   1       6.652   2.019  -8.878  0.00  0.00     0.058 C 
ATOM      6  H   LIG d   1       6.641   3.091  -9.073  0.00  0.00     0.057 H 
ATOM      7  H   LIG d   1       7.356   1.532  -9.553  0.00  0.00     0.057 H 
BRANCH   5   8
ATOM      8  C   LIG d   1       5.251   1.445  -9.102  0.00  0.00    -0.029 C 
ATOM      9  H   LIG d   1       5.243   0.851 -10.015  0.00  0.00     0.029 H 
ATOM     10  H   LIG d   1       4.977   0.816  -8.255  0.00  0.00     0.029 H 
BRANCH   8  11
ATOM     11  C   LIG d   1       4.246   2.591  -9.232  0.00  0.00    -0.054 C 
ATOM     12  H   LIG d   1       4.607   3.457  -8.675  0.00  0.00     0.026 H 
ATOM     13  H   LIG d   1       4.133   2.858 -10.283  0.00  0.00     0.026 H 
BRANCH  11  14
ATOM     14  C   LIG d   1       2.893   2.150  -8.670  0.00  0.00    -0.065 C 
ATOM     15  H   LIG d   1       2.536   1.281  -9.223  0.00  0.00     0.023 H 
ATOM     16  H   LIG d   1       3.005   1.889  -7.618  0.00  0.00     0.023 H 
ATOM     17  H   LIG d   1       2.175   2.964  -8.769  0.00  0.00     0.023 H 
ENDBRANCH  11  14
ENDBRANCH   8  11
ENDBRANCH   5   8
ENDBRANCH   4   5
ENDBRANCH   2   4
BRANCH   2  18
ATOM     18  O   LIG d   1       9.215   2.219  -6.098  0.00  0.00    -0.300 OA
BRANCH  18  19
ATOM     19  C   LIG d   1       8.553   2.764  -4.954  0.00  0.00     0.058 C 
ATOM     20  H   LIG d   1       8.783   3.826  -4.873  0.00  0.00     0.057 H 
ATOM     21  H   LIG d   1       7.476   2.633  -5.062  0.00  0.00     0.057 H 
BRANCH  19  22
ATOM     22  C   LIG d   1       9.031   2.039  -3.694  0.00  0.00    -0.029 C 
ATOM     23  H   LIG d   1       8.206   1.958  -2.987  0.00  0.00     0.029 H 
ATOM     24  H   LIG d   1       9.381   1.042  -3.961  0.00  0.00     0.029 H 
BRANCH  22  25
ATOM     25  C   LIG d   1      10.175   2.828  -3.055  0.00  0.00    -0.054 C 
ATOM     26  H   LIG d   1      10.300   2.515  -2.019  0.00  0.00     0.026 H 
ATOM     27  H   LIG d   1      11.098   2.638  -3.605  0.00  0.00     0.026 H 
BRANCH  25  28
ATOM     28  C   LIG d   1       9.853   4.323  -3.102  0.00  0.00    -0.065 C 
ATOM     29  H   LIG d   1       9.827   4.657  -4.139  0.00  0.00     0.023 H 
ATOM     30  H   LIG d   1       8.882   4.500  -2.639  0.00  0.00     0.023 H 
ATOM     31  H   LIG d   1      10.620   4.877  -2.561  0.00  0.00     0.023 H 
ENDBRANCH  25  28
ENDBRANCH  22  25
ENDBRANCH  19  22
ENDBRANCH  18  19
ENDBRANCH   2  18
ENDBRANCH   1   2
BRANCH   1  32
ATOM     32  C   LIG d   1       6.776  -0.518  -5.202  0.00  0.00     0.013 C 
ATOM     33  H   LIG d   1       5.929  -0.951  -5.735  0.00  0.00     0.039 H 
ATOM     34  H   LIG d   1       6.585   0.539  -5.014  0.00  0.00     0.039 H 
BRANCH  32  35
ATOM     35  C   LIG d   1       6.969  -1.247  -3.871  0.00  0.00     0.012 C 
ATOM     36  H   LIG d   1       7.890  -0.905  -3.401  0.00  0.00     0.036 H 
ATOM     37  C   LIG d   1       5.783  -0.943  -2.949  0.00  0.00    -0.017 C 
ATOM     38  H   LIG d   1       5.940  -1.424  -1.984  0.00  0.00     0.085 H 
ATOM     39  C   LIG d   1       5.706   0.575  -2.759  0.00  0.00    -0.009 C 
ATOM     40  N   LIG d   1       4.526  -1.432  -3.574  0.00  0.00     0.238 N 
ATOM     41  C   LIG d   1       4.506   0.928  -1.880  0.00  0.00    -0.043 C 
ATOM     42  H   LIG d   1       6.620   0.928  -2.283  0.00  0.00     0.032 H 
ATOM     43  H   LIG d   1       5.596   1.057  -3.732  0.00  0.00     0.032 H 
ATOM     44  C   LIG d   1       3.235   0.387  -2.543  0.00  0.00    -0.012 C 
ATOM     45  H   LIG d   1       4.627   0.475  -0.897  0.00  0.00     0.027 H 
ATOM     46  H   LIG d   1       4.433   2.012  -1.777  0.00  0.00     0.027 H 
ATOM     47  C   LIG d   1       3.373  -1.126  -2.710  0.00  0.00    -0.032 C 
ATOM     48  H   LIG d   1       2.372   0.609  -1.914  0.00  0.00     0.032 H 
ATOM     49  H   LIG d   1       3.105   0.854  -3.519  0.00  0.00     0.032 H 
ATOM     50  H   LIG d   1       3.498  -1.588  -1.731  0.00  0.00     0.081 H 
ATOM     51  H   LIG d   1       2.473  -1.521  -3.183  0.00  0.00     0.081 H 
ATOM     52  C   LIG d   1       4.595  -2.890  -3.784  0.00  0.00    -0.032 C 
ATOM     53  H   LIG d   1       4.403  -0.966  -4.480  0.00  0.00     0.204 HD
ATOM     54  C   LIG d   1       5.736  -3.224  -4.744  0.00  0.00    -0.012 C 
ATOM     55  H   LIG d   1       3.651  -3.222  -4.216  0.00  0.00     0.081 H 
ATOM     56  H   LIG d   1       4.757  -3.402  -2.836  0.00  0.00     0.081 H 
ATOM     57  C   LIG d   1       7.056  -2.753  -4.125  0.00  0.00    -0.040 C 
ATOM     58  H   LIG d   1       5.773  -4.302  -4.907  0.00  0.00     0.032 H 
ATOM     59  H   LIG d   1       5.574  -2.717  -5.695  0.00  0.00     0.032 H 
ATOM     60  H   LIG d   1       7.225  -3.273  -3.182  0.00  0.00     0.027 H 
ATOM     61  H   LIG d   1       7.877  -2.963  -4.810  0.00  0.00     0.027 H 
ENDBRANCH  32  35
ENDBRANCH   1  32
TORSDOF 13
ENDMDL
MODEL 4
REMARK VINA RESULT:      -5.2      1.579      2.137
REMARK  13 active torsions:
REMARK  status: ('A' for Active; 'I' for Inactive)
REMARK    1  A    between atoms: C_1  and  C_2 
REMARK    2  A    between atoms: C_2  and  C_3 
REMARK    3  A    between atoms: C_3  and  C_4 
REMARK    4  A    between atoms: C_4  and  O_5 
REMARK    5  A    between atoms: O_5  and  P_6 
REMARK    6  A    between atoms: P_6  and  O_8 
REMARK    7  A    between atoms: P_6  and  S_13 
REMARK    8  A    between atoms: O_8  and  C_9 
REMARK    9  A    between atoms: C_9  and  C_10 
REMARK   10  A    between atoms: C_10  and  C_11 
REMARK   11  A    between atoms: C_11  and  C_12 
REMARK   12  A    between atoms: S_13  and  C_14 
REMARK   13  A    between atoms: C_14  and  C_15 
ROOT
ATOM      1  S   LIG d   1       4.672  -3.013  -6.696  0.00  0.00    -0.041 SA
ENDROOT
BRANCH   1   2
ATOM      2  P   LIG d   1       4.666  -2.041  -4.812  0.00  0.00     0.391 P 
ATOM      3  O   LIG d   1       4.330  -3.019  -3.753  0.00  0.00    -0.246 OA
BRANCH   2   4
ATOM      4  O   LIG d   1       6.123  -1.418  -4.525  0.00  0.00    -0.300 OA
BRANCH   4   5
ATOM      5  C   LIG d   1       7.037  -1.982  -3.582  0.00  0.00     0.058 C 
ATOM      6  H   LIG d   1       7.362  -1.210  -2.885  0.00  0.00     0.057 H 
ATOM      7  H   LIG d   1       6.545  -2.785  -3.033  0.00  0.00     0.057 H 
BRANCH   5   8
ATOM      8  C   LIG d   1       8.252  -2.543  -4.325  0.00  0.00    -0.029 C 
ATOM      9  H   LIG d   1       8.123  -2.395  -5.397  0.00  0.00     0.029 H 
ATOM     10  H   LIG d   1       9.152  -2.026  -3.992  0.00  0.00     0.029 H 
BRANCH   8  11
ATOM     11  C   LIG d   1       8.385  -4.039  -4.030  0.00  0.00    -0.054 C 
ATOM     12  H   LIG d   1       9.440  -4.314  -4.014  0.00  0.00     0.026 H 
ATOM     13  H   LIG d   1       7.938  -4.259  -3.061  0.00  0.00     0.026 H 
BRANCH  11  14
ATOM     14  C   LIG d   1       7.665  -4.839  -5.118  0.00  0.00    -0.065 C 
ATOM     15  H   LIG d   1       6.746  -4.324  -5.399  0.00  0.00     0.023 H 
ATOM     16  H   LIG d   1       8.312  -4.928  -5.990  0.00  0.00     0.023 H 
ATOM     17  H   LIG d   1       7.425  -5.832  -4.739  0.00  0.00     0.023 H 
ENDBRANCH  11  14
ENDBRANCH   8  11
ENDBRANCH   5   8
ENDBRANCH   4   5
ENDBRANCH   2   4
BRANCH   2  18
ATOM     18  O   LIG d   1       3.570  -0.862  -4.820  0.00  0.00    -0.300 OA
BRANCH  18  19
ATOM     19  C   LIG d   1       2.936  -0.381  -3.632  0.00  0.00     0.058 C 
ATOM     20  H   LIG d   1       1.864  -0.562  -3.695  0.00  0.00     0.057 H 
ATOM     21  H   LIG d   1       3.344  -0.904  -2.767  0.00  0.00     0.057 H 
BRANCH  19  22
ATOM     22  C   LIG d   1       3.194   1.120  -3.488  0.00  0.00    -0.029 C 
ATOM     23  H   LIG d   1       3.308   1.566  -4.476  0.00  0.00     0.029 H 
ATOM     24  H   LIG d   1       2.352   1.585  -2.975  0.00  0.00     0.029 H 
BRANCH  22  25
ATOM     25  C   LIG d   1       4.472   1.343  -2.678  0.00  0.00    -0.054 C 
ATOM     26  H   LIG d   1       5.336   1.307  -3.342  0.00  0.00     0.026 H 
ATOM     27  H   LIG d   1       4.429   2.319  -2.192  0.00  0.00     0.026 H 
BRANCH  25  28
ATOM     28  C   LIG d   1       4.598   0.249  -1.615  0.00  0.00    -0.065 C 
ATOM     29  H   LIG d   1       5.410   0.498  -0.932  0.00  0.00     0.023 H 
ATOM     30  H   LIG d   1       3.665   0.175  -1.058  0.00  0.00     0.023 H 
ATOM     31  H   LIG d   1       4.810  -0.705  -2.099  0.00  0.00     0.023 H 
ENDBRANCH  25  28
ENDBRANCH  22  25
ENDBRANCH  19  22
ENDBRANCH  18  19
ENDBRANCH   2  18
ENDBRANCH   1   2
BRANCH   1  32
ATOM     32  C   LIG d   1       4.620  -1.650  -7.893  0.00  0.00     0.013 C 
ATOM     33  H   LIG d   1       5.384  -1.807  -8.654  0.00  0.00     0.039 H 
ATOM     34  H   LIG d   1       4.806  -0.708  -7.378  0.00  0.00     0.039 H 
BRANCH  32  35
ATOM     35  C   LIG d   1       3.241  -1.606  -8.555  0.00  0.00     0.012 C 
ATOM     36  H   LIG d   1       2.478  -1.859  -7.820  0.00  0.00     0.036 H 
ATOM     37  C   LIG d   1       2.982  -0.195  -9.093  0.00  0.00    -0.017 C 
ATOM     38  H   LIG d   1       1.982  -0.148  -9.524  0.00  0.00     0.085 H 
ATOM     39  C   LIG d   1       3.081   0.786  -7.921  0.00  0.00    -0.009 C 
ATOM     40  N   LIG d   1       4.004   0.145 -10.117  0.00  0.00     0.238 N 
ATOM     41  C   LIG d   1       2.874   2.217  -8.422  0.00  0.00    -0.043 C 
ATOM     42  H   LIG d   1       2.317   0.547  -7.182  0.00  0.00     0.032 H 
ATOM     43  H   LIG d   1       4.067   0.704  -7.462  0.00  0.00     0.032 H 
ATOM     44  C   LIG d   1       3.928   2.520  -9.490  0.00  0.00    -0.012 C 
ATOM     45  H   LIG d   1       1.877   2.312  -8.853  0.00  0.00     0.027 H 
ATOM     46  H   LIG d   1       2.981   2.914  -7.591  0.00  0.00     0.027 H 
ATOM     47  C   LIG d   1       3.784   1.509 -10.627  0.00  0.00    -0.032 C 
ATOM     48  H   LIG d   1       3.777   3.529  -9.876  0.00  0.00     0.032 H 
ATOM     49  H   LIG d   1       4.924   2.442  -9.054  0.00  0.00     0.032 H 
ATOM     50  H   LIG d   1       2.788   1.595 -11.063  0.00  0.00     0.081 H 
ATOM     51  H   LIG d   1       4.532   1.716 -11.393  0.00  0.00     0.081 H 
ATOM     52  C   LIG d   1       3.937  -0.805 -11.242  0.00  0.00    -0.032 C 
ATOM     53  H   LIG d   1       4.935   0.093  -9.687  0.00  0.00     0.204 HD
ATOM     54  C   LIG d   1       4.244  -2.219 -10.748  0.00  0.00    -0.012 C 
ATOM     55  H   LIG d   1       4.678  -0.514 -11.986  0.00  0.00     0.081 H 
ATOM     56  H   LIG d   1       2.945  -0.787 -11.693  0.00  0.00     0.081 H 
ATOM     57  C   LIG d   1       3.196  -2.616  -9.703  0.00  0.00    -0.040 C 
ATOM     58  H   LIG d   1       4.206  -2.915 -11.586  0.00  0.00     0.032 H 
ATOM     59  H   LIG d   1       5.237  -2.241 -10.300  0.00  0.00     0.032 H 
ATOM     60  H   LIG d   1       2.205  -2.609 -10.157  0.00  0.00     0.027 H 
ATOM     61  H   LIG d   1       3.417  -3.614  -9.324  0.00  0.00     0.027 H 
ENDBRANCH  32  35
ENDBRANCH   1  32
TORSDOF 13
ENDMDL
MODEL 5
REMARK VINA RESULT:      -5.2      2.602      6.389
REMARK  13 active torsions:
REMARK  status: ('A' for Active; 'I' for Inactive)
REMARK    1  A    between atoms: C_1  and  C_2 
REMARK    2  A    between atoms: C_2  and  C_3 
REMARK    3  A    between atoms: C_3  and  C_4 
REMARK    4  A    between atoms: C_4  and  O_5 
REMARK    5  A    between atoms: O_5  and  P_6 
REMARK    6  A    between atoms: P_6  and  O_8 
REMARK    7  A    between atoms: P_6  and  S_13 
REMARK    8  A    between atoms: O_8  and  C_9 
REMARK    9  A    between atoms: C_9  and  C_10 
REMARK   10  A    between atoms: C_10  and  C_11 
REMARK   11  A    between atoms: C_11  and  C_12 
REMARK   12  A    between atoms: S_13  and  C_14 
REMARK   13  A    between atoms: C_14  and  C_15 
ROOT
ATOM      1  S   LIG d   1       6.708  -0.845  -7.427  0.00  0.00    -0.041 SA
ENDROOT
BRANCH   1   2
ATOM      2  P   LIG d   1       4.707  -0.789  -6.732  0.00  0.00     0.391 P 
ATOM      3  O   LIG d   1       3.935  -1.885  -7.359  0.00  0.00    -0.246 OA
BRANCH   2   4
ATOM      4  O   LIG d   1       4.689  -0.968  -5.132  0.00  0.00    -0.300 OA
BRANCH   4   5
ATOM      5  C   LIG d   1       3.733  -0.322  -4.287  0.00  0.00     0.058 C 
ATOM      6  H   LIG d   1       4.148   0.618  -3.923  0.00  0.00     0.057 H 
ATOM      7  H   LIG d   1       2.823  -0.123  -4.853  0.00  0.00     0.057 H 
BRANCH   5   8
ATOM      8  C   LIG d   1       3.407  -1.230  -3.099  0.00  0.00    -0.029 C 
ATOM      9  H   LIG d   1       2.383  -1.050  -2.775  0.00  0.00     0.029 H 
ATOM     10  H   LIG d   1       3.517  -2.272  -3.399  0.00  0.00     0.029 H 
BRANCH   8  11
ATOM     11  C   LIG d   1       4.367  -0.927  -1.947  0.00  0.00    -0.054 C 
ATOM     12  H   LIG d   1       3.996  -1.393  -1.033  0.00  0.00     0.026 H 
ATOM     13  H   LIG d   1       5.354  -1.325  -2.181  0.00  0.00     0.026 H 
BRANCH  11  14
ATOM     14  C   LIG d   1       4.461   0.587  -1.746  0.00  0.00    -0.065 C 
ATOM     15  H   LIG d   1       3.501   0.967  -1.396  0.00  0.00     0.023 H 
ATOM     16  H   LIG d   1       5.231   0.808  -1.007  0.00  0.00     0.023 H 
ATOM     17  H   LIG d   1       4.717   1.064  -2.693  0.00  0.00     0.023 H 
ENDBRANCH  11  14
ENDBRANCH   8  11
ENDBRANCH   5   8
ENDBRANCH   4   5
ENDBRANCH   2   4
BRANCH   2  18
ATOM     18  O   LIG d   1       4.043   0.625  -7.120  0.00  0.00    -0.300 OA
BRANCH  18  19
ATOM     19  C   LIG d   1       2.946   0.747  -8.030  0.00  0.00     0.058 C 
ATOM     20  H   LIG d   1       3.116   0.102  -8.891  0.00  0.00     0.057 H 
ATOM     21  H   LIG d   1       2.025   0.449  -7.527  0.00  0.00     0.057 H 
BRANCH  19  22
ATOM     22  C   LIG d   1       2.828   2.199  -8.495  0.00  0.00    -0.029 C 
ATOM     23  H   LIG d   1       1.856   2.353  -8.962  0.00  0.00     0.029 H 
ATOM     24  H   LIG d   1       2.928   2.864  -7.636  0.00  0.00     0.029 H 
BRANCH  22  25
ATOM     25  C   LIG d   1       3.934   2.503  -9.507  0.00  0.00    -0.054 C 
ATOM     26  H   LIG d   1       3.779   3.495  -9.929  0.00  0.00     0.026 H 
ATOM     27  H   LIG d   1       4.903   2.469  -9.006  0.00  0.00     0.026 H 
BRANCH  25  28
ATOM     28  C   LIG d   1       3.902   1.460 -10.626  0.00  0.00    -0.065 C 
ATOM     29  H   LIG d   1       2.913   1.004 -10.669  0.00  0.00     0.023 H 
ATOM     30  H   LIG d   1       4.121   1.943 -11.578  0.00  0.00     0.023 H 
ATOM     31  H   LIG d   1       4.648   0.691 -10.428  0.00  0.00     0.023 H 
ENDBRANCH  25  28
ENDBRANCH  22  25
ENDBRANCH  19  22
ENDBRANCH  18  19
ENDBRANCH   2  18
ENDBRANCH   1   2
BRANCH   1  32
ATOM     32  C   LIG d   1       7.423   0.713  -6.833  0.00  0.00     0.013 C 
ATOM     33  H   LIG d   1       6.689   1.240  -6.225  0.00  0.00     0.039 H 
ATOM     34  H   LIG d   1       7.703   1.332  -7.685  0.00  0.00     0.039 H 
BRANCH  32  35
ATOM     35  C   LIG d   1       8.665   0.414  -5.991  0.00  0.00     0.012 C 
ATOM     36  H   LIG d   1       9.271  -0.339  -6.492  0.00  0.00     0.036 H 
ATOM     37  C   LIG d   1       9.484   1.699  -5.822  0.00  0.00    -0.017 C 
ATOM     38  H   LIG d   1      10.393   1.480  -5.261  0.00  0.00     0.085 H 
ATOM     39  C   LIG d   1       9.855   2.212  -7.217  0.00  0.00    -0.009 C 
ATOM     40  N   LIG d   1       8.671   2.721  -5.113  0.00  0.00     0.238 N 
ATOM     41  C   LIG d   1      10.637   3.521  -7.098  0.00  0.00    -0.043 C 
ATOM     42  H   LIG d   1      10.468   1.469  -7.725  0.00  0.00     0.032 H 
ATOM     43  H   LIG d   1       8.944   2.386  -7.792  0.00  0.00     0.032 H 
ATOM     44  C   LIG d   1       9.777   4.539  -6.343  0.00  0.00    -0.012 C 
ATOM     45  H   LIG d   1      11.562   3.345  -6.551  0.00  0.00     0.027 H 
ATOM     46  H   LIG d   1      10.867   3.902  -8.094  0.00  0.00     0.027 H 
ATOM     47  C   LIG d   1       9.436   3.971  -4.965  0.00  0.00    -0.032 C 
ATOM     48  H   LIG d   1      10.332   5.471  -6.227  0.00  0.00     0.032 H 
ATOM     49  H   LIG d   1       8.859   4.728  -6.899  0.00  0.00     0.032 H 
ATOM     50  H   LIG d   1      10.357   3.789  -4.411  0.00  0.00     0.081 H 
ATOM     51  H   LIG d   1       8.823   4.689  -4.419  0.00  0.00     0.081 H 
ATOM     52  C   LIG d   1       8.287   2.232  -3.777  0.00  0.00    -0.032 C 
ATOM     53  H   LIG d   1       7.823   2.908  -5.660  0.00  0.00     0.204 HD
ATOM     54  C   LIG d   1       7.422   0.979  -3.910  0.00  0.00    -0.012 C 
ATOM     55  H   LIG d   1       7.717   3.012  -3.273  0.00  0.00     0.081 H 
ATOM     56  H   LIG d   1       9.175   1.997  -3.190  0.00  0.00     0.081 H 
ATOM     57  C   LIG d   1       8.234  -0.110  -4.619  0.00  0.00    -0.040 C 
ATOM     58  H   LIG d   1       7.129   0.629  -2.919  0.00  0.00     0.032 H 
ATOM     59  H   LIG d   1       6.531   1.211  -4.493  0.00  0.00     0.032 H 
ATOM     60  H   LIG d   1       9.117  -0.352  -4.027  0.00  0.00     0.027 H 
ATOM     61  H   LIG d   1       7.620  -1.002  -4.743  0.00  0.00     0.027 H 
ENDBRANCH  32  35
ENDBRANCH   1  32
TORSDOF 13
ENDMDL
MODEL 6
REMARK VINA RESULT:      -5.1      3.002      5.783
REMARK  13 active torsions:
REMARK  status: ('A' for Active; 'I' for Inactive)
REMARK    1  A    between atoms: C_1  and  C_2 
REMARK    2  A    between atoms: C_2  and  C_3 
REMARK    3  A    between atoms: C_3  and  C_4 
REMARK    4  A    between atoms: C_4  and  O_5 
REMARK    5  A    between atoms: O_5  and  P_6 
REMARK    6  A    between atoms: P_6  and  O_8 
REMARK    7  A    between atoms: P_6  and  S_13 
REMARK    8  A    between atoms: O_8  and  C_9 
REMARK    9  A    between atoms: C_9  and  C_10 
REMARK   10  A    between atoms: C_10  and  C_11 
REMARK   11  A    between atoms: C_11  and  C_12 
REMARK   12  A    between atoms: S_13  and  C_14 
REMARK   13  A    between atoms: C_14  and  C_15 
ROOT
ATOM      1  S   LIG d   1       6.459  -0.872  -7.968  0.00  0.00    -0.041 SA
ENDROOT
BRANCH   1   2
ATOM      2  P   LIG d   1       7.145   1.010  -8.664  0.00  0.00     0.391 P 
ATOM      3  O   LIG d   1       8.417   0.831  -9.399  0.00  0.00    -0.246 OA
BRANCH   2   4
ATOM      4  O   LIG d   1       6.043   1.652  -9.647  0.00  0.00    -0.300 OA
BRANCH   4   5
ATOM      5  C   LIG d   1       4.965   2.467  -9.182  0.00  0.00     0.058 C 
ATOM      6  H   LIG d   1       4.776   2.252  -8.130  0.00  0.00     0.057 H 
ATOM      7  H   LIG d   1       5.227   3.518  -9.297  0.00  0.00     0.057 H 
BRANCH   5   8
ATOM      8  C   LIG d   1       3.707   2.162  -9.999  0.00  0.00    -0.029 C 
ATOM      9  H   LIG d   1       2.899   1.871  -9.328  0.00  0.00     0.029 H 
ATOM     10  H   LIG d   1       3.414   3.051 -10.559  0.00  0.00     0.029 H 
BRANCH   8  11
ATOM     11  C   LIG d   1       3.997   1.019 -10.973  0.00  0.00    -0.054 C 
ATOM     12  H   LIG d   1       3.936   1.390 -11.998  0.00  0.00     0.026 H 
ATOM     13  H   LIG d   1       4.997   0.628 -10.788  0.00  0.00     0.026 H 
BRANCH  11  14
ATOM     14  C   LIG d   1       2.968  -0.096 -10.772  0.00  0.00    -0.065 C 
ATOM     15  H   LIG d   1       2.757  -0.572 -11.730  0.00  0.00     0.023 H 
ATOM     16  H   LIG d   1       3.366  -0.836 -10.078  0.00  0.00     0.023 H 
ATOM     17  H   LIG d   1       2.049   0.327 -10.367  0.00  0.00     0.023 H 
ENDBRANCH  11  14
ENDBRANCH   8  11
ENDBRANCH   5   8
ENDBRANCH   4   5
ENDBRANCH   2   4
BRANCH   2  18
ATOM     18  O   LIG d   1       7.382   1.992  -7.411  0.00  0.00    -0.300 OA
BRANCH  18  19
ATOM     19  C   LIG d   1       8.626   2.074  -6.711  0.00  0.00     0.058 C 
ATOM     20  H   LIG d   1       9.207   1.171  -6.896  0.00  0.00     0.057 H 
ATOM     21  H   LIG d   1       9.183   2.943  -7.063  0.00  0.00     0.057 H 
BRANCH  19  22
ATOM     22  C   LIG d   1       8.359   2.212  -5.211  0.00  0.00    -0.029 C 
ATOM     23  H   LIG d   1       7.285   2.253  -5.035  0.00  0.00     0.029 H 
ATOM     24  H   LIG d   1       8.782   1.354  -4.687  0.00  0.00     0.029 H 
BRANCH  22  25
ATOM     25  C   LIG d   1       9.010   3.496  -4.694  0.00  0.00    -0.054 C 
ATOM     26  H   LIG d   1       9.803   3.803  -5.376  0.00  0.00     0.026 H 
ATOM     27  H   LIG d   1       8.259   4.285  -4.632  0.00  0.00     0.026 H 
BRANCH  25  28
ATOM     28  C   LIG d   1       9.601   3.245  -3.305  0.00  0.00    -0.065 C 
ATOM     29  H   LIG d   1       9.108   3.890  -2.578  0.00  0.00     0.023 H 
ATOM     30  H   LIG d   1       9.447   2.202  -3.028  0.00  0.00     0.023 H 
ATOM     31  H   LIG d   1      10.669   3.464  -3.319  0.00  0.00     0.023 H 
ENDBRANCH  25  28
ENDBRANCH  22  25
ENDBRANCH  19  22
ENDBRANCH  18  19
ENDBRANCH   2  18
ENDBRANCH   1   2
BRANCH   1  32
ATOM     32  C   LIG d   1       5.803  -0.515  -6.315  0.00  0.00     0.013 C 
ATOM     33  H   LIG d   1       5.505   0.531  -6.261  0.00  0.00     0.039 H 
ATOM     34  H   LIG d   1       6.572  -0.714  -5.568  0.00  0.00     0.039 H 
BRANCH  32  35
ATOM     35  C   LIG d   1       4.589  -1.406  -6.046  0.00  0.00     0.012 C 
ATOM     36  H   LIG d   1       4.870  -2.451  -6.173  0.00  0.00     0.036 H 
ATOM     37  C   LIG d   1       4.101  -1.181  -4.611  0.00  0.00    -0.017 C 
ATOM     38  H   LIG d   1       3.265  -1.847  -4.401  0.00  0.00     0.085 H 
ATOM     39  C   LIG d   1       5.260  -1.498  -3.660  0.00  0.00    -0.009 C 
ATOM     40  N   LIG d   1       3.690   0.237  -4.440  0.00  0.00     0.238 N 
ATOM     41  C   LIG d   1       4.831  -1.242  -2.215  0.00  0.00    -0.043 C 
ATOM     42  H   LIG d   1       5.545  -2.544  -3.773  0.00  0.00     0.032 H 
ATOM     43  H   LIG d   1       6.112  -0.862  -3.903  0.00  0.00     0.032 H 
ATOM     44  C   LIG d   1       4.392   0.220  -2.085  0.00  0.00    -0.012 C 
ATOM     45  H   LIG d   1       4.000  -1.898  -1.958  0.00  0.00     0.027 H 
ATOM     46  H   LIG d   1       5.670  -1.435  -1.545  0.00  0.00     0.027 H 
ATOM     47  C   LIG d   1       3.241   0.477  -3.057  0.00  0.00    -0.032 C 
ATOM     48  H   LIG d   1       4.058   0.411  -1.064  0.00  0.00     0.032 H 
ATOM     49  H   LIG d   1       5.229   0.876  -2.325  0.00  0.00     0.032 H 
ATOM     50  H   LIG d   1       2.406  -0.178  -2.810  0.00  0.00     0.081 H 
ATOM     51  H   LIG d   1       2.922   1.517  -2.973  0.00  0.00     0.081 H 
ATOM     52  C   LIG d   1       2.590   0.565  -5.365  0.00  0.00    -0.032 C 
ATOM     53  H   LIG d   1       4.493   0.843  -4.643  0.00  0.00     0.204 HD
ATOM     54  C   LIG d   1       3.059   0.402  -6.810  0.00  0.00    -0.012 C 
ATOM     55  H   LIG d   1       2.293   1.600  -5.197  0.00  0.00     0.081 H 
ATOM     56  H   LIG d   1       1.737  -0.089  -5.186  0.00  0.00     0.081 H 
ATOM     57  C   LIG d   1       3.473  -1.056  -7.034  0.00  0.00    -0.040 C 
ATOM     58  H   LIG d   1       2.246   0.659  -7.490  0.00  0.00     0.032 H 
ATOM     59  H   LIG d   1       3.910   1.058  -6.995  0.00  0.00     0.032 H 
ATOM     60  H   LIG d   1       2.618  -1.710  -6.865  0.00  0.00     0.027 H 
ATOM     61  H   LIG d   1       3.834  -1.182  -8.054  0.00  0.00     0.027 H 
ENDBRANCH  32  35
ENDBRANCH   1  32
TORSDOF 13
ENDMDL
MODEL 7
REMARK VINA RESULT:      -5.0      1.650      1.900
REMARK  13 active torsions:
REMARK  status: ('A' for Active; 'I' for Inactive)
REMARK    1  A    between atoms: C_1  and  C_2 
REMARK    2  A    between atoms: C_2  and  C_3 
REMARK    3  A    between atoms: C_3  and  C_4 
REMARK    4  A    between atoms: C_4  and  O_5 
REMARK    5  A    between atoms: O_5  and  P_6 
REMARK    6  A    between atoms: P_6  and  O_8 
REMARK    7  A    between atoms: P_6  and  S_13 
REMARK    8  A    between atoms: O_8  and  C_9 
REMARK    9  A    between atoms: C_9  and  C_10 
REMARK   10  A    between atoms: C_10  and  C_11 
REMARK   11  A    between atoms: C_11  and  C_12 
REMARK   12  A    between atoms: S_13  and  C_14 
REMARK   13  A    between atoms: C_14  and  C_15 
ROOT
ATOM      1  S   LIG d   1       5.749  -2.482  -6.279  0.00  0.00    -0.041 SA
ENDROOT
BRANCH   1   2
ATOM      2  P   LIG d   1       6.747  -1.530  -4.669  0.00  0.00     0.391 P 
ATOM      3  O   LIG d   1       8.137  -2.032  -4.584  0.00  0.00    -0.246 OA
BRANCH   2   4
ATOM      4  O   LIG d   1       6.766   0.061  -4.914  0.00  0.00    -0.300 OA
BRANCH   4   5
ATOM      5  C   LIG d   1       7.275   0.990  -3.955  0.00  0.00     0.058 C 
ATOM      6  H   LIG d   1       6.607   1.848  -3.891  0.00  0.00     0.057 H 
ATOM      7  H   LIG d   1       7.341   0.506  -2.980  0.00  0.00     0.057 H 
BRANCH   5   8
ATOM      8  C   LIG d   1       8.666   1.458  -4.388  0.00  0.00    -0.029 C 
ATOM      9  H   LIG d   1       9.392   0.669  -4.192  0.00  0.00     0.029 H 
ATOM     10  H   LIG d   1       8.657   1.688  -5.453  0.00  0.00     0.029 H 
BRANCH   8  11
ATOM     11  C   LIG d   1       9.051   2.712  -3.599  0.00  0.00    -0.054 C 
ATOM     12  H   LIG d   1       8.963   3.587  -4.244  0.00  0.00     0.026 H 
ATOM     13  H   LIG d   1       8.384   2.822  -2.745  0.00  0.00     0.026 H 
BRANCH  11  14
ATOM     14  C   LIG d   1      10.494   2.582  -3.108  0.00  0.00    -0.065 C 
ATOM     15  H   LIG d   1      10.509   2.590  -2.018  0.00  0.00     0.023 H 
ATOM     16  H   LIG d   1      10.919   1.646  -3.470  0.00  0.00     0.023 H 
ATOM     17  H   LIG d   1      11.083   3.419  -3.485  0.00  0.00     0.023 H 
ENDBRANCH  11  14
ENDBRANCH   8  11
ENDBRANCH   5   8
ENDBRANCH   4   5
ENDBRANCH   2   4
BRANCH   2  18
ATOM     18  O   LIG d   1       5.976  -1.852  -3.294  0.00  0.00    -0.300 OA
BRANCH  18  19
ATOM     19  C   LIG d   1       4.605  -2.253  -3.245  0.00  0.00     0.058 C 
ATOM     20  H   LIG d   1       4.123  -2.018  -4.194  0.00  0.00     0.057 H 
ATOM     21  H   LIG d   1       4.549  -3.328  -3.065  0.00  0.00     0.057 H 
BRANCH  19  22
ATOM     22  C   LIG d   1       3.895  -1.509  -2.113  0.00  0.00    -0.029 C 
ATOM     23  H   LIG d   1       2.939  -1.990  -1.905  0.00  0.00     0.029 H 
ATOM     24  H   LIG d   1       4.516  -1.533  -1.217  0.00  0.00     0.029 H 
BRANCH  22  25
ATOM     25  C   LIG d   1       3.656  -0.056  -2.528  0.00  0.00    -0.054 C 
ATOM     26  H   LIG d   1       3.925   0.072  -3.577  0.00  0.00     0.026 H 
ATOM     27  H   LIG d   1       2.603   0.192  -2.392  0.00  0.00     0.026 H 
BRANCH  25  28
ATOM     28  C   LIG d   1       4.515   0.869  -1.664  0.00  0.00    -0.065 C 
ATOM     29  H   LIG d   1       5.319   1.288  -2.268  0.00  0.00     0.023 H 
ATOM     30  H   LIG d   1       3.897   1.676  -1.271  0.00  0.00     0.023 H 
ATOM     31  H   LIG d   1       4.941   0.301  -0.837  0.00  0.00     0.023 H 
ENDBRANCH  25  28
ENDBRANCH  22  25
ENDBRANCH  19  22
ENDBRANCH  18  19
ENDBRANCH   2  18
ENDBRANCH   1   2
BRANCH   1  32
ATOM     32  C   LIG d   1       5.171  -1.106  -7.312  0.00  0.00     0.013 C 
ATOM     33  H   LIG d   1       5.912  -0.895  -8.082  0.00  0.00     0.039 H 
ATOM     34  H   LIG d   1       5.028  -0.222  -6.691  0.00  0.00     0.039 H 
BRANCH  32  35
ATOM     35  C   LIG d   1       3.844  -1.487  -7.971  0.00  0.00     0.012 C 
ATOM     36  H   LIG d   1       3.112  -1.730  -7.201  0.00  0.00     0.036 H 
ATOM     37  C   LIG d   1       3.334  -0.306  -8.805  0.00  0.00    -0.017 C 
ATOM     38  H   LIG d   1       2.367  -0.558  -9.239  0.00  0.00     0.085 H 
ATOM     39  C   LIG d   1       3.180   0.901  -7.874  0.00  0.00    -0.009 C 
ATOM     40  N   LIG d   1       4.316   0.010  -9.875  0.00  0.00     0.238 N 
ATOM     41  C   LIG d   1       2.716   2.118  -8.675  0.00  0.00    -0.043 C 
ATOM     42  H   LIG d   1       2.445   0.672  -7.104  0.00  0.00     0.032 H 
ATOM     43  H   LIG d   1       4.140   1.121  -7.405  0.00  0.00     0.032 H 
ATOM     44  C   LIG d   1       3.738   2.398  -9.781  0.00  0.00    -0.012 C 
ATOM     45  H   LIG d   1       1.742   1.913  -9.120  0.00  0.00     0.027 H 
ATOM     46  H   LIG d   1       2.642   2.983  -8.016  0.00  0.00     0.027 H 
ATOM     47  C   LIG d   1       3.853   1.160 -10.671  0.00  0.00    -0.032 C 
ATOM     48  H   LIG d   1       3.408   3.248 -10.378  0.00  0.00     0.032 H 
ATOM     49  H   LIG d   1       4.708   2.619  -9.335  0.00  0.00     0.032 H 
ATOM     50  H   LIG d   1       2.881   0.946 -11.118  0.00  0.00     0.081 H 
ATOM     51  H   LIG d   1       4.580   1.349 -11.461  0.00  0.00     0.081 H 
ATOM     52  C   LIG d   1       4.493  -1.151 -10.766  0.00  0.00    -0.032 C 
ATOM     53  H   LIG d   1       5.217   0.242  -9.441  0.00  0.00     0.204 HD
ATOM     54  C   LIG d   1       5.052  -2.333  -9.975  0.00  0.00    -0.012 C 
ATOM     55  H   LIG d   1       5.195  -0.878 -11.554  0.00  0.00     0.081 H 
ATOM     56  H   LIG d   1       3.540  -1.433 -11.214  0.00  0.00     0.081 H 
ATOM     57  C   LIG d   1       4.056  -2.705  -8.872  0.00  0.00    -0.040 C 
ATOM     58  H   LIG d   1       5.194  -3.185 -10.642  0.00  0.00     0.032 H 
ATOM     59  H   LIG d   1       6.007  -2.056  -9.530  0.00  0.00     0.032 H 
ATOM     60  H   LIG d   1       3.106  -2.998  -9.320  0.00  0.00     0.027 H 
ATOM     61  H   LIG d   1       4.454  -3.533  -8.285  0.00  0.00     0.027 H 
ENDBRANCH  32  35
ENDBRANCH   1  32
TORSDOF 13
ENDMDL
MODEL 8
REMARK VINA RESULT:      -5.0      4.185      6.852
REMARK  13 active torsions:
REMARK  status: ('A' for Active; 'I' for Inactive)
REMARK    1  A    between atoms: C_1  and  C_2 
REMARK    2  A    between atoms: C_2  and  C_3 
REMARK    3  A    between atoms: C_3  and  C_4 
REMARK    4  A    between atoms: C_4  and  O_5 
REMARK    5  A    between atoms: O_5  and  P_6 
REMARK    6  A    between atoms: P_6  and  O_8 
REMARK    7  A    between atoms: P_6  and  S_13 
REMARK    8  A    between atoms: O_8  and  C_9 
REMARK    9  A    between atoms: C_9  and  C_10 
REMARK   10  A    between atoms: C_10  and  C_11 
REMARK   11  A    between atoms: C_11  and  C_12 
REMARK   12  A    between atoms: S_13  and  C_14 
REMARK   13  A    between atoms: C_14  and  C_15 
ROOT
ATOM      1  S   LIG d   1       6.018  -4.516  -5.388  0.00  0.00    -0.041 SA
ENDROOT
BRANCH   1   2
ATOM      2  P   LIG d   1       4.939  -6.090  -6.311  0.00  0.00     0.391 P 
ATOM      3  O   LIG d   1       5.780  -6.720  -7.354  0.00  0.00    -0.246 OA
BRANCH   2   4
ATOM      4  O   LIG d   1       4.544  -7.192  -5.205  0.00  0.00    -0.300 OA
BRANCH   4   5
ATOM      5  C   LIG d   1       4.773  -8.591  -5.383  0.00  0.00     0.058 C 
ATOM      6  H   LIG d   1       3.835  -9.131  -5.257  0.00  0.00     0.057 H 
ATOM      7  H   LIG d   1       5.165  -8.770  -6.385  0.00  0.00     0.057 H 
BRANCH   5   8
ATOM      8  C   LIG d   1       5.786  -9.077  -4.345  0.00  0.00    -0.029 C 
ATOM      9  H   LIG d   1       6.698  -9.397  -4.848  0.00  0.00     0.029 H 
ATOM     10  H   LIG d   1       6.016  -8.266  -3.654  0.00  0.00     0.029 H 
BRANCH   8  11
ATOM     11  C   LIG d   1       5.194 -10.256  -3.568  0.00  0.00    -0.054 C 
ATOM     12  H   LIG d   1       5.317 -11.172  -4.148  0.00  0.00     0.026 H 
ATOM     13  H   LIG d   1       5.711 -10.359  -2.614  0.00  0.00     0.026 H 
BRANCH  11  14
ATOM     14  C   LIG d   1       3.706 -10.005  -3.317  0.00  0.00    -0.065 C 
ATOM     15  H   LIG d   1       3.229 -10.935  -3.005  0.00  0.00     0.023 H 
ATOM     16  H   LIG d   1       3.590  -9.257  -2.534  0.00  0.00     0.023 H 
ATOM     17  H   LIG d   1       3.238  -9.648  -4.235  0.00  0.00     0.023 H 
ENDBRANCH  11  14
ENDBRANCH   8  11
ENDBRANCH   5   8
ENDBRANCH   4   5
ENDBRANCH   2   4
BRANCH   2  18
ATOM     18  O   LIG d   1       3.601  -5.502  -6.984  0.00  0.00    -0.300 OA
BRANCH  18  19
ATOM     19  C   LIG d   1       3.475  -5.262  -8.388  0.00  0.00     0.058 C 
ATOM     20  H   LIG d   1       4.316  -5.717  -8.910  0.00  0.00     0.057 H 
ATOM     21  H   LIG d   1       2.543  -5.699  -8.747  0.00  0.00     0.057 H 
BRANCH  19  22
ATOM     22  C   LIG d   1       3.467  -3.755  -8.649  0.00  0.00    -0.029 C 
ATOM     23  H   LIG d   1       3.109  -3.234  -7.762  0.00  0.00     0.029 H 
ATOM     24  H   LIG d   1       4.478  -3.422  -8.884  0.00  0.00     0.029 H 
BRANCH  22  25
ATOM     25  C   LIG d   1       2.543  -3.447  -9.829  0.00  0.00    -0.054 C 
ATOM     26  H   LIG d   1       3.063  -3.657 -10.764  0.00  0.00     0.026 H 
ATOM     27  H   LIG d   1       1.650  -4.071  -9.763  0.00  0.00     0.026 H 
BRANCH  25  28
ATOM     28  C   LIG d   1       2.139  -1.972  -9.789  0.00  0.00    -0.065 C 
ATOM     29  H   LIG d   1       3.032  -1.350  -9.833  0.00  0.00     0.023 H 
ATOM     30  H   LIG d   1       1.498  -1.748 -10.642  0.00  0.00     0.023 H 
ATOM     31  H   LIG d   1       1.598  -1.768  -8.865  0.00  0.00     0.023 H 
ENDBRANCH  25  28
ENDBRANCH  22  25
ENDBRANCH  19  22
ENDBRANCH  18  19
ENDBRANCH   2  18
ENDBRANCH   1   2
BRANCH   1  32
ATOM     32  C   LIG d   1       4.729  -3.362  -4.842  0.00  0.00     0.013 C 
ATOM     33  H   LIG d   1       4.151  -3.819  -4.039  0.00  0.00     0.039 H 
ATOM     34  H   LIG d   1       4.071  -3.131  -5.679  0.00  0.00     0.039 H 
BRANCH  32  35
ATOM     35  C   LIG d   1       5.381  -2.075  -4.333  0.00  0.00     0.012 C 
ATOM     36  H   LIG d   1       6.449  -2.099  -4.549  0.00  0.00     0.036 H 
ATOM     37  C   LIG d   1       4.746  -0.872  -5.039  0.00  0.00    -0.017 C 
ATOM     38  H   LIG d   1       5.239   0.044  -4.713  0.00  0.00     0.085 H 
ATOM     39  C   LIG d   1       4.940  -1.049  -6.548  0.00  0.00    -0.009 C 
ATOM     40  N   LIG d   1       3.294  -0.818  -4.726  0.00  0.00     0.238 N 
ATOM     41  C   LIG d   1       4.280   0.110  -7.297  0.00  0.00    -0.043 C 
ATOM     42  H   LIG d   1       6.006  -1.067  -6.776  0.00  0.00     0.032 H 
ATOM     43  H   LIG d   1       4.486  -1.989  -6.864  0.00  0.00     0.032 H 
ATOM     44  C   LIG d   1       2.793   0.147  -6.930  0.00  0.00    -0.012 C 
ATOM     45  H   LIG d   1       4.753   1.048  -7.008  0.00  0.00     0.027 H 
ATOM     46  H   LIG d   1       4.390  -0.039  -8.371  0.00  0.00     0.027 H 
ATOM     47  C   LIG d   1       2.663   0.320  -5.417  0.00  0.00    -0.032 C 
ATOM     48  H   LIG d   1       2.313   0.985  -7.436  0.00  0.00     0.032 H 
ATOM     49  H   LIG d   1       2.318  -0.785  -7.235  0.00  0.00     0.032 H 
ATOM     50  H   LIG d   1       3.136   1.255  -5.118  0.00  0.00     0.081 H 
ATOM     51  H   LIG d   1       1.607   0.346  -5.145  0.00  0.00     0.081 H 
ATOM     52  C   LIG d   1       3.090  -0.670  -3.273  0.00  0.00    -0.032 C 
ATOM     53  H   LIG d   1       2.854  -1.690  -5.041  0.00  0.00     0.204 HD
ATOM     54  C   LIG d   1       3.666  -1.882  -2.541  0.00  0.00    -0.012 C 
ATOM     55  H   LIG d   1       2.019  -0.606  -3.079  0.00  0.00     0.081 H 
ATOM     56  H   LIG d   1       3.577   0.235  -2.913  0.00  0.00     0.081 H 
ATOM     57  C   LIG d   1       5.170  -1.961  -2.822  0.00  0.00    -0.040 C 
ATOM     58  H   LIG d   1       3.500  -1.775  -1.469  0.00  0.00     0.032 H 
ATOM     59  H   LIG d   1       3.177  -2.790  -2.896  0.00  0.00     0.032 H 
ATOM     60  H   LIG d   1       5.659  -1.060  -2.452  0.00  0.00     0.027 H 
ATOM     61  H   LIG d   1       5.589  -2.836  -2.326  0.00  0.00     0.027 H 
ENDBRANCH  32  35
ENDBRANCH   1  32
TORSDOF 13
ENDMDL
MODEL 9
REMARK VINA RESULT:      -5.0      2.505      5.505
REMARK  13 active torsions:
REMARK  status: ('A' for Active; 'I' for Inactive)
REMARK    1  A    between atoms: C_1  and  C_2 
REMARK    2  A    between atoms: C_2  and  C_3 
REMARK    3  A    between atoms: C_3  and  C_4 
REMARK    4  A    between atoms: C_4  and  O_5 
REMARK    5  A    between atoms: O_5  and  P_6 
REMARK    6  A    between atoms: P_6  and  O_8 
REMARK    7  A    between atoms: P_6  and  S_13 
REMARK    8  A    between atoms: O_8  and  C_9 
REMARK    9  A    between atoms: C_9  and  C_10 
REMARK   10  A    between atoms: C_10  and  C_11 
REMARK   11  A    between atoms: C_11  and  C_12 
REMARK   12  A    between atoms: S_13  and  C_14 
REMARK   13  A    between atoms: C_14  and  C_15 
ROOT
ATOM      1  S   LIG d   1       6.452  -1.033  -7.178  0.00  0.00    -0.041 SA
ENDROOT
BRANCH   1   2
ATOM      2  P   LIG d   1       4.531  -0.872  -6.296  0.00  0.00     0.391 P 
ATOM      3  O   LIG d   1       4.461   0.366  -5.488  0.00  0.00    -0.246 OA
BRANCH   2   4
ATOM      4  O   LIG d   1       3.412  -0.822  -7.453  0.00  0.00    -0.300 OA
BRANCH   4   5
ATOM      5  C   LIG d   1       3.554  -0.037  -8.639  0.00  0.00     0.058 C 
ATOM      6  H   LIG d   1       4.607   0.194  -8.798  0.00  0.00     0.057 H 
ATOM      7  H   LIG d   1       3.170  -0.595  -9.493  0.00  0.00     0.057 H 
BRANCH   5   8
ATOM      8  C   LIG d   1       2.764   1.265  -8.485  0.00  0.00    -0.029 C 
ATOM      9  H   LIG d   1       1.818   1.182  -9.019  0.00  0.00     0.029 H 
ATOM     10  H   LIG d   1       2.570   1.449  -7.428  0.00  0.00     0.029 H 
BRANCH   8  11
ATOM     11  C   LIG d   1       3.576   2.426  -9.064  0.00  0.00    -0.054 C 
ATOM     12  H   LIG d   1       3.173   2.699 -10.041  0.00  0.00     0.026 H 
ATOM     13  H   LIG d   1       3.514   3.283  -8.394  0.00  0.00     0.026 H 
BRANCH  11  14
ATOM     14  C   LIG d   1       5.037   2.000  -9.216  0.00  0.00    -0.065 C 
ATOM     15  H   LIG d   1       5.544   2.093  -8.255  0.00  0.00     0.023 H 
ATOM     16  H   LIG d   1       5.081   0.964  -9.551  0.00  0.00     0.023 H 
ATOM     17  H   LIG d   1       5.529   2.641  -9.948  0.00  0.00     0.023 H 
ENDBRANCH  11  14
ENDBRANCH   8  11
ENDBRANCH   5   8
ENDBRANCH   4   5
ENDBRANCH   2   4
BRANCH   2  18
ATOM     18  O   LIG d   1       4.267  -2.146  -5.349  0.00  0.00    -0.300 OA
BRANCH  18  19
ATOM     19  C   LIG d   1       4.860  -2.293  -4.057  0.00  0.00     0.058 C 
ATOM     20  H   LIG d   1       5.201  -3.319  -3.928  0.00  0.00     0.057 H 
ATOM     21  H   LIG d   1       5.709  -1.613  -3.970  0.00  0.00     0.057 H 
BRANCH  19  22
ATOM     22  C   LIG d   1       3.826  -1.958  -2.980  0.00  0.00    -0.029 C 
ATOM     23  H   LIG d   1       3.048  -1.327  -3.407  0.00  0.00     0.029 H 
ATOM     24  H   LIG d   1       3.382  -2.881  -2.605  0.00  0.00     0.029 H 
BRANCH  22  25
ATOM     25  C   LIG d   1       4.510  -1.218  -1.829  0.00  0.00    -0.054 C 
ATOM     26  H   LIG d   1       4.130  -1.592  -0.878  0.00  0.00     0.026 H 
ATOM     27  H   LIG d   1       5.587  -1.384  -1.879  0.00  0.00     0.026 H 
BRANCH  25  28
ATOM     28  C   LIG d   1       4.219   0.280  -1.942  0.00  0.00    -0.065 C 
ATOM     29  H   LIG d   1       3.192   0.475  -1.636  0.00  0.00     0.023 H 
ATOM     30  H   LIG d   1       4.902   0.832  -1.297  0.00  0.00     0.023 H 
ATOM     31  H   LIG d   1       4.357   0.600  -2.975  0.00  0.00     0.023 H 
ENDBRANCH  25  28
ENDBRANCH  22  25
ENDBRANCH  19  22
ENDBRANCH  18  19
ENDBRANCH   2  18
ENDBRANCH   1   2
BRANCH   1  32
ATOM     32  C   LIG d   1       7.274   0.520  -6.726  0.00  0.00     0.013 C 
ATOM     33  H   LIG d   1       6.595   1.129  -6.129  0.00  0.00     0.039 H 
ATOM     34  H   LIG d   1       7.550   1.062  -7.630  0.00  0.00     0.039 H 
BRANCH  32  35
ATOM     35  C   LIG d   1       8.532   0.212  -5.912  0.00  0.00     0.012 C 
ATOM     36  H   LIG d   1       9.087  -0.594  -6.392  0.00  0.00     0.036 H 
ATOM     37  C   LIG d   1       9.412   1.465  -5.843  0.00  0.00    -0.017 C 
ATOM     38  H   LIG d   1      10.330   1.237  -5.302  0.00  0.00     0.085 H 
ATOM     39  C   LIG d   1       9.751   1.887  -7.276  0.00  0.00    -0.009 C 
ATOM     40  N   LIG d   1       8.670   2.559  -5.163  0.00  0.00     0.238 N 
ATOM     41  C   LIG d   1      10.592   3.164  -7.256  0.00  0.00    -0.043 C 
ATOM     42  H   LIG d   1      10.313   1.091  -7.764  0.00  0.00     0.032 H 
ATOM     43  H   LIG d   1       8.828   2.070  -7.827  0.00  0.00     0.032 H 
ATOM     44  C   LIG d   1       9.806   4.259  -6.528  0.00  0.00    -0.012 C 
ATOM     45  H   LIG d   1      11.529   2.977  -6.733  0.00  0.00     0.027 H 
ATOM     46  H   LIG d   1      10.801   3.481  -8.278  0.00  0.00     0.027 H 
ATOM     47  C   LIG d   1       9.492   3.780  -5.110  0.00  0.00    -0.032 C 
ATOM     48  H   LIG d   1      10.403   5.169  -6.482  0.00  0.00     0.032 H 
ATOM     49  H   LIG d   1       8.876   4.458  -7.061  0.00  0.00     0.032 H 
ATOM     50  H   LIG d   1      10.425   3.587  -4.580  0.00  0.00     0.081 H 
ATOM     51  H   LIG d   1       8.931   4.552  -4.583  0.00  0.00     0.081 H 
ATOM     52  C   LIG d   1       8.315   2.159  -3.789  0.00  0.00    -0.032 C 
ATOM     53  H   LIG d   1       7.811   2.755  -5.689  0.00  0.00     0.204 HD
ATOM     54  C   LIG d   1       7.393   0.941  -3.823  0.00  0.00    -0.012 C 
ATOM     55  H   LIG d   1       7.798   2.990  -3.309  0.00  0.00     0.081 H 
ATOM     56  H   LIG d   1       9.214   1.917  -3.222  0.00  0.00     0.081 H 
ATOM     57  C   LIG d   1       8.131  -0.219  -4.499  0.00  0.00    -0.040 C 
ATOM     58  H   LIG d   1       7.123   0.658  -2.805  0.00  0.00     0.032 H 
ATOM     59  H   LIG d   1       6.491   1.181  -4.386  0.00  0.00     0.032 H 
ATOM     60  H   LIG d   1       9.024  -0.469  -3.926  0.00  0.00     0.027 H 
ATOM     61  H   LIG d   1       7.476  -1.088  -4.553  0.00  0.00     0.027 H 
ENDBRANCH  32  35
ENDBRANCH   1  32
TORSDOF 13
ENDMDL
