MODEL 1
REMARK VINA RESULT:      -7.5      0.000      0.000
REMARK  13 active torsions:
REMARK  status: ('A' for Active; 'I' for Inactive)
REMARK    1  A    between atoms: C_1  and  O_2 
REMARK    2  A    between atoms: O_2  and  C_3 
REMARK    3  A    between atoms: C_8  and  C_9 
REMARK    4  A    between atoms: C_9  and  N_10 
REMARK       I    between atoms: N_10  and  C_11 
REMARK    5  A    between atoms: C_11  and  C_13 
REMARK    6  A    between atoms: C_13  and  O_14 
REMARK    7  A    between atoms: O_14  and  C_15 
REMARK    8  A    between atoms: C_18  and  C_22 
REMARK    9  A    between atoms: C_22  and  N_23 
REMARK   10  A    between atoms: C_28  and  O_35 
REMARK   11  A    between atoms: C_29  and  O_33 
REMARK   12  A    between atoms: O_33  and  C_34 
REMARK   13  A    between atoms: O_35  and  C_36 
ROOT
ATOM      1  C   LIG d   1       6.329  -0.381  -3.587  0.00  0.00     0.202 A 
ATOM      2  C   LIG d   1       7.384  -0.818  -4.310  0.00  0.00     0.138 A 
ATOM      3  O   LIG d   1       8.377   0.015  -4.651  0.00  0.00    -0.459 OA
ATOM      4  C   LIG d   1       8.374   1.306  -4.297  0.00  0.00     0.153 A 
ATOM      5  C   LIG d   1       7.361   1.826  -3.576  0.00  0.00     0.032 A 
ATOM      6  C   LIG d   1       6.285   0.986  -3.195  0.00  0.00     0.227 A 
ATOM      7  O   LIG d   1       5.346   1.423  -2.546  0.00  0.00    -0.284 OA
ATOM      8  H   LIG d   1       7.428  -1.852  -4.616  0.00  0.00     0.107 H 
ATOM      9  H   LIG d   1       7.368   2.868  -3.294  0.00  0.00     0.069 H 
ENDROOT
BRANCH   4  10
ATOM     10  C   LIG d   1       9.521   2.191  -4.712  0.00  0.00     0.028 C 
ATOM     11  H   LIG d   1      10.458   1.757  -4.363  0.00  0.00     0.090 H 
ATOM     12  H   LIG d   1       9.541   2.273  -5.799  0.00  0.00     0.090 H 
BRANCH  10  13
ATOM     13  N   LIG d   1       9.349   3.524  -4.122  0.00  0.00     0.244 N 
ATOM     14  C   LIG d   1      10.243   3.672  -2.972  0.00  0.00    -0.005 C 
ATOM     15  C   LIG d   1      10.197   5.080  -2.440  0.00  0.00     0.004 A 
ATOM     16  H   LIG d   1       9.935   2.981  -2.186  0.00  0.00     0.087 H 
ATOM     17  H   LIG d   1      11.263   3.436  -3.277  0.00  0.00     0.087 H 
ATOM     18  C   LIG d   1       9.719   6.126  -3.201  0.00  0.00    -0.030 A 
ATOM     19  C   LIG d   1      10.656   5.317  -1.153  0.00  0.00    -0.008 A 
ATOM     20  C   LIG d   1       9.207   5.908  -4.602  0.00  0.00     0.013 C 
ATOM     21  C   LIG d   1       9.700   7.411  -2.680  0.00  0.00    -0.013 A 
ATOM     22  C   LIG d   1       9.681   4.551  -5.121  0.00  0.00    -0.027 C 
ATOM     23  H   LIG d   1       9.585   6.698  -5.253  0.00  0.00     0.036 H 
ATOM     24  H   LIG d   1       8.117   5.935  -4.598  0.00  0.00     0.036 H 
ATOM     25  H   LIG d   1      10.760   4.575  -5.277  0.00  0.00     0.082 H 
ATOM     26  H   LIG d   1       9.179   4.323  -6.062  0.00  0.00     0.082 H 
ATOM     27  C   LIG d   1      10.159   7.652  -1.397  0.00  0.00     0.162 A 
ATOM     28  H   LIG d   1       9.327   8.228  -3.279  0.00  0.00     0.066 H 
ATOM     29  C   LIG d   1      10.639   6.596  -0.628  0.00  0.00     0.162 A 
ATOM     30  H   LIG d   1      11.028   4.497  -0.555  0.00  0.00     0.066 H 
ATOM     31  H   LIG d   1       8.392   3.640  -3.823  0.00  0.00     0.204 HD
BRANCH  27  32
ATOM     32  O   LIG d   1      10.140   8.915  -0.890  0.00  0.00    -0.491 OA
BRANCH  32  33
ATOM     33  C   LIG d   1       8.865   9.550  -0.779  0.00  0.00     0.079 C 
ATOM     34  H   LIG d   1       8.331   9.460  -1.725  0.00  0.00     0.066 H 
ATOM     35  H   LIG d   1       8.288   9.071   0.012  0.00  0.00     0.066 H 
ATOM     36  H   LIG d   1       9.004  10.604  -0.539  0.00  0.00     0.066 H 
ENDBRANCH  32  33
ENDBRANCH  27  32
BRANCH  29  37
ATOM     37  O   LIG d   1      11.091   6.822   0.635  0.00  0.00    -0.491 OA
BRANCH  37  38
ATOM     38  C   LIG d   1      11.004   5.737   1.559  0.00  0.00     0.079 C 
ATOM     39  H   LIG d   1      11.989   5.286   1.685  0.00  0.00     0.066 H 
ATOM     40  H   LIG d   1      10.648   6.106   2.522  0.00  0.00     0.066 H 
ATOM     41  H   LIG d   1      10.309   4.988   1.178  0.00  0.00     0.066 H 
ENDBRANCH  37  38
ENDBRANCH  29  37
ENDBRANCH  10  13
ENDBRANCH   4  10
BRANCH   1  42
ATOM     42  O   LIG d   1       5.325  -1.232  -3.245  0.00  0.00    -0.476 OA
BRANCH  42  43
ATOM     43  C   LIG d   1       4.597  -1.840  -4.314  0.00  0.00     0.166 C 
ATOM     44  H   LIG d   1       4.068  -2.717  -3.941  0.00  0.00     0.080 H 
ATOM     45  H   LIG d   1       5.291  -2.141  -5.100  0.00  0.00     0.080 H 
BRANCH  43  46
ATOM     46  C   LIG d   1       3.605  -0.853  -4.871  0.00  0.00     0.251 C 
ATOM     47  N   LIG d   1       3.603  -0.570  -6.189  0.00  0.00    -0.308 N 
ATOM     48  H   LIG d   1       4.242  -1.001  -6.779  0.00  0.00     0.149 HD
ATOM     49  O   LIG d   1       2.805  -0.314  -4.135  0.00  0.00    -0.272 OA
BRANCH  47  50
ATOM     50  C   LIG d   1       2.638   0.390  -6.732  0.00  0.00     0.040 C 
ATOM     51  H   LIG d   1       2.633   1.288  -6.115  0.00  0.00     0.051 H 
ATOM     52  H   LIG d   1       1.644  -0.057  -6.731  0.00  0.00     0.051 H 
BRANCH  50  53
ATOM     53  C   LIG d   1       3.026   0.749  -8.143  0.00  0.00     0.011 A 
ATOM     54  C   LIG d   1       3.164  -0.244  -9.100  0.00  0.00     0.125 A 
ATOM     55  C   LIG d   1       3.515   0.092 -10.400  0.00  0.00    -0.020 A 
ATOM     56  C   LIG d   1       3.733   1.414 -10.735  0.00  0.00    -0.058 A 
ATOM     57  H   LIG d   1       3.620  -0.680 -11.147  0.00  0.00     0.065 H 
ATOM     58  C   LIG d   1       3.601   2.403  -9.777  0.00  0.00    -0.061 A 
ATOM     59  H   LIG d   1       4.008   1.675 -11.747  0.00  0.00     0.062 H 
ATOM     60  C   LIG d   1       3.250   2.070  -8.482  0.00  0.00    -0.054 A 
ATOM     61  H   LIG d   1       3.771   3.435 -10.042  0.00  0.00     0.062 H 
ATOM     62  H   LIG d   1       3.147   2.844  -7.736  0.00  0.00     0.062 H 
BRANCH  54  63
ATOM     63  O   LIG d   1       2.949  -1.544  -8.768  0.00  0.00    -0.495 OA
BRANCH  63  64
ATOM     64  C   LIG d   1       2.302  -2.365  -9.742  0.00  0.00     0.079 C 
ATOM     65  H   LIG d   1       1.422  -1.851 -10.125  0.00  0.00     0.066 H 
ATOM     66  H   LIG d   1       2.991  -2.565 -10.563  0.00  0.00     0.066 H 
ATOM     67  H   LIG d   1       2.002  -3.307  -9.282  0.00  0.00     0.066 H 
ENDBRANCH  63  64
ENDBRANCH  54  63
ENDBRANCH  50  53
ENDBRANCH  47  50
ENDBRANCH  43  46
ENDBRANCH  42  43
ENDBRANCH   1  42
TORSDOF 13
ENDMDL
MODEL 2
REMARK VINA RESULT:      -7.1      2.167      3.965
REMARK  13 active torsions:
REMARK  status: ('A' for Active; 'I' for Inactive)
REMARK    1  A    between atoms: C_1  and  O_2 
REMARK    2  A    between atoms: O_2  and  C_3 
REMARK    3  A    between atoms: C_8  and  C_9 
REMARK    4  A    between atoms: C_9  and  N_10 
REMARK       I    between atoms: N_10  and  C_11 
REMARK    5  A    between atoms: C_11  and  C_13 
REMARK    6  A    between atoms: C_13  and  O_14 
REMARK    7  A    between atoms: O_14  and  C_15 
REMARK    8  A    between atoms: C_18  and  C_22 
REMARK    9  A    between atoms: C_22  and  N_23 
REMARK   10  A    between atoms: C_28  and  O_35 
REMARK   11  A    between atoms: C_29  and  O_33 
REMARK   12  A    between atoms: O_33  and  C_34 
REMARK   13  A    between atoms: O_35  and  C_36 
ROOT
ATOM      1  C   LIG d   1       8.356   1.897  -5.866  0.00  0.00     0.202 A 
ATOM      2  C   LIG d   1       9.591   2.409  -6.067  0.00  0.00     0.138 A 
ATOM      3  O   LIG d   1      10.342   2.818  -5.035  0.00  0.00    -0.459 OA
ATOM      4  C   LIG d   1       9.913   2.741  -3.770  0.00  0.00     0.153 A 
ATOM      5  C   LIG d   1       8.694   2.244  -3.479  0.00  0.00     0.032 A 
ATOM      6  C   LIG d   1       7.860   1.803  -4.537  0.00  0.00     0.227 A 
ATOM      7  O   LIG d   1       6.746   1.352  -4.312  0.00  0.00    -0.284 OA
ATOM      8  H   LIG d   1       9.977   2.489  -7.072  0.00  0.00     0.107 H 
ATOM      9  H   LIG d   1       8.357   2.185  -2.454  0.00  0.00     0.069 H 
ENDROOT
BRANCH   4  10
ATOM     10  C   LIG d   1      10.807   3.217  -2.654  0.00  0.00     0.028 C 
ATOM     11  H   LIG d   1      10.787   2.493  -1.840  0.00  0.00     0.090 H 
ATOM     12  H   LIG d   1      11.826   3.321  -3.025  0.00  0.00     0.090 H 
BRANCH  10  13
ATOM     13  N   LIG d   1      10.329   4.517  -2.165  0.00  0.00     0.244 N 
ATOM     14  C   LIG d   1      11.292   5.066  -1.208  0.00  0.00    -0.005 C 
ATOM     15  C   LIG d   1      10.903   6.464  -0.806  0.00  0.00     0.004 A 
ATOM     16  H   LIG d   1      11.320   4.432  -0.321  0.00  0.00     0.087 H 
ATOM     17  H   LIG d   1      12.281   5.086  -1.666  0.00  0.00     0.087 H 
ATOM     18  C   LIG d   1      10.030   7.219  -1.561  0.00  0.00    -0.030 A 
ATOM     19  C   LIG d   1      11.448   6.995   0.354  0.00  0.00    -0.008 A 
ATOM     20  C   LIG d   1       9.413   6.675  -2.825  0.00  0.00     0.013 C 
ATOM     21  C   LIG d   1       9.702   8.506  -1.163  0.00  0.00    -0.013 A 
ATOM     22  C   LIG d   1      10.192   5.448  -3.295  0.00  0.00    -0.027 C 
ATOM     23  H   LIG d   1       9.440   7.442  -3.600  0.00  0.00     0.036 H 
ATOM     24  H   LIG d   1       8.377   6.395  -2.631  0.00  0.00     0.036 H 
ATOM     25  H   LIG d   1      11.181   5.752  -3.640  0.00  0.00     0.082 H 
ATOM     26  H   LIG d   1       9.653   4.961  -4.108  0.00  0.00     0.082 H 
ATOM     27  C   LIG d   1      10.245   9.040  -0.008  0.00  0.00     0.162 A 
ATOM     28  H   LIG d   1       9.020   9.095  -1.758  0.00  0.00     0.066 H 
ATOM     29  C   LIG d   1      11.123   8.278   0.756  0.00  0.00     0.162 A 
ATOM     30  H   LIG d   1      12.129   6.403   0.948  0.00  0.00     0.066 H 
ATOM     31  H   LIG d   1       9.434   4.400  -1.713  0.00  0.00     0.204 HD
BRANCH  27  32
ATOM     32  O   LIG d   1       9.921  10.304   0.378  0.00  0.00    -0.491 OA
BRANCH  32  33
ATOM     33  C   LIG d   1      10.277  11.365  -0.510  0.00  0.00     0.079 C 
ATOM     34  H   LIG d   1       9.876  12.305  -0.131  0.00  0.00     0.066 H 
ATOM     35  H   LIG d   1      11.362  11.433  -0.578  0.00  0.00     0.066 H 
ATOM     36  H   LIG d   1       9.862  11.165  -1.498  0.00  0.00     0.066 H 
ENDBRANCH  32  33
ENDBRANCH  27  32
BRANCH  29  37
ATOM     37  O   LIG d   1      11.662   8.793   1.894  0.00  0.00    -0.491 OA
BRANCH  37  38
ATOM     38  C   LIG d   1      12.843   9.584   1.752  0.00  0.00     0.079 C 
ATOM     39  H   LIG d   1      13.642   9.156   2.359  0.00  0.00     0.066 H 
ATOM     40  H   LIG d   1      13.149   9.597   0.706  0.00  0.00     0.066 H 
ATOM     41  H   LIG d   1      12.641  10.603   2.085  0.00  0.00     0.066 H 
ENDBRANCH  37  38
ENDBRANCH  29  37
ENDBRANCH  10  13
ENDBRANCH   4  10
BRANCH   1  42
ATOM     42  O   LIG d   1       7.598   1.485  -6.918  0.00  0.00    -0.476 OA
BRANCH  42  43
ATOM     43  C   LIG d   1       7.943   0.233  -7.515  0.00  0.00     0.166 C 
ATOM     44  H   LIG d   1       8.855  -0.148  -7.057  0.00  0.00     0.080 H 
ATOM     45  H   LIG d   1       8.105   0.373  -8.584  0.00  0.00     0.080 H 
BRANCH  43  46
ATOM     46  C   LIG d   1       6.823  -0.751  -7.301  0.00  0.00     0.251 C 
ATOM     47  N   LIG d   1       6.549  -1.201  -6.060  0.00  0.00    -0.308 N 
ATOM     48  H   LIG d   1       7.074  -0.892  -5.305  0.00  0.00     0.149 HD
ATOM     49  O   LIG d   1       6.166  -1.138  -8.244  0.00  0.00    -0.272 OA
BRANCH  47  50
ATOM     50  C   LIG d   1       5.460  -2.159  -5.852  0.00  0.00     0.040 C 
ATOM     51  H   LIG d   1       5.876  -3.133  -5.597  0.00  0.00     0.051 H 
ATOM     52  H   LIG d   1       4.871  -2.242  -6.765  0.00  0.00     0.051 H 
BRANCH  50  53
ATOM     53  C   LIG d   1       4.578  -1.680  -4.728  0.00  0.00     0.011 A 
ATOM     54  C   LIG d   1       3.851  -0.507  -4.867  0.00  0.00     0.125 A 
ATOM     55  C   LIG d   1       3.035  -0.073  -3.832  0.00  0.00    -0.020 A 
ATOM     56  C   LIG d   1       2.954  -0.805  -2.663  0.00  0.00    -0.058 A 
ATOM     57  H   LIG d   1       2.466   0.838  -3.940  0.00  0.00     0.065 H 
ATOM     58  C   LIG d   1       3.685  -1.971  -2.525  0.00  0.00    -0.061 A 
ATOM     59  H   LIG d   1       2.320  -0.466  -1.858  0.00  0.00     0.062 H 
ATOM     60  C   LIG d   1       4.498  -2.406  -3.555  0.00  0.00    -0.054 A 
ATOM     61  H   LIG d   1       3.619  -2.542  -1.611  0.00  0.00     0.062 H 
ATOM     62  H   LIG d   1       5.067  -3.317  -3.444  0.00  0.00     0.062 H 
BRANCH  54  63
ATOM     63  O   LIG d   1       3.932   0.212  -6.017  0.00  0.00    -0.495 OA
BRANCH  63  64
ATOM     64  C   LIG d   1       2.819   0.136  -6.910  0.00  0.00     0.079 C 
ATOM     65  H   LIG d   1       2.951   0.855  -7.717  0.00  0.00     0.066 H 
ATOM     66  H   LIG d   1       2.754  -0.869  -7.326  0.00  0.00     0.066 H 
ATOM     67  H   LIG d   1       1.902   0.365  -6.366  0.00  0.00     0.066 H 
ENDBRANCH  63  64
ENDBRANCH  54  63
ENDBRANCH  50  53
ENDBRANCH  47  50
ENDBRANCH  43  46
ENDBRANCH  42  43
ENDBRANCH   1  42
TORSDOF 13
ENDMDL
MODEL 3
REMARK VINA RESULT:      -7.0      2.029      4.043
REMARK  13 active torsions:
REMARK  status: ('A' for Active; 'I' for Inactive)
REMARK    1  A    between atoms: C_1  and  O_2 
REMARK    2  A    between atoms: O_2  and  C_3 
REMARK    3  A    between atoms: C_8  and  C_9 
REMARK    4  A    between atoms: C_9  and  N_10 
REMARK       I    between atoms: N_10  and  C_11 
REMARK    5  A    between atoms: C_11  and  C_13 
REMARK    6  A    between atoms: C_13  and  O_14 
REMARK    7  A    between atoms: O_14  and  C_15 
REMARK    8  A    between atoms: C_18  and  C_22 
REMARK    9  A    between atoms: C_22  and  N_23 
REMARK   10  A    between atoms: C_28  and  O_35 
REMARK   11  A    between atoms: C_29  and  O_33 
REMARK   12  A    between atoms: O_33  and  C_34 
REMARK   13  A    between atoms: O_35  and  C_36 
ROOT
ATOM      1  C   LIG d   1       6.767   0.525  -7.952  0.00  0.00     0.202 A 
ATOM      2  C   LIG d   1       7.224   1.632  -8.578  0.00  0.00     0.138 A 
ATOM      3  O   LIG d   1       8.316   2.271  -8.136  0.00  0.00    -0.459 OA
ATOM      4  C   LIG d   1       9.001   1.850  -7.066  0.00  0.00     0.153 A 
ATOM      5  C   LIG d   1       8.616   0.754  -6.382  0.00  0.00     0.032 A 
ATOM      6  C   LIG d   1       7.463   0.047  -6.807  0.00  0.00     0.227 A 
ATOM      7  O   LIG d   1       7.080  -0.948  -6.209  0.00  0.00    -0.284 OA
ATOM      8  H   LIG d   1       6.702   2.007  -9.445  0.00  0.00     0.107 H 
ATOM      9  H   LIG d   1       9.176   0.421  -5.521  0.00  0.00     0.069 H 
ENDROOT
BRANCH   4  10
ATOM     10  C   LIG d   1      10.222   2.613  -6.620  0.00  0.00     0.028 C 
ATOM     11  H   LIG d   1      10.876   1.950  -6.054  0.00  0.00     0.090 H 
ATOM     12  H   LIG d   1      10.754   2.989  -7.494  0.00  0.00     0.090 H 
BRANCH  10  13
ATOM     13  N   LIG d   1       9.812   3.740  -5.773  0.00  0.00     0.244 N 
ATOM     14  C   LIG d   1      10.469   3.637  -4.467  0.00  0.00    -0.005 C 
ATOM     15  C   LIG d   1      10.185   4.857  -3.633  0.00  0.00     0.004 A 
ATOM     16  H   LIG d   1      10.098   2.752  -3.947  0.00  0.00     0.087 H 
ATOM     17  H   LIG d   1      11.545   3.542  -4.613  0.00  0.00     0.087 H 
ATOM     18  C   LIG d   1       9.745   6.036  -4.198  0.00  0.00    -0.030 A 
ATOM     19  C   LIG d   1      10.382   4.782  -2.262  0.00  0.00    -0.008 A 
ATOM     20  C   LIG d   1       9.515   6.156  -5.684  0.00  0.00     0.013 C 
ATOM     21  C   LIG d   1       9.503   7.142  -3.398  0.00  0.00    -0.013 A 
ATOM     22  C   LIG d   1      10.209   5.004  -6.410  0.00  0.00    -0.027 C 
ATOM     23  H   LIG d   1       9.919   7.105  -6.038  0.00  0.00     0.036 H 
ATOM     24  H   LIG d   1       8.444   6.121  -5.888  0.00  0.00     0.036 H 
ATOM     25  H   LIG d   1      11.291   5.126  -6.339  0.00  0.00     0.082 H 
ATOM     26  H   LIG d   1       9.908   4.997  -7.457  0.00  0.00     0.082 H 
ATOM     27  C   LIG d   1       9.700   7.071  -2.030  0.00  0.00     0.162 A 
ATOM     28  H   LIG d   1       9.160   8.064  -3.845  0.00  0.00     0.066 H 
ATOM     29  C   LIG d   1      10.141   5.882  -1.459  0.00  0.00     0.162 A 
ATOM     30  H   LIG d   1      10.723   3.858  -1.818  0.00  0.00     0.066 H 
ATOM     31  H   LIG d   1       8.811   3.723  -5.650  0.00  0.00     0.204 HD
BRANCH  27  32
ATOM     32  O   LIG d   1       9.462   8.160  -1.249  0.00  0.00    -0.491 OA
BRANCH  32  33
ATOM     33  C   LIG d   1      10.287   9.306  -1.465  0.00  0.00     0.079 C 
ATOM     34  H   LIG d   1      10.902   9.149  -2.351  0.00  0.00     0.066 H 
ATOM     35  H   LIG d   1       9.657  10.184  -1.610  0.00  0.00     0.066 H 
ATOM     36  H   LIG d   1      10.930   9.459  -0.599  0.00  0.00     0.066 H 
ENDBRANCH  32  33
ENDBRANCH  27  32
BRANCH  29  37
ATOM     37  O   LIG d   1      10.336   5.802  -0.115  0.00  0.00    -0.491 OA
BRANCH  37  38
ATOM     38  C   LIG d   1      11.685   5.877   0.350  0.00  0.00     0.079 C 
ATOM     39  H   LIG d   1      11.696   6.259   1.372  0.00  0.00     0.066 H 
ATOM     40  H   LIG d   1      12.133   4.884   0.329  0.00  0.00     0.066 H 
ATOM     41  H   LIG d   1      12.255   6.547  -0.294  0.00  0.00     0.066 H 
ENDBRANCH  37  38
ENDBRANCH  29  37
ENDBRANCH  10  13
ENDBRANCH   4  10
BRANCH   1  42
ATOM     42  O   LIG d   1       5.657  -0.119  -8.405  0.00  0.00    -0.476 OA
BRANCH  42  43
ATOM     43  C   LIG d   1       4.486   0.675  -8.611  0.00  0.00     0.166 C 
ATOM     44  H   LIG d   1       4.085   0.478  -9.605  0.00  0.00     0.080 H 
ATOM     45  H   LIG d   1       4.744   1.731  -8.526  0.00  0.00     0.080 H 
BRANCH  43  46
ATOM     46  C   LIG d   1       3.453   0.325  -7.573  0.00  0.00     0.251 C 
ATOM     47  N   LIG d   1       3.738   0.469  -6.263  0.00  0.00    -0.308 N 
ATOM     48  H   LIG d   1       4.609   0.797  -5.989  0.00  0.00     0.149 HD
ATOM     49  O   LIG d   1       2.363  -0.085  -7.915  0.00  0.00    -0.272 OA
BRANCH  47  50
ATOM     50  C   LIG d   1       2.732   0.128  -5.253  0.00  0.00     0.040 C 
ATOM     51  H   LIG d   1       2.310  -0.852  -5.475  0.00  0.00     0.051 H 
ATOM     52  H   LIG d   1       1.940   0.876  -5.263  0.00  0.00     0.051 H 
BRANCH  50  53
ATOM     53  C   LIG d   1       3.378   0.100  -3.892  0.00  0.00     0.011 A 
ATOM     54  C   LIG d   1       3.791  -1.105  -3.343  0.00  0.00     0.125 A 
ATOM     55  C   LIG d   1       4.390  -1.125  -2.092  0.00  0.00    -0.020 A 
ATOM     56  C   LIG d   1       4.568   0.053  -1.392  0.00  0.00    -0.058 A 
ATOM     57  H   LIG d   1       4.716  -2.062  -1.665  0.00  0.00     0.065 H 
ATOM     58  C   LIG d   1       4.150   1.252  -1.939  0.00  0.00    -0.061 A 
ATOM     59  H   LIG d   1       5.034   0.036  -0.418  0.00  0.00     0.062 H 
ATOM     60  C   LIG d   1       3.553   1.275  -3.186  0.00  0.00    -0.054 A 
ATOM     61  H   LIG d   1       4.290   2.172  -1.391  0.00  0.00     0.062 H 
ATOM     62  H   LIG d   1       3.227   2.213  -3.611  0.00  0.00     0.062 H 
BRANCH  54  63
ATOM     63  O   LIG d   1       3.615  -2.262  -4.033  0.00  0.00    -0.495 OA
BRANCH  63  64
ATOM     64  C   LIG d   1       4.793  -2.929  -4.492  0.00  0.00     0.079 C 
ATOM     65  H   LIG d   1       4.799  -2.947  -5.581  0.00  0.00     0.066 H 
ATOM     66  H   LIG d   1       5.674  -2.399  -4.133  0.00  0.00     0.066 H 
ATOM     67  H   LIG d   1       4.803  -3.951  -4.112  0.00  0.00     0.066 H 
ENDBRANCH  63  64
ENDBRANCH  54  63
ENDBRANCH  50  53
ENDBRANCH  47  50
ENDBRANCH  43  46
ENDBRANCH  42  43
ENDBRANCH   1  42
TORSDOF 13
ENDMDL
MODEL 4
REMARK VINA RESULT:      -7.0      2.246      3.693
REMARK  13 active torsions:
REMARK  status: ('A' for Active; 'I' for Inactive)
REMARK    1  A    between atoms: C_1  and  O_2 
REMARK    2  A    between atoms: O_2  and  C_3 
REMARK    3  A    between atoms: C_8  and  C_9 
REMARK    4  A    between atoms: C_9  and  N_10 
REMARK       I    between atoms: N_10  and  C_11 
REMARK    5  A    between atoms: C_11  and  C_13 
REMARK    6  A    between atoms: C_13  and  O_14 
REMARK    7  A    between atoms: O_14  and  C_15 
REMARK    8  A    between atoms: C_18  and  C_22 
REMARK    9  A    between atoms: C_22  and  N_23 
REMARK   10  A    between atoms: C_28  and  O_35 
REMARK   11  A    between atoms: C_29  and  O_33 
REMARK   12  A    between atoms: O_33  and  C_34 
REMARK   13  A    between atoms: O_35  and  C_36 
ROOT
ATOM      1  C   LIG d   1       8.163  -0.790  -6.527  0.00  0.00     0.202 A 
ATOM      2  C   LIG d   1       9.493  -0.991  -6.651  0.00  0.00     0.138 A 
ATOM      3  O   LIG d   1      10.371  -0.202  -6.017  0.00  0.00    -0.459 OA
ATOM      4  C   LIG d   1       9.980   0.814  -5.238  0.00  0.00     0.153 A 
ATOM      5  C   LIG d   1       8.671   1.086  -5.058  0.00  0.00     0.032 A 
ATOM      6  C   LIG d   1       7.704   0.282  -5.712  0.00  0.00     0.227 A 
ATOM      7  O   LIG d   1       6.510   0.503  -5.578  0.00  0.00    -0.284 OA
ATOM      8  H   LIG d   1       9.854  -1.799  -7.269  0.00  0.00     0.107 H 
ATOM      9  H   LIG d   1       8.365   1.907  -4.427  0.00  0.00     0.069 H 
ENDROOT
BRANCH   4  10
ATOM     10  C   LIG d   1      11.017   1.665  -4.552  0.00  0.00     0.028 C 
ATOM     11  H   LIG d   1      11.421   1.125  -3.696  0.00  0.00     0.090 H 
ATOM     12  H   LIG d   1      11.821   1.892  -5.252  0.00  0.00     0.090 H 
BRANCH  10  13
ATOM     13  N   LIG d   1      10.398   2.916  -4.094  0.00  0.00     0.244 N 
ATOM     14  C   LIG d   1      11.052   3.365  -2.862  0.00  0.00    -0.005 C 
ATOM     15  C   LIG d   1      10.541   4.721  -2.454  0.00  0.00     0.004 A 
ATOM     16  H   LIG d   1      10.848   2.649  -2.065  0.00  0.00     0.087 H 
ATOM     17  H   LIG d   1      12.128   3.421  -3.027  0.00  0.00     0.087 H 
ATOM     18  C   LIG d   1       9.895   5.551  -3.346  0.00  0.00    -0.030 A 
ATOM     19  C   LIG d   1      10.737   5.135  -1.145  0.00  0.00    -0.008 A 
ATOM     20  C   LIG d   1       9.657   5.134  -4.775  0.00  0.00     0.013 C 
ATOM     21  C   LIG d   1       9.445   6.796  -2.935  0.00  0.00    -0.013 A 
ATOM     22  C   LIG d   1      10.559   3.951  -5.126  0.00  0.00    -0.027 C 
ATOM     23  H   LIG d   1       9.882   5.971  -5.438  0.00  0.00     0.036 H 
ATOM     24  H   LIG d   1       8.613   4.845  -4.900  0.00  0.00     0.036 H 
ATOM     25  H   LIG d   1      11.599   4.279  -5.156  0.00  0.00     0.082 H 
ATOM     26  H   LIG d   1      10.273   3.548  -6.097  0.00  0.00     0.082 H 
ATOM     27  C   LIG d   1       9.641   7.214  -1.630  0.00  0.00     0.162 A 
ATOM     28  H   LIG d   1       8.941   7.444  -3.636  0.00  0.00     0.066 H 
ATOM     29  C   LIG d   1      10.291   6.376  -0.729  0.00  0.00     0.162 A 
ATOM     30  H   LIG d   1      11.241   4.484  -0.445  0.00  0.00     0.066 H 
ATOM     31  H   LIG d   1       9.417   2.763  -3.919  0.00  0.00     0.204 HD
BRANCH  27  32
ATOM     32  O   LIG d   1       9.199   8.438  -1.231  0.00  0.00    -0.491 OA
BRANCH  32  33
ATOM     33  C   LIG d   1       9.932   9.574  -1.693  0.00  0.00     0.079 C 
ATOM     34  H   LIG d   1      10.567   9.281  -2.529  0.00  0.00     0.066 H 
ATOM     35  H   LIG d   1       9.237  10.348  -2.017  0.00  0.00     0.066 H 
ATOM     36  H   LIG d   1      10.553   9.959  -0.883  0.00  0.00     0.066 H 
ENDBRANCH  32  33
ENDBRANCH  27  32
BRANCH  29  37
ATOM     37  O   LIG d   1      10.487   6.777   0.556  0.00  0.00    -0.491 OA
BRANCH  37  38
ATOM     38  C   LIG d   1      11.111   5.844   1.439  0.00  0.00     0.079 C 
ATOM     39  H   LIG d   1      12.185   6.032   1.467  0.00  0.00     0.066 H 
ATOM     40  H   LIG d   1      10.697   5.957   2.441  0.00  0.00     0.066 H 
ATOM     41  H   LIG d   1      10.930   4.829   1.083  0.00  0.00     0.066 H 
ENDBRANCH  37  38
ENDBRANCH  29  37
ENDBRANCH  10  13
ENDBRANCH   4  10
BRANCH   1  42
ATOM     42  O   LIG d   1       7.277  -1.594  -7.173  0.00  0.00    -0.476 OA
BRANCH  42  43
ATOM     43  C   LIG d   1       7.105  -2.916  -6.657  0.00  0.00     0.166 C 
ATOM     44  H   LIG d   1       7.971  -3.186  -6.054  0.00  0.00     0.080 H 
ATOM     45  H   LIG d   1       7.005  -3.619  -7.485  0.00  0.00     0.080 H 
BRANCH  43  46
ATOM     46  C   LIG d   1       5.864  -2.964  -5.805  0.00  0.00     0.251 C 
ATOM     47  N   LIG d   1       5.892  -2.485  -4.545  0.00  0.00    -0.308 N 
ATOM     48  H   LIG d   1       6.712  -2.109  -4.188  0.00  0.00     0.149 HD
ATOM     49  O   LIG d   1       4.838  -3.434  -6.252  0.00  0.00    -0.272 OA
BRANCH  47  50
ATOM     50  C   LIG d   1       4.685  -2.532  -3.716  0.00  0.00     0.040 C 
ATOM     51  H   LIG d   1       4.861  -3.175  -2.854  0.00  0.00     0.051 H 
ATOM     52  H   LIG d   1       3.857  -2.930  -4.303  0.00  0.00     0.051 H 
BRANCH  50  53
ATOM     53  C   LIG d   1       4.344  -1.142  -3.246  0.00  0.00     0.011 A 
ATOM     54  C   LIG d   1       3.674  -0.268  -4.089  0.00  0.00     0.125 A 
ATOM     55  C   LIG d   1       3.357   1.010  -3.649  0.00  0.00    -0.020 A 
ATOM     56  C   LIG d   1       3.714   1.410  -2.376  0.00  0.00    -0.058 A 
ATOM     57  H   LIG d   1       2.832   1.690  -4.303  0.00  0.00     0.065 H 
ATOM     58  C   LIG d   1       4.387   0.539  -1.540  0.00  0.00    -0.061 A 
ATOM     59  H   LIG d   1       3.468   2.405  -2.035  0.00  0.00     0.062 H 
ATOM     60  C   LIG d   1       4.704  -0.735  -1.975  0.00  0.00    -0.054 A 
ATOM     61  H   LIG d   1       4.665   0.853  -0.545  0.00  0.00     0.062 H 
ATOM     62  H   LIG d   1       5.229  -1.414  -1.320  0.00  0.00     0.062 H 
BRANCH  54  63
ATOM     63  O   LIG d   1       3.324  -0.664  -5.340  0.00  0.00    -0.495 OA
BRANCH  63  64
ATOM     64  C   LIG d   1       2.854   0.348  -6.234  0.00  0.00     0.079 C 
ATOM     65  H   LIG d   1       3.182   1.325  -5.882  0.00  0.00     0.066 H 
ATOM     66  H   LIG d   1       3.255   0.167  -7.230  0.00  0.00     0.066 H 
ATOM     67  H   LIG d   1       1.765   0.322  -6.270  0.00  0.00     0.066 H 
ENDBRANCH  63  64
ENDBRANCH  54  63
ENDBRANCH  50  53
ENDBRANCH  47  50
ENDBRANCH  43  46
ENDBRANCH  42  43
ENDBRANCH   1  42
TORSDOF 13
ENDMDL
MODEL 5
REMARK VINA RESULT:      -6.9      3.078      5.086
REMARK  13 active torsions:
REMARK  status: ('A' for Active; 'I' for Inactive)
REMARK    1  A    between atoms: C_1  and  O_2 
REMARK    2  A    between atoms: O_2  and  C_3 
REMARK    3  A    between atoms: C_8  and  C_9 
REMARK    4  A    between atoms: C_9  and  N_10 
REMARK       I    between atoms: N_10  and  C_11 
REMARK    5  A    between atoms: C_11  and  C_13 
REMARK    6  A    between atoms: C_13  and  O_14 
REMARK    7  A    between atoms: O_14  and  C_15 
REMARK    8  A    between atoms: C_18  and  C_22 
REMARK    9  A    between atoms: C_22  and  N_23 
REMARK   10  A    between atoms: C_28  and  O_35 
REMARK   11  A    between atoms: C_29  and  O_33 
REMARK   12  A    between atoms: O_33  and  C_34 
REMARK   13  A    between atoms: O_35  and  C_36 
ROOT
ATOM      1  C   LIG d   1       6.731   0.803  -8.389  0.00  0.00     0.202 A 
ATOM      2  C   LIG d   1       6.366   1.984  -8.936  0.00  0.00     0.138 A 
ATOM      3  O   LIG d   1       7.284   2.903  -9.266  0.00  0.00    -0.459 OA
ATOM      4  C   LIG d   1       8.593   2.700  -9.072  0.00  0.00     0.153 A 
ATOM      5  C   LIG d   1       9.045   1.550  -8.532  0.00  0.00     0.032 A 
ATOM      6  C   LIG d   1       8.112   0.550  -8.162  0.00  0.00     0.227 A 
ATOM      7  O   LIG d   1       8.484  -0.502  -7.664  0.00  0.00    -0.284 OA
ATOM      8  H   LIG d   1       5.320   2.189  -9.110  0.00  0.00     0.107 H 
ATOM      9  H   LIG d   1      10.103   1.396  -8.381  0.00  0.00     0.069 H 
ENDROOT
BRANCH   4  10
ATOM     10  C   LIG d   1       9.575   3.774  -9.465  0.00  0.00     0.028 C 
ATOM     11  H   LIG d   1      10.588   3.435  -9.247  0.00  0.00     0.090 H 
ATOM     12  H   LIG d   1       9.481   3.979 -10.531  0.00  0.00     0.090 H 
BRANCH  10  13
ATOM     13  N   LIG d   1       9.292   4.997  -8.704  0.00  0.00     0.244 N 
ATOM     14  C   LIG d   1      10.025   4.967  -7.435  0.00  0.00    -0.005 C 
ATOM     15  C   LIG d   1       9.874   6.274  -6.704  0.00  0.00     0.004 A 
ATOM     16  H   LIG d   1       9.635   4.160  -6.814  0.00  0.00     0.087 H 
ATOM     17  H   LIG d   1      11.082   4.787  -7.635  0.00  0.00     0.087 H 
ATOM     18  C   LIG d   1       9.472   7.424  -7.350  0.00  0.00    -0.030 A 
ATOM     19  C   LIG d   1      10.154   6.309  -5.345  0.00  0.00    -0.008 A 
ATOM     20  C   LIG d   1       9.153   7.426  -8.823  0.00  0.00     0.013 C 
ATOM     21  C   LIG d   1       9.352   8.611  -6.644  0.00  0.00    -0.013 A 
ATOM     22  C   LIG d   1       9.725   6.170  -9.479  0.00  0.00    -0.027 C 
ATOM     23  H   LIG d   1       9.592   8.310  -9.288  0.00  0.00     0.036 H 
ATOM     24  H   LIG d   1       8.071   7.447  -8.960  0.00  0.00     0.036 H 
ATOM     25  H   LIG d   1      10.815   6.223  -9.484  0.00  0.00     0.082 H 
ATOM     26  H   LIG d   1       9.357   6.090 -10.501  0.00  0.00     0.082 H 
ATOM     27  C   LIG d   1       9.633   8.650  -5.289  0.00  0.00     0.162 A 
ATOM     28  H   LIG d   1       9.039   9.511  -7.153  0.00  0.00     0.066 H 
ATOM     29  C   LIG d   1      10.036   7.489  -4.636  0.00  0.00     0.162 A 
ATOM     30  H   LIG d   1      10.466   5.407  -4.838  0.00  0.00     0.066 H 
ATOM     31  H   LIG d   1       8.302   5.060  -8.520  0.00  0.00     0.204 HD
BRANCH  27  32
ATOM     32  O   LIG d   1       9.516   9.818  -4.600  0.00  0.00    -0.491 OA
BRANCH  32  33
ATOM     33  C   LIG d   1       9.517  11.025  -5.365  0.00  0.00     0.079 C 
ATOM     34  H   LIG d   1       8.871  10.905  -6.234  0.00  0.00     0.066 H 
ATOM     35  H   LIG d   1       9.150  11.845  -4.748  0.00  0.00     0.066 H 
ATOM     36  H   LIG d   1      10.533  11.245  -5.695  0.00  0.00     0.066 H 
ENDBRANCH  32  33
ENDBRANCH  27  32
BRANCH  29  37
ATOM     37  O   LIG d   1      10.313   7.517  -3.304  0.00  0.00    -0.491 OA
BRANCH  37  38
ATOM     38  C   LIG d   1       9.454   6.764  -2.447  0.00  0.00     0.079 C 
ATOM     39  H   LIG d   1       9.344   7.285  -1.495  0.00  0.00     0.066 H 
ATOM     40  H   LIG d   1       8.476   6.655  -2.917  0.00  0.00     0.066 H 
ATOM     41  H   LIG d   1       9.886   5.778  -2.274  0.00  0.00     0.066 H 
ENDBRANCH  37  38
ENDBRANCH  29  37
ENDBRANCH  10  13
ENDBRANCH   4  10
BRANCH   1  42
ATOM     42  O   LIG d   1       5.794  -0.125  -8.056  0.00  0.00    -0.476 OA
BRANCH  42  43
ATOM     43  C   LIG d   1       4.504   0.011  -8.656  0.00  0.00     0.166 C 
ATOM     44  H   LIG d   1       4.335  -0.815  -9.347  0.00  0.00     0.080 H 
ATOM     45  H   LIG d   1       4.454   0.955  -9.200  0.00  0.00     0.080 H 
BRANCH  43  46
ATOM     46  C   LIG d   1       3.447  -0.006  -7.584  0.00  0.00     0.251 C 
ATOM     47  N   LIG d   1       3.764   0.337  -6.319  0.00  0.00    -0.308 N 
ATOM     48  H   LIG d   1       4.673   0.594  -6.100  0.00  0.00     0.149 HD
ATOM     49  O   LIG d   1       2.309  -0.327  -7.857  0.00  0.00    -0.272 OA
BRANCH  47  50
ATOM     50  C   LIG d   1       2.736   0.320  -5.275  0.00  0.00     0.040 C 
ATOM     51  H   LIG d   1       2.058  -0.516  -5.446  0.00  0.00     0.051 H 
ATOM     52  H   LIG d   1       2.175   1.254  -5.303  0.00  0.00     0.051 H 
BRANCH  50  53
ATOM     53  C   LIG d   1       3.391   0.168  -3.927  0.00  0.00     0.011 A 
ATOM     54  C   LIG d   1       3.840  -1.076  -3.509  0.00  0.00     0.125 A 
ATOM     55  C   LIG d   1       4.449  -1.210  -2.269  0.00  0.00    -0.020 A 
ATOM     56  C   LIG d   1       4.600  -0.107  -1.451  0.00  0.00    -0.058 A 
ATOM     57  H   LIG d   1       4.802  -2.177  -1.943  0.00  0.00     0.065 H 
ATOM     58  C   LIG d   1       4.146   1.131  -1.868  0.00  0.00    -0.061 A 
ATOM     59  H   LIG d   1       5.073  -0.212  -0.486  0.00  0.00     0.062 H 
ATOM     60  C   LIG d   1       3.540   1.268  -3.103  0.00  0.00    -0.054 A 
ATOM     61  H   LIG d   1       4.266   1.992  -1.228  0.00  0.00     0.062 H 
ATOM     62  H   LIG d   1       3.186   2.235  -3.427  0.00  0.00     0.062 H 
BRANCH  54  63
ATOM     63  O   LIG d   1       3.690  -2.160  -4.314  0.00  0.00    -0.495 OA
BRANCH  63  64
ATOM     64  C   LIG d   1       4.814  -3.033  -4.444  0.00  0.00     0.079 C 
ATOM     65  H   LIG d   1       5.379  -3.039  -3.512  0.00  0.00     0.066 H 
ATOM     66  H   LIG d   1       4.467  -4.042  -4.665  0.00  0.00     0.066 H 
ATOM     67  H   LIG d   1       5.454  -2.683  -5.254  0.00  0.00     0.066 H 
ENDBRANCH  63  64
ENDBRANCH  54  63
ENDBRANCH  50  53
ENDBRANCH  47  50
ENDBRANCH  43  46
ENDBRANCH  42  43
ENDBRANCH   1  42
TORSDOF 13
ENDMDL
MODEL 6
REMARK VINA RESULT:      -6.8      2.286      4.040
REMARK  13 active torsions:
REMARK  status: ('A' for Active; 'I' for Inactive)
REMARK    1  A    between atoms: C_1  and  O_2 
REMARK    2  A    between atoms: O_2  and  C_3 
REMARK    3  A    between atoms: C_8  and  C_9 
REMARK    4  A    between atoms: C_9  and  N_10 
REMARK       I    between atoms: N_10  and  C_11 
REMARK    5  A    between atoms: C_11  and  C_13 
REMARK    6  A    between atoms: C_13  and  O_14 
REMARK    7  A    between atoms: O_14  and  C_15 
REMARK    8  A    between atoms: C_18  and  C_22 
REMARK    9  A    between atoms: C_22  and  N_23 
REMARK   10  A    between atoms: C_28  and  O_35 
REMARK   11  A    between atoms: C_29  and  O_33 
REMARK   12  A    between atoms: O_33  and  C_34 
REMARK   13  A    between atoms: O_35  and  C_36 
ROOT
ATOM      1  C   LIG d   1       9.115   0.527  -5.525  0.00  0.00     0.202 A 
ATOM      2  C   LIG d   1      10.441   0.707  -5.335  0.00  0.00     0.138 A 
ATOM      3  O   LIG d   1      10.894   1.552  -4.399  0.00  0.00    -0.459 OA
ATOM      4  C   LIG d   1      10.066   2.251  -3.613  0.00  0.00     0.153 A 
ATOM      5  C   LIG d   1       8.728   2.133  -3.735  0.00  0.00     0.032 A 
ATOM      6  C   LIG d   1       8.201   1.256  -4.715  0.00  0.00     0.227 A 
ATOM      7  O   LIG d   1       6.994   1.127  -4.858  0.00  0.00    -0.284 OA
ATOM      8  H   LIG d   1      11.145   0.163  -5.947  0.00  0.00     0.107 H 
ATOM      9  H   LIG d   1       8.068   2.701  -3.096  0.00  0.00     0.069 H 
ENDROOT
BRANCH   4  10
ATOM     10  C   LIG d   1      10.638   3.185  -2.578  0.00  0.00     0.028 C 
ATOM     11  H   LIG d   1      10.209   2.953  -1.604  0.00  0.00     0.090 H 
ATOM     12  H   LIG d   1      11.720   3.062  -2.538  0.00  0.00     0.090 H 
BRANCH  10  13
ATOM     13  N   LIG d   1      10.315   4.572  -2.938  0.00  0.00     0.244 N 
ATOM     14  C   LIG d   1      10.371   5.415  -1.742  0.00  0.00    -0.005 C 
ATOM     15  C   LIG d   1      10.193   6.865  -2.106  0.00  0.00     0.004 A 
ATOM     16  H   LIG d   1       9.578   5.117  -1.055  0.00  0.00     0.087 H 
ATOM     17  H   LIG d   1      11.336   5.283  -1.253  0.00  0.00     0.087 H 
ATOM     18  C   LIG d   1      10.386   7.318  -3.394  0.00  0.00    -0.030 A 
ATOM     19  C   LIG d   1       9.830   7.759  -1.108  0.00  0.00    -0.008 A 
ATOM     20  C   LIG d   1      10.775   6.378  -4.507  0.00  0.00     0.013 C 
ATOM     21  C   LIG d   1      10.221   8.663  -3.689  0.00  0.00    -0.013 A 
ATOM     22  C   LIG d   1      11.294   5.066  -3.918  0.00  0.00    -0.027 C 
ATOM     23  H   LIG d   1      11.557   6.838  -5.113  0.00  0.00     0.036 H 
ATOM     24  H   LIG d   1       9.905   6.176  -5.132  0.00  0.00     0.036 H 
ATOM     25  H   LIG d   1      12.251   5.239  -3.424  0.00  0.00     0.082 H 
ATOM     26  H   LIG d   1      11.419   4.332  -4.714  0.00  0.00     0.082 H 
ATOM     27  C   LIG d   1       9.861   9.557  -2.697  0.00  0.00     0.162 A 
ATOM     28  H   LIG d   1      10.375   9.014  -4.699  0.00  0.00     0.066 H 
ATOM     29  C   LIG d   1       9.663   9.101  -1.397  0.00  0.00     0.162 A 
ATOM     30  H   LIG d   1       9.676   7.404  -0.100  0.00  0.00     0.066 H 
ATOM     31  H   LIG d   1       9.389   4.611  -3.336  0.00  0.00     0.204 HD
BRANCH  27  32
ATOM     32  O   LIG d   1       9.702  10.876  -2.991  0.00  0.00    -0.491 OA
BRANCH  32  33
ATOM     33  C   LIG d   1       9.020  11.192  -4.206  0.00  0.00     0.079 C 
ATOM     34  H   LIG d   1       9.749  11.388  -4.991  0.00  0.00     0.066 H 
ATOM     35  H   LIG d   1       8.388  10.353  -4.497  0.00  0.00     0.066 H 
ATOM     36  H   LIG d   1       8.402  12.078  -4.056  0.00  0.00     0.066 H 
ENDBRANCH  32  33
ENDBRANCH  27  32
BRANCH  29  37
ATOM     37  O   LIG d   1       9.309   9.972  -0.414  0.00  0.00    -0.491 OA
BRANCH  37  38
ATOM     38  C   LIG d   1      10.358  10.485   0.407  0.00  0.00     0.079 C 
ATOM     39  H   LIG d   1      11.028  11.096  -0.199  0.00  0.00     0.066 H 
ATOM     40  H   LIG d   1       9.932  11.096   1.203  0.00  0.00     0.066 H 
ATOM     41  H   LIG d   1      10.917   9.657   0.844  0.00  0.00     0.066 H 
ENDBRANCH  37  38
ENDBRANCH  29  37
ENDBRANCH  10  13
ENDBRANCH   4  10
BRANCH   1  42
ATOM     42  O   LIG d   1       8.662  -0.331  -6.478  0.00  0.00    -0.476 OA
BRANCH  42  43
ATOM     43  C   LIG d   1       8.945  -1.719  -6.288  0.00  0.00     0.166 C 
ATOM     44  H   LIG d   1       9.648  -1.837  -5.465  0.00  0.00     0.080 H 
ATOM     45  H   LIG d   1       9.382  -2.129  -7.200  0.00  0.00     0.080 H 
BRANCH  43  46
ATOM     46  C   LIG d   1       7.669  -2.453  -5.969  0.00  0.00     0.251 C 
ATOM     47  N   LIG d   1       6.481  -1.830  -6.106  0.00  0.00    -0.308 N 
ATOM     48  H   LIG d   1       6.448  -0.909  -6.409  0.00  0.00     0.149 HD
ATOM     49  O   LIG d   1       7.709  -3.605  -5.591  0.00  0.00    -0.272 OA
BRANCH  47  50
ATOM     50  C   LIG d   1       5.240  -2.544  -5.795  0.00  0.00     0.040 C 
ATOM     51  H   LIG d   1       5.474  -3.557  -5.471  0.00  0.00     0.051 H 
ATOM     52  H   LIG d   1       4.612  -2.583  -6.685  0.00  0.00     0.051 H 
BRANCH  50  53
ATOM     53  C   LIG d   1       4.506  -1.821  -4.695  0.00  0.00     0.011 A 
ATOM     54  C   LIG d   1       3.963  -0.566  -4.930  0.00  0.00     0.125 A 
ATOM     55  C   LIG d   1       3.283   0.093  -3.916  0.00  0.00    -0.020 A 
ATOM     56  C   LIG d   1       3.155  -0.497  -2.674  0.00  0.00    -0.058 A 
ATOM     57  H   LIG d   1       2.856   1.068  -4.099  0.00  0.00     0.065 H 
ATOM     58  C   LIG d   1       3.703  -1.745  -2.440  0.00  0.00    -0.061 A 
ATOM     59  H   LIG d   1       2.627   0.018  -1.885  0.00  0.00     0.062 H 
ATOM     60  C   LIG d   1       4.381  -2.404  -3.449  0.00  0.00    -0.054 A 
ATOM     61  H   LIG d   1       3.602  -2.204  -1.469  0.00  0.00     0.062 H 
ATOM     62  H   LIG d   1       4.808  -3.379  -3.264  0.00  0.00     0.062 H 
BRANCH  54  63
ATOM     63  O   LIG d   1       4.090   0.012  -6.153  0.00  0.00    -0.495 OA
BRANCH  63  64
ATOM     64  C   LIG d   1       2.887   0.249  -6.887  0.00  0.00     0.079 C 
ATOM     65  H   LIG d   1       3.047   1.063  -7.594  0.00  0.00     0.066 H 
ATOM     66  H   LIG d   1       2.608  -0.654  -7.430  0.00  0.00     0.066 H 
ATOM     67  H   LIG d   1       2.088   0.520  -6.197  0.00  0.00     0.066 H 
ENDBRANCH  63  64
ENDBRANCH  54  63
ENDBRANCH  50  53
ENDBRANCH  47  50
ENDBRANCH  43  46
ENDBRANCH  42  43
ENDBRANCH   1  42
TORSDOF 13
ENDMDL
MODEL 7
REMARK VINA RESULT:      -6.6      5.780     14.220
REMARK  13 active torsions:
REMARK  status: ('A' for Active; 'I' for Inactive)
REMARK    1  A    between atoms: C_1  and  O_2 
REMARK    2  A    between atoms: O_2  and  C_3 
REMARK    3  A    between atoms: C_8  and  C_9 
REMARK    4  A    between atoms: C_9  and  N_10 
REMARK       I    between atoms: N_10  and  C_11 
REMARK    5  A    between atoms: C_11  and  C_13 
REMARK    6  A    between atoms: C_13  and  O_14 
REMARK    7  A    between atoms: O_14  and  C_15 
REMARK    8  A    between atoms: C_18  and  C_22 
REMARK    9  A    between atoms: C_22  and  N_23 
REMARK   10  A    between atoms: C_28  and  O_35 
REMARK   11  A    between atoms: C_29  and  O_33 
REMARK   12  A    between atoms: O_33  and  C_34 
REMARK   13  A    between atoms: O_35  and  C_36 
ROOT
ATOM      1  C   LIG d   1       2.626  -2.427  -9.530  0.00  0.00     0.202 A 
ATOM      2  C   LIG d   1       1.548  -1.889 -10.144  0.00  0.00     0.138 A 
ATOM      3  O   LIG d   1       0.652  -2.666 -10.767  0.00  0.00    -0.459 OA
ATOM      4  C   LIG d   1       0.777  -3.998 -10.812  0.00  0.00     0.153 A 
ATOM      5  C   LIG d   1       1.821  -4.618 -10.226  0.00  0.00     0.032 A 
ATOM      6  C   LIG d   1       2.799  -3.838  -9.559  0.00  0.00     0.227 A 
ATOM      7  O   LIG d   1       3.762  -4.364  -9.022  0.00  0.00    -0.284 OA
ATOM      8  H   LIG d   1       1.408  -0.819 -10.132  0.00  0.00     0.107 H 
ATOM      9  H   LIG d   1       1.913  -5.694 -10.267  0.00  0.00     0.069 H 
ENDROOT
BRANCH   4  10
ATOM     10  C   LIG d   1      -0.266  -4.817 -11.529  0.00  0.00     0.028 C 
ATOM     11  H   LIG d   1      -0.183  -4.650 -12.602  0.00  0.00     0.090 H 
ATOM     12  H   LIG d   1      -0.110  -5.874 -11.312  0.00  0.00     0.090 H 
BRANCH  10  13
ATOM     13  N   LIG d   1      -1.603  -4.415 -11.071  0.00  0.00     0.244 N 
ATOM     14  C   LIG d   1      -2.448  -4.115 -12.229  0.00  0.00    -0.005 C 
ATOM     15  C   LIG d   1      -3.865  -3.847 -11.797  0.00  0.00     0.004 A 
ATOM     16  H   LIG d   1      -2.056  -3.235 -12.742  0.00  0.00     0.087 H 
ATOM     17  H   LIG d   1      -2.435  -4.963 -12.914  0.00  0.00     0.087 H 
ATOM     18  C   LIG d   1      -4.336  -4.254 -10.567  0.00  0.00    -0.030 A 
ATOM     19  C   LIG d   1      -4.709  -3.177 -12.671  0.00  0.00    -0.008 A 
ATOM     20  C   LIG d   1      -3.449  -4.980  -9.587  0.00  0.00     0.013 C 
ATOM     21  C   LIG d   1      -5.651  -3.997 -10.207  0.00  0.00    -0.013 A 
ATOM     22  C   LIG d   1      -2.212  -5.514 -10.306  0.00  0.00    -0.027 C 
ATOM     23  H   LIG d   1      -4.001  -5.812  -9.146  0.00  0.00     0.036 H 
ATOM     24  H   LIG d   1      -3.142  -4.292  -8.798  0.00  0.00     0.036 H 
ATOM     25  H   LIG d   1      -2.501  -6.316 -10.986  0.00  0.00     0.082 H 
ATOM     26  H   LIG d   1      -1.497  -5.891  -9.575  0.00  0.00     0.082 H 
ATOM     27  C   LIG d   1      -6.496  -3.330 -11.077  0.00  0.00     0.162 A 
ATOM     28  H   LIG d   1      -6.017  -4.319  -9.243  0.00  0.00     0.066 H 
ATOM     29  C   LIG d   1      -6.020  -2.917 -12.317  0.00  0.00     0.162 A 
ATOM     30  H   LIG d   1      -4.339  -2.855 -13.634  0.00  0.00     0.066 H 
ATOM     31  H   LIG d   1      -1.528  -3.597 -10.486  0.00  0.00     0.204 HD
BRANCH  27  32
ATOM     32  O   LIG d   1      -7.785  -3.081 -10.720  0.00  0.00    -0.491 OA
BRANCH  32  33
ATOM     33  C   LIG d   1      -8.594  -4.209 -10.382  0.00  0.00     0.079 C 
ATOM     34  H   LIG d   1      -9.129  -4.551 -11.267  0.00  0.00     0.066 H 
ATOM     35  H   LIG d   1      -7.960  -5.012 -10.007  0.00  0.00     0.066 H 
ATOM     36  H   LIG d   1      -9.311  -3.923  -9.612  0.00  0.00     0.066 H 
ENDBRANCH  32  33
ENDBRANCH  27  32
BRANCH  29  37
ATOM     37  O   LIG d   1      -6.842  -2.260 -13.179  0.00  0.00    -0.491 OA
BRANCH  37  38
ATOM     38  C   LIG d   1      -6.270  -1.192 -13.935  0.00  0.00     0.079 C 
ATOM     39  H   LIG d   1      -5.840  -0.455 -13.256  0.00  0.00     0.066 H 
ATOM     40  H   LIG d   1      -5.489  -1.585 -14.587  0.00  0.00     0.066 H 
ATOM     41  H   LIG d   1      -7.044  -0.719 -14.541  0.00  0.00     0.066 H 
ENDBRANCH  37  38
ENDBRANCH  29  37
ENDBRANCH  10  13
ENDBRANCH   4  10
BRANCH   1  42
ATOM     42  O   LIG d   1       3.532  -1.632  -8.901  0.00  0.00    -0.476 OA
BRANCH  42  43
ATOM     43  C   LIG d   1       3.404  -0.222  -9.095  0.00  0.00     0.166 C 
ATOM     44  H   LIG d   1       2.568  -0.022  -9.764  0.00  0.00     0.080 H 
ATOM     45  H   LIG d   1       4.322   0.170  -9.534  0.00  0.00     0.080 H 
BRANCH  43  46
ATOM     46  C   LIG d   1       3.157   0.448  -7.768  0.00  0.00     0.251 C 
ATOM     47  N   LIG d   1       2.939  -0.299  -6.667  0.00  0.00    -0.308 N 
ATOM     48  H   LIG d   1       2.940  -1.267  -6.729  0.00  0.00     0.149 HD
ATOM     49  O   LIG d   1       3.155   1.658  -7.690  0.00  0.00    -0.272 OA
BRANCH  47  50
ATOM     50  C   LIG d   1       2.698   0.352  -5.376  0.00  0.00     0.040 C 
ATOM     51  H   LIG d   1       1.636   0.308  -5.140  0.00  0.00     0.051 H 
ATOM     52  H   LIG d   1       3.016   1.393  -5.431  0.00  0.00     0.051 H 
BRANCH  50  53
ATOM     53  C   LIG d   1       3.482  -0.357  -4.302  0.00  0.00     0.011 A 
ATOM     54  C   LIG d   1       4.869  -0.342  -4.330  0.00  0.00     0.125 A 
ATOM     55  C   LIG d   1       5.587  -0.991  -3.336  0.00  0.00    -0.020 A 
ATOM     56  C   LIG d   1       4.920  -1.655  -2.325  0.00  0.00    -0.058 A 
ATOM     57  H   LIG d   1       6.667  -0.978  -3.355  0.00  0.00     0.065 H 
ATOM     58  C   LIG d   1       3.538  -1.673  -2.302  0.00  0.00    -0.061 A 
ATOM     59  H   LIG d   1       5.480  -2.161  -1.552  0.00  0.00     0.062 H 
ATOM     60  C   LIG d   1       2.820  -1.027  -3.292  0.00  0.00    -0.054 A 
ATOM     61  H   LIG d   1       3.018  -2.192  -1.511  0.00  0.00     0.062 H 
ATOM     62  H   LIG d   1       1.740  -1.042  -3.272  0.00  0.00     0.062 H 
BRANCH  54  63
ATOM     63  O   LIG d   1       5.523   0.311  -5.326  0.00  0.00    -0.495 OA
BRANCH  63  64
ATOM     64  C   LIG d   1       6.511  -0.427  -6.047  0.00  0.00     0.079 C 
ATOM     65  H   LIG d   1       7.418  -0.501  -5.448  0.00  0.00     0.066 H 
ATOM     66  H   LIG d   1       6.134  -1.426  -6.261  0.00  0.00     0.066 H 
ATOM     67  H   LIG d   1       6.736   0.085  -6.983  0.00  0.00     0.066 H 
ENDBRANCH  63  64
ENDBRANCH  54  63
ENDBRANCH  50  53
ENDBRANCH  47  50
ENDBRANCH  43  46
ENDBRANCH  42  43
ENDBRANCH   1  42
TORSDOF 13
ENDMDL
MODEL 8
REMARK VINA RESULT:      -6.6      4.493     12.324
REMARK  13 active torsions:
REMARK  status: ('A' for Active; 'I' for Inactive)
REMARK    1  A    between atoms: C_1  and  O_2 
REMARK    2  A    between atoms: O_2  and  C_3 
REMARK    3  A    between atoms: C_8  and  C_9 
REMARK    4  A    between atoms: C_9  and  N_10 
REMARK       I    between atoms: N_10  and  C_11 
REMARK    5  A    between atoms: C_11  and  C_13 
REMARK    6  A    between atoms: C_13  and  O_14 
REMARK    7  A    between atoms: O_14  and  C_15 
REMARK    8  A    between atoms: C_18  and  C_22 
REMARK    9  A    between atoms: C_22  and  N_23 
REMARK   10  A    between atoms: C_28  and  O_35 
REMARK   11  A    between atoms: C_29  and  O_33 
REMARK   12  A    between atoms: O_33  and  C_34 
REMARK   13  A    between atoms: O_35  and  C_36 
ROOT
ATOM      1  C   LIG d   1       5.758   1.370  -9.145  0.00  0.00     0.202 A 
ATOM      2  C   LIG d   1       6.327   0.432  -9.933  0.00  0.00     0.138 A 
ATOM      3  O   LIG d   1       5.628  -0.161 -10.911  0.00  0.00    -0.459 OA
ATOM      4  C   LIG d   1       4.348   0.143 -11.154  0.00  0.00     0.153 A 
ATOM      5  C   LIG d   1       3.702   1.068 -10.416  0.00  0.00     0.032 A 
ATOM      6  C   LIG d   1       4.396   1.719  -9.366  0.00  0.00     0.227 A 
ATOM      7  O   LIG d   1       3.842   2.558  -8.671  0.00  0.00    -0.284 OA
ATOM      8  H   LIG d   1       7.358   0.155  -9.773  0.00  0.00     0.107 H 
ATOM      9  H   LIG d   1       2.668   1.308 -10.620  0.00  0.00     0.069 H 
ENDROOT
BRANCH   4  10
ATOM     10  C   LIG d   1       3.617  -0.559 -12.270  0.00  0.00     0.028 C 
ATOM     11  H   LIG d   1       3.175   0.182 -12.936  0.00  0.00     0.090 H 
ATOM     12  H   LIG d   1       4.319  -1.178 -12.829  0.00  0.00     0.090 H 
BRANCH  10  13
ATOM     13  N   LIG d   1       2.558  -1.405 -11.705  0.00  0.00     0.244 N 
ATOM     14  C   LIG d   1       1.655  -1.840 -12.774  0.00  0.00    -0.005 C 
ATOM     15  C   LIG d   1       0.649  -2.830 -12.249  0.00  0.00     0.004 A 
ATOM     16  H   LIG d   1       1.129  -0.972 -13.175  0.00  0.00     0.087 H 
ATOM     17  H   LIG d   1       2.236  -2.306 -13.569  0.00  0.00     0.087 H 
ATOM     18  C   LIG d   1       0.853  -3.512 -11.068  0.00  0.00    -0.030 A 
ATOM     19  C   LIG d   1      -0.505  -3.054 -12.984  0.00  0.00    -0.008 A 
ATOM     20  C   LIG d   1       2.092  -3.292 -10.236  0.00  0.00     0.013 C 
ATOM     21  C   LIG d   1      -0.092  -4.423 -10.620  0.00  0.00    -0.013 A 
ATOM     22  C   LIG d   1       3.160  -2.591 -11.075  0.00  0.00    -0.027 C 
ATOM     23  H   LIG d   1       2.473  -4.254  -9.893  0.00  0.00     0.036 H 
ATOM     24  H   LIG d   1       1.843  -2.673  -9.373  0.00  0.00     0.036 H 
ATOM     25  H   LIG d   1       3.524  -3.270 -11.847  0.00  0.00     0.082 H 
ATOM     26  H   LIG d   1       3.986  -2.285 -10.435  0.00  0.00     0.082 H 
ATOM     27  C   LIG d   1      -1.244  -4.651 -11.353  0.00  0.00     0.162 A 
ATOM     28  H   LIG d   1       0.071  -4.957  -9.696  0.00  0.00     0.066 H 
ATOM     29  C   LIG d   1      -1.451  -3.961 -12.543  0.00  0.00     0.162 A 
ATOM     30  H   LIG d   1      -0.666  -2.517 -13.908  0.00  0.00     0.066 H 
ATOM     31  H   LIG d   1       2.040  -0.882 -11.016  0.00  0.00     0.204 HD
BRANCH  27  32
ATOM     32  O   LIG d   1      -2.168  -5.547 -10.911  0.00  0.00    -0.491 OA
BRANCH  32  33
ATOM     33  C   LIG d   1      -3.096  -5.089  -9.925  0.00  0.00     0.079 C 
ATOM     34  H   LIG d   1      -4.113  -5.249 -10.282  0.00  0.00     0.066 H 
ATOM     35  H   LIG d   1      -2.944  -5.642  -8.999  0.00  0.00     0.066 H 
ATOM     36  H   LIG d   1      -2.938  -4.025  -9.744  0.00  0.00     0.066 H 
ENDBRANCH  32  33
ENDBRANCH  27  32
BRANCH  29  37
ATOM     37  O   LIG d   1      -2.581  -4.178 -13.270  0.00  0.00    -0.491 OA
BRANCH  37  38
ATOM     38  C   LIG d   1      -3.576  -3.153 -13.243  0.00  0.00     0.079 C 
ATOM     39  H   LIG d   1      -3.130  -2.222 -12.894  0.00  0.00     0.066 H 
ATOM     40  H   LIG d   1      -3.977  -3.010 -14.247  0.00  0.00     0.066 H 
ATOM     41  H   LIG d   1      -4.381  -3.446 -12.568  0.00  0.00     0.066 H 
ENDBRANCH  37  38
ENDBRANCH  29  37
ENDBRANCH  10  13
ENDBRANCH   4  10
BRANCH   1  42
ATOM     42  O   LIG d   1       6.472   1.967  -8.153  0.00  0.00    -0.476 OA
BRANCH  42  43
ATOM     43  C   LIG d   1       7.754   1.411  -7.852  0.00  0.00     0.166 C 
ATOM     44  H   LIG d   1       8.522   1.951  -8.404  0.00  0.00     0.080 H 
ATOM     45  H   LIG d   1       7.771   0.360  -8.141  0.00  0.00     0.080 H 
BRANCH  43  46
ATOM     46  C   LIG d   1       8.019   1.530  -6.374  0.00  0.00     0.251 C 
ATOM     47  N   LIG d   1       7.126   1.047  -5.488  0.00  0.00    -0.308 N 
ATOM     48  H   LIG d   1       6.311   0.623  -5.802  0.00  0.00     0.149 HD
ATOM     49  O   LIG d   1       9.037   2.060  -5.981  0.00  0.00    -0.272 OA
BRANCH  47  50
ATOM     50  C   LIG d   1       7.383   1.164  -4.050  0.00  0.00     0.040 C 
ATOM     51  H   LIG d   1       7.421   2.216  -3.771  0.00  0.00     0.051 H 
ATOM     52  H   LIG d   1       8.336   0.690  -3.813  0.00  0.00     0.051 H 
BRANCH  50  53
ATOM     53  C   LIG d   1       6.279   0.480  -3.285  0.00  0.00     0.011 A 
ATOM     54  C   LIG d   1       6.167  -0.902  -3.313  0.00  0.00     0.125 A 
ATOM     55  C   LIG d   1       5.152  -1.527  -2.603  0.00  0.00    -0.020 A 
ATOM     56  C   LIG d   1       4.253  -0.772  -1.875  0.00  0.00    -0.058 A 
ATOM     57  H   LIG d   1       5.065  -2.603  -2.620  0.00  0.00     0.065 H 
ATOM     58  C   LIG d   1       4.363   0.606  -1.853  0.00  0.00    -0.061 A 
ATOM     59  H   LIG d   1       3.463  -1.260  -1.323  0.00  0.00     0.062 H 
ATOM     60  C   LIG d   1       5.373   1.232  -2.560  0.00  0.00    -0.054 A 
ATOM     61  H   LIG d   1       3.660   1.194  -1.284  0.00  0.00     0.062 H 
ATOM     62  H   LIG d   1       5.458   2.308  -2.542  0.00  0.00     0.062 H 
BRANCH  54  63
ATOM     63  O   LIG d   1       7.052  -1.642  -4.029  0.00  0.00    -0.495 OA
BRANCH  63  64
ATOM     64  C   LIG d   1       6.591  -2.897  -4.534  0.00  0.00     0.079 C 
ATOM     65  H   LIG d   1       7.208  -3.699  -4.131  0.00  0.00     0.066 H 
ATOM     66  H   LIG d   1       5.555  -3.050  -4.234  0.00  0.00     0.066 H 
ATOM     67  H   LIG d   1       6.659  -2.898  -5.622  0.00  0.00     0.066 H 
ENDBRANCH  63  64
ENDBRANCH  54  63
ENDBRANCH  50  53
ENDBRANCH  47  50
ENDBRANCH  43  46
ENDBRANCH  42  43
ENDBRANCH   1  42
TORSDOF 13
ENDMDL
MODEL 9
REMARK VINA RESULT:      -6.5      6.117     12.757
REMARK  13 active torsions:
REMARK  status: ('A' for Active; 'I' for Inactive)
REMARK    1  A    between atoms: C_1  and  O_2 
REMARK    2  A    between atoms: O_2  and  C_3 
REMARK    3  A    between atoms: C_8  and  C_9 
REMARK    4  A    between atoms: C_9  and  N_10 
REMARK       I    between atoms: N_10  and  C_11 
REMARK    5  A    between atoms: C_11  and  C_13 
REMARK    6  A    between atoms: C_13  and  O_14 
REMARK    7  A    between atoms: O_14  and  C_15 
REMARK    8  A    between atoms: C_18  and  C_22 
REMARK    9  A    between atoms: C_22  and  N_23 
REMARK   10  A    between atoms: C_28  and  O_35 
REMARK   11  A    between atoms: C_29  and  O_33 
REMARK   12  A    between atoms: O_33  and  C_34 
REMARK   13  A    between atoms: O_35  and  C_36 
ROOT
ATOM      1  C   LIG d   1       3.232  -0.091  -7.840  0.00  0.00     0.202 A 
ATOM      2  C   LIG d   1       3.565  -1.398  -7.765  0.00  0.00     0.138 A 
ATOM      3  O   LIG d   1       3.392  -2.214  -8.814  0.00  0.00    -0.459 OA
ATOM      4  C   LIG d   1       2.887  -1.780  -9.975  0.00  0.00     0.153 A 
ATOM      5  C   LIG d   1       2.528  -0.491 -10.138  0.00  0.00     0.032 A 
ATOM      6  C   LIG d   1       2.688   0.410  -9.055  0.00  0.00     0.227 A 
ATOM      7  O   LIG d   1       2.368   1.585  -9.163  0.00  0.00    -0.284 OA
ATOM      8  H   LIG d   1       3.976  -1.791  -6.847  0.00  0.00     0.107 H 
ATOM      9  H   LIG d   1       2.123  -0.150 -11.079  0.00  0.00     0.069 H 
ENDROOT
BRANCH   4  10
ATOM     10  C   LIG d   1       2.717  -2.748 -11.118  0.00  0.00     0.028 C 
ATOM     11  H   LIG d   1       2.144  -2.273 -11.913  0.00  0.00     0.090 H 
ATOM     12  H   LIG d   1       3.698  -3.036 -11.498  0.00  0.00     0.090 H 
BRANCH  10  13
ATOM     13  N   LIG d   1       2.005  -3.942 -10.645  0.00  0.00     0.244 N 
ATOM     14  C   LIG d   1       0.560  -3.727 -10.755  0.00  0.00    -0.005 C 
ATOM     15  C   LIG d   1      -0.192  -4.988 -10.420  0.00  0.00     0.004 A 
ATOM     16  H   LIG d   1       0.261  -2.937 -10.064  0.00  0.00     0.087 H 
ATOM     17  H   LIG d   1       0.317  -3.424 -11.773  0.00  0.00     0.087 H 
ATOM     18  C   LIG d   1       0.421  -6.224 -10.441  0.00  0.00    -0.030 A 
ATOM     19  C   LIG d   1      -1.535  -4.891 -10.090  0.00  0.00    -0.008 A 
ATOM     20  C   LIG d   1       1.881  -6.371 -10.789  0.00  0.00     0.013 C 
ATOM     21  C   LIG d   1      -0.306  -7.364 -10.135  0.00  0.00    -0.013 A 
ATOM     22  C   LIG d   1       2.380  -5.099 -11.473  0.00  0.00    -0.027 C 
ATOM     23  H   LIG d   1       2.008  -7.220 -11.462  0.00  0.00     0.036 H 
ATOM     24  H   LIG d   1       2.455  -6.543  -9.878  0.00  0.00     0.036 H 
ATOM     25  H   LIG d   1       1.921  -5.008 -12.458  0.00  0.00     0.082 H 
ATOM     26  H   LIG d   1       3.464  -5.140 -11.575  0.00  0.00     0.082 H 
ATOM     27  C   LIG d   1      -1.647  -7.271  -9.807  0.00  0.00     0.162 A 
ATOM     28  H   LIG d   1       0.176  -8.330 -10.154  0.00  0.00     0.066 H 
ATOM     29  C   LIG d   1      -2.265  -6.024  -9.783  0.00  0.00     0.162 A 
ATOM     30  H   LIG d   1      -2.015  -3.923 -10.071  0.00  0.00     0.066 H 
ATOM     31  H   LIG d   1       2.248  -4.122  -9.683  0.00  0.00     0.204 HD
BRANCH  27  32
ATOM     32  O   LIG d   1      -2.357  -8.393  -9.509  0.00  0.00    -0.491 OA
BRANCH  32  33
ATOM     33  C   LIG d   1      -2.735  -9.231 -10.603  0.00  0.00     0.079 C 
ATOM     34  H   LIG d   1      -1.941  -9.951 -10.799  0.00  0.00     0.066 H 
ATOM     35  H   LIG d   1      -3.654  -9.761 -10.354  0.00  0.00     0.066 H 
ATOM     36  H   LIG d   1      -2.897  -8.619 -11.490  0.00  0.00     0.066 H 
ENDBRANCH  32  33
ENDBRANCH  27  32
BRANCH  29  37
ATOM     37  O   LIG d   1      -3.583  -5.922  -9.462  0.00  0.00    -0.491 OA
BRANCH  37  38
ATOM     38  C   LIG d   1      -4.218  -4.669  -9.719  0.00  0.00     0.079 C 
ATOM     39  H   LIG d   1      -3.471  -3.942 -10.039  0.00  0.00     0.066 H 
ATOM     40  H   LIG d   1      -4.965  -4.793 -10.504  0.00  0.00     0.066 H 
ATOM     41  H   LIG d   1      -4.703  -4.313  -8.809  0.00  0.00     0.066 H 
ENDBRANCH  37  38
ENDBRANCH  29  37
ENDBRANCH  10  13
ENDBRANCH   4  10
BRANCH   1  42
ATOM     42  O   LIG d   1       3.410   0.732  -6.772  0.00  0.00    -0.476 OA
BRANCH  42  43
ATOM     43  C   LIG d   1       2.558   0.522  -5.643  0.00  0.00     0.166 C 
ATOM     44  H   LIG d   1       1.744  -0.146  -5.922  0.00  0.00     0.080 H 
ATOM     45  H   LIG d   1       2.147   1.478  -5.316  0.00  0.00     0.080 H 
BRANCH  43  46
ATOM     46  C   LIG d   1       3.352  -0.093  -4.521  0.00  0.00     0.251 C 
ATOM     47  N   LIG d   1       3.227  -1.407  -4.248  0.00  0.00    -0.308 N 
ATOM     48  H   LIG d   1       2.625  -1.956  -4.774  0.00  0.00     0.149 HD
ATOM     49  O   LIG d   1       4.106   0.594  -3.863  0.00  0.00    -0.272 OA
BRANCH  47  50
ATOM     50  C   LIG d   1       4.000  -2.005  -3.156  0.00  0.00     0.040 C 
ATOM     51  H   LIG d   1       3.436  -2.830  -2.721  0.00  0.00     0.051 H 
ATOM     52  H   LIG d   1       4.191  -1.252  -2.392  0.00  0.00     0.051 H 
BRANCH  50  53
ATOM     53  C   LIG d   1       5.311  -2.520  -3.692  0.00  0.00     0.011 A 
ATOM     54  C   LIG d   1       5.324  -3.510  -4.663  0.00  0.00     0.125 A 
ATOM     55  C   LIG d   1       6.533  -3.977  -5.158  0.00  0.00    -0.020 A 
ATOM     56  C   LIG d   1       7.721  -3.460  -4.677  0.00  0.00    -0.058 A 
ATOM     57  H   LIG d   1       6.545  -4.745  -5.917  0.00  0.00     0.065 H 
ATOM     58  C   LIG d   1       7.705  -2.478  -3.704  0.00  0.00    -0.061 A 
ATOM     59  H   LIG d   1       8.662  -3.825  -5.062  0.00  0.00     0.062 H 
ATOM     60  C   LIG d   1       6.502  -2.010  -3.210  0.00  0.00    -0.054 A 
ATOM     61  H   LIG d   1       8.634  -2.075  -3.331  0.00  0.00     0.062 H 
ATOM     62  H   LIG d   1       6.492  -1.243  -2.450  0.00  0.00     0.062 H 
BRANCH  54  63
ATOM     63  O   LIG d   1       4.155  -4.017  -5.134  0.00  0.00    -0.495 OA
BRANCH  63  64
ATOM     64  C   LIG d   1       4.239  -4.945  -6.217  0.00  0.00     0.079 C 
ATOM     65  H   LIG d   1       4.181  -4.408  -7.163  0.00  0.00     0.066 H 
ATOM     66  H   LIG d   1       5.186  -5.482  -6.162  0.00  0.00     0.066 H 
ATOM     67  H   LIG d   1       3.414  -5.655  -6.151  0.00  0.00     0.066 H 
ENDBRANCH  63  64
ENDBRANCH  54  63
ENDBRANCH  50  53
ENDBRANCH  47  50
ENDBRANCH  43  46
ENDBRANCH  42  43
ENDBRANCH   1  42
TORSDOF 13
ENDMDL
