MODEL 1
REMARK VINA RESULT:      -5.9      0.000      0.000
REMARK  2 active torsions:
REMARK  status: ('A' for Active; 'I' for Inactive)
REMARK    1  A    between atoms: C_1  and  S_2 
REMARK    2  A    between atoms: S_2  and  N_5 
ROOT
ATOM      1  N   UNK d   1       4.790   0.193  -8.683  0.00  0.00    -0.178 N 
ATOM      2  C   UNK d   1       3.474   0.796  -8.447  0.00  0.00     0.036 C 
ATOM      3  C   UNK d   1       2.759  -0.047  -7.387  0.00  0.00     0.030 C 
ATOM      4  N   UNK d   1       3.630  -0.164  -6.205  0.00  0.00    -0.286 N 
ATOM      5  C   UNK d   1       5.009  -0.607  -6.340  0.00  0.00     0.117 C 
ATOM      6  H   UNK d   1       5.001  -1.694  -6.419  0.00  0.00     0.061 H 
ATOM      7  C   UNK d   1       5.700  -0.048  -7.575  0.00  0.00     0.047 C 
ATOM      8  C   UNK d   1       5.832  -0.231  -5.130  0.00  0.00     0.238 C 
ATOM      9  O   UNK d   1       7.034  -0.106  -5.227  0.00  0.00    -0.274 OA
ATOM     10  H   UNK d   1       3.595   1.818  -8.086  0.00  0.00     0.046 H 
ATOM     11  H   UNK d   1       2.897   0.797  -9.371  0.00  0.00     0.046 H 
ATOM     12  H   UNK d   1       1.823   0.437  -7.105  0.00  0.00     0.048 H 
ATOM     13  H   UNK d   1       2.550  -1.038  -7.789  0.00  0.00     0.048 H 
ATOM     14  H   UNK d   1       6.184   0.893  -7.309  0.00  0.00     0.047 H 
ATOM     15  H   UNK d   1       6.464  -0.755  -7.899  0.00  0.00     0.047 H 
ATOM     16  N   PRO d   2       5.226  -0.035  -3.947  0.00  0.00    -0.288 N 
ATOM     17  CD  PRO d   2       5.816   0.463  -2.702  0.00  0.00     0.016 C 
ATOM     18  CG  PRO d   2       4.660   0.653  -1.693  0.00  0.00    -0.035 C 
ATOM     19  CB  PRO d   2       3.408   0.741  -2.608  0.00  0.00    -0.024 C 
ATOM     20  CA  PRO d   2       3.781  -0.256  -3.730  0.00  0.00     0.102 C 
ATOM     21  HA  PRO d   2       3.578  -1.283  -3.430  0.00  0.00     0.060 H 
ATOM     22  C   PRO d   2       3.071   0.106  -5.005  0.00  0.00     0.237 C 
ATOM     23  O   PRO d   2       1.986   0.645  -4.956  0.00  0.00    -0.274 OA
ATOM     24  HD1 PRO d   2       6.531  -0.263  -2.315  0.00  0.00     0.046 H 
ATOM     25  HD2 PRO d   2       6.316   1.415  -2.882  0.00  0.00     0.046 H 
ATOM     26  HG1 PRO d   2       4.790   1.577  -1.128  0.00  0.00     0.028 H 
ATOM     27  HG2 PRO d   2       4.589  -0.202  -1.023  0.00  0.00     0.028 H 
ATOM     28  HB1 PRO d   2       3.282   1.748  -3.005  0.00  0.00     0.029 H 
ATOM     29  HB2 PRO d   2       2.512   0.417  -2.078  0.00  0.00     0.029 H 
ENDROOT
BRANCH   1  30
ATOM     30  S   UNK d   1       5.241  -0.217 -10.222  0.00  0.00     0.029 S 
ATOM     31  O   UNK d   1       6.556   0.305 -10.366  0.00  0.00    -0.158 OA
ATOM     32  O   UNK d   1       5.004  -1.615 -10.309  0.00  0.00    -0.158 OA
BRANCH  30  33
ATOM     33  C   UNK d   1       4.092   0.679 -11.301  0.00  0.00     0.071 C 
ATOM     34  H   UNK d   1       3.925   0.104 -12.211  0.00  0.00     0.048 H 
ATOM     35  H   UNK d   1       3.144   0.823 -10.783  0.00  0.00     0.048 H 
ATOM     36  H   UNK d   1       4.516   1.650 -11.557  0.00  0.00     0.048 H 
ENDBRANCH  30  33
ENDBRANCH   1  30
TORSDOF 2
ENDMDL
MODEL 2
REMARK VINA RESULT:      -5.8      2.162      2.935
REMARK  2 active torsions:
REMARK  status: ('A' for Active; 'I' for Inactive)
REMARK    1  A    between atoms: C_1  and  S_2 
REMARK    2  A    between atoms: S_2  and  N_5 
ROOT
ATOM      1  N   UNK d   1       3.124  -1.180  -9.088  0.00  0.00    -0.178 N 
ATOM      2  C   UNK d   1       3.362  -2.607  -8.854  0.00  0.00     0.036 C 
ATOM      3  C   UNK d   1       4.609  -2.733  -7.973  0.00  0.00     0.030 C 
ATOM      4  N   UNK d   1       4.424  -1.909  -6.767  0.00  0.00    -0.286 N 
ATOM      5  C   UNK d   1       4.034  -0.511  -6.875  0.00  0.00     0.117 C 
ATOM      6  H   UNK d   1       4.930   0.065  -7.109  0.00  0.00     0.061 H 
ATOM      7  C   UNK d   1       3.009  -0.257  -7.970  0.00  0.00     0.047 C 
ATOM      8  C   UNK d   1       3.469   0.008  -5.573  0.00  0.00     0.238 C 
ATOM      9  O   UNK d   1       2.708   0.951  -5.573  0.00  0.00    -0.274 OA
ATOM     10  H   UNK d   1       2.504  -3.046  -8.344  0.00  0.00     0.046 H 
ATOM     11  H   UNK d   1       3.526  -3.116  -9.804  0.00  0.00     0.046 H 
ATOM     12  H   UNK d   1       4.750  -3.775  -7.686  0.00  0.00     0.048 H 
ATOM     13  H   UNK d   1       5.482  -2.385  -8.525  0.00  0.00     0.048 H 
ATOM     14  H   UNK d   1       2.010  -0.349  -7.542  0.00  0.00     0.047 H 
ATOM     15  H   UNK d   1       3.138   0.759  -8.342  0.00  0.00     0.047 H 
ATOM     16  N   PRO d   2       3.813  -0.581  -4.415  0.00  0.00    -0.288 N 
ATOM     17  CD  PRO d   2       3.278  -0.323  -3.077  0.00  0.00     0.016 C 
ATOM     18  CG  PRO d   2       3.893  -1.377  -2.128  0.00  0.00    -0.035 C 
ATOM     19  CB  PRO d   2       4.348  -2.500  -3.099  0.00  0.00    -0.024 C 
ATOM     20  CA  PRO d   2       4.803  -1.675  -4.325  0.00  0.00     0.102 C 
ATOM     21  HA  PRO d   2       5.811  -1.287  -4.189  0.00  0.00     0.060 H 
ATOM     22  C   PRO d   2       4.684  -2.498  -5.579  0.00  0.00     0.237 C 
ATOM     23  O   PRO d   2       4.823  -3.701  -5.523  0.00  0.00    -0.274 OA
ATOM     24  HD1 PRO d   2       3.559   0.678  -2.752  0.00  0.00     0.046 H 
ATOM     25  HD2 PRO d   2       2.191  -0.418  -3.087  0.00  0.00     0.046 H 
ATOM     26  HG1 PRO d   2       3.144  -1.752  -1.429  0.00  0.00     0.028 H 
ATOM     27  HG2 PRO d   2       4.746  -0.962  -1.592  0.00  0.00     0.028 H 
ATOM     28  HB1 PRO d   2       3.516  -3.157  -3.356  0.00  0.00     0.029 H 
ATOM     29  HB2 PRO d   2       5.178  -3.069  -2.680  0.00  0.00     0.029 H 
ENDROOT
BRANCH   1  30
ATOM     30  S   UNK d   1       2.985  -0.613 -10.638  0.00  0.00     0.029 S 
ATOM     31  O   UNK d   1       3.832  -1.455 -11.409  0.00  0.00    -0.158 OA
ATOM     32  O   UNK d   1       1.586  -0.573 -10.885  0.00  0.00    -0.158 OA
BRANCH  30  33
ATOM     33  C   UNK d   1       3.658   1.069 -10.582  0.00  0.00     0.071 C 
ATOM     34  H   UNK d   1       4.524   1.093  -9.920  0.00  0.00     0.048 H 
ATOM     35  H   UNK d   1       3.959   1.375 -11.584  0.00  0.00     0.048 H 
ATOM     36  H   UNK d   1       2.897   1.753 -10.208  0.00  0.00     0.048 H 
ENDBRANCH  30  33
ENDBRANCH   1  30
TORSDOF 2
ENDMDL
MODEL 3
REMARK VINA RESULT:      -5.4      2.767      3.425
REMARK  2 active torsions:
REMARK  status: ('A' for Active; 'I' for Inactive)
REMARK    1  A    between atoms: C_1  and  S_2 
REMARK    2  A    between atoms: S_2  and  N_5 
ROOT
ATOM      1  N   UNK d   1       3.972  -3.102  -8.655  0.00  0.00    -0.178 N 
ATOM      2  C   UNK d   1       3.852  -4.238  -7.736  0.00  0.00     0.036 C 
ATOM      3  C   UNK d   1       4.857  -4.025  -6.599  0.00  0.00     0.030 C 
ATOM      4  N   UNK d   1       4.629  -2.696  -6.007  0.00  0.00    -0.286 N 
ATOM      5  C   UNK d   1       4.573  -1.508  -6.845  0.00  0.00     0.117 C 
ATOM      6  H   UNK d   1       5.599  -1.213  -7.069  0.00  0.00     0.061 H 
ATOM      7  C   UNK d   1       3.849  -1.739  -8.163  0.00  0.00     0.047 C 
ATOM      8  C   UNK d   1       3.898  -0.359  -6.133  0.00  0.00     0.238 C 
ATOM      9  O   UNK d   1       3.369   0.526  -6.771  0.00  0.00    -0.274 OA
ATOM     10  H   UNK d   1       2.841  -4.281  -7.332  0.00  0.00     0.046 H 
ATOM     11  H   UNK d   1       4.080  -5.164  -8.262  0.00  0.00     0.046 H 
ATOM     12  H   UNK d   1       4.716  -4.793  -5.839  0.00  0.00     0.048 H 
ATOM     13  H   UNK d   1       5.871  -4.082  -6.993  0.00  0.00     0.048 H 
ATOM     14  H   UNK d   1       2.792  -1.510  -8.026  0.00  0.00     0.047 H 
ATOM     15  H   UNK d   1       4.259  -1.060  -8.912  0.00  0.00     0.047 H 
ATOM     16  N   PRO d   2       3.886  -0.322  -4.790  0.00  0.00    -0.288 N 
ATOM     17  CD  PRO d   2       3.176   0.618  -3.919  0.00  0.00     0.016 C 
ATOM     18  CG  PRO d   2       3.365   0.124  -2.466  0.00  0.00    -0.035 C 
ATOM     19  CB  PRO d   2       3.743  -1.371  -2.650  0.00  0.00    -0.024 C 
ATOM     20  CA  PRO d   2       4.584  -1.314  -3.946  0.00  0.00     0.102 C 
ATOM     21  HA  PRO d   2       5.609  -1.006  -3.739  0.00  0.00     0.060 H 
ATOM     22  C   PRO d   2       4.530  -2.636  -4.661  0.00  0.00     0.237 C 
ATOM     23  O   PRO d   2       4.397  -3.658  -4.022  0.00  0.00    -0.274 OA
ATOM     24  HD1 PRO d   2       3.598   1.616  -4.029  0.00  0.00     0.046 H 
ATOM     25  HD2 PRO d   2       2.116   0.633  -4.174  0.00  0.00     0.046 H 
ATOM     26  HG1 PRO d   2       2.436   0.220  -1.903  0.00  0.00     0.028 H 
ATOM     27  HG2 PRO d   2       4.171   0.668  -1.975  0.00  0.00     0.028 H 
ATOM     28  HB1 PRO d   2       2.854  -1.986  -2.787  0.00  0.00     0.029 H 
ATOM     29  HB2 PRO d   2       4.339  -1.730  -1.811  0.00  0.00     0.029 H 
ENDROOT
BRANCH   1  30
ATOM     30  S   UNK d   1       4.249  -3.373 -10.265  0.00  0.00     0.029 S 
ATOM     31  O   UNK d   1       3.009  -3.846 -10.772  0.00  0.00    -0.158 OA
ATOM     32  O   UNK d   1       4.812  -2.159 -10.744  0.00  0.00    -0.158 OA
BRANCH  30  33
ATOM     33  C   UNK d   1       5.488  -4.696 -10.309  0.00  0.00     0.071 C 
ATOM     34  H   UNK d   1       4.991  -5.662 -10.228  0.00  0.00     0.048 H 
ATOM     35  H   UNK d   1       6.039  -4.648 -11.248  0.00  0.00     0.048 H 
ATOM     36  H   UNK d   1       6.180  -4.573  -9.476  0.00  0.00     0.048 H 
ENDBRANCH  30  33
ENDBRANCH   1  30
TORSDOF 2
ENDMDL
MODEL 4
REMARK VINA RESULT:      -5.3      3.945      4.905
REMARK  2 active torsions:
REMARK  status: ('A' for Active; 'I' for Inactive)
REMARK    1  A    between atoms: C_1  and  S_2 
REMARK    2  A    between atoms: S_2  and  N_5 
ROOT
ATOM      1  N   UNK d   1       8.548   1.615  -5.734  0.00  0.00    -0.178 N 
ATOM      2  C   UNK d   1       8.402   0.433  -6.589  0.00  0.00     0.036 C 
ATOM      3  C   UNK d   1       8.468  -0.804  -5.687  0.00  0.00     0.030 C 
ATOM      4  N   UNK d   1       7.471  -0.664  -4.614  0.00  0.00    -0.286 N 
ATOM      5  C   UNK d   1       7.421   0.539  -3.798  0.00  0.00     0.117 C 
ATOM      6  H   UNK d   1       8.199   0.456  -3.039  0.00  0.00     0.061 H 
ATOM      7  C   UNK d   1       7.669   1.813  -4.592  0.00  0.00     0.047 C 
ATOM      8  C   UNK d   1       6.092   0.676  -3.094  0.00  0.00     0.238 C 
ATOM      9  O   UNK d   1       5.695   1.769  -2.750  0.00  0.00    -0.274 OA
ATOM     10  H   UNK d   1       7.441   0.464  -7.103  0.00  0.00     0.046 H 
ATOM     11  H   UNK d   1       9.210   0.403  -7.319  0.00  0.00     0.046 H 
ATOM     12  H   UNK d   1       8.251  -1.696  -6.275  0.00  0.00     0.048 H 
ATOM     13  H   UNK d   1       9.465  -0.886  -5.254  0.00  0.00     0.048 H 
ATOM     14  H   UNK d   1       6.712   2.195  -4.949  0.00  0.00     0.047 H 
ATOM     15  H   UNK d   1       8.118   2.556  -3.932  0.00  0.00     0.047 H 
ATOM     16  N   PRO d   2       5.349  -0.418  -2.851  0.00  0.00    -0.288 N 
ATOM     17  CD  PRO d   2       3.989  -0.485  -2.313  0.00  0.00     0.016 C 
ATOM     18  CG  PRO d   2       3.543  -1.964  -2.383  0.00  0.00    -0.035 C 
ATOM     19  CB  PRO d   2       4.501  -2.568  -3.447  0.00  0.00    -0.024 C 
ATOM     20  CA  PRO d   2       5.805  -1.790  -3.158  0.00  0.00     0.102 C 
ATOM     21  HA  PRO d   2       6.348  -2.224  -2.320  0.00  0.00     0.060 H 
ATOM     22  C   PRO d   2       6.653  -1.718  -4.398  0.00  0.00     0.237 C 
ATOM     23  O   PRO d   2       6.604  -2.617  -5.211  0.00  0.00    -0.274 OA
ATOM     24  HD1 PRO d   2       3.983  -0.145  -1.277  0.00  0.00     0.046 H 
ATOM     25  HD2 PRO d   2       3.322   0.135  -2.911  0.00  0.00     0.046 H 
ATOM     26  HG1 PRO d   2       2.506  -2.039  -2.711  0.00  0.00     0.028 H 
ATOM     27  HG2 PRO d   2       3.679  -2.454  -1.420  0.00  0.00     0.028 H 
ATOM     28  HB1 PRO d   2       4.141  -2.369  -4.456  0.00  0.00     0.029 H 
ATOM     29  HB2 PRO d   2       4.639  -3.637  -3.287  0.00  0.00     0.029 H 
ENDROOT
BRANCH   1  30
ATOM     30  S   UNK d   1       9.721   2.733  -6.071  0.00  0.00     0.029 S 
ATOM     31  O   UNK d   1      10.947   2.063  -5.811  0.00  0.00    -0.158 OA
ATOM     32  O   UNK d   1       9.414   3.198  -7.378  0.00  0.00    -0.158 OA
BRANCH  30  33
ATOM     33  C   UNK d   1       9.465   4.059  -4.861  0.00  0.00     0.071 C 
ATOM     34  H   UNK d   1       8.399   4.167  -4.661  0.00  0.00     0.048 H 
ATOM     35  H   UNK d   1       9.985   3.812  -3.935  0.00  0.00     0.048 H 
ATOM     36  H   UNK d   1       9.856   4.995  -5.258  0.00  0.00     0.048 H 
ENDBRANCH  30  33
ENDBRANCH   1  30
TORSDOF 2
ENDMDL
MODEL 5
REMARK VINA RESULT:      -5.3      2.746      2.994
REMARK  2 active torsions:
REMARK  status: ('A' for Active; 'I' for Inactive)
REMARK    1  A    between atoms: C_1  and  S_2 
REMARK    2  A    between atoms: S_2  and  N_5 
ROOT
ATOM      1  N   UNK d   1       5.897  -2.583  -7.693  0.00  0.00    -0.178 N 
ATOM      2  C   UNK d   1       4.820  -3.399  -7.123  0.00  0.00     0.036 C 
ATOM      3  C   UNK d   1       5.212  -3.748  -5.684  0.00  0.00     0.030 C 
ATOM      4  N   UNK d   1       5.523  -2.504  -4.961  0.00  0.00    -0.286 N 
ATOM      5  C   UNK d   1       6.467  -1.542  -5.509  0.00  0.00     0.117 C 
ATOM      6  H   UNK d   1       7.472  -1.901  -5.287  0.00  0.00     0.061 H 
ATOM      7  C   UNK d   1       6.346  -1.376  -7.017  0.00  0.00     0.047 C 
ATOM      8  C   UNK d   1       6.303  -0.182  -4.873  0.00  0.00     0.238 C 
ATOM      9  O   UNK d   1       6.653   0.815  -5.468  0.00  0.00    -0.274 OA
ATOM     10  H   UNK d   1       3.888  -2.833  -7.125  0.00  0.00     0.046 H 
ATOM     11  H   UNK d   1       4.699  -4.311  -7.706  0.00  0.00     0.046 H 
ATOM     12  H   UNK d   1       4.383  -4.259  -5.194  0.00  0.00     0.048 H 
ATOM     13  H   UNK d   1       6.087  -4.397  -5.692  0.00  0.00     0.048 H 
ATOM     14  H   UNK d   1       5.635  -0.575  -7.225  0.00  0.00     0.047 H 
ATOM     15  H   UNK d   1       7.319  -1.093  -7.418  0.00  0.00     0.047 H 
ATOM     16  N   PRO d   2       5.767  -0.080  -3.644  0.00  0.00    -0.288 N 
ATOM     17  CD  PRO d   2       5.400   1.137  -2.916  0.00  0.00     0.016 C 
ATOM     18  CG  PRO d   2       4.681   0.694  -1.622  0.00  0.00    -0.035 C 
ATOM     19  CB  PRO d   2       4.224  -0.753  -1.952  0.00  0.00    -0.024 C 
ATOM     20  CA  PRO d   2       5.401  -1.252  -2.821  0.00  0.00     0.102 C 
ATOM     21  HA  PRO d   2       6.237  -1.580  -2.205  0.00  0.00     0.060 H 
ATOM     22  C   PRO d   2       4.935  -2.334  -3.756  0.00  0.00     0.237 C 
ATOM     23  O   PRO d   2       4.024  -3.063  -3.424  0.00  0.00    -0.274 OA
ATOM     24  HD1 PRO d   2       6.297   1.704  -2.667  0.00  0.00     0.046 H 
ATOM     25  HD2 PRO d   2       4.733   1.746  -3.526  0.00  0.00     0.046 H 
ATOM     26  HG1 PRO d   2       3.820   1.333  -1.421  0.00  0.00     0.028 H 
ATOM     27  HG2 PRO d   2       5.369   0.698  -0.777  0.00  0.00     0.028 H 
ATOM     28  HB1 PRO d   2       3.292  -0.751  -2.518  0.00  0.00     0.029 H 
ATOM     29  HB2 PRO d   2       4.127  -1.350  -1.044  0.00  0.00     0.029 H 
ENDROOT
BRANCH   1  30
ATOM     30  S   UNK d   1       6.609  -3.041  -9.116  0.00  0.00     0.029 S 
ATOM     31  O   UNK d   1       7.396  -4.176  -8.780  0.00  0.00    -0.158 OA
ATOM     32  O   UNK d   1       5.535  -3.151 -10.039  0.00  0.00    -0.158 OA
BRANCH  30  33
ATOM     33  C   UNK d   1       7.682  -1.651  -9.569  0.00  0.00     0.071 C 
ATOM     34  H   UNK d   1       7.348  -0.750  -9.053  0.00  0.00     0.048 H 
ATOM     35  H   UNK d   1       8.709  -1.874  -9.281  0.00  0.00     0.048 H 
ATOM     36  H   UNK d   1       7.633  -1.490 -10.646  0.00  0.00     0.048 H 
ENDBRANCH  30  33
ENDBRANCH   1  30
TORSDOF 2
ENDMDL
MODEL 6
REMARK VINA RESULT:      -5.1      3.967      4.876
REMARK  2 active torsions:
REMARK  status: ('A' for Active; 'I' for Inactive)
REMARK    1  A    between atoms: C_1  and  S_2 
REMARK    2  A    between atoms: S_2  and  N_5 
ROOT
ATOM      1  N   UNK d   1       9.498   0.843  -5.031  0.00  0.00    -0.178 N 
ATOM      2  C   UNK d   1       9.209   1.688  -3.868  0.00  0.00     0.036 C 
ATOM      3  C   UNK d   1       7.736   2.100  -3.947  0.00  0.00     0.030 C 
ATOM      4  N   UNK d   1       6.910   0.887  -4.077  0.00  0.00    -0.286 N 
ATOM      5  C   UNK d   1       7.202  -0.104  -5.101  0.00  0.00     0.117 C 
ATOM      6  H   UNK d   1       6.784   0.259  -6.041  0.00  0.00     0.061 H 
ATOM      7  C   UNK d   1       8.692  -0.336  -5.305  0.00  0.00     0.047 C 
ATOM      8  C   UNK d   1       6.558  -1.433  -4.784  0.00  0.00     0.238 C 
ATOM      9  O   UNK d   1       7.022  -2.458  -5.238  0.00  0.00    -0.274 OA
ATOM     10  H   UNK d   1       9.388   1.129  -2.950  0.00  0.00     0.046 H 
ATOM     11  H   UNK d   1       9.843   2.575  -3.890  0.00  0.00     0.046 H 
ATOM     12  H   UNK d   1       7.457   2.637  -3.040  0.00  0.00     0.048 H 
ATOM     13  H   UNK d   1       7.582   2.743  -4.814  0.00  0.00     0.048 H 
ATOM     14  H   UNK d   1       9.014  -1.141  -4.644  0.00  0.00     0.047 H 
ATOM     15  H   UNK d   1       8.861  -0.642  -6.337  0.00  0.00     0.047 H 
ATOM     16  N   PRO d   2       5.471  -1.477  -3.995  0.00  0.00    -0.288 N 
ATOM     17  CD  PRO d   2       4.788  -2.658  -3.462  0.00  0.00     0.016 C 
ATOM     18  CG  PRO d   2       3.699  -2.155  -2.488  0.00  0.00    -0.035 C 
ATOM     19  CB  PRO d   2       4.181  -0.721  -2.135  0.00  0.00    -0.024 C 
ATOM     20  CA  PRO d   2       4.797  -0.268  -3.479  0.00  0.00     0.102 C 
ATOM     21  HA  PRO d   2       4.029   0.083  -4.168  0.00  0.00     0.060 H 
ATOM     22  C   PRO d   2       5.855   0.775  -3.241  0.00  0.00     0.237 C 
ATOM     23  O   PRO d   2       5.758   1.522  -2.291  0.00  0.00    -0.274 OA
ATOM     24  HD1 PRO d   2       4.329  -3.219  -4.275  0.00  0.00     0.046 H 
ATOM     25  HD2 PRO d   2       5.501  -3.291  -2.932  0.00  0.00     0.046 H 
ATOM     26  HG1 PRO d   2       3.662  -2.779  -1.595  0.00  0.00     0.028 H 
ATOM     27  HG2 PRO d   2       2.727  -2.125  -2.978  0.00  0.00     0.028 H 
ATOM     28  HB1 PRO d   2       4.933  -0.743  -1.347  0.00  0.00     0.029 H 
ATOM     29  HB2 PRO d   2       3.341  -0.084  -1.854  0.00  0.00     0.029 H 
ENDROOT
BRANCH   1  30
ATOM     30  S   UNK d   1      10.753   1.232  -6.039  0.00  0.00     0.029 S 
ATOM     31  O   UNK d   1      11.790   1.674  -5.173  0.00  0.00    -0.158 OA
ATOM     32  O   UNK d   1      10.932   0.083  -6.855  0.00  0.00    -0.158 OA
BRANCH  30  33
ATOM     33  C   UNK d   1      10.138   2.616  -7.036  0.00  0.00     0.071 C 
ATOM     34  H   UNK d   1       9.589   2.230  -7.894  0.00  0.00     0.048 H 
ATOM     35  H   UNK d   1       9.477   3.236  -6.430  0.00  0.00     0.048 H 
ATOM     36  H   UNK d   1      10.979   3.216  -7.383  0.00  0.00     0.048 H 
ENDBRANCH  30  33
ENDBRANCH   1  30
TORSDOF 2
ENDMDL
MODEL 7
REMARK VINA RESULT:      -5.0      3.409      5.350
REMARK  2 active torsions:
REMARK  status: ('A' for Active; 'I' for Inactive)
REMARK    1  A    between atoms: C_1  and  S_2 
REMARK    2  A    between atoms: S_2  and  N_5 
ROOT
ATOM      1  N   UNK d   1       9.042   1.838  -4.860  0.00  0.00    -0.178 N 
ATOM      2  C   UNK d   1       8.668   1.687  -6.269  0.00  0.00     0.036 C 
ATOM      3  C   UNK d   1       7.983   0.326  -6.427  0.00  0.00     0.030 C 
ATOM      4  N   UNK d   1       6.878   0.235  -5.459  0.00  0.00    -0.286 N 
ATOM      5  C   UNK d   1       7.100   0.516  -4.048  0.00  0.00     0.117 C 
ATOM      6  H   UNK d   1       7.542  -0.374  -3.600  0.00  0.00     0.061 H 
ATOM      7  C   UNK d   1       8.045   1.684  -3.811  0.00  0.00     0.047 C 
ATOM      8  C   UNK d   1       5.803   0.809  -3.331  0.00  0.00     0.238 C 
ATOM      9  O   UNK d   1       5.804   1.476  -2.319  0.00  0.00    -0.274 OA
ATOM     10  H   UNK d   1       7.979   2.482  -6.556  0.00  0.00     0.046 H 
ATOM     11  H   UNK d   1       9.560   1.728  -6.894  0.00  0.00     0.046 H 
ATOM     12  H   UNK d   1       7.592   0.229  -7.440  0.00  0.00     0.048 H 
ATOM     13  H   UNK d   1       8.705  -0.469  -6.236  0.00  0.00     0.048 H 
ATOM     14  H   UNK d   1       7.459   2.602  -3.749  0.00  0.00     0.047 H 
ATOM     15  H   UNK d   1       8.559   1.533  -2.862  0.00  0.00     0.047 H 
ATOM     16  N   PRO d   2       4.647   0.328  -3.821  0.00  0.00    -0.288 N 
ATOM     17  CD  PRO d   2       3.285   0.608  -3.360  0.00  0.00     0.016 C 
ATOM     18  CG  PRO d   2       2.318  -0.065  -4.361  0.00  0.00    -0.035 C 
ATOM     19  CB  PRO d   2       3.198  -0.252  -5.627  0.00  0.00    -0.024 C 
ATOM     20  CA  PRO d   2       4.574  -0.565  -4.996  0.00  0.00     0.102 C 
ATOM     21  HA  PRO d   2       4.647  -1.612  -4.703  0.00  0.00     0.060 H 
ATOM     22  C   PRO d   2       5.680  -0.168  -5.936  0.00  0.00     0.237 C 
ATOM     23  O   PRO d   2       5.494  -0.211  -7.133  0.00  0.00    -0.274 OA
ATOM     24  HD1 PRO d   2       3.138   0.192  -2.364  0.00  0.00     0.046 H 
ATOM     25  HD2 PRO d   2       3.114   1.685  -3.341  0.00  0.00     0.046 H 
ATOM     26  HG1 PRO d   2       1.469   0.587  -4.575  0.00  0.00     0.028 H 
ATOM     27  HG2 PRO d   2       1.979  -1.027  -3.981  0.00  0.00     0.028 H 
ATOM     28  HB1 PRO d   2       3.236   0.664  -6.217  0.00  0.00     0.029 H 
ATOM     29  HB2 PRO d   2       2.844  -1.089  -6.229  0.00  0.00     0.029 H 
ENDROOT
BRANCH   1  30
ATOM     30  S   UNK d   1      10.610   2.185  -4.458  0.00  0.00     0.029 S 
ATOM     31  O   UNK d   1      11.253   0.919  -4.377  0.00  0.00    -0.158 OA
ATOM     32  O   UNK d   1      11.025   3.148  -5.417  0.00  0.00    -0.158 OA
BRANCH  30  33
ATOM     33  C   UNK d   1      10.514   2.943  -2.813  0.00  0.00     0.071 C 
ATOM     34  H   UNK d   1      11.216   3.774  -2.754  0.00  0.00     0.048 H 
ATOM     35  H   UNK d   1       9.502   3.309  -2.639  0.00  0.00     0.048 H 
ATOM     36  H   UNK d   1      10.766   2.201  -2.056  0.00  0.00     0.048 H 
ENDBRANCH  30  33
ENDBRANCH   1  30
TORSDOF 2
ENDMDL
MODEL 8
REMARK VINA RESULT:      -4.9      8.749     10.416
REMARK  2 active torsions:
REMARK  status: ('A' for Active; 'I' for Inactive)
REMARK    1  A    between atoms: C_1  and  S_2 
REMARK    2  A    between atoms: S_2  and  N_5 
ROOT
ATOM      1  N   UNK d   1      10.640   4.642  -3.000  0.00  0.00    -0.178 N 
ATOM      2  C   UNK d   1      10.550   5.752  -3.953  0.00  0.00     0.036 C 
ATOM      3  C   UNK d   1       9.546   6.765  -3.395  0.00  0.00     0.030 C 
ATOM      4  N   UNK d   1       9.949   7.129  -2.026  0.00  0.00    -0.286 N 
ATOM      5  C   UNK d   1      10.216   6.100  -1.032  0.00  0.00     0.117 C 
ATOM      6  H   UNK d   1       9.257   5.762  -0.641  0.00  0.00     0.061 H 
ATOM      7  C   UNK d   1      10.948   4.894  -1.601  0.00  0.00     0.047 C 
ATOM      8  C   UNK d   1      11.029   6.643   0.120  0.00  0.00     0.238 C 
ATOM      9  O   UNK d   1      11.710   5.895   0.789  0.00  0.00    -0.274 OA
ATOM     10  H   UNK d   1      11.527   6.223  -4.065  0.00  0.00     0.046 H 
ATOM     11  H   UNK d   1      10.206   5.383  -4.919  0.00  0.00     0.046 H 
ATOM     12  H   UNK d   1       9.539   7.656  -4.023  0.00  0.00     0.048 H 
ATOM     13  H   UNK d   1       8.550   6.321  -3.379  0.00  0.00     0.048 H 
ATOM     14  H   UNK d   1      12.022   5.058  -1.504  0.00  0.00     0.047 H 
ATOM     15  H   UNK d   1      10.675   4.012  -1.020  0.00  0.00     0.047 H 
ATOM     16  N   PRO d   2      10.994   7.957   0.401  0.00  0.00    -0.288 N 
ATOM     17  CD  PRO d   2      11.803   8.694   1.374  0.00  0.00     0.016 C 
ATOM     18  CG  PRO d   2      11.485  10.195   1.187  0.00  0.00    -0.035 C 
ATOM     19  CB  PRO d   2      10.892  10.252  -0.248  0.00  0.00    -0.024 C 
ATOM     20  CA  PRO d   2      10.121   8.914  -0.310  0.00  0.00     0.102 C 
ATOM     21  HA  PRO d   2       9.147   8.995   0.172  0.00  0.00     0.060 H 
ATOM     22  C   PRO d   2      10.003   8.447  -1.735  0.00  0.00     0.237 C 
ATOM     23  O   PRO d   2       9.954   9.263  -2.631  0.00  0.00    -0.274 OA
ATOM     24  HD1 PRO d   2      11.541   8.382   2.385  0.00  0.00     0.046 H 
ATOM     25  HD2 PRO d   2      12.862   8.510   1.192  0.00  0.00     0.046 H 
ATOM     26  HG1 PRO d   2      12.395  10.793   1.251  0.00  0.00     0.028 H 
ATOM     27  HG2 PRO d   2      10.752  10.529   1.920  0.00  0.00     0.028 H 
ATOM     28  HB1 PRO d   2      11.683  10.284  -0.998  0.00  0.00     0.029 H 
ATOM     29  HB2 PRO d   2      10.216  11.100  -0.359  0.00  0.00     0.029 H 
ENDROOT
BRANCH   1  30
ATOM     30  S   UNK d   1      10.388   3.090  -3.519  0.00  0.00     0.029 S 
ATOM     31  O   UNK d   1      11.459   2.341  -2.959  0.00  0.00    -0.158 OA
ATOM     32  O   UNK d   1       9.042   2.804  -3.165  0.00  0.00    -0.158 OA
BRANCH  30  33
ATOM     33  C   UNK d   1      10.556   3.168  -5.322  0.00  0.00     0.071 C 
ATOM     34  H   UNK d   1      11.431   3.764  -5.580  0.00  0.00     0.048 H 
ATOM     35  H   UNK d   1      10.673   2.161  -5.722  0.00  0.00     0.048 H 
ATOM     36  H   UNK d   1       9.665   3.627  -5.751  0.00  0.00     0.048 H 
ENDBRANCH  30  33
ENDBRANCH   1  30
TORSDOF 2
ENDMDL
MODEL 9
REMARK VINA RESULT:      -4.8     11.432     12.312
REMARK  2 active torsions:
REMARK  status: ('A' for Active; 'I' for Inactive)
REMARK    1  A    between atoms: C_1  and  S_2 
REMARK    2  A    between atoms: S_2  and  N_5 
ROOT
ATOM      1  N   UNK d   1       9.725  11.899  -6.250  0.00  0.00    -0.178 N 
ATOM      2  C   UNK d   1       9.941  10.672  -7.024  0.00  0.00     0.036 C 
ATOM      3  C   UNK d   1      11.104   9.913  -6.378  0.00  0.00     0.030 C 
ATOM      4  N   UNK d   1      10.811   9.723  -4.948  0.00  0.00    -0.286 N 
ATOM      5  C   UNK d   1      10.433  10.852  -4.110  0.00  0.00     0.117 C 
ATOM      6  H   UNK d   1      11.347  11.379  -3.835  0.00  0.00     0.061 H 
ATOM      7  C   UNK d   1       9.511  11.837  -4.813  0.00  0.00     0.047 C 
ATOM      8  C   UNK d   1       9.754  10.395  -2.841  0.00  0.00     0.238 C 
ATOM      9  O   UNK d   1       8.996  11.139  -2.255  0.00  0.00    -0.274 OA
ATOM     10  H   UNK d   1       9.041  10.058  -7.002  0.00  0.00     0.046 H 
ATOM     11  H   UNK d   1      10.190  10.925  -8.054  0.00  0.00     0.046 H 
ATOM     12  H   UNK d   1      11.218   8.942  -6.860  0.00  0.00     0.048 H 
ATOM     13  H   UNK d   1      12.023  10.487  -6.492  0.00  0.00     0.048 H 
ATOM     14  H   UNK d   1       8.478  11.542  -4.626  0.00  0.00     0.047 H 
ATOM     15  H   UNK d   1       9.673  12.829  -4.393  0.00  0.00     0.047 H 
ATOM     16  N   PRO d   2       9.992   9.162  -2.363  0.00  0.00    -0.288 N 
ATOM     17  CD  PRO d   2       9.338   8.487  -1.239  0.00  0.00     0.016 C 
ATOM     18  CG  PRO d   2       9.866   7.034  -1.211  0.00  0.00    -0.035 C 
ATOM     19  CB  PRO d   2      10.406   6.829  -2.653  0.00  0.00    -0.024 C 
ATOM     20  CA  PRO d   2      10.969   8.233  -2.969  0.00  0.00     0.102 C 
ATOM     21  HA  PRO d   2      11.962   8.367  -2.540  0.00  0.00     0.060 H 
ATOM     22  C   PRO d   2      10.963   8.475  -4.453  0.00  0.00     0.237 C 
ATOM     23  O   PRO d   2      11.097   7.540  -5.214  0.00  0.00    -0.274 OA
ATOM     24  HD1 PRO d   2       9.589   8.991  -0.307  0.00  0.00     0.046 H 
ATOM     25  HD2 PRO d   2       8.258   8.489  -1.383  0.00  0.00     0.046 H 
ATOM     26  HG1 PRO d   2       9.057   6.334  -0.999  0.00  0.00     0.028 H 
ATOM     27  HG2 PRO d   2      10.668   6.929  -0.481  0.00  0.00     0.028 H 
ATOM     28  HB1 PRO d   2       9.601   6.566  -3.339  0.00  0.00     0.029 H 
ATOM     29  HB2 PRO d   2      11.195   6.076  -2.672  0.00  0.00     0.029 H 
ENDROOT
BRANCH   1  30
ATOM     30  S   UNK d   1       9.726  13.366  -7.018  0.00  0.00     0.029 S 
ATOM     31  O   UNK d   1       9.014  13.143  -8.228  0.00  0.00    -0.158 OA
ATOM     32  O   UNK d   1       9.237  14.282  -6.048  0.00  0.00    -0.158 OA
BRANCH  30  33
ATOM     33  C   UNK d   1      11.472  13.705  -7.373  0.00  0.00     0.071 C 
ATOM     34  H   UNK d   1      11.756  14.656  -6.923  0.00  0.00     0.048 H 
ATOM     35  H   UNK d   1      12.090  12.908  -6.960  0.00  0.00     0.048 H 
ATOM     36  H   UNK d   1      11.619  13.757  -8.452  0.00  0.00     0.048 H 
ENDBRANCH  30  33
ENDBRANCH   1  30
TORSDOF 2
ENDMDL
