MODEL 1
REMARK VINA RESULT:      -7.5      0.000      0.000
REMARK  9 active torsions:
REMARK  status: ('A' for Active; 'I' for Inactive)
REMARK    1  A    between atoms: C_1  and  C_2 
REMARK    2  A    between atoms: C_7  and  C_9 
REMARK    3  A    between atoms: C_7  and  C_10 
REMARK    4  A    between atoms: N_11  and  C_13 
REMARK    5  A    between atoms: C_13  and  C_14 
REMARK    6  A    between atoms: C_15  and  O_33 
REMARK    7  A    between atoms: C_17  and  O_31 
REMARK    8  A    between atoms: C_21  and  C_25 
REMARK    9  A    between atoms: O_31  and  C_32 
ROOT
ATOM      1  C   LIG d   1       6.866   0.761  -8.443  0.00  0.00     0.002 C 
ATOM      2  H   LIG d   1       7.008  -0.267  -8.111  0.00  0.00     0.087 H 
ATOM      3  H   LIG d   1       6.923   0.803  -9.530  0.00  0.00     0.087 H 
ENDROOT
BRANCH   1   4
ATOM      4  N   LIG d   1       5.559   1.237  -8.006  0.00  0.00     0.241 N 
ATOM      5  C   LIG d   1       4.757   1.835  -9.092  0.00  0.00    -0.019 C 
ATOM      6  C   LIG d   1       3.318   1.801  -8.506  0.00  0.00     0.001 C 
ATOM      7  H   LIG d   1       5.071   2.873  -9.289  0.00  0.00     0.085 H 
ATOM      8  C   LIG d   1       4.765   0.988 -10.349  0.00  0.00    -0.004 C 
ATOM      9  C   LIG d   1       3.309   0.354  -7.942  0.00  0.00     0.013 C 
ATOM     10  H   LIG d   1       2.570   1.929  -9.286  0.00  0.00     0.033 H 
ATOM     11  H   LIG d   1       3.198   2.537  -7.713  0.00  0.00     0.033 H 
ATOM     12  C   LIG d   1       3.088  -0.576  -9.135  0.00  0.00    -0.037 C 
ATOM     13  C   LIG d   1       4.751   0.150  -7.424  0.00  0.00    -0.026 C 
ATOM     14  C   LIG d   1       4.020  -0.328 -10.303  0.00  0.00    -0.029 C 
ATOM     15  H   LIG d   1       3.203  -1.619  -8.799  0.00  0.00     0.028 H 
ATOM     16  H   LIG d   1       2.047  -0.474  -9.477  0.00  0.00     0.028 H 
ATOM     17  H   LIG d   1       4.765   0.226  -6.334  0.00  0.00     0.082 H 
ATOM     18  H   LIG d   1       5.138  -0.819  -7.727  0.00  0.00     0.082 H 
ATOM     19  H   LIG d   1       4.301   1.597 -11.162  0.00  0.00     0.033 H 
ATOM     20  H   LIG d   1       5.787   0.818 -10.713  0.00  0.00     0.033 H 
ATOM     21  H   LIG d   1       5.697   1.947  -7.283  0.00  0.00     0.204 HD
BRANCH   9  22
ATOM     22  C   LIG d   1       2.259   0.162  -6.837  0.00  0.00    -0.054 C 
ATOM     23  H   LIG d   1       2.528   0.768  -5.972  0.00  0.00     0.024 H 
ATOM     24  H   LIG d   1       1.282   0.470  -7.208  0.00  0.00     0.024 H 
ATOM     25  H   LIG d   1       2.223  -0.889  -6.549  0.00  0.00     0.024 H 
ENDBRANCH   9  22
BRANCH  14  26
ATOM     26  C   LIG d   1       5.031  -1.487 -10.392  0.00  0.00    -0.060 C 
ATOM     27  H   LIG d   1       4.682  -2.219 -11.121  0.00  0.00     0.024 H 
ATOM     28  H   LIG d   1       6.002  -1.100 -10.702  0.00  0.00     0.024 H 
ATOM     29  H   LIG d   1       5.124  -1.964  -9.416  0.00  0.00     0.024 H 
ENDBRANCH  14  26
BRANCH  14  30
ATOM     30  C   LIG d   1       3.164  -0.412 -11.593  0.00  0.00    -0.060 C 
ATOM     31  H   LIG d   1       2.356  -1.128 -11.448  0.00  0.00     0.024 H 
ATOM     32  H   LIG d   1       2.743   0.569 -11.815  0.00  0.00     0.024 H 
ATOM     33  H   LIG d   1       3.791  -0.734 -12.425  0.00  0.00     0.024 H 
ENDBRANCH  14  30
ENDBRANCH   1   4
BRANCH   1  34
ATOM     34  C   LIG d   1       7.943   1.633  -7.850  0.00  0.00     0.081 A 
ATOM     35  C   LIG d   1       8.048   1.765  -6.475  0.00  0.00     0.154 A 
ATOM     36  C   LIG d   1       9.061   2.577  -5.933  0.00  0.00     0.106 A 
ATOM     37  O   LIG d   1       7.195   1.120  -5.652  0.00  0.00    -0.454 OA
ATOM     38  C   LIG d   1       9.948   3.254  -6.779  0.00  0.00     0.138 A 
ATOM     39  C   LIG d   1       9.157   2.697  -4.469  0.00  0.00     0.197 A 
ATOM     40  C   LIG d   1       9.824   3.113  -8.149  0.00  0.00     0.023 A 
ATOM     41  C   LIG d   1       8.825   2.306  -8.681  0.00  0.00     0.132 A 
ATOM     42  H   LIG d   1      10.506   3.632  -8.808  0.00  0.00     0.069 H 
ATOM     43  C   LIG d   1       8.206   1.989  -3.694  0.00  0.00     0.029 A 
ATOM     44  O   LIG d   1      10.013   3.390  -3.945  0.00  0.00    -0.287 OA
ATOM     45  C   LIG d   1       7.269   1.226  -4.315  0.00  0.00     0.139 A 
ATOM     46  H   LIG d   1       8.231   2.048  -2.616  0.00  0.00     0.069 H 
BRANCH  38  47
ATOM     47  O   LIG d   1      10.923   4.040  -6.258  0.00  0.00    -0.494 OA
BRANCH  47  48
ATOM     48  C   LIG d   1      10.992   5.388  -6.729  0.00  0.00     0.079 C 
ATOM     49  H   LIG d   1      12.010   5.761  -6.621  0.00  0.00     0.066 H 
ATOM     50  H   LIG d   1      10.703   5.421  -7.779  0.00  0.00     0.066 H 
ATOM     51  H   LIG d   1      10.313   6.012  -6.146  0.00  0.00     0.066 H 
ENDBRANCH  47  48
ENDBRANCH  38  47
BRANCH  41  52
ATOM     52  O   LIG d   1       8.712   2.175 -10.028  0.00  0.00    -0.506 OA
ATOM     53  H   LIG d   1       7.831   2.377 -10.370  0.00  0.00     0.292 HD
ENDBRANCH  41  52
BRANCH  45  54
ATOM     54  C   LIG d   1       6.294   0.487  -3.490  0.00  0.00     0.017 A 
ATOM     55  C   LIG d   1       6.231  -0.907  -3.556  0.00  0.00    -0.051 A 
ATOM     56  C   LIG d   1       5.320  -1.591  -2.777  0.00  0.00    -0.061 A 
ATOM     57  H   LIG d   1       6.895  -1.447  -4.214  0.00  0.00     0.062 H 
ATOM     58  C   LIG d   1       4.465  -0.899  -1.938  0.00  0.00    -0.062 A 
ATOM     59  H   LIG d   1       5.275  -2.669  -2.824  0.00  0.00     0.062 H 
ATOM     60  C   LIG d   1       4.518   0.482  -1.871  0.00  0.00    -0.061 A 
ATOM     61  H   LIG d   1       3.751  -1.440  -1.334  0.00  0.00     0.062 H 
ATOM     62  C   LIG d   1       5.426   1.179  -2.642  0.00  0.00    -0.051 A 
ATOM     63  H   LIG d   1       3.845   1.016  -1.215  0.00  0.00     0.062 H 
ATOM     64  H   LIG d   1       5.467   2.257  -2.587  0.00  0.00     0.062 H 
ENDBRANCH  45  54
ENDBRANCH   1  34
TORSDOF 9
ENDMDL
MODEL 2
REMARK VINA RESULT:      -7.1      4.160      5.274
REMARK  9 active torsions:
REMARK  status: ('A' for Active; 'I' for Inactive)
REMARK    1  A    between atoms: C_1  and  C_2 
REMARK    2  A    between atoms: C_7  and  C_9 
REMARK    3  A    between atoms: C_7  and  C_10 
REMARK    4  A    between atoms: N_11  and  C_13 
REMARK    5  A    between atoms: C_13  and  C_14 
REMARK    6  A    between atoms: C_15  and  O_33 
REMARK    7  A    between atoms: C_17  and  O_31 
REMARK    8  A    between atoms: C_21  and  C_25 
REMARK    9  A    between atoms: O_31  and  C_32 
ROOT
ATOM      1  C   LIG d   1       4.037  -2.939  -7.977  0.00  0.00     0.002 C 
ATOM      2  H   LIG d   1       3.215  -3.014  -7.265  0.00  0.00     0.087 H 
ATOM      3  H   LIG d   1       3.763  -3.447  -8.901  0.00  0.00     0.087 H 
ENDROOT
BRANCH   1   4
ATOM      4  N   LIG d   1       4.312  -1.535  -8.256  0.00  0.00     0.241 N 
ATOM      5  C   LIG d   1       4.692  -1.278  -9.660  0.00  0.00    -0.019 C 
ATOM      6  C   LIG d   1       4.453   0.251  -9.799  0.00  0.00     0.001 C 
ATOM      7  H   LIG d   1       5.753  -1.521  -9.832  0.00  0.00     0.085 H 
ATOM      8  C   LIG d   1       3.779  -1.981 -10.644  0.00  0.00    -0.004 C 
ATOM      9  C   LIG d   1       3.065   0.354  -9.109  0.00  0.00     0.013 C 
ATOM     10  H   LIG d   1       4.401   0.550 -10.845  0.00  0.00     0.033 H 
ATOM     11  H   LIG d   1       5.209   0.819  -9.259  0.00  0.00     0.033 H 
ATOM     12  C   LIG d   1       2.035  -0.129 -10.130  0.00  0.00    -0.037 C 
ATOM     13  C   LIG d   1       3.143  -0.684  -7.966  0.00  0.00    -0.026 C 
ATOM     14  C   LIG d   1       2.361  -1.466 -10.764  0.00  0.00    -0.029 C 
ATOM     15  H   LIG d   1       1.052  -0.195  -9.639  0.00  0.00     0.028 H 
ATOM     16  H   LIG d   1       1.936   0.630 -10.922  0.00  0.00     0.028 H 
ATOM     17  H   LIG d   1       3.292  -0.171  -7.012  0.00  0.00     0.082 H 
ATOM     18  H   LIG d   1       2.237  -1.280  -7.922  0.00  0.00     0.082 H 
ATOM     19  H   LIG d   1       4.245  -1.888 -11.654  0.00  0.00     0.033 H 
ATOM     20  H   LIG d   1       3.762  -3.065 -10.472  0.00  0.00     0.033 H 
ATOM     21  H   LIG d   1       5.080  -1.228  -7.656  0.00  0.00     0.204 HD
BRANCH   9  22
ATOM     22  C   LIG d   1       2.771   1.770  -8.593  0.00  0.00    -0.054 C 
ATOM     23  H   LIG d   1       3.681   2.369  -8.635  0.00  0.00     0.024 H 
ATOM     24  H   LIG d   1       2.003   2.230  -9.215  0.00  0.00     0.024 H 
ATOM     25  H   LIG d   1       2.419   1.715  -7.563  0.00  0.00     0.024 H 
ENDBRANCH   9  22
BRANCH  14  26
ATOM     26  C   LIG d   1       1.387  -2.529 -10.219  0.00  0.00    -0.060 C 
ATOM     27  H   LIG d   1       0.713  -2.845 -11.016  0.00  0.00     0.024 H 
ATOM     28  H   LIG d   1       1.951  -3.388  -9.858  0.00  0.00     0.024 H 
ATOM     29  H   LIG d   1       0.806  -2.104  -9.400  0.00  0.00     0.024 H 
ENDBRANCH  14  26
BRANCH  14  30
ATOM     30  C   LIG d   1       2.049  -1.339 -12.277  0.00  0.00    -0.060 C 
ATOM     31  H   LIG d   1       2.127  -2.318 -12.748  0.00  0.00     0.024 H 
ATOM     32  H   LIG d   1       1.038  -0.953 -12.409  0.00  0.00     0.024 H 
ATOM     33  H   LIG d   1       2.762  -0.655 -12.739  0.00  0.00     0.024 H 
ENDBRANCH  14  30
ENDBRANCH   1   4
BRANCH   1  34
ATOM     34  C   LIG d   1       5.267  -3.586  -7.393  0.00  0.00     0.081 A 
ATOM     35  C   LIG d   1       5.763  -3.155  -6.173  0.00  0.00     0.154 A 
ATOM     36  C   LIG d   1       6.908  -3.771  -5.637  0.00  0.00     0.106 A 
ATOM     37  O   LIG d   1       5.157  -2.159  -5.494  0.00  0.00    -0.454 OA
ATOM     38  C   LIG d   1       7.547  -4.803  -6.337  0.00  0.00     0.138 A 
ATOM     39  C   LIG d   1       7.414  -3.301  -4.336  0.00  0.00     0.197 A 
ATOM     40  C   LIG d   1       7.039  -5.215  -7.555  0.00  0.00     0.023 A 
ATOM     41  C   LIG d   1       5.904  -4.608  -8.080  0.00  0.00     0.132 A 
ATOM     42  H   LIG d   1       7.526  -6.010  -8.100  0.00  0.00     0.069 H 
ATOM     43  C   LIG d   1       6.712  -2.242  -3.709  0.00  0.00     0.029 A 
ATOM     44  O   LIG d   1       8.405  -3.796  -3.826  0.00  0.00    -0.287 OA
ATOM     45  C   LIG d   1       5.612  -1.719  -4.310  0.00  0.00     0.139 A 
ATOM     46  H   LIG d   1       7.046  -1.859  -2.756  0.00  0.00     0.069 H 
BRANCH  38  47
ATOM     47  O   LIG d   1       8.654  -5.394  -5.821  0.00  0.00    -0.494 OA
BRANCH  47  48
ATOM     48  C   LIG d   1       8.617  -6.814  -5.663  0.00  0.00     0.079 C 
ATOM     49  H   LIG d   1       8.629  -7.063  -4.602  0.00  0.00     0.066 H 
ATOM     50  H   LIG d   1       7.707  -7.207  -6.117  0.00  0.00     0.066 H 
ATOM     51  H   LIG d   1       9.486  -7.257  -6.150  0.00  0.00     0.066 H 
ENDBRANCH  47  48
ENDBRANCH  38  47
BRANCH  41  52
ATOM     52  O   LIG d   1       5.415  -5.020  -9.278  0.00  0.00    -0.506 OA
ATOM     53  H   LIG d   1       5.809  -4.573 -10.039  0.00  0.00     0.292 HD
ENDBRANCH  41  52
BRANCH  45  54
ATOM     54  C   LIG d   1       4.888  -0.623  -3.635  0.00  0.00     0.017 A 
ATOM     55  C   LIG d   1       5.284  -0.197  -2.366  0.00  0.00    -0.051 A 
ATOM     56  C   LIG d   1       4.607   0.833  -1.745  0.00  0.00    -0.061 A 
ATOM     57  H   LIG d   1       6.120  -0.670  -1.873  0.00  0.00     0.062 H 
ATOM     58  C   LIG d   1       3.531   1.436  -2.372  0.00  0.00    -0.062 A 
ATOM     59  H   LIG d   1       4.916   1.167  -0.765  0.00  0.00     0.062 H 
ATOM     60  C   LIG d   1       3.130   1.015  -3.628  0.00  0.00    -0.061 A 
ATOM     61  H   LIG d   1       3.002   2.238  -1.879  0.00  0.00     0.062 H 
ATOM     62  C   LIG d   1       3.801  -0.010  -4.263  0.00  0.00    -0.051 A 
ATOM     63  H   LIG d   1       2.288   1.489  -4.112  0.00  0.00     0.062 H 
ATOM     64  H   LIG d   1       3.487  -0.336  -5.244  0.00  0.00     0.062 H 
ENDBRANCH  45  54
ENDBRANCH   1  34
TORSDOF 9
ENDMDL
MODEL 3
REMARK VINA RESULT:      -7.1      4.010      8.343
REMARK  9 active torsions:
REMARK  status: ('A' for Active; 'I' for Inactive)
REMARK    1  A    between atoms: C_1  and  C_2 
REMARK    2  A    between atoms: C_7  and  C_9 
REMARK    3  A    between atoms: C_7  and  C_10 
REMARK    4  A    between atoms: N_11  and  C_13 
REMARK    5  A    between atoms: C_13  and  C_14 
REMARK    6  A    between atoms: C_15  and  O_33 
REMARK    7  A    between atoms: C_17  and  O_31 
REMARK    8  A    between atoms: C_21  and  C_25 
REMARK    9  A    between atoms: O_31  and  C_32 
ROOT
ATOM      1  C   LIG d   1       5.888  -3.127  -5.866  0.00  0.00     0.002 C 
ATOM      2  H   LIG d   1       6.005  -2.187  -6.405  0.00  0.00     0.087 H 
ATOM      3  H   LIG d   1       6.870  -3.558  -5.670  0.00  0.00     0.087 H 
ENDROOT
BRANCH   1   4
ATOM      4  N   LIG d   1       5.205  -2.881  -4.602  0.00  0.00     0.241 N 
ATOM      5  C   LIG d   1       6.098  -2.379  -3.538  0.00  0.00    -0.019 C 
ATOM      6  C   LIG d   1       5.097  -1.762  -2.522  0.00  0.00     0.001 C 
ATOM      7  H   LIG d   1       6.661  -3.206  -3.074  0.00  0.00     0.085 H 
ATOM      8  C   LIG d   1       7.009  -1.270  -4.023  0.00  0.00    -0.004 C 
ATOM      9  C   LIG d   1       4.186  -0.980  -3.507  0.00  0.00     0.013 C 
ATOM     10  H   LIG d   1       5.601  -1.092  -1.828  0.00  0.00     0.033 H 
ATOM     11  H   LIG d   1       4.541  -2.537  -1.996  0.00  0.00     0.033 H 
ATOM     12  C   LIG d   1       4.942   0.294  -3.881  0.00  0.00    -0.037 C 
ATOM     13  C   LIG d   1       4.121  -1.893  -4.754  0.00  0.00    -0.026 C 
ATOM     14  C   LIG d   1       6.368   0.064  -4.339  0.00  0.00    -0.029 C 
ATOM     15  H   LIG d   1       4.389   0.815  -4.677  0.00  0.00     0.028 H 
ATOM     16  H   LIG d   1       4.949   0.971  -3.013  0.00  0.00     0.028 H 
ATOM     17  H   LIG d   1       3.157  -2.408  -4.783  0.00  0.00     0.082 H 
ATOM     18  H   LIG d   1       4.253  -1.315  -5.664  0.00  0.00     0.082 H 
ATOM     19  H   LIG d   1       7.764  -1.087  -3.222  0.00  0.00     0.033 H 
ATOM     20  H   LIG d   1       7.618  -1.595  -4.877  0.00  0.00     0.033 H 
ATOM     21  H   LIG d   1       4.787  -3.758  -4.282  0.00  0.00     0.204 HD
BRANCH   9  22
ATOM     22  C   LIG d   1       2.796  -0.695  -2.920  0.00  0.00    -0.054 C 
ATOM     23  H   LIG d   1       2.893  -0.437  -1.865  0.00  0.00     0.024 H 
ATOM     24  H   LIG d   1       2.339   0.136  -3.456  0.00  0.00     0.024 H 
ATOM     25  H   LIG d   1       2.170  -1.581  -3.021  0.00  0.00     0.024 H 
ENDBRANCH   9  22
BRANCH  14  26
ATOM     26  C   LIG d   1       6.454   0.322  -5.856  0.00  0.00    -0.060 C 
ATOM     27  H   LIG d   1       7.290   0.991  -6.064  0.00  0.00     0.024 H 
ATOM     28  H   LIG d   1       6.605  -0.622  -6.378  0.00  0.00     0.024 H 
ATOM     29  H   LIG d   1       5.528   0.783  -6.199  0.00  0.00     0.024 H 
ENDBRANCH  14  26
BRANCH  14  30
ATOM     30  C   LIG d   1       7.241   1.158  -3.672  0.00  0.00    -0.060 C 
ATOM     31  H   LIG d   1       7.053   2.117  -4.152  0.00  0.00     0.024 H 
ATOM     32  H   LIG d   1       6.992   1.227  -2.613  0.00  0.00     0.024 H 
ATOM     33  H   LIG d   1       8.295   0.897  -3.780  0.00  0.00     0.024 H 
ENDBRANCH  14  30
ENDBRANCH   1   4
BRANCH   1  34
ATOM     34  C   LIG d   1       5.076  -4.086  -6.699  0.00  0.00     0.081 A 
ATOM     35  C   LIG d   1       4.280  -3.606  -7.727  0.00  0.00     0.154 A 
ATOM     36  C   LIG d   1       3.532  -4.511  -8.501  0.00  0.00     0.106 A 
ATOM     37  O   LIG d   1       4.221  -2.286  -7.997  0.00  0.00    -0.454 OA
ATOM     38  C   LIG d   1       3.583  -5.884  -8.225  0.00  0.00     0.138 A 
ATOM     39  C   LIG d   1       2.698  -3.980  -9.591  0.00  0.00     0.197 A 
ATOM     40  C   LIG d   1       4.379  -6.342  -7.192  0.00  0.00     0.023 A 
ATOM     41  C   LIG d   1       5.122  -5.445  -6.432  0.00  0.00     0.132 A 
ATOM     42  H   LIG d   1       4.424  -7.399  -6.974  0.00  0.00     0.069 H 
ATOM     43  C   LIG d   1       2.696  -2.577  -9.785  0.00  0.00     0.029 A 
ATOM     44  O   LIG d   1       2.025  -4.719 -10.292  0.00  0.00    -0.287 OA
ATOM     45  C   LIG d   1       3.461  -1.789  -8.985  0.00  0.00     0.139 A 
ATOM     46  H   LIG d   1       2.098  -2.138 -10.570  0.00  0.00     0.069 H 
BRANCH  38  47
ATOM     47  O   LIG d   1       2.858  -6.757  -8.969  0.00  0.00    -0.494 OA
BRANCH  47  48
ATOM     48  C   LIG d   1       3.447  -8.032  -9.229  0.00  0.00     0.079 C 
ATOM     49  H   LIG d   1       3.955  -8.010 -10.192  0.00  0.00     0.066 H 
ATOM     50  H   LIG d   1       4.166  -8.268  -8.445  0.00  0.00     0.066 H 
ATOM     51  H   LIG d   1       2.668  -8.796  -9.248  0.00  0.00     0.066 H 
ENDBRANCH  47  48
ENDBRANCH  38  47
BRANCH  41  52
ATOM     52  O   LIG d   1       5.900  -5.906  -5.419  0.00  0.00    -0.506 OA
ATOM     53  H   LIG d   1       6.704  -5.388  -5.274  0.00  0.00     0.292 HD
ENDBRANCH  41  52
BRANCH  45  54
ATOM     54  C   LIG d   1       3.454  -0.330  -9.210  0.00  0.00     0.017 A 
ATOM     55  C   LIG d   1       3.885   0.195 -10.431  0.00  0.00    -0.051 A 
ATOM     56  C   LIG d   1       3.870   1.559 -10.636  0.00  0.00    -0.061 A 
ATOM     57  H   LIG d   1       4.227  -0.467 -11.213  0.00  0.00     0.062 H 
ATOM     58  C   LIG d   1       3.438   2.408  -9.632  0.00  0.00    -0.062 A 
ATOM     59  H   LIG d   1       4.198   1.965 -11.581  0.00  0.00     0.062 H 
ATOM     60  C   LIG d   1       3.015   1.896  -8.418  0.00  0.00    -0.061 A 
ATOM     61  H   LIG d   1       3.433   3.476  -9.797  0.00  0.00     0.062 H 
ATOM     62  C   LIG d   1       3.020   0.533  -8.201  0.00  0.00    -0.051 A 
ATOM     63  H   LIG d   1       2.680   2.564  -7.638  0.00  0.00     0.062 H 
ATOM     64  H   LIG d   1       2.688   0.135  -7.254  0.00  0.00     0.062 H 
ENDBRANCH  45  54
ENDBRANCH   1  34
TORSDOF 9
ENDMDL
MODEL 4
REMARK VINA RESULT:      -6.8      4.033      8.531
REMARK  9 active torsions:
REMARK  status: ('A' for Active; 'I' for Inactive)
REMARK    1  A    between atoms: C_1  and  C_2 
REMARK    2  A    between atoms: C_7  and  C_9 
REMARK    3  A    between atoms: C_7  and  C_10 
REMARK    4  A    between atoms: N_11  and  C_13 
REMARK    5  A    between atoms: C_13  and  C_14 
REMARK    6  A    between atoms: C_15  and  O_33 
REMARK    7  A    between atoms: C_17  and  O_31 
REMARK    8  A    between atoms: C_21  and  C_25 
REMARK    9  A    between atoms: O_31  and  C_32 
ROOT
ATOM      1  C   LIG d   1       4.323  -3.347  -5.471  0.00  0.00     0.002 C 
ATOM      2  H   LIG d   1       4.603  -3.924  -4.589  0.00  0.00     0.087 H 
ATOM      3  H   LIG d   1       3.380  -2.834  -5.284  0.00  0.00     0.087 H 
ENDROOT
BRANCH   1   4
ATOM      4  N   LIG d   1       5.361  -2.364  -5.759  0.00  0.00     0.241 N 
ATOM      5  C   LIG d   1       4.892  -0.967  -5.662  0.00  0.00    -0.019 C 
ATOM      6  C   LIG d   1       6.222  -0.174  -5.528  0.00  0.00     0.001 C 
ATOM      7  H   LIG d   1       4.354  -0.668  -6.576  0.00  0.00     0.085 H 
ATOM      8  C   LIG d   1       4.075  -0.717  -4.411  0.00  0.00    -0.004 C 
ATOM      9  C   LIG d   1       6.938  -1.059  -4.471  0.00  0.00     0.013 C 
ATOM     10  H   LIG d   1       6.046   0.832  -5.152  0.00  0.00     0.033 H 
ATOM     11  H   LIG d   1       6.768  -0.159  -6.469  0.00  0.00     0.033 H 
ATOM     12  C   LIG d   1       6.325  -0.702  -3.117  0.00  0.00    -0.037 C 
ATOM     13  C   LIG d   1       6.506  -2.497  -4.839  0.00  0.00    -0.026 C 
ATOM     14  C   LIG d   1       4.810  -0.733  -3.089  0.00  0.00    -0.029 C 
ATOM     15  H   LIG d   1       6.713  -1.398  -2.357  0.00  0.00     0.028 H 
ATOM     16  H   LIG d   1       6.670   0.302  -2.824  0.00  0.00     0.028 H 
ATOM     17  H   LIG d   1       7.326  -3.010  -5.347  0.00  0.00     0.082 H 
ATOM     18  H   LIG d   1       6.221  -3.055  -3.951  0.00  0.00     0.082 H 
ATOM     19  H   LIG d   1       3.611   0.293  -4.514  0.00  0.00     0.033 H 
ATOM     20  H   LIG d   1       3.208  -1.389  -4.356  0.00  0.00     0.033 H 
ATOM     21  H   LIG d   1       5.703  -2.522  -6.709  0.00  0.00     0.204 HD
BRANCH   9  22
ATOM     22  C   LIG d   1       8.463  -0.884  -4.496  0.00  0.00    -0.054 C 
ATOM     23  H   LIG d   1       8.711   0.086  -4.928  0.00  0.00     0.024 H 
ATOM     24  H   LIG d   1       8.852  -0.939  -3.479  0.00  0.00     0.024 H 
ATOM     25  H   LIG d   1       8.910  -1.674  -5.098  0.00  0.00     0.024 H 
ENDBRANCH   9  22
BRANCH  14  26
ATOM     26  C   LIG d   1       4.350  -1.952  -2.265  0.00  0.00    -0.060 C 
ATOM     27  H   LIG d   1       3.262  -2.024  -2.301  0.00  0.00     0.024 H 
ATOM     28  H   LIG d   1       4.788  -2.858  -2.682  0.00  0.00     0.024 H 
ATOM     29  H   LIG d   1       4.672  -1.834  -1.231  0.00  0.00     0.024 H 
ENDBRANCH  14  26
BRANCH  14  30
ATOM     30  C   LIG d   1       4.346   0.515  -2.295  0.00  0.00    -0.060 C 
ATOM     31  H   LIG d   1       5.012   1.351  -2.506  0.00  0.00     0.024 H 
ATOM     32  H   LIG d   1       3.329   0.777  -2.591  0.00  0.00     0.024 H 
ATOM     33  H   LIG d   1       4.367   0.295  -1.227  0.00  0.00     0.024 H 
ENDBRANCH  14  30
ENDBRANCH   1   4
BRANCH   1  34
ATOM     34  C   LIG d   1       4.167  -4.274  -6.649  0.00  0.00     0.081 A 
ATOM     35  C   LIG d   1       3.927  -3.755  -7.911  0.00  0.00     0.154 A 
ATOM     36  C   LIG d   1       3.789  -4.630  -9.003  0.00  0.00     0.106 A 
ATOM     37  O   LIG d   1       3.830  -2.423  -8.103  0.00  0.00    -0.454 OA
ATOM     38  C   LIG d   1       3.883  -6.015  -8.813  0.00  0.00     0.138 A 
ATOM     39  C   LIG d   1       3.540  -4.056 -10.336  0.00  0.00     0.197 A 
ATOM     40  C   LIG d   1       4.118  -6.513  -7.545  0.00  0.00     0.023 A 
ATOM     41  C   LIG d   1       4.259  -5.645  -6.468  0.00  0.00     0.132 A 
ATOM     42  H   LIG d   1       4.192  -7.580  -7.390  0.00  0.00     0.069 H 
ATOM     43  C   LIG d   1       3.444  -2.646 -10.429  0.00  0.00     0.029 A 
ATOM     44  O   LIG d   1       3.409  -4.767 -11.318  0.00  0.00    -0.287 OA
ATOM     45  C   LIG d   1       3.598  -1.888  -9.313  0.00  0.00     0.139 A 
ATOM     46  H   LIG d   1       3.258  -2.176 -11.384  0.00  0.00     0.069 H 
BRANCH  38  47
ATOM     47  O   LIG d   1       3.746  -6.859  -9.866  0.00  0.00    -0.494 OA
BRANCH  47  48
ATOM     48  C   LIG d   1       2.815  -7.932  -9.720  0.00  0.00     0.079 C 
ATOM     49  H   LIG d   1       1.842  -7.626 -10.103  0.00  0.00     0.066 H 
ATOM     50  H   LIG d   1       3.167  -8.799 -10.280  0.00  0.00     0.066 H 
ATOM     51  H   LIG d   1       2.723  -8.195  -8.665  0.00  0.00     0.066 H 
ENDBRANCH  47  48
ENDBRANCH  38  47
BRANCH  41  52
ATOM     52  O   LIG d   1       4.490  -6.145  -5.227  0.00  0.00    -0.506 OA
ATOM     53  H   LIG d   1       5.082  -5.604  -4.688  0.00  0.00     0.292 HD
ENDBRANCH  41  52
BRANCH  45  54
ATOM     54  C   LIG d   1       3.506  -0.419  -9.433  0.00  0.00     0.017 A 
ATOM     55  C   LIG d   1       3.980   0.223 -10.578  0.00  0.00    -0.051 A 
ATOM     56  C   LIG d   1       3.885   1.596 -10.686  0.00  0.00    -0.061 A 
ATOM     57  H   LIG d   1       4.419  -0.353 -11.379  0.00  0.00     0.062 H 
ATOM     58  C   LIG d   1       3.329   2.336  -9.658  0.00  0.00    -0.062 A 
ATOM     59  H   LIG d   1       4.246   2.093 -11.574  0.00  0.00     0.062 H 
ATOM     60  C   LIG d   1       2.861   1.707  -8.517  0.00  0.00    -0.061 A 
ATOM     61  H   LIG d   1       3.261   3.411  -9.745  0.00  0.00     0.062 H 
ATOM     62  C   LIG d   1       2.947   0.335  -8.398  0.00  0.00    -0.051 A 
ATOM     63  H   LIG d   1       2.430   2.292  -7.718  0.00  0.00     0.062 H 
ATOM     64  H   LIG d   1       2.580  -0.154  -7.508  0.00  0.00     0.062 H 
ENDBRANCH  45  54
ENDBRANCH   1  34
TORSDOF 9
ENDMDL
MODEL 5
REMARK VINA RESULT:      -6.8      3.247      4.847
REMARK  9 active torsions:
REMARK  status: ('A' for Active; 'I' for Inactive)
REMARK    1  A    between atoms: C_1  and  C_2 
REMARK    2  A    between atoms: C_7  and  C_9 
REMARK    3  A    between atoms: C_7  and  C_10 
REMARK    4  A    between atoms: N_11  and  C_13 
REMARK    5  A    between atoms: C_13  and  C_14 
REMARK    6  A    between atoms: C_15  and  O_33 
REMARK    7  A    between atoms: C_17  and  O_31 
REMARK    8  A    between atoms: C_21  and  C_25 
REMARK    9  A    between atoms: O_31  and  C_32 
ROOT
ATOM      1  C   LIG d   1       6.438  -1.099  -8.447  0.00  0.00     0.002 C 
ATOM      2  H   LIG d   1       6.981  -0.607  -9.253  0.00  0.00     0.087 H 
ATOM      3  H   LIG d   1       6.251  -0.384  -7.646  0.00  0.00     0.087 H 
ENDROOT
BRANCH   1   4
ATOM      4  N   LIG d   1       5.168  -1.604  -8.954  0.00  0.00     0.241 N 
ATOM      5  C   LIG d   1       4.006  -1.205  -8.133  0.00  0.00    -0.019 C 
ATOM      6  C   LIG d   1       2.814  -1.431  -9.105  0.00  0.00     0.001 C 
ATOM      7  H   LIG d   1       3.910  -1.852  -7.246  0.00  0.00     0.085 H 
ATOM      8  C   LIG d   1       4.034   0.265  -7.767  0.00  0.00    -0.004 C 
ATOM      9  C   LIG d   1       3.402  -0.773 -10.383  0.00  0.00     0.013 C 
ATOM     10  H   LIG d   1       1.922  -0.910  -8.763  0.00  0.00     0.033 H 
ATOM     11  H   LIG d   1       2.624  -2.492  -9.255  0.00  0.00     0.033 H 
ATOM     12  C   LIG d   1       3.260   0.738 -10.200  0.00  0.00    -0.037 C 
ATOM     13  C   LIG d   1       4.905  -1.133 -10.327  0.00  0.00    -0.026 C 
ATOM     14  C   LIG d   1       3.794   1.261  -8.881  0.00  0.00    -0.029 C 
ATOM     15  H   LIG d   1       3.782   1.247 -11.025  0.00  0.00     0.028 H 
ATOM     16  H   LIG d   1       2.197   1.009 -10.290  0.00  0.00     0.028 H 
ATOM     17  H   LIG d   1       5.118  -1.936 -11.036  0.00  0.00     0.082 H 
ATOM     18  H   LIG d   1       5.519  -0.268 -10.559  0.00  0.00     0.082 H 
ATOM     19  H   LIG d   1       3.237   0.432  -7.004  0.00  0.00     0.033 H 
ATOM     20  H   LIG d   1       4.956   0.529  -7.233  0.00  0.00     0.033 H 
ATOM     21  H   LIG d   1       5.209  -2.625  -8.975  0.00  0.00     0.204 HD
BRANCH   9  22
ATOM     22  C   LIG d   1       2.729  -1.280 -11.667  0.00  0.00    -0.054 C 
ATOM     23  H   LIG d   1       2.576  -0.446 -12.351  0.00  0.00     0.024 H 
ATOM     24  H   LIG d   1       3.366  -2.027 -12.140  0.00  0.00     0.024 H 
ATOM     25  H   LIG d   1       1.767  -1.728 -11.419  0.00  0.00     0.024 H 
ENDBRANCH   9  22
BRANCH  14  26
ATOM     26  C   LIG d   1       5.091   2.051  -9.144  0.00  0.00    -0.060 C 
ATOM     27  H   LIG d   1       5.927   1.550  -8.655  0.00  0.00     0.024 H 
ATOM     28  H   LIG d   1       5.274   2.101 -10.217  0.00  0.00     0.024 H 
ATOM     29  H   LIG d   1       4.988   3.060  -8.745  0.00  0.00     0.024 H 
ENDBRANCH  14  26
BRANCH  14  30
ATOM     30  C   LIG d   1       2.767   2.295  -8.354  0.00  0.00    -0.060 C 
ATOM     31  H   LIG d   1       2.662   3.105  -9.074  0.00  0.00     0.024 H 
ATOM     32  H   LIG d   1       1.801   1.809  -8.212  0.00  0.00     0.024 H 
ATOM     33  H   LIG d   1       3.113   2.698  -7.401  0.00  0.00     0.024 H 
ENDBRANCH  14  30
ENDBRANCH   1   4
BRANCH   1  34
ATOM     34  C   LIG d   1       7.258  -2.245  -7.915  0.00  0.00     0.081 A 
ATOM     35  C   LIG d   1       7.323  -2.475  -6.550  0.00  0.00     0.154 A 
ATOM     36  C   LIG d   1       8.087  -3.553  -6.066  0.00  0.00     0.106 A 
ATOM     37  O   LIG d   1       6.658  -1.684  -5.683  0.00  0.00    -0.454 OA
ATOM     38  C   LIG d   1       8.785  -4.378  -6.958  0.00  0.00     0.138 A 
ATOM     39  C   LIG d   1       8.137  -3.782  -4.613  0.00  0.00     0.197 A 
ATOM     40  C   LIG d   1       8.712  -4.129  -8.315  0.00  0.00     0.023 A 
ATOM     41  C   LIG d   1       7.951  -3.066  -8.791  0.00  0.00     0.132 A 
ATOM     42  H   LIG d   1       9.247  -4.761  -9.009  0.00  0.00     0.069 H 
ATOM     43  C   LIG d   1       7.412  -2.887  -3.788  0.00  0.00     0.029 A 
ATOM     44  O   LIG d   1       8.787  -4.698  -4.138  0.00  0.00    -0.287 OA
ATOM     45  C   LIG d   1       6.699  -1.880  -4.356  0.00  0.00     0.139 A 
ATOM     46  H   LIG d   1       7.420  -3.010  -2.714  0.00  0.00     0.069 H 
BRANCH  38  47
ATOM     47  O   LIG d   1       9.526  -5.414  -6.491  0.00  0.00    -0.494 OA
BRANCH  47  48
ATOM     48  C   LIG d   1      10.885  -5.489  -6.926  0.00  0.00     0.079 C 
ATOM     49  H   LIG d   1      11.271  -4.483  -7.090  0.00  0.00     0.066 H 
ATOM     50  H   LIG d   1      11.484  -5.987  -6.164  0.00  0.00     0.066 H 
ATOM     51  H   LIG d   1      10.939  -6.054  -7.857  0.00  0.00     0.066 H 
ENDBRANCH  47  48
ENDBRANCH  38  47
BRANCH  41  52
ATOM     52  O   LIG d   1       7.887  -2.830 -10.127  0.00  0.00    -0.506 OA
ATOM     53  H   LIG d   1       8.467  -2.119 -10.429  0.00  0.00     0.292 HD
ENDBRANCH  41  52
BRANCH  45  54
ATOM     54  C   LIG d   1       5.942  -0.964  -3.480  0.00  0.00     0.017 A 
ATOM     55  C   LIG d   1       6.172   0.412  -3.537  0.00  0.00    -0.051 A 
ATOM     56  C   LIG d   1       5.456   1.263  -2.719  0.00  0.00    -0.061 A 
ATOM     57  H   LIG d   1       6.906   0.810  -4.221  0.00  0.00     0.062 H 
ATOM     58  C   LIG d   1       4.519   0.754  -1.837  0.00  0.00    -0.062 A 
ATOM     59  H   LIG d   1       5.629   2.328  -2.766  0.00  0.00     0.062 H 
ATOM     60  C   LIG d   1       4.290  -0.610  -1.771  0.00  0.00    -0.061 A 
ATOM     61  H   LIG d   1       3.965   1.424  -1.196  0.00  0.00     0.062 H 
ATOM     62  C   LIG d   1       4.996  -1.471  -2.586  0.00  0.00    -0.051 A 
ATOM     63  H   LIG d   1       3.559  -1.000  -1.079  0.00  0.00     0.062 H 
ATOM     64  H   LIG d   1       4.815  -2.534  -2.534  0.00  0.00     0.062 H 
ENDBRANCH  45  54
ENDBRANCH   1  34
TORSDOF 9
ENDMDL
MODEL 6
REMARK VINA RESULT:      -6.7      4.059      6.935
REMARK  9 active torsions:
REMARK  status: ('A' for Active; 'I' for Inactive)
REMARK    1  A    between atoms: C_1  and  C_2 
REMARK    2  A    between atoms: C_7  and  C_9 
REMARK    3  A    between atoms: C_7  and  C_10 
REMARK    4  A    between atoms: N_11  and  C_13 
REMARK    5  A    between atoms: C_13  and  C_14 
REMARK    6  A    between atoms: C_15  and  O_33 
REMARK    7  A    between atoms: C_17  and  O_31 
REMARK    8  A    between atoms: C_21  and  C_25 
REMARK    9  A    between atoms: O_31  and  C_32 
ROOT
ATOM      1  C   LIG d   1       3.039  -2.467  -8.987  0.00  0.00     0.002 C 
ATOM      2  H   LIG d   1       2.959  -1.900  -8.060  0.00  0.00     0.087 H 
ATOM      3  H   LIG d   1       2.058  -2.540  -9.454  0.00  0.00     0.087 H 
ENDROOT
BRANCH   1   4
ATOM      4  N   LIG d   1       3.959  -1.789  -9.893  0.00  0.00     0.241 N 
ATOM      5  C   LIG d   1       3.368  -0.611 -10.560  0.00  0.00    -0.019 C 
ATOM      6  C   LIG d   1       4.623   0.166 -11.044  0.00  0.00     0.001 C 
ATOM      7  H   LIG d   1       2.746  -0.915 -11.417  0.00  0.00     0.085 H 
ATOM      8  C   LIG d   1       2.613   0.281  -9.595  0.00  0.00    -0.004 C 
ATOM      9  C   LIG d   1       5.486   0.082  -9.756  0.00  0.00     0.013 C 
ATOM     10  H   LIG d   1       4.378   1.198 -11.292  0.00  0.00     0.033 H 
ATOM     11  H   LIG d   1       5.103  -0.341 -11.879  0.00  0.00     0.033 H 
ATOM     12  C   LIG d   1       4.931   1.129  -8.790  0.00  0.00    -0.037 C 
ATOM     13  C   LIG d   1       5.169  -1.322  -9.190  0.00  0.00    -0.026 C 
ATOM     14  C   LIG d   1       3.431   1.059  -8.587  0.00  0.00    -0.029 C 
ATOM     15  H   LIG d   1       5.431   1.014  -7.816  0.00  0.00     0.028 H 
ATOM     16  H   LIG d   1       5.198   2.131  -9.160  0.00  0.00     0.028 H 
ATOM     17  H   LIG d   1       5.999  -2.000  -9.399  0.00  0.00     0.082 H 
ATOM     18  H   LIG d   1       4.996  -1.277  -8.118  0.00  0.00     0.082 H 
ATOM     19  H   LIG d   1       2.051   1.028 -10.205  0.00  0.00     0.033 H 
ATOM     20  H   LIG d   1       1.819  -0.271  -9.075  0.00  0.00     0.033 H 
ATOM     21  H   LIG d   1       4.252  -2.451 -10.614  0.00  0.00     0.204 HD
BRANCH   9  22
ATOM     22  C   LIG d   1       6.983   0.271 -10.040  0.00  0.00    -0.054 C 
ATOM     23  H   LIG d   1       7.358  -0.584 -10.603  0.00  0.00     0.024 H 
ATOM     24  H   LIG d   1       7.130   1.182 -10.620  0.00  0.00     0.024 H 
ATOM     25  H   LIG d   1       7.525   0.350  -9.097  0.00  0.00     0.024 H 
ENDBRANCH   9  22
BRANCH  14  26
ATOM     26  C   LIG d   1       3.142   0.520  -7.173  0.00  0.00    -0.060 C 
ATOM     27  H   LIG d   1       2.183   0.906  -6.826  0.00  0.00     0.024 H 
ATOM     28  H   LIG d   1       3.107  -0.569  -7.199  0.00  0.00     0.024 H 
ATOM     29  H   LIG d   1       3.930   0.842  -6.493  0.00  0.00     0.024 H 
ENDBRANCH  14  26
BRANCH  14  30
ATOM     30  C   LIG d   1       2.903   2.517  -8.602  0.00  0.00    -0.060 C 
ATOM     31  H   LIG d   1       2.185   2.653  -7.793  0.00  0.00     0.024 H 
ATOM     32  H   LIG d   1       3.736   3.207  -8.466  0.00  0.00     0.024 H 
ATOM     33  H   LIG d   1       2.418   2.718  -9.557  0.00  0.00     0.024 H 
ENDBRANCH  14  30
ENDBRANCH   1   4
BRANCH   1  34
ATOM     34  C   LIG d   1       3.557  -3.850  -8.686  0.00  0.00     0.081 A 
ATOM     35  C   LIG d   1       4.095  -4.132  -7.441  0.00  0.00     0.154 A 
ATOM     36  C   LIG d   1       4.570  -5.428  -7.171  0.00  0.00     0.106 A 
ATOM     37  O   LIG d   1       4.164  -3.181  -6.486  0.00  0.00    -0.454 OA
ATOM     38  C   LIG d   1       4.508  -6.421  -8.157  0.00  0.00     0.138 A 
ATOM     39  C   LIG d   1       5.132  -5.707  -5.839  0.00  0.00     0.197 A 
ATOM     40  C   LIG d   1       3.971  -6.118  -9.395  0.00  0.00     0.023 A 
ATOM     41  C   LIG d   1       3.499  -4.838  -9.657  0.00  0.00     0.132 A 
ATOM     42  H   LIG d   1       3.920  -6.879 -10.161  0.00  0.00     0.069 H 
ATOM     43  C   LIG d   1       5.169  -4.637  -4.912  0.00  0.00     0.029 A 
ATOM     44  O   LIG d   1       5.562  -6.811  -5.551  0.00  0.00    -0.287 OA
ATOM     45  C   LIG d   1       4.679  -3.422  -5.270  0.00  0.00     0.139 A 
ATOM     46  H   LIG d   1       5.576  -4.789  -3.922  0.00  0.00     0.069 H 
BRANCH  38  47
ATOM     47  O   LIG d   1       4.969  -7.670  -7.899  0.00  0.00    -0.494 OA
BRANCH  47  48
ATOM     48  C   LIG d   1       4.178  -8.764  -8.368  0.00  0.00     0.079 C 
ATOM     49  H   LIG d   1       3.877  -9.385  -7.525  0.00  0.00     0.066 H 
ATOM     50  H   LIG d   1       3.291  -8.381  -8.872  0.00  0.00     0.066 H 
ATOM     51  H   LIG d   1       4.763  -9.362  -9.068  0.00  0.00     0.066 H 
ENDBRANCH  47  48
ENDBRANCH  38  47
BRANCH  41  52
ATOM     52  O   LIG d   1       2.974  -4.551 -10.877  0.00  0.00    -0.506 OA
ATOM     53  H   LIG d   1       2.206  -5.089 -11.111  0.00  0.00     0.292 HD
ENDBRANCH  41  52
BRANCH  45  54
ATOM     54  C   LIG d   1       4.716  -2.322  -4.285  0.00  0.00     0.017 A 
ATOM     55  C   LIG d   1       4.170  -2.501  -3.013  0.00  0.00    -0.051 A 
ATOM     56  C   LIG d   1       4.214  -1.471  -2.095  0.00  0.00    -0.061 A 
ATOM     57  H   LIG d   1       3.717  -3.444  -2.746  0.00  0.00     0.062 H 
ATOM     58  C   LIG d   1       4.788  -0.259  -2.438  0.00  0.00    -0.062 A 
ATOM     59  H   LIG d   1       3.797  -1.610  -1.109  0.00  0.00     0.062 H 
ATOM     60  C   LIG d   1       5.327  -0.073  -3.699  0.00  0.00    -0.061 A 
ATOM     61  H   LIG d   1       4.816   0.545  -1.717  0.00  0.00     0.062 H 
ATOM     62  C   LIG d   1       5.293  -1.096  -4.624  0.00  0.00    -0.051 A 
ATOM     63  H   LIG d   1       5.772   0.875  -3.960  0.00  0.00     0.062 H 
ATOM     64  H   LIG d   1       5.715  -0.950  -5.608  0.00  0.00     0.062 H 
ENDBRANCH  45  54
ENDBRANCH   1  34
TORSDOF 9
ENDMDL
MODEL 7
REMARK VINA RESULT:      -6.7      4.315      8.078
REMARK  9 active torsions:
REMARK  status: ('A' for Active; 'I' for Inactive)
REMARK    1  A    between atoms: C_1  and  C_2 
REMARK    2  A    between atoms: C_7  and  C_9 
REMARK    3  A    between atoms: C_7  and  C_10 
REMARK    4  A    between atoms: N_11  and  C_13 
REMARK    5  A    between atoms: C_13  and  C_14 
REMARK    6  A    between atoms: C_15  and  O_33 
REMARK    7  A    between atoms: C_17  and  O_31 
REMARK    8  A    between atoms: C_21  and  C_25 
REMARK    9  A    between atoms: O_31  and  C_32 
ROOT
ATOM      1  C   LIG d   1       5.094  -1.361  -6.757  0.00  0.00     0.002 C 
ATOM      2  H   LIG d   1       5.583  -0.387  -6.760  0.00  0.00     0.087 H 
ATOM      3  H   LIG d   1       5.843  -2.144  -6.874  0.00  0.00     0.087 H 
ENDROOT
BRANCH   1   4
ATOM      4  N   LIG d   1       4.390  -1.548  -5.494  0.00  0.00     0.241 N 
ATOM      5  C   LIG d   1       4.761  -2.794  -4.792  0.00  0.00    -0.019 C 
ATOM      6  C   LIG d   1       4.280  -2.518  -3.340  0.00  0.00     0.001 C 
ATOM      7  H   LIG d   1       4.228  -3.659  -5.218  0.00  0.00     0.085 H 
ATOM      8  C   LIG d   1       6.260  -3.010  -4.752  0.00  0.00    -0.004 C 
ATOM      9  C   LIG d   1       4.828  -1.075  -3.162  0.00  0.00     0.013 C 
ATOM     10  H   LIG d   1       4.739  -3.207  -2.634  0.00  0.00     0.033 H 
ATOM     11  H   LIG d   1       3.194  -2.542  -3.273  0.00  0.00     0.033 H 
ATOM     12  C   LIG d   1       6.325  -1.209  -2.883  0.00  0.00    -0.037 C 
ATOM     13  C   LIG d   1       4.647  -0.436  -4.559  0.00  0.00    -0.026 C 
ATOM     14  C   LIG d   1       7.070  -2.083  -3.872  0.00  0.00    -0.029 C 
ATOM     15  H   LIG d   1       6.777  -0.205  -2.879  0.00  0.00     0.028 H 
ATOM     16  H   LIG d   1       6.463  -1.616  -1.870  0.00  0.00     0.028 H 
ATOM     17  H   LIG d   1       3.788   0.238  -4.547  0.00  0.00     0.082 H 
ATOM     18  H   LIG d   1       5.537   0.113  -4.852  0.00  0.00     0.082 H 
ATOM     19  H   LIG d   1       6.435  -4.048  -4.379  0.00  0.00     0.033 H 
ATOM     20  H   LIG d   1       6.691  -3.028  -5.761  0.00  0.00     0.033 H 
ATOM     21  H   LIG d   1       3.386  -1.573  -5.682  0.00  0.00     0.204 HD
BRANCH   9  22
ATOM     22  C   LIG d   1       4.087  -0.298  -2.065  0.00  0.00    -0.054 C 
ATOM     23  H   LIG d   1       3.706  -0.996  -1.319  0.00  0.00     0.024 H 
ATOM     24  H   LIG d   1       4.774   0.403  -1.590  0.00  0.00     0.024 H 
ATOM     25  H   LIG d   1       3.256   0.252  -2.507  0.00  0.00     0.024 H 
ENDBRANCH   9  22
BRANCH  14  26
ATOM     26  C   LIG d   1       7.958  -1.189  -4.760  0.00  0.00    -0.060 C 
ATOM     27  H   LIG d   1       8.476  -1.806  -5.494  0.00  0.00     0.024 H 
ATOM     28  H   LIG d   1       7.337  -0.455  -5.274  0.00  0.00     0.024 H 
ATOM     29  H   LIG d   1       8.691  -0.673  -4.138  0.00  0.00     0.024 H 
ENDBRANCH  14  26
BRANCH  14  30
ATOM     30  C   LIG d   1       8.044  -2.968  -3.053  0.00  0.00    -0.060 C 
ATOM     31  H   LIG d   1       7.914  -2.766  -1.990  0.00  0.00     0.024 H 
ATOM     32  H   LIG d   1       7.834  -4.019  -3.250  0.00  0.00     0.024 H 
ATOM     33  H   LIG d   1       9.071  -2.742  -3.342  0.00  0.00     0.024 H 
ENDBRANCH  14  30
ENDBRANCH   1   4
BRANCH   1  34
ATOM     34  C   LIG d   1       4.110  -1.432  -7.896  0.00  0.00     0.081 A 
ATOM     35  C   LIG d   1       3.649  -2.662  -8.337  0.00  0.00     0.154 A 
ATOM     36  C   LIG d   1       2.726  -2.715  -9.397  0.00  0.00     0.106 A 
ATOM     37  O   LIG d   1       4.071  -3.806  -7.758  0.00  0.00    -0.454 OA
ATOM     38  C   LIG d   1       2.286  -1.533 -10.008  0.00  0.00     0.138 A 
ATOM     39  C   LIG d   1       2.246  -4.033  -9.845  0.00  0.00     0.197 A 
ATOM     40  C   LIG d   1       2.762  -0.316  -9.556  0.00  0.00     0.023 A 
ATOM     41  C   LIG d   1       3.670  -0.267  -8.505  0.00  0.00     0.132 A 
ATOM     42  H   LIG d   1       2.427   0.600 -10.022  0.00  0.00     0.069 H 
ATOM     43  C   LIG d   1       2.758  -5.173  -9.179  0.00  0.00     0.029 A 
ATOM     44  O   LIG d   1       1.449  -4.138 -10.762  0.00  0.00    -0.287 OA
ATOM     45  C   LIG d   1       3.643  -5.013  -8.161  0.00  0.00     0.139 A 
ATOM     46  H   LIG d   1       2.440  -6.163  -9.473  0.00  0.00     0.069 H 
BRANCH  38  47
ATOM     47  O   LIG d   1       1.399  -1.584 -11.033  0.00  0.00    -0.494 OA
BRANCH  47  48
ATOM     48  C   LIG d   1       1.892  -1.259 -12.334  0.00  0.00     0.079 C 
ATOM     49  H   LIG d   1       1.258  -0.496 -12.784  0.00  0.00     0.066 H 
ATOM     50  H   LIG d   1       2.911  -0.882 -12.253  0.00  0.00     0.066 H 
ATOM     51  H   LIG d   1       1.884  -2.152 -12.960  0.00  0.00     0.066 H 
ENDBRANCH  47  48
ENDBRANCH  38  47
BRANCH  41  52
ATOM     52  O   LIG d   1       4.131   0.934  -8.070  0.00  0.00    -0.506 OA
ATOM     53  H   LIG d   1       3.500   1.423  -7.524  0.00  0.00     0.292 HD
ENDBRANCH  41  52
BRANCH  45  54
ATOM     54  C   LIG d   1       4.158  -6.214  -7.473  0.00  0.00     0.017 A 
ATOM     55  C   LIG d   1       4.600  -6.129  -6.151  0.00  0.00    -0.051 A 
ATOM     56  C   LIG d   1       5.074  -7.257  -5.511  0.00  0.00    -0.061 A 
ATOM     57  H   LIG d   1       4.569  -5.184  -5.629  0.00  0.00     0.062 H 
ATOM     58  C   LIG d   1       5.120  -8.467  -6.180  0.00  0.00    -0.062 A 
ATOM     59  H   LIG d   1       5.411  -7.194  -4.488  0.00  0.00     0.062 H 
ATOM     60  C   LIG d   1       4.689  -8.557  -7.493  0.00  0.00    -0.061 A 
ATOM     61  H   LIG d   1       5.496  -9.346  -5.677  0.00  0.00     0.062 H 
ATOM     62  C   LIG d   1       4.208  -7.439  -8.142  0.00  0.00    -0.051 A 
ATOM     63  H   LIG d   1       4.729  -9.505  -8.009  0.00  0.00     0.062 H 
ATOM     64  H   LIG d   1       3.871  -7.511  -9.166  0.00  0.00     0.062 H 
ENDBRANCH  45  54
ENDBRANCH   1  34
TORSDOF 9
ENDMDL
MODEL 8
REMARK VINA RESULT:      -6.5      6.312     10.705
REMARK  9 active torsions:
REMARK  status: ('A' for Active; 'I' for Inactive)
REMARK    1  A    between atoms: C_1  and  C_2 
REMARK    2  A    between atoms: C_7  and  C_9 
REMARK    3  A    between atoms: C_7  and  C_10 
REMARK    4  A    between atoms: N_11  and  C_13 
REMARK    5  A    between atoms: C_13  and  C_14 
REMARK    6  A    between atoms: C_15  and  O_33 
REMARK    7  A    between atoms: C_17  and  O_31 
REMARK    8  A    between atoms: C_21  and  C_25 
REMARK    9  A    between atoms: O_31  and  C_32 
ROOT
ATOM      1  C   LIG d   1       9.263   6.863  -3.553  0.00  0.00     0.002 C 
ATOM      2  H   LIG d   1       8.433   6.209  -3.285  0.00  0.00     0.087 H 
ATOM      3  H   LIG d   1       9.016   7.890  -3.286  0.00  0.00     0.087 H 
ENDROOT
BRANCH   1   4
ATOM      4  N   LIG d   1      10.461   6.448  -2.833  0.00  0.00     0.241 N 
ATOM      5  C   LIG d   1      11.456   7.529  -2.675  0.00  0.00    -0.019 C 
ATOM      6  C   LIG d   1      12.347   6.999  -1.517  0.00  0.00     0.001 C 
ATOM      7  H   LIG d   1      12.050   7.654  -3.594  0.00  0.00     0.085 H 
ATOM      8  C   LIG d   1      10.828   8.830  -2.219  0.00  0.00    -0.004 C 
ATOM      9  C   LIG d   1      11.236   6.518  -0.543  0.00  0.00     0.013 C 
ATOM     10  H   LIG d   1      12.942   7.798  -1.079  0.00  0.00     0.033 H 
ATOM     11  H   LIG d   1      12.971   6.171  -1.847  0.00  0.00     0.033 H 
ATOM     12  C   LIG d   1      10.691   7.769   0.146  0.00  0.00    -0.037 C 
ATOM     13  C   LIG d   1      10.140   5.959  -1.479  0.00  0.00    -0.026 C 
ATOM     14  C   LIG d   1      10.302   8.886  -0.801  0.00  0.00    -0.029 C 
ATOM     15  H   LIG d   1       9.814   7.488   0.750  0.00  0.00     0.028 H 
ATOM     16  H   LIG d   1      11.447   8.144   0.853  0.00  0.00     0.028 H 
ATOM     17  H   LIG d   1      10.168   4.867  -1.468  0.00  0.00     0.082 H 
ATOM     18  H   LIG d   1       9.156   6.302  -1.171  0.00  0.00     0.082 H 
ATOM     19  H   LIG d   1      11.608   9.624  -2.308  0.00  0.00     0.033 H 
ATOM     20  H   LIG d   1      10.046   9.164  -2.913  0.00  0.00     0.033 H 
ATOM     21  H   LIG d   1      10.900   5.682  -3.347  0.00  0.00     0.204 HD
BRANCH   9  22
ATOM     22  C   LIG d   1      11.745   5.466   0.453  0.00  0.00    -0.054 C 
ATOM     23  H   LIG d   1      11.164   4.550   0.343  0.00  0.00     0.024 H 
ATOM     24  H   LIG d   1      12.796   5.256   0.254  0.00  0.00     0.024 H 
ATOM     25  H   LIG d   1      11.637   5.846   1.469  0.00  0.00     0.024 H 
ENDBRANCH   9  22
BRANCH  14  26
ATOM     26  C   LIG d   1       8.766   9.003  -0.833  0.00  0.00    -0.060 C 
ATOM     27  H   LIG d   1       8.473  10.022  -0.580  0.00  0.00     0.024 H 
ATOM     28  H   LIG d   1       8.404   8.758  -1.832  0.00  0.00     0.024 H 
ATOM     29  H   LIG d   1       8.334   8.311  -0.110  0.00  0.00     0.024 H 
ENDBRANCH  14  26
BRANCH  14  30
ATOM     30  C   LIG d   1      10.815  10.209  -0.177  0.00  0.00    -0.060 C 
ATOM     31  H   LIG d   1      10.578  10.228   0.886  0.00  0.00     0.024 H 
ATOM     32  H   LIG d   1      11.895  10.279  -0.309  0.00  0.00     0.024 H 
ATOM     33  H   LIG d   1      10.334  11.054  -0.672  0.00  0.00     0.024 H 
ENDBRANCH  14  30
ENDBRANCH   1   4
BRANCH   1  34
ATOM     34  C   LIG d   1       9.512   6.775  -5.036  0.00  0.00     0.081 A 
ATOM     35  C   LIG d   1       9.610   7.933  -5.791  0.00  0.00     0.154 A 
ATOM     36  C   LIG d   1       9.849   7.838  -7.174  0.00  0.00     0.106 A 
ATOM     37  O   LIG d   1       9.485   9.147  -5.215  0.00  0.00    -0.454 OA
ATOM     38  C   LIG d   1       9.976   6.583  -7.783  0.00  0.00     0.138 A 
ATOM     39  C   LIG d   1       9.955   9.082  -7.955  0.00  0.00     0.197 A 
ATOM     40  C   LIG d   1       9.870   5.440  -7.013  0.00  0.00     0.023 A 
ATOM     41  C   LIG d   1       9.639   5.537  -5.646  0.00  0.00     0.132 A 
ATOM     42  H   LIG d   1       9.967   4.468  -7.476  0.00  0.00     0.069 H 
ATOM     43  C   LIG d   1       9.797  10.304  -7.258  0.00  0.00     0.029 A 
ATOM     44  O   LIG d   1      10.157   9.059  -9.158  0.00  0.00    -0.287 OA
ATOM     45  C   LIG d   1       9.574  10.287  -5.917  0.00  0.00     0.139 A 
ATOM     46  H   LIG d   1       9.862  11.244  -7.786  0.00  0.00     0.069 H 
BRANCH  38  47
ATOM     47  O   LIG d   1      10.202   6.491  -9.117  0.00  0.00    -0.494 OA
BRANCH  47  48
ATOM     48  C   LIG d   1       9.261   5.738  -9.885  0.00  0.00     0.079 C 
ATOM     49  H   LIG d   1       9.783   5.199 -10.675  0.00  0.00     0.066 H 
ATOM     50  H   LIG d   1       8.750   5.027  -9.237  0.00  0.00     0.066 H 
ATOM     51  H   LIG d   1       8.530   6.414 -10.329  0.00  0.00     0.066 H 
ENDBRANCH  47  48
ENDBRANCH  38  47
BRANCH  41  52
ATOM     52  O   LIG d   1       9.537   4.407  -4.899  0.00  0.00    -0.506 OA
ATOM     53  H   LIG d   1       8.954   3.736  -5.279  0.00  0.00     0.292 HD
ENDBRANCH  41  52
BRANCH  45  54
ATOM     54  C   LIG d   1       9.423  11.572  -5.206  0.00  0.00     0.017 A 
ATOM     55  C   LIG d   1       8.940  11.597  -3.896  0.00  0.00    -0.051 A 
ATOM     56  C   LIG d   1       8.807  12.801  -3.236  0.00  0.00    -0.061 A 
ATOM     57  H   LIG d   1       8.673  10.675  -3.400  0.00  0.00     0.062 H 
ATOM     58  C   LIG d   1       9.142  13.983  -3.872  0.00  0.00    -0.062 A 
ATOM     59  H   LIG d   1       8.439  12.821  -2.221  0.00  0.00     0.062 H 
ATOM     60  C   LIG d   1       9.616  13.967  -5.172  0.00  0.00    -0.061 A 
ATOM     61  H   LIG d   1       9.032  14.924  -3.352  0.00  0.00     0.062 H 
ATOM     62  C   LIG d   1       9.758  12.770  -5.843  0.00  0.00    -0.051 A 
ATOM     63  H   LIG d   1       9.874  14.894  -5.663  0.00  0.00     0.062 H 
ATOM     64  H   LIG d   1      10.130  12.759  -6.857  0.00  0.00     0.062 H 
ENDBRANCH  45  54
ENDBRANCH   1  34
TORSDOF 9
ENDMDL
MODEL 9
REMARK VINA RESULT:      -6.5      6.656     10.743
REMARK  9 active torsions:
REMARK  status: ('A' for Active; 'I' for Inactive)
REMARK    1  A    between atoms: C_1  and  C_2 
REMARK    2  A    between atoms: C_7  and  C_9 
REMARK    3  A    between atoms: C_7  and  C_10 
REMARK    4  A    between atoms: N_11  and  C_13 
REMARK    5  A    between atoms: C_13  and  C_14 
REMARK    6  A    between atoms: C_15  and  O_33 
REMARK    7  A    between atoms: C_17  and  O_31 
REMARK    8  A    between atoms: C_21  and  C_25 
REMARK    9  A    between atoms: O_31  and  C_32 
ROOT
ATOM      1  C   LIG d   1       9.450  10.394  -2.525  0.00  0.00     0.002 C 
ATOM      2  H   LIG d   1       8.453  10.790  -2.329  0.00  0.00     0.087 H 
ATOM      3  H   LIG d   1       9.378   9.556  -3.217  0.00  0.00     0.087 H 
ENDROOT
BRANCH   1   4
ATOM      4  N   LIG d   1      10.280  11.439  -3.112  0.00  0.00     0.241 N 
ATOM      5  C   LIG d   1      11.554  10.936  -3.666  0.00  0.00    -0.019 C 
ATOM      6  C   LIG d   1      11.987  12.090  -4.613  0.00  0.00     0.001 C 
ATOM      7  H   LIG d   1      12.300  10.789  -2.868  0.00  0.00     0.085 H 
ATOM      8  C   LIG d   1      11.365   9.691  -4.508  0.00  0.00    -0.004 C 
ATOM      9  C   LIG d   1      10.631  12.359  -5.321  0.00  0.00     0.013 C 
ATOM     10  H   LIG d   1      12.746  11.757  -5.319  0.00  0.00     0.033 H 
ATOM     11  H   LIG d   1      12.321  12.959  -4.049  0.00  0.00     0.033 H 
ATOM     12  C   LIG d   1      10.461  11.259  -6.369  0.00  0.00    -0.037 C 
ATOM     13  C   LIG d   1       9.582  12.139  -4.207  0.00  0.00    -0.026 C 
ATOM     14  C   LIG d   1      10.663   9.854  -5.839  0.00  0.00    -0.029 C 
ATOM     15  H   LIG d   1       9.453  11.337  -6.805  0.00  0.00     0.028 H 
ATOM     16  H   LIG d   1      11.171  11.439  -7.191  0.00  0.00     0.028 H 
ATOM     17  H   LIG d   1       9.216  13.104  -3.849  0.00  0.00     0.082 H 
ATOM     18  H   LIG d   1       8.749  11.544  -4.571  0.00  0.00     0.082 H 
ATOM     19  H   LIG d   1      12.381   9.280  -4.725  0.00  0.00     0.033 H 
ATOM     20  H   LIG d   1      10.884   8.887  -3.936  0.00  0.00     0.033 H 
ATOM     21  H   LIG d   1      10.497  12.127  -2.388  0.00  0.00     0.204 HD
BRANCH   9  22
ATOM     22  C   LIG d   1      10.555  13.769  -5.923  0.00  0.00    -0.054 C 
ATOM     23  H   LIG d   1      10.915  13.745  -6.952  0.00  0.00     0.024 H 
ATOM     24  H   LIG d   1       9.521  14.115  -5.909  0.00  0.00     0.024 H 
ATOM     25  H   LIG d   1      11.173  14.449  -5.337  0.00  0.00     0.024 H 
ENDBRANCH   9  22
BRANCH  14  26
ATOM     26  C   LIG d   1       9.299   9.139  -5.784  0.00  0.00    -0.060 C 
ATOM     27  H   LIG d   1       9.317   8.272  -6.446  0.00  0.00     0.024 H 
ATOM     28  H   LIG d   1       9.100   8.813  -4.763  0.00  0.00     0.024 H 
ATOM     29  H   LIG d   1       8.516   9.825  -6.106  0.00  0.00     0.024 H 
ENDBRANCH  14  26
BRANCH  14  30
ATOM     30  C   LIG d   1      11.502   9.088  -6.893  0.00  0.00    -0.060 C 
ATOM     31  H   LIG d   1      11.324   9.513  -7.881  0.00  0.00     0.024 H 
ATOM     32  H   LIG d   1      12.561   9.172  -6.648  0.00  0.00     0.024 H 
ATOM     33  H   LIG d   1      11.213   8.036  -6.893  0.00  0.00     0.024 H 
ENDBRANCH  14  30
ENDBRANCH   1   4
BRANCH   1  34
ATOM     34  C   LIG d   1      10.067   9.927  -1.232  0.00  0.00     0.081 A 
ATOM     35  C   LIG d   1      10.349   8.584  -1.046  0.00  0.00     0.154 A 
ATOM     36  C   LIG d   1      10.932   8.161   0.163  0.00  0.00     0.106 A 
ATOM     37  O   LIG d   1      10.078   7.680  -2.010  0.00  0.00    -0.454 OA
ATOM     38  C   LIG d   1      11.213   9.091   1.173  0.00  0.00     0.138 A 
ATOM     39  C   LIG d   1      11.228   6.730   0.337  0.00  0.00     0.197 A 
ATOM     40  C   LIG d   1      10.919  10.426   0.969  0.00  0.00     0.023 A 
ATOM     41  C   LIG d   1      10.349  10.842  -0.229  0.00  0.00     0.132 A 
ATOM     42  H   LIG d   1      11.133  11.150   1.743  0.00  0.00     0.069 H 
ATOM     43  C   LIG d   1      10.895   5.862  -0.731  0.00  0.00     0.029 A 
ATOM     44  O   LIG d   1      11.729   6.307   1.366  0.00  0.00    -0.287 OA
ATOM     45  C   LIG d   1      10.340   6.372  -1.862  0.00  0.00     0.139 A 
ATOM     46  H   LIG d   1      11.088   4.802  -0.651  0.00  0.00     0.069 H 
BRANCH  38  47
ATOM     47  O   LIG d   1      11.770   8.683   2.340  0.00  0.00    -0.494 OA
BRANCH  47  48
ATOM     48  C   LIG d   1      12.408   9.682   3.138  0.00  0.00     0.079 C 
ATOM     49  H   LIG d   1      13.132   9.211   3.802  0.00  0.00     0.066 H 
ATOM     50  H   LIG d   1      12.919  10.394   2.490  0.00  0.00     0.066 H 
ATOM     51  H   LIG d   1      11.659  10.206   3.733  0.00  0.00     0.066 H 
ENDBRANCH  47  48
ENDBRANCH  38  47
BRANCH  41  52
ATOM     52  O   LIG d   1      10.064  12.156  -0.418  0.00  0.00    -0.506 OA
ATOM     53  H   LIG d   1       9.184  12.319  -0.782  0.00  0.00     0.292 HD
ENDBRANCH  41  52
BRANCH  45  54
ATOM     54  C   LIG d   1      10.009   5.452  -2.968  0.00  0.00     0.017 A 
ATOM     55  C   LIG d   1       9.917   4.078  -2.736  0.00  0.00    -0.051 A 
ATOM     56  C   LIG d   1       9.601   3.225  -3.774  0.00  0.00    -0.061 A 
ATOM     57  H   LIG d   1      10.090   3.684  -1.745  0.00  0.00     0.062 H 
ATOM     58  C   LIG d   1       9.386   3.727  -5.045  0.00  0.00    -0.062 A 
ATOM     59  H   LIG d   1       9.525   2.163  -3.594  0.00  0.00     0.062 H 
ATOM     60  C   LIG d   1       9.481   5.088  -5.284  0.00  0.00    -0.061 A 
ATOM     61  H   LIG d   1       9.144   3.055  -5.854  0.00  0.00     0.062 H 
ATOM     62  C   LIG d   1       9.791   5.952  -4.254  0.00  0.00    -0.051 A 
ATOM     63  H   LIG d   1       9.313   5.473  -6.279  0.00  0.00     0.062 H 
ATOM     64  H   LIG d   1       9.863   7.013  -4.442  0.00  0.00     0.062 H 
ENDBRANCH  45  54
ENDBRANCH   1  34
TORSDOF 9
ENDMDL
MODEL 10
REMARK VINA RESULT:      -6.3      4.501      5.887
REMARK  9 active torsions:
REMARK  status: ('A' for Active; 'I' for Inactive)
REMARK    1  A    between atoms: C_1  and  C_2 
REMARK    2  A    between atoms: C_7  and  C_9 
REMARK    3  A    between atoms: C_7  and  C_10 
REMARK    4  A    between atoms: N_11  and  C_13 
REMARK    5  A    between atoms: C_13  and  C_14 
REMARK    6  A    between atoms: C_15  and  O_33 
REMARK    7  A    between atoms: C_17  and  O_31 
REMARK    8  A    between atoms: C_21  and  C_25 
REMARK    9  A    between atoms: O_31  and  C_32 
ROOT
ATOM      1  C   LIG d   1       3.928  -0.700  -8.124  0.00  0.00     0.002 C 
ATOM      2  H   LIG d   1       4.585  -1.566  -8.209  0.00  0.00     0.087 H 
ATOM      3  H   LIG d   1       4.402   0.162  -8.591  0.00  0.00     0.087 H 
ENDROOT
BRANCH   1   4
ATOM      4  N   LIG d   1       2.664  -0.982  -8.792  0.00  0.00     0.241 N 
ATOM      5  C   LIG d   1       2.368  -0.058  -9.906  0.00  0.00    -0.019 C 
ATOM      6  C   LIG d   1       1.290  -0.836 -10.711  0.00  0.00     0.001 C 
ATOM      7  H   LIG d   1       1.959   0.894  -9.530  0.00  0.00     0.085 H 
ATOM      8  C   LIG d   1       3.563   0.152 -10.814  0.00  0.00    -0.004 C 
ATOM      9  C   LIG d   1       1.954  -2.240 -10.732  0.00  0.00     0.013 C 
ATOM     10  H   LIG d   1       1.180  -0.433 -11.716  0.00  0.00     0.033 H 
ATOM     11  H   LIG d   1       0.339  -0.853 -10.182  0.00  0.00     0.033 H 
ATOM     12  C   LIG d   1       3.043  -2.191 -11.803  0.00  0.00    -0.037 C 
ATOM     13  C   LIG d   1       2.635  -2.348  -9.348  0.00  0.00    -0.026 C 
ATOM     14  C   LIG d   1       3.989  -1.014 -11.679  0.00  0.00    -0.029 C 
ATOM     15  H   LIG d   1       3.625  -3.125 -11.762  0.00  0.00     0.028 H 
ATOM     16  H   LIG d   1       2.566  -2.166 -12.795  0.00  0.00     0.028 H 
ATOM     17  H   LIG d   1       2.044  -2.996  -8.696  0.00  0.00     0.082 H 
ATOM     18  H   LIG d   1       3.641  -2.745  -9.441  0.00  0.00     0.082 H 
ATOM     19  H   LIG d   1       3.312   0.994 -11.503  0.00  0.00     0.033 H 
ATOM     20  H   LIG d   1       4.430   0.531 -10.257  0.00  0.00     0.033 H 
ATOM     21  H   LIG d   1       1.910  -0.907  -8.106  0.00  0.00     0.204 HD
BRANCH   9  22
ATOM     22  C   LIG d   1       0.937  -3.366 -10.971  0.00  0.00    -0.054 C 
ATOM     23  H   LIG d   1       1.430  -4.331 -10.855  0.00  0.00     0.024 H 
ATOM     24  H   LIG d   1       0.126  -3.282 -10.248  0.00  0.00     0.024 H 
ATOM     25  H   LIG d   1       0.534  -3.282 -11.980  0.00  0.00     0.024 H 
ENDBRANCH   9  22
BRANCH  14  26
ATOM     26  C   LIG d   1       5.364  -1.524 -11.203  0.00  0.00    -0.060 C 
ATOM     27  H   LIG d   1       5.988  -0.676 -10.920  0.00  0.00     0.024 H 
ATOM     28  H   LIG d   1       5.230  -2.179 -10.343  0.00  0.00     0.024 H 
ATOM     29  H   LIG d   1       5.845  -2.076 -12.010  0.00  0.00     0.024 H 
ENDBRANCH  14  26
BRANCH  14  30
ATOM     30  C   LIG d   1       4.215  -0.460 -13.110  0.00  0.00    -0.060 C 
ATOM     31  H   LIG d   1       5.252  -0.619 -13.403  0.00  0.00     0.024 H 
ATOM     32  H   LIG d   1       3.557  -0.979 -13.809  0.00  0.00     0.024 H 
ATOM     33  H   LIG d   1       3.991   0.607 -13.126  0.00  0.00     0.024 H 
ENDBRANCH  14  30
ENDBRANCH   1   4
BRANCH   1  34
ATOM     34  C   LIG d   1       3.673  -0.406  -6.667  0.00  0.00     0.081 A 
ATOM     35  C   LIG d   1       3.996  -1.349  -5.704  0.00  0.00     0.154 A 
ATOM     36  C   LIG d   1       3.759  -1.060  -4.348  0.00  0.00     0.106 A 
ATOM     37  O   LIG d   1       4.540  -2.534  -6.051  0.00  0.00    -0.454 OA
ATOM     38  C   LIG d   1       3.190   0.166  -3.978  0.00  0.00     0.138 A 
ATOM     39  C   LIG d   1       4.115  -2.073  -3.342  0.00  0.00     0.197 A 
ATOM     40  C   LIG d   1       2.871   1.091  -4.955  0.00  0.00     0.023 A 
ATOM     41  C   LIG d   1       3.111   0.805  -6.293  0.00  0.00     0.132 A 
ATOM     42  H   LIG d   1       2.432   2.039  -4.676  0.00  0.00     0.069 H 
ATOM     43  C   LIG d   1       4.670  -3.289  -3.810  0.00  0.00     0.029 A 
ATOM     44  O   LIG d   1       3.927  -1.878  -2.152  0.00  0.00    -0.287 OA
ATOM     45  C   LIG d   1       4.864  -3.468  -5.143  0.00  0.00     0.139 A 
ATOM     46  H   LIG d   1       4.944  -4.067  -3.112  0.00  0.00     0.069 H 
BRANCH  38  47
ATOM     47  O   LIG d   1       2.957   0.443  -2.671  0.00  0.00    -0.494 OA
BRANCH  47  48
ATOM     48  C   LIG d   1       3.803   1.415  -2.052  0.00  0.00     0.079 C 
ATOM     49  H   LIG d   1       4.846   1.168  -2.249  0.00  0.00     0.066 H 
ATOM     50  H   LIG d   1       3.581   2.401  -2.459  0.00  0.00     0.066 H 
ATOM     51  H   LIG d   1       3.628   1.418  -0.976  0.00  0.00     0.066 H 
ENDBRANCH  47  48
ENDBRANCH  38  47
BRANCH  41  52
ATOM     52  O   LIG d   1       2.793   1.720  -7.245  0.00  0.00    -0.506 OA
ATOM     53  H   LIG d   1       2.074   1.446  -7.829  0.00  0.00     0.292 HD
ENDBRANCH  41  52
BRANCH  45  54
ATOM     54  C   LIG d   1       5.453  -4.738  -5.611  0.00  0.00     0.017 A 
ATOM     55  C   LIG d   1       4.668  -5.890  -5.688  0.00  0.00    -0.051 A 
ATOM     56  C   LIG d   1       5.224  -7.072  -6.133  0.00  0.00    -0.061 A 
ATOM     57  H   LIG d   1       3.627  -5.855  -5.403  0.00  0.00     0.062 H 
ATOM     58  C   LIG d   1       6.559  -7.120  -6.492  0.00  0.00    -0.062 A 
ATOM     59  H   LIG d   1       4.616  -7.962  -6.198  0.00  0.00     0.062 H 
ATOM     60  C   LIG d   1       7.345  -5.983  -6.413  0.00  0.00    -0.061 A 
ATOM     61  H   LIG d   1       6.991  -8.049  -6.835  0.00  0.00     0.062 H 
ATOM     62  C   LIG d   1       6.801  -4.794  -5.975  0.00  0.00    -0.051 A 
ATOM     63  H   LIG d   1       8.387  -6.028  -6.694  0.00  0.00     0.062 H 
ATOM     64  H   LIG d   1       7.416  -3.908  -5.915  0.00  0.00     0.062 H 
ENDBRANCH  45  54
ENDBRANCH   1  34
TORSDOF 9
ENDMDL
