MODEL 1
REMARK VINA RESULT:      -5.7      0.000      0.000
REMARK  10 active torsions:
REMARK  status: ('A' for Active; 'I' for Inactive)
REMARK    1  A    between atoms: C_1  and  C_2 
REMARK    2  A    between atoms: C_2  and  C_29 
REMARK    3  A    between atoms: C_3  and  C_10 
REMARK    4  A    between atoms: C_5  and  C_7 
REMARK       I    between atoms: C_10  and  N_12 
REMARK    5  A    between atoms: N_12  and  C_13 
REMARK    6  A    between atoms: C_19  and  O_20 
REMARK    7  A    between atoms: O_20  and  C_21 
REMARK    8  A    between atoms: C_24  and  C_25 
REMARK    9  A    between atoms: C_25  and  O_27 
REMARK   10  A    between atoms: O_27  and  C_28 
ROOT
ATOM      1  C   LIG d   1       4.442  -1.620  -7.720  0.00  0.00     0.077 A 
ATOM      2  C   LIG d   1       4.273  -0.881  -8.971  0.00  0.00     0.063 A 
ATOM      3  C   LIG d   1       5.147  -1.465  -9.907  0.00  0.00     0.052 A 
ATOM      4  C   LIG d   1       5.198  -0.958 -11.203  0.00  0.00    -0.037 A 
ATOM      5  C   LIG d   1       4.399   0.106 -11.561  0.00  0.00    -0.056 A 
ATOM      6  C   LIG d   1       3.536   0.686 -10.643  0.00  0.00    -0.019 A 
ATOM      7  C   LIG d   1       3.464   0.202  -9.351  0.00  0.00     0.131 A 
ATOM      8  N   LIG d   1       5.812  -2.494  -9.281  0.00  0.00    -0.347 N 
ATOM      9  H   LIG d   1       6.475  -3.064  -9.698  0.00  0.00     0.166 HD
ATOM     10  C   LIG d   1       5.395  -2.589  -7.959  0.00  0.00     0.147 A 
ATOM     11  H   LIG d   1       5.865  -1.399 -11.928  0.00  0.00     0.064 H 
ATOM     12  H   LIG d   1       4.447   0.493 -12.568  0.00  0.00     0.062 H 
ATOM     13  H   LIG d   1       2.917   1.519 -10.940  0.00  0.00     0.065 H 
ENDROOT
BRANCH   1  14
ATOM     14  N   LIG d   1       3.776  -1.388  -6.521  0.00  0.00    -0.283 N 
ATOM     15  C   LIG d   1       4.190  -0.401  -5.701  0.00  0.00     0.222 C 
ATOM     16  O   LIG d   1       5.194   0.226  -5.965  0.00  0.00    -0.275 OA
ATOM     17  H   LIG d   1       3.016  -1.937  -6.273  0.00  0.00     0.155 HD
BRANCH  15  18
ATOM     18  C   LIG d   1       3.402  -0.075  -4.459  0.00  0.00     0.050 A 
ATOM     19  C   LIG d   1       4.187   0.366  -3.221  0.00  0.00    -0.015 A 
ATOM     20  C   LIG d   1       3.542  -1.022  -3.265  0.00  0.00     0.016 A 
ATOM     21  H   LIG d   1       2.660  -1.186  -2.647  0.00  0.00     0.037 H 
ATOM     22  H   LIG d   1       2.427   0.384  -4.625  0.00  0.00     0.041 H 
BRANCH  19  23
ATOM     23  C   LIG d   1       5.710   0.441  -3.340  0.00  0.00    -0.059 C 
ATOM     24  H   LIG d   1       6.102   1.106  -2.571  0.00  0.00     0.024 H 
ATOM     25  H   LIG d   1       6.134  -0.555  -3.210  0.00  0.00     0.024 H 
ATOM     26  H   LIG d   1       5.979   0.825  -4.323  0.00  0.00     0.024 H 
ENDBRANCH  19  23
BRANCH  19  27
ATOM     27  C   LIG d   1       3.543   1.415  -2.312  0.00  0.00    -0.059 C 
ATOM     28  H   LIG d   1       4.288   2.160  -2.032  0.00  0.00     0.024 H 
ATOM     29  H   LIG d   1       2.724   1.902  -2.843  0.00  0.00     0.024 H 
ATOM     30  H   LIG d   1       3.157   0.931  -1.415  0.00  0.00     0.024 H 
ENDBRANCH  19  27
BRANCH  20  31
ATOM     31  C   LIG d   1       4.456  -2.209  -3.422  0.00  0.00     0.046 C 
ATOM     32  O   LIG d   1       4.056  -3.216  -3.983  0.00  0.00    -0.549 OA
ATOM     33  O   LIG d   1       5.594  -2.165  -2.988  0.00  0.00    -0.549 OA
ENDBRANCH  20  31
ENDBRANCH  15  18
ENDBRANCH   1  14
BRANCH  10  34
ATOM     34  C   LIG d   1       5.871  -3.529  -7.012  0.00  0.00     0.357 C 
ATOM     35  O   LIG d   1       6.598  -3.165  -6.106  0.00  0.00    -0.243 OA
BRANCH  34  36
ATOM     36  O   LIG d   1       5.517  -4.827  -7.114  0.00  0.00    -0.463 OA
BRANCH  36  37
ATOM     37  C   LIG d   1       4.127  -5.133  -6.987  0.00  0.00     0.082 C 
ATOM     38  H   LIG d   1       3.547  -4.447  -7.605  0.00  0.00     0.066 H 
ATOM     39  H   LIG d   1       3.948  -6.157  -7.316  0.00  0.00     0.066 H 
ATOM     40  H   LIG d   1       3.825  -5.027  -5.945  0.00  0.00     0.066 H 
ENDBRANCH  36  37
ENDBRANCH  34  36
ENDBRANCH  10  34
BRANCH   7  41
ATOM     41  O   LIG d   1       2.619   0.770  -8.454  0.00  0.00    -0.494 OA
BRANCH  41  42
ATOM     42  C   LIG d   1       2.793   2.164  -8.193  0.00  0.00     0.079 C 
ATOM     43  H   LIG d   1       2.480   2.385  -7.173  0.00  0.00     0.066 H 
ATOM     44  H   LIG d   1       3.844   2.428  -8.315  0.00  0.00     0.066 H 
ATOM     45  H   LIG d   1       2.190   2.743  -8.892  0.00  0.00     0.066 H 
ENDBRANCH  41  42
ENDBRANCH   7  41
TORSDOF 10
ENDMDL
MODEL 2
REMARK VINA RESULT:      -5.5      2.274      6.401
REMARK  10 active torsions:
REMARK  status: ('A' for Active; 'I' for Inactive)
REMARK    1  A    between atoms: C_1  and  C_2 
REMARK    2  A    between atoms: C_2  and  C_29 
REMARK    3  A    between atoms: C_3  and  C_10 
REMARK    4  A    between atoms: C_5  and  C_7 
REMARK       I    between atoms: C_10  and  N_12 
REMARK    5  A    between atoms: N_12  and  C_13 
REMARK    6  A    between atoms: C_19  and  O_20 
REMARK    7  A    between atoms: O_20  and  C_21 
REMARK    8  A    between atoms: C_24  and  C_25 
REMARK    9  A    between atoms: C_25  and  O_27 
REMARK   10  A    between atoms: O_27  and  C_28 
ROOT
ATOM      1  C   LIG d   1       4.340  -0.674  -6.304  0.00  0.00     0.077 A 
ATOM      2  C   LIG d   1       4.223  -1.077  -4.902  0.00  0.00     0.063 A 
ATOM      3  C   LIG d   1       3.034  -0.503  -4.415  0.00  0.00     0.052 A 
ATOM      4  C   LIG d   1       2.663  -0.722  -3.090  0.00  0.00    -0.037 A 
ATOM      5  C   LIG d   1       3.457  -1.493  -2.269  0.00  0.00    -0.056 A 
ATOM      6  C   LIG d   1       4.630  -2.061  -2.744  0.00  0.00    -0.019 A 
ATOM      7  C   LIG d   1       5.020  -1.862  -4.054  0.00  0.00     0.131 A 
ATOM      8  N   LIG d   1       2.454   0.206  -5.441  0.00  0.00    -0.347 N 
ATOM      9  H   LIG d   1       1.623   0.701  -5.376  0.00  0.00     0.166 HD
ATOM     10  C   LIG d   1       3.239   0.112  -6.582  0.00  0.00     0.147 A 
ATOM     11  H   LIG d   1       1.753  -0.286  -2.706  0.00  0.00     0.064 H 
ATOM     12  H   LIG d   1       3.161  -1.657  -1.242  0.00  0.00     0.062 H 
ATOM     13  H   LIG d   1       5.239  -2.663  -2.087  0.00  0.00     0.065 H 
ENDROOT
BRANCH   1  14
ATOM     14  N   LIG d   1       5.362  -1.012  -7.184  0.00  0.00    -0.283 N 
ATOM     15  C   LIG d   1       6.522  -0.326  -7.164  0.00  0.00     0.222 C 
ATOM     16  O   LIG d   1       6.642   0.642  -6.443  0.00  0.00    -0.275 OA
ATOM     17  H   LIG d   1       5.241  -1.740  -7.813  0.00  0.00     0.155 HD
BRANCH  15  18
ATOM     18  C   LIG d   1       7.671  -0.762  -8.036  0.00  0.00     0.050 A 
ATOM     19  C   LIG d   1       8.096   0.178  -9.166  0.00  0.00    -0.015 A 
ATOM     20  C   LIG d   1       7.357  -1.122  -9.490  0.00  0.00     0.016 A 
ATOM     21  H   LIG d   1       7.932  -1.929  -9.944  0.00  0.00     0.037 H 
ATOM     22  H   LIG d   1       8.453  -1.332  -7.535  0.00  0.00     0.041 H 
BRANCH  19  23
ATOM     23  C   LIG d   1       7.323   1.489  -9.324  0.00  0.00    -0.059 C 
ATOM     24  H   LIG d   1       6.435   1.464  -8.693  0.00  0.00     0.024 H 
ATOM     25  H   LIG d   1       7.958   2.323  -9.026  0.00  0.00     0.024 H 
ATOM     26  H   LIG d   1       7.026   1.612 -10.365  0.00  0.00     0.024 H 
ENDBRANCH  19  23
BRANCH  19  27
ATOM     27  C   LIG d   1       9.587   0.246  -9.505  0.00  0.00    -0.059 C 
ATOM     28  H   LIG d   1      10.070  -0.684  -9.205  0.00  0.00     0.024 H 
ATOM     29  H   LIG d   1       9.709   0.389 -10.579  0.00  0.00     0.024 H 
ATOM     30  H   LIG d   1      10.043   1.081  -8.974  0.00  0.00     0.024 H 
ENDBRANCH  19  27
BRANCH  20  31
ATOM     31  C   LIG d   1       5.923  -1.014  -9.939  0.00  0.00     0.046 C 
ATOM     32  O   LIG d   1       5.171  -1.966  -9.812  0.00  0.00    -0.549 OA
ATOM     33  O   LIG d   1       5.514   0.024 -10.431  0.00  0.00    -0.549 OA
ENDBRANCH  20  31
ENDBRANCH  15  18
ENDBRANCH   1  14
BRANCH  10  34
ATOM     34  C   LIG d   1       2.956   0.721  -7.829  0.00  0.00     0.357 C 
ATOM     35  O   LIG d   1       2.645   0.035  -8.785  0.00  0.00    -0.243 OA
BRANCH  34  36
ATOM     36  O   LIG d   1       3.028   2.062  -7.957  0.00  0.00    -0.463 OA
BRANCH  36  37
ATOM     37  C   LIG d   1       3.717   2.569  -9.101  0.00  0.00     0.082 C 
ATOM     38  H   LIG d   1       3.050   2.549  -9.964  0.00  0.00     0.066 H 
ATOM     39  H   LIG d   1       4.033   3.595  -8.911  0.00  0.00     0.066 H 
ATOM     40  H   LIG d   1       4.590   1.950  -9.303  0.00  0.00     0.066 H 
ENDBRANCH  36  37
ENDBRANCH  34  36
ENDBRANCH  10  34
BRANCH   7  41
ATOM     41  O   LIG d   1       6.168  -2.418  -4.517  0.00  0.00    -0.494 OA
BRANCH  41  42
ATOM     42  C   LIG d   1       7.382  -2.035  -3.868  0.00  0.00     0.079 C 
ATOM     43  H   LIG d   1       8.183  -2.711  -4.167  0.00  0.00     0.066 H 
ATOM     44  H   LIG d   1       7.642  -1.016  -4.156  0.00  0.00     0.066 H 
ATOM     45  H   LIG d   1       7.248  -2.085  -2.788  0.00  0.00     0.066 H 
ENDBRANCH  41  42
ENDBRANCH   7  41
TORSDOF 10
ENDMDL
MODEL 3
REMARK VINA RESULT:      -5.5      2.392      6.000
REMARK  10 active torsions:
REMARK  status: ('A' for Active; 'I' for Inactive)
REMARK    1  A    between atoms: C_1  and  C_2 
REMARK    2  A    between atoms: C_2  and  C_29 
REMARK    3  A    between atoms: C_3  and  C_10 
REMARK    4  A    between atoms: C_5  and  C_7 
REMARK       I    between atoms: C_10  and  N_12 
REMARK    5  A    between atoms: N_12  and  C_13 
REMARK    6  A    between atoms: C_19  and  O_20 
REMARK    7  A    between atoms: O_20  and  C_21 
REMARK    8  A    between atoms: C_24  and  C_25 
REMARK    9  A    between atoms: C_25  and  O_27 
REMARK   10  A    between atoms: O_27  and  C_28 
ROOT
ATOM      1  C   LIG d   1       5.093  -0.454  -6.124  0.00  0.00     0.077 A 
ATOM      2  C   LIG d   1       4.632  -0.691  -4.756  0.00  0.00     0.063 A 
ATOM      3  C   LIG d   1       5.729  -1.210  -4.044  0.00  0.00     0.052 A 
ATOM      4  C   LIG d   1       5.578  -1.532  -2.697  0.00  0.00    -0.037 A 
ATOM      5  C   LIG d   1       4.364  -1.343  -2.073  0.00  0.00    -0.056 A 
ATOM      6  C   LIG d   1       3.279  -0.832  -2.770  0.00  0.00    -0.019 A 
ATOM      7  C   LIG d   1       3.402  -0.503  -4.106  0.00  0.00     0.131 A 
ATOM      8  N   LIG d   1       6.796  -1.290  -4.908  0.00  0.00    -0.347 N 
ATOM      9  H   LIG d   1       7.679  -1.615  -4.675  0.00  0.00     0.166 HD
ATOM     10  C   LIG d   1       6.418  -0.841  -6.167  0.00  0.00     0.147 A 
ATOM     11  H   LIG d   1       6.414  -1.931  -2.141  0.00  0.00     0.064 H 
ATOM     12  H   LIG d   1       4.257  -1.597  -1.028  0.00  0.00     0.062 H 
ATOM     13  H   LIG d   1       2.335  -0.691  -2.265  0.00  0.00     0.065 H 
ENDROOT
BRANCH   1  14
ATOM     14  N   LIG d   1       4.343   0.056  -7.178  0.00  0.00    -0.283 N 
ATOM     15  C   LIG d   1       3.614  -0.775  -7.950  0.00  0.00     0.222 C 
ATOM     16  O   LIG d   1       3.683  -1.974  -7.783  0.00  0.00    -0.275 OA
ATOM     17  H   LIG d   1       4.345   1.009  -7.359  0.00  0.00     0.155 HD
BRANCH  15  18
ATOM     18  C   LIG d   1       2.713  -0.213  -9.019  0.00  0.00     0.050 A 
ATOM     19  C   LIG d   1       3.090  -0.488 -10.477  0.00  0.00    -0.015 A 
ATOM     20  C   LIG d   1       3.269   0.914  -9.891  0.00  0.00     0.016 A 
ATOM     21  H   LIG d   1       2.574   1.688 -10.217  0.00  0.00     0.037 H 
ATOM     22  H   LIG d   1       1.652  -0.181  -8.772  0.00  0.00     0.041 H 
BRANCH  19  23
ATOM     23  C   LIG d   1       4.353  -1.312 -10.736  0.00  0.00    -0.059 C 
ATOM     24  H   LIG d   1       5.232  -0.685 -10.587  0.00  0.00     0.024 H 
ATOM     25  H   LIG d   1       4.385  -2.154 -10.046  0.00  0.00     0.024 H 
ATOM     26  H   LIG d   1       4.341  -1.682 -11.761  0.00  0.00     0.024 H 
ENDBRANCH  19  23
BRANCH  19  27
ATOM     27  C   LIG d   1       1.949  -0.696 -11.474  0.00  0.00    -0.059 C 
ATOM     28  H   LIG d   1       2.157  -0.137 -12.386  0.00  0.00     0.024 H 
ATOM     29  H   LIG d   1       1.862  -1.757 -11.711  0.00  0.00     0.024 H 
ATOM     30  H   LIG d   1       1.015  -0.344 -11.037  0.00  0.00     0.024 H 
ENDBRANCH  19  27
BRANCH  20  31
ATOM     31  C   LIG d   1       4.675   1.379  -9.614  0.00  0.00     0.046 C 
ATOM     32  O   LIG d   1       4.872   2.293  -8.831  0.00  0.00    -0.549 OA
ATOM     33  O   LIG d   1       5.616   0.843 -10.174  0.00  0.00    -0.549 OA
ENDBRANCH  20  31
ENDBRANCH  15  18
ENDBRANCH   1  14
BRANCH  10  34
ATOM     34  C   LIG d   1       7.256  -0.787  -7.307  0.00  0.00     0.357 C 
ATOM     35  O   LIG d   1       7.018  -1.493  -8.270  0.00  0.00    -0.243 OA
BRANCH  34  36
ATOM     36  O   LIG d   1       8.316   0.047  -7.327  0.00  0.00    -0.463 OA
BRANCH  36  37
ATOM     37  C   LIG d   1       8.043   1.440  -7.490  0.00  0.00     0.082 C 
ATOM     38  H   LIG d   1       8.775   2.022  -6.930  0.00  0.00     0.066 H 
ATOM     39  H   LIG d   1       8.102   1.702  -8.546  0.00  0.00     0.066 H 
ATOM     40  H   LIG d   1       7.043   1.661  -7.116  0.00  0.00     0.066 H 
ENDBRANCH  36  37
ENDBRANCH  34  36
ENDBRANCH  10  34
BRANCH   7  41
ATOM     41  O   LIG d   1       2.339  -0.003  -4.787  0.00  0.00    -0.494 OA
BRANCH  41  42
ATOM     42  C   LIG d   1       2.253   1.420  -4.901  0.00  0.00     0.079 C 
ATOM     43  H   LIG d   1       1.835   1.681  -5.872  0.00  0.00     0.066 H 
ATOM     44  H   LIG d   1       1.610   1.809  -4.111  0.00  0.00     0.066 H 
ATOM     45  H   LIG d   1       3.249   1.852  -4.804  0.00  0.00     0.066 H 
ENDBRANCH  41  42
ENDBRANCH   7  41
TORSDOF 10
ENDMDL
MODEL 4
REMARK VINA RESULT:      -5.4      1.821      6.459
REMARK  10 active torsions:
REMARK  status: ('A' for Active; 'I' for Inactive)
REMARK    1  A    between atoms: C_1  and  C_2 
REMARK    2  A    between atoms: C_2  and  C_29 
REMARK    3  A    between atoms: C_3  and  C_10 
REMARK    4  A    between atoms: C_5  and  C_7 
REMARK       I    between atoms: C_10  and  N_12 
REMARK    5  A    between atoms: N_12  and  C_13 
REMARK    6  A    between atoms: C_19  and  O_20 
REMARK    7  A    between atoms: O_20  and  C_21 
REMARK    8  A    between atoms: C_24  and  C_25 
REMARK    9  A    between atoms: C_25  and  O_27 
REMARK   10  A    between atoms: O_27  and  C_28 
ROOT
ATOM      1  C   LIG d   1       4.058  -0.859  -6.004  0.00  0.00     0.077 A 
ATOM      2  C   LIG d   1       4.222  -0.909  -4.551  0.00  0.00     0.063 A 
ATOM      3  C   LIG d   1       3.493   0.173  -4.025  0.00  0.00     0.052 A 
ATOM      4  C   LIG d   1       3.469   0.375  -2.647  0.00  0.00    -0.037 A 
ATOM      5  C   LIG d   1       4.155  -0.479  -1.812  0.00  0.00    -0.056 A 
ATOM      6  C   LIG d   1       4.875  -1.548  -2.325  0.00  0.00    -0.019 A 
ATOM      7  C   LIG d   1       4.914  -1.772  -3.687  0.00  0.00     0.131 A 
ATOM      8  N   LIG d   1       2.917   0.848  -5.076  0.00  0.00    -0.347 N 
ATOM      9  H   LIG d   1       2.359   1.636  -4.994  0.00  0.00     0.166 HD
ATOM     10  C   LIG d   1       3.259   0.234  -6.274  0.00  0.00     0.147 A 
ATOM     11  H   LIG d   1       2.913   1.203  -2.233  0.00  0.00     0.064 H 
ATOM     12  H   LIG d   1       4.132  -0.314  -0.744  0.00  0.00     0.062 H 
ATOM     13  H   LIG d   1       5.407  -2.208  -1.655  0.00  0.00     0.065 H 
ENDROOT
BRANCH   1  14
ATOM     14  N   LIG d   1       4.605  -1.737  -6.933  0.00  0.00    -0.283 N 
ATOM     15  C   LIG d   1       5.848  -1.525  -7.410  0.00  0.00     0.222 C 
ATOM     16  O   LIG d   1       6.454  -0.522  -7.099  0.00  0.00    -0.275 OA
ATOM     17  H   LIG d   1       4.092  -2.502  -7.240  0.00  0.00     0.155 HD
BRANCH  15  18
ATOM     18  C   LIG d   1       6.484  -2.536  -8.329  0.00  0.00     0.050 A 
ATOM     19  C   LIG d   1       6.745  -2.110  -9.776  0.00  0.00    -0.015 A 
ATOM     20  C   LIG d   1       5.624  -3.103  -9.460  0.00  0.00     0.016 A 
ATOM     21  H   LIG d   1       5.782  -4.145  -9.739  0.00  0.00     0.037 H 
ATOM     22  H   LIG d   1       7.209  -3.205  -7.864  0.00  0.00     0.041 H 
BRANCH  19  23
ATOM     23  C   LIG d   1       6.338  -0.690 -10.178  0.00  0.00    -0.059 C 
ATOM     24  H   LIG d   1       5.400  -0.430  -9.689  0.00  0.00     0.024 H 
ATOM     25  H   LIG d   1       7.115   0.010  -9.873  0.00  0.00     0.024 H 
ATOM     26  H   LIG d   1       6.210  -0.643 -11.259  0.00  0.00     0.024 H 
ENDBRANCH  19  23
BRANCH  19  27
ATOM     27  C   LIG d   1       8.001  -2.655 -10.458  0.00  0.00    -0.059 C 
ATOM     28  H   LIG d   1       7.742  -3.536 -11.045  0.00  0.00     0.024 H 
ATOM     29  H   LIG d   1       8.420  -1.891 -11.114  0.00  0.00     0.024 H 
ATOM     30  H   LIG d   1       8.736  -2.927  -9.701  0.00  0.00     0.024 H 
ENDBRANCH  19  27
BRANCH  20  31
ATOM     31  C   LIG d   1       4.205  -2.609  -9.569  0.00  0.00     0.046 C 
ATOM     32  O   LIG d   1       3.313  -3.178  -8.962  0.00  0.00    -0.549 OA
ATOM     33  O   LIG d   1       3.947  -1.643 -10.266  0.00  0.00    -0.549 OA
ENDBRANCH  20  31
ENDBRANCH  15  18
ENDBRANCH   1  14
BRANCH  10  34
ATOM     34  C   LIG d   1       2.851   0.659  -7.562  0.00  0.00     0.357 C 
ATOM     35  O   LIG d   1       2.206  -0.089  -8.274  0.00  0.00    -0.243 OA
BRANCH  34  36
ATOM     36  O   LIG d   1       3.177   1.892  -8.001  0.00  0.00    -0.463 OA
BRANCH  36  37
ATOM     37  C   LIG d   1       3.855   1.978  -9.255  0.00  0.00     0.082 C 
ATOM     38  H   LIG d   1       4.626   1.208  -9.304  0.00  0.00     0.066 H 
ATOM     39  H   LIG d   1       3.142   1.829 -10.066  0.00  0.00     0.066 H 
ATOM     40  H   LIG d   1       4.317   2.960  -9.353  0.00  0.00     0.066 H 
ENDBRANCH  36  37
ENDBRANCH  34  36
ENDBRANCH  10  34
BRANCH   7  41
ATOM     41  O   LIG d   1       5.620  -2.818  -4.188  0.00  0.00    -0.494 OA
BRANCH  41  42
ATOM     42  C   LIG d   1       7.045  -2.723  -4.136  0.00  0.00     0.079 C 
ATOM     43  H   LIG d   1       7.480  -3.711  -4.287  0.00  0.00     0.066 H 
ATOM     44  H   LIG d   1       7.393  -2.050  -4.920  0.00  0.00     0.066 H 
ATOM     45  H   LIG d   1       7.348  -2.336  -3.163  0.00  0.00     0.066 H 
ENDBRANCH  41  42
ENDBRANCH   7  41
TORSDOF 10
ENDMDL
MODEL 5
REMARK VINA RESULT:      -5.3      9.423     11.802
REMARK  10 active torsions:
REMARK  status: ('A' for Active; 'I' for Inactive)
REMARK    1  A    between atoms: C_1  and  C_2 
REMARK    2  A    between atoms: C_2  and  C_29 
REMARK    3  A    between atoms: C_3  and  C_10 
REMARK    4  A    between atoms: C_5  and  C_7 
REMARK       I    between atoms: C_10  and  N_12 
REMARK    5  A    between atoms: N_12  and  C_13 
REMARK    6  A    between atoms: C_19  and  O_20 
REMARK    7  A    between atoms: O_20  and  C_21 
REMARK    8  A    between atoms: C_24  and  C_25 
REMARK    9  A    between atoms: C_25  and  O_27 
REMARK   10  A    between atoms: O_27  and  C_28 
ROOT
ATOM      1  C   LIG d   1      10.319   5.996  -2.061  0.00  0.00     0.077 A 
ATOM      2  C   LIG d   1      10.117   4.938  -3.051  0.00  0.00     0.063 A 
ATOM      3  C   LIG d   1      10.639   3.757  -2.493  0.00  0.00     0.052 A 
ATOM      4  C   LIG d   1      10.582   2.573  -3.224  0.00  0.00    -0.037 A 
ATOM      5  C   LIG d   1      10.020   2.563  -4.482  0.00  0.00    -0.056 A 
ATOM      6  C   LIG d   1       9.504   3.725  -5.037  0.00  0.00    -0.019 A 
ATOM      7  C   LIG d   1       9.546   4.913  -4.333  0.00  0.00     0.131 A 
ATOM      8  N   LIG d   1      11.130   4.060  -1.244  0.00  0.00    -0.347 N 
ATOM      9  H   LIG d   1      11.547   3.426  -0.641  0.00  0.00     0.166 HD
ATOM     10  C   LIG d   1      10.946   5.411  -0.980  0.00  0.00     0.147 A 
ATOM     11  H   LIG d   1      10.980   1.661  -2.804  0.00  0.00     0.064 H 
ATOM     12  H   LIG d   1       9.982   1.640  -5.041  0.00  0.00     0.062 H 
ATOM     13  H   LIG d   1       9.067   3.699  -6.024  0.00  0.00     0.065 H 
ENDROOT
BRANCH   1  14
ATOM     14  N   LIG d   1       9.955   7.333  -2.186  0.00  0.00    -0.283 N 
ATOM     15  C   LIG d   1      10.762   8.191  -2.842  0.00  0.00     0.222 C 
ATOM     16  O   LIG d   1      11.844   7.820  -3.244  0.00  0.00    -0.275 OA
ATOM     17  H   LIG d   1       9.123   7.648  -1.801  0.00  0.00     0.155 HD
BRANCH  15  18
ATOM     18  C   LIG d   1      10.317   9.612  -3.077  0.00  0.00     0.050 A 
ATOM     19  C   LIG d   1      11.010  10.711  -2.268  0.00  0.00    -0.015 A 
ATOM     20  C   LIG d   1       9.568  10.314  -1.942  0.00  0.00     0.016 A 
ATOM     21  H   LIG d   1       8.779  11.014  -2.218  0.00  0.00     0.037 H 
ATOM     22  H   LIG d   1      10.020   9.850  -4.098  0.00  0.00     0.041 H 
BRANCH  19  23
ATOM     23  C   LIG d   1      12.100  10.284  -1.284  0.00  0.00    -0.059 C 
ATOM     24  H   LIG d   1      13.037  10.775  -1.545  0.00  0.00     0.024 H 
ATOM     25  H   LIG d   1      11.809  10.569  -0.273  0.00  0.00     0.024 H 
ATOM     26  H   LIG d   1      12.230   9.203  -1.334  0.00  0.00     0.024 H 
ENDBRANCH  19  23
BRANCH  19  27
ATOM     27  C   LIG d   1      11.232  12.060  -2.956  0.00  0.00    -0.059 C 
ATOM     28  H   LIG d   1      10.964  11.980  -4.009  0.00  0.00     0.024 H 
ATOM     29  H   LIG d   1      10.611  12.818  -2.480  0.00  0.00     0.024 H 
ATOM     30  H   LIG d   1      12.281  12.343  -2.869  0.00  0.00     0.024 H 
ENDBRANCH  19  27
BRANCH  20  31
ATOM     31  C   LIG d   1       9.331   9.533  -0.677  0.00  0.00     0.046 C 
ATOM     32  O   LIG d   1       8.306   8.886  -0.542  0.00  0.00    -0.549 OA
ATOM     33  O   LIG d   1      10.163   9.547   0.215  0.00  0.00    -0.549 OA
ENDBRANCH  20  31
ENDBRANCH  15  18
ENDBRANCH   1  14
BRANCH  10  34
ATOM     34  C   LIG d   1      11.335   6.077   0.208  0.00  0.00     0.357 C 
ATOM     35  O   LIG d   1      10.746   5.858   1.250  0.00  0.00    -0.243 OA
BRANCH  34  36
ATOM     36  O   LIG d   1      12.360   6.954   0.184  0.00  0.00    -0.463 OA
BRANCH  36  37
ATOM     37  C   LIG d   1      13.562   6.531  -0.463  0.00  0.00     0.082 C 
ATOM     38  H   LIG d   1      13.336   6.228  -1.486  0.00  0.00     0.066 H 
ATOM     39  H   LIG d   1      14.276   7.355  -0.479  0.00  0.00     0.066 H 
ATOM     40  H   LIG d   1      13.990   5.689   0.079  0.00  0.00     0.066 H 
ENDBRANCH  36  37
ENDBRANCH  34  36
ENDBRANCH  10  34
BRANCH   7  41
ATOM     41  O   LIG d   1       9.040   6.048  -4.879  0.00  0.00    -0.494 OA
BRANCH  41  42
ATOM     42  C   LIG d   1       9.737   6.594  -6.001  0.00  0.00     0.079 C 
ATOM     43  H   LIG d   1       9.141   6.453  -6.902  0.00  0.00     0.066 H 
ATOM     44  H   LIG d   1       9.905   7.660  -5.841  0.00  0.00     0.066 H 
ATOM     45  H   LIG d   1      10.695   6.088  -6.114  0.00  0.00     0.066 H 
ENDBRANCH  41  42
ENDBRANCH   7  41
TORSDOF 10
ENDMDL
MODEL 6
REMARK VINA RESULT:      -5.3      2.586      6.089
REMARK  10 active torsions:
REMARK  status: ('A' for Active; 'I' for Inactive)
REMARK    1  A    between atoms: C_1  and  C_2 
REMARK    2  A    between atoms: C_2  and  C_29 
REMARK    3  A    between atoms: C_3  and  C_10 
REMARK    4  A    between atoms: C_5  and  C_7 
REMARK       I    between atoms: C_10  and  N_12 
REMARK    5  A    between atoms: N_12  and  C_13 
REMARK    6  A    between atoms: C_19  and  O_20 
REMARK    7  A    between atoms: O_20  and  C_21 
REMARK    8  A    between atoms: C_24  and  C_25 
REMARK    9  A    between atoms: C_25  and  O_27 
REMARK   10  A    between atoms: O_27  and  C_28 
ROOT
ATOM      1  C   LIG d   1       5.748  -0.271  -6.850  0.00  0.00     0.077 A 
ATOM      2  C   LIG d   1       5.838  -0.736  -5.466  0.00  0.00     0.063 A 
ATOM      3  C   LIG d   1       7.185  -1.070  -5.239  0.00  0.00     0.052 A 
ATOM      4  C   LIG d   1       7.569  -1.548  -3.988  0.00  0.00    -0.037 A 
ATOM      5  C   LIG d   1       6.634  -1.692  -2.987  0.00  0.00    -0.056 A 
ATOM      6  C   LIG d   1       5.304  -1.364  -3.205  0.00  0.00    -0.019 A 
ATOM      7  C   LIG d   1       4.897  -0.886  -4.436  0.00  0.00     0.131 A 
ATOM      8  N   LIG d   1       7.884  -0.829  -6.400  0.00  0.00    -0.347 N 
ATOM      9  H   LIG d   1       8.834  -0.975  -6.519  0.00  0.00     0.166 HD
ATOM     10  C   LIG d   1       7.021  -0.352  -7.378  0.00  0.00     0.147 A 
ATOM     11  H   LIG d   1       8.601  -1.808  -3.804  0.00  0.00     0.064 H 
ATOM     12  H   LIG d   1       6.941  -2.065  -2.020  0.00  0.00     0.062 H 
ATOM     13  H   LIG d   1       4.584  -1.482  -2.409  0.00  0.00     0.065 H 
ENDROOT
BRANCH   1  14
ATOM     14  N   LIG d   1       4.603   0.164  -7.509  0.00  0.00    -0.283 N 
ATOM     15  C   LIG d   1       3.775  -0.731  -8.083  0.00  0.00     0.222 C 
ATOM     16  O   LIG d   1       4.073  -1.906  -8.105  0.00  0.00    -0.275 OA
ATOM     17  H   LIG d   1       4.400   1.112  -7.557  0.00  0.00     0.155 HD
BRANCH  15  18
ATOM     18  C   LIG d   1       2.478  -0.272  -8.697  0.00  0.00     0.050 A 
ATOM     19  C   LIG d   1       2.376  -0.285 -10.224  0.00  0.00    -0.015 A 
ATOM     20  C   LIG d   1       2.492   1.045  -9.477  0.00  0.00     0.016 A 
ATOM     21  H   LIG d   1       1.602   1.671  -9.423  0.00  0.00     0.037 H 
ATOM     22  H   LIG d   1       1.578  -0.511  -8.131  0.00  0.00     0.041 H 
BRANCH  19  23
ATOM     23  C   LIG d   1       3.598  -0.764 -11.010  0.00  0.00    -0.059 C 
ATOM     24  H   LIG d   1       4.290   0.066 -11.144  0.00  0.00     0.024 H 
ATOM     25  H   LIG d   1       4.092  -1.565 -10.460  0.00  0.00     0.024 H 
ATOM     26  H   LIG d   1       3.281  -1.134 -11.985  0.00  0.00     0.024 H 
ENDBRANCH  19  23
BRANCH  19  27
ATOM     27  C   LIG d   1       1.018  -0.634 -10.838  0.00  0.00    -0.059 C 
ATOM     28  H   LIG d   1       0.413   0.269 -10.918  0.00  0.00     0.024 H 
ATOM     29  H   LIG d   1       1.166  -1.060 -11.831  0.00  0.00     0.024 H 
ATOM     30  H   LIG d   1       0.508  -1.359 -10.205  0.00  0.00     0.024 H 
ENDBRANCH  19  27
BRANCH  20  31
ATOM     31  C   LIG d   1       3.802   1.783  -9.571  0.00  0.00     0.046 C 
ATOM     32  O   LIG d   1       4.085   2.630  -8.740  0.00  0.00    -0.549 OA
ATOM     33  O   LIG d   1       4.579   1.535 -10.477  0.00  0.00    -0.549 OA
ENDBRANCH  20  31
ENDBRANCH  15  18
ENDBRANCH   1  14
BRANCH  10  34
ATOM     34  C   LIG d   1       7.389  -0.005  -8.701  0.00  0.00     0.357 C 
ATOM     35  O   LIG d   1       6.939  -0.632  -9.642  0.00  0.00    -0.243 OA
BRANCH  34  36
ATOM     36  O   LIG d   1       8.236   1.022  -8.919  0.00  0.00    -0.463 OA
BRANCH  36  37
ATOM     37  C   LIG d   1       7.703   2.342  -8.792  0.00  0.00     0.082 C 
ATOM     38  H   LIG d   1       7.281   2.657  -9.746  0.00  0.00     0.066 H 
ATOM     39  H   LIG d   1       6.922   2.347  -8.031  0.00  0.00     0.066 H 
ATOM     40  H   LIG d   1       8.497   3.029  -8.502  0.00  0.00     0.066 H 
ENDBRANCH  36  37
ENDBRANCH  34  36
ENDBRANCH  10  34
BRANCH   7  41
ATOM     41  O   LIG d   1       3.595  -0.566  -4.648  0.00  0.00    -0.494 OA
BRANCH  41  42
ATOM     42  C   LIG d   1       2.734  -0.562  -3.507  0.00  0.00     0.079 C 
ATOM     43  H   LIG d   1       2.706  -1.559  -3.069  0.00  0.00     0.066 H 
ATOM     44  H   LIG d   1       3.112   0.147  -2.769  0.00  0.00     0.066 H 
ATOM     45  H   LIG d   1       1.730  -0.268  -3.811  0.00  0.00     0.066 H 
ENDBRANCH  41  42
ENDBRANCH   7  41
TORSDOF 10
ENDMDL
MODEL 7
REMARK VINA RESULT:      -5.3      2.415      4.322
REMARK  10 active torsions:
REMARK  status: ('A' for Active; 'I' for Inactive)
REMARK    1  A    between atoms: C_1  and  C_2 
REMARK    2  A    between atoms: C_2  and  C_29 
REMARK    3  A    between atoms: C_3  and  C_10 
REMARK    4  A    between atoms: C_5  and  C_7 
REMARK       I    between atoms: C_10  and  N_12 
REMARK    5  A    between atoms: N_12  and  C_13 
REMARK    6  A    between atoms: C_19  and  O_20 
REMARK    7  A    between atoms: O_20  and  C_21 
REMARK    8  A    between atoms: C_24  and  C_25 
REMARK    9  A    between atoms: C_25  and  O_27 
REMARK   10  A    between atoms: O_27  and  C_28 
ROOT
ATOM      1  C   LIG d   1       4.628  -0.014  -7.195  0.00  0.00     0.077 A 
ATOM      2  C   LIG d   1       4.156  -0.067  -8.579  0.00  0.00     0.063 A 
ATOM      3  C   LIG d   1       2.756  -0.187  -8.524  0.00  0.00     0.052 A 
ATOM      4  C   LIG d   1       2.029  -0.260  -9.710  0.00  0.00    -0.037 A 
ATOM      5  C   LIG d   1       2.681  -0.215 -10.923  0.00  0.00    -0.056 A 
ATOM      6  C   LIG d   1       4.061  -0.097 -10.984  0.00  0.00    -0.019 A 
ATOM      7  C   LIG d   1       4.806  -0.021  -9.823  0.00  0.00     0.131 A 
ATOM      8  N   LIG d   1       2.383  -0.207  -7.199  0.00  0.00    -0.347 N 
ATOM      9  H   LIG d   1       1.472  -0.283  -6.878  0.00  0.00     0.166 HD
ATOM     10  C   LIG d   1       3.509  -0.109  -6.392  0.00  0.00     0.147 A 
ATOM     11  H   LIG d   1       0.954  -0.352  -9.679  0.00  0.00     0.064 H 
ATOM     12  H   LIG d   1       2.108  -0.274 -11.838  0.00  0.00     0.062 H 
ATOM     13  H   LIG d   1       4.556  -0.064 -11.943  0.00  0.00     0.065 H 
ENDROOT
BRANCH   1  14
ATOM     14  N   LIG d   1       5.947   0.104  -6.770  0.00  0.00    -0.283 N 
ATOM     15  C   LIG d   1       6.705  -1.000  -6.611  0.00  0.00     0.222 C 
ATOM     16  O   LIG d   1       6.212  -2.099  -6.751  0.00  0.00    -0.275 OA
ATOM     17  H   LIG d   1       6.323   0.979  -6.587  0.00  0.00     0.155 HD
BRANCH  15  18
ATOM     18  C   LIG d   1       8.164  -0.868  -6.262  0.00  0.00     0.050 A 
ATOM     19  C   LIG d   1       8.672  -1.644  -5.044  0.00  0.00    -0.015 A 
ATOM     20  C   LIG d   1       8.517  -0.123  -4.973  0.00  0.00     0.016 A 
ATOM     21  H   LIG d   1       9.428   0.476  -4.970  0.00  0.00     0.037 H 
ATOM     22  H   LIG d   1       8.844  -0.759  -7.107  0.00  0.00     0.041 H 
BRANCH  19  23
ATOM     23  C   LIG d   1       7.658  -2.494  -4.275  0.00  0.00    -0.059 C 
ATOM     24  H   LIG d   1       7.780  -3.541  -4.551  0.00  0.00     0.024 H 
ATOM     25  H   LIG d   1       7.825  -2.377  -3.205  0.00  0.00     0.024 H 
ATOM     26  H   LIG d   1       6.649  -2.168  -4.524  0.00  0.00     0.024 H 
ENDBRANCH  19  23
BRANCH  19  27
ATOM     27  C   LIG d   1      10.093  -2.207  -5.108  0.00  0.00    -0.059 C 
ATOM     28  H   LIG d   1      10.094  -3.126  -5.694  0.00  0.00     0.024 H 
ATOM     29  H   LIG d   1      10.753  -1.477  -5.576  0.00  0.00     0.024 H 
ATOM     30  H   LIG d   1      10.445  -2.419  -4.098  0.00  0.00     0.024 H 
ENDBRANCH  19  27
BRANCH  20  31
ATOM     31  C   LIG d   1       7.379   0.423  -4.150  0.00  0.00     0.046 C 
ATOM     32  O   LIG d   1       6.874   1.493  -4.444  0.00  0.00    -0.549 OA
ATOM     33  O   LIG d   1       6.963  -0.204  -3.191  0.00  0.00    -0.549 OA
ENDBRANCH  20  31
ENDBRANCH  15  18
ENDBRANCH   1  14
BRANCH  10  34
ATOM     34  C   LIG d   1       3.508  -0.104  -4.976  0.00  0.00     0.357 C 
ATOM     35  O   LIG d   1       3.909  -1.078  -4.364  0.00  0.00    -0.243 OA
BRANCH  34  36
ATOM     36  O   LIG d   1       3.066   0.979  -4.304  0.00  0.00    -0.463 OA
BRANCH  36  37
ATOM     37  C   LIG d   1       3.609   1.202  -3.002  0.00  0.00     0.082 C 
ATOM     38  H   LIG d   1       4.653   1.506  -3.091  0.00  0.00     0.066 H 
ATOM     39  H   LIG d   1       3.044   1.988  -2.501  0.00  0.00     0.066 H 
ATOM     40  H   LIG d   1       3.548   0.283  -2.420  0.00  0.00     0.066 H 
ENDBRANCH  36  37
ENDBRANCH  34  36
ENDBRANCH  10  34
BRANCH   7  41
ATOM     41  O   LIG d   1       6.157   0.094  -9.883  0.00  0.00    -0.494 OA
BRANCH  41  42
ATOM     42  C   LIG d   1       6.886  -1.049 -10.335  0.00  0.00     0.079 C 
ATOM     43  H   LIG d   1       6.192  -1.784 -10.743  0.00  0.00     0.066 H 
ATOM     44  H   LIG d   1       7.591  -0.747 -11.110  0.00  0.00     0.066 H 
ATOM     45  H   LIG d   1       7.430  -1.486  -9.499  0.00  0.00     0.066 H 
ENDBRANCH  41  42
ENDBRANCH   7  41
TORSDOF 10
ENDMDL
MODEL 8
REMARK VINA RESULT:      -5.2      2.374      3.402
REMARK  10 active torsions:
REMARK  status: ('A' for Active; 'I' for Inactive)
REMARK    1  A    between atoms: C_1  and  C_2 
REMARK    2  A    between atoms: C_2  and  C_29 
REMARK    3  A    between atoms: C_3  and  C_10 
REMARK    4  A    between atoms: C_5  and  C_7 
REMARK       I    between atoms: C_10  and  N_12 
REMARK    5  A    between atoms: N_12  and  C_13 
REMARK    6  A    between atoms: C_19  and  O_20 
REMARK    7  A    between atoms: O_20  and  C_21 
REMARK    8  A    between atoms: C_24  and  C_25 
REMARK    9  A    between atoms: C_25  and  O_27 
REMARK   10  A    between atoms: O_27  and  C_28 
ROOT
ATOM      1  C   LIG d   1       4.917  -0.762  -6.856  0.00  0.00     0.077 A 
ATOM      2  C   LIG d   1       4.072  -0.472  -8.015  0.00  0.00     0.063 A 
ATOM      3  C   LIG d   1       3.365  -1.654  -8.305  0.00  0.00     0.052 A 
ATOM      4  C   LIG d   1       2.472  -1.670  -9.374  0.00  0.00    -0.037 A 
ATOM      5  C   LIG d   1       2.288  -0.539 -10.138  0.00  0.00    -0.056 A 
ATOM      6  C   LIG d   1       2.982   0.629  -9.857  0.00  0.00    -0.019 A 
ATOM      7  C   LIG d   1       3.872   0.673  -8.801  0.00  0.00     0.131 A 
ATOM      8  N   LIG d   1       3.743  -2.610  -7.391  0.00  0.00    -0.347 N 
ATOM      9  H   LIG d   1       3.407  -3.518  -7.364  0.00  0.00     0.166 HD
ATOM     10  C   LIG d   1       4.684  -2.080  -6.517  0.00  0.00     0.147 A 
ATOM     11  H   LIG d   1       1.925  -2.572  -9.605  0.00  0.00     0.064 H 
ATOM     12  H   LIG d   1       1.594  -0.562 -10.966  0.00  0.00     0.062 H 
ATOM     13  H   LIG d   1       2.826   1.507 -10.466  0.00  0.00     0.065 H 
ENDROOT
BRANCH   1  14
ATOM     14  N   LIG d   1       5.789   0.117  -6.222  0.00  0.00    -0.283 N 
ATOM     15  C   LIG d   1       7.030   0.305  -6.713  0.00  0.00     0.222 C 
ATOM     16  O   LIG d   1       7.417  -0.356  -7.652  0.00  0.00    -0.275 OA
ATOM     17  H   LIG d   1       5.505   0.593  -5.426  0.00  0.00     0.155 HD
BRANCH  15  18
ATOM     18  C   LIG d   1       7.935   1.340  -6.096  0.00  0.00     0.050 A 
ATOM     19  C   LIG d   1       9.079   0.840  -5.210  0.00  0.00    -0.015 A 
ATOM     20  C   LIG d   1       7.865   1.524  -4.578  0.00  0.00     0.016 A 
ATOM     21  H   LIG d   1       8.003   2.532  -4.186  0.00  0.00     0.037 H 
ATOM     22  H   LIG d   1       8.119   2.227  -6.702  0.00  0.00     0.041 H 
BRANCH  19  23
ATOM     23  C   LIG d   1       9.215  -0.673  -5.021  0.00  0.00    -0.059 C 
ATOM     24  H   LIG d   1       8.360  -1.046  -4.459  0.00  0.00     0.024 H 
ATOM     25  H   LIG d   1       9.252  -1.159  -5.995  0.00  0.00     0.024 H 
ATOM     26  H   LIG d   1      10.132  -0.888  -4.473  0.00  0.00     0.024 H 
ENDBRANCH  19  23
BRANCH  19  27
ATOM     27  C   LIG d   1      10.393   1.622  -5.245  0.00  0.00    -0.059 C 
ATOM     28  H   LIG d   1      10.981   1.308  -6.106  0.00  0.00     0.024 H 
ATOM     29  H   LIG d   1      10.179   2.689  -5.321  0.00  0.00     0.024 H 
ATOM     30  H   LIG d   1      10.955   1.429  -4.331  0.00  0.00     0.024 H 
ENDBRANCH  19  27
BRANCH  20  31
ATOM     31  C   LIG d   1       6.896   0.658  -3.816  0.00  0.00     0.046 C 
ATOM     32  O   LIG d   1       5.769   1.063  -3.584  0.00  0.00    -0.549 OA
ATOM     33  O   LIG d   1       7.238  -0.447  -3.430  0.00  0.00    -0.549 OA
ENDBRANCH  20  31
ENDBRANCH  15  18
ENDBRANCH   1  14
BRANCH  10  34
ATOM     34  C   LIG d   1       5.302  -2.778  -5.451  0.00  0.00     0.357 C 
ATOM     35  O   LIG d   1       6.507  -2.951  -5.455  0.00  0.00    -0.243 OA
BRANCH  34  36
ATOM     36  O   LIG d   1       4.556  -3.251  -4.432  0.00  0.00    -0.463 OA
BRANCH  36  37
ATOM     37  C   LIG d   1       4.291  -2.355  -3.351  0.00  0.00     0.082 C 
ATOM     38  H   LIG d   1       3.235  -2.083  -3.355  0.00  0.00     0.066 H 
ATOM     39  H   LIG d   1       4.536  -2.840  -2.407  0.00  0.00     0.066 H 
ATOM     40  H   LIG d   1       4.897  -1.456  -3.467  0.00  0.00     0.066 H 
ENDBRANCH  36  37
ENDBRANCH  34  36
ENDBRANCH  10  34
BRANCH   7  41
ATOM     41  O   LIG d   1       4.551   1.816  -8.528  0.00  0.00    -0.494 OA
BRANCH  41  42
ATOM     42  C   LIG d   1       4.191   2.979  -9.277  0.00  0.00     0.079 C 
ATOM     43  H   LIG d   1       3.106   3.069  -9.309  0.00  0.00     0.066 H 
ATOM     44  H   LIG d   1       4.615   3.864  -8.799  0.00  0.00     0.066 H 
ATOM     45  H   LIG d   1       4.581   2.893 -10.291  0.00  0.00     0.066 H 
ENDBRANCH  41  42
ENDBRANCH   7  41
TORSDOF 10
ENDMDL
MODEL 9
REMARK VINA RESULT:      -5.1      9.377     10.938
REMARK  10 active torsions:
REMARK  status: ('A' for Active; 'I' for Inactive)
REMARK    1  A    between atoms: C_1  and  C_2 
REMARK    2  A    between atoms: C_2  and  C_29 
REMARK    3  A    between atoms: C_3  and  C_10 
REMARK    4  A    between atoms: C_5  and  C_7 
REMARK       I    between atoms: C_10  and  N_12 
REMARK    5  A    between atoms: N_12  and  C_13 
REMARK    6  A    between atoms: C_19  and  O_20 
REMARK    7  A    between atoms: O_20  and  C_21 
REMARK    8  A    between atoms: C_24  and  C_25 
REMARK    9  A    between atoms: C_25  and  O_27 
REMARK   10  A    between atoms: O_27  and  C_28 
ROOT
ATOM      1  C   LIG d   1       9.892   7.076  -4.485  0.00  0.00     0.077 A 
ATOM      2  C   LIG d   1       9.648   7.428  -5.884  0.00  0.00     0.063 A 
ATOM      3  C   LIG d   1       9.783   6.241  -6.628  0.00  0.00     0.052 A 
ATOM      4  C   LIG d   1       9.601   6.277  -8.009  0.00  0.00    -0.037 A 
ATOM      5  C   LIG d   1       9.294   7.465  -8.635  0.00  0.00    -0.056 A 
ATOM      6  C   LIG d   1       9.159   8.638  -7.906  0.00  0.00    -0.019 A 
ATOM      7  C   LIG d   1       9.333   8.630  -6.536  0.00  0.00     0.131 A 
ATOM      8  N   LIG d   1      10.089   5.224  -5.754  0.00  0.00    -0.347 N 
ATOM      9  H   LIG d   1      10.236   4.300  -6.004  0.00  0.00     0.166 HD
ATOM     10  C   LIG d   1      10.163   5.723  -4.459  0.00  0.00     0.147 A 
ATOM     11  H   LIG d   1       9.703   5.372  -8.589  0.00  0.00     0.064 H 
ATOM     12  H   LIG d   1       9.156   7.483  -9.706  0.00  0.00     0.062 H 
ATOM     13  H   LIG d   1       8.918   9.560  -8.413  0.00  0.00     0.065 H 
ENDROOT
BRANCH   1  14
ATOM     14  N   LIG d   1       9.864   7.938  -3.394  0.00  0.00    -0.283 N 
ATOM     15  C   LIG d   1      10.959   8.657  -3.074  0.00  0.00     0.222 C 
ATOM     16  O   LIG d   1      11.994   8.486  -3.681  0.00  0.00    -0.275 OA
ATOM     17  H   LIG d   1       9.057   8.021  -2.861  0.00  0.00     0.155 HD
BRANCH  15  18
ATOM     18  C   LIG d   1      10.894   9.673  -1.964  0.00  0.00     0.050 A 
ATOM     19  C   LIG d   1      11.659   9.361  -0.675  0.00  0.00    -0.015 A 
ATOM     20  C   LIG d   1      10.131   9.286  -0.695  0.00  0.00     0.016 A 
ATOM     21  H   LIG d   1       9.582  10.073  -0.178  0.00  0.00     0.037 H 
ATOM     22  H   LIG d   1      10.847  10.715  -2.281  0.00  0.00     0.041 H 
BRANCH  19  23
ATOM     23  C   LIG d   1      12.430   8.041  -0.614  0.00  0.00    -0.059 C 
ATOM     24  H   LIG d   1      13.036   8.017   0.291  0.00  0.00     0.024 H 
ATOM     25  H   LIG d   1      11.726   7.210  -0.604  0.00  0.00     0.024 H 
ATOM     26  H   LIG d   1      13.077   7.958  -1.486  0.00  0.00     0.024 H 
ENDBRANCH  19  23
BRANCH  19  27
ATOM     27  C   LIG d   1      12.299  10.535   0.068  0.00  0.00    -0.059 C 
ATOM     28  H   LIG d   1      11.536  11.063   0.640  0.00  0.00     0.024 H 
ATOM     29  H   LIG d   1      13.067  10.162   0.746  0.00  0.00     0.024 H 
ATOM     30  H   LIG d   1      12.751  11.218  -0.651  0.00  0.00     0.024 H 
ENDBRANCH  19  27
BRANCH  20  31
ATOM     31  C   LIG d   1       9.500   7.919  -0.652  0.00  0.00     0.046 C 
ATOM     32  O   LIG d   1       8.354   7.764  -1.038  0.00  0.00    -0.549 OA
ATOM     33  O   LIG d   1      10.135   6.967  -0.231  0.00  0.00    -0.549 OA
ENDBRANCH  20  31
ENDBRANCH  15  18
ENDBRANCH   1  14
BRANCH  10  34
ATOM     34  C   LIG d   1      10.464   4.964  -3.302  0.00  0.00     0.357 C 
ATOM     35  O   LIG d   1      11.451   5.230  -2.640  0.00  0.00    -0.243 OA
BRANCH  34  36
ATOM     36  O   LIG d   1       9.657   3.948  -2.931  0.00  0.00    -0.463 OA
BRANCH  36  37
ATOM     37  C   LIG d   1      10.160   2.622  -3.110  0.00  0.00     0.082 C 
ATOM     38  H   LIG d   1      11.178   2.669  -3.497  0.00  0.00     0.066 H 
ATOM     39  H   LIG d   1      10.160   2.101  -2.152  0.00  0.00     0.066 H 
ATOM     40  H   LIG d   1       9.527   2.085  -3.816  0.00  0.00     0.066 H 
ENDBRANCH  36  37
ENDBRANCH  34  36
ENDBRANCH  10  34
BRANCH   7  41
ATOM     41  O   LIG d   1       9.201   9.779  -5.824  0.00  0.00    -0.494 OA
BRANCH  41  42
ATOM     42  C   LIG d   1      10.156  10.811  -6.077  0.00  0.00     0.079 C 
ATOM     43  H   LIG d   1      10.390  11.326  -5.145  0.00  0.00     0.066 H 
ATOM     44  H   LIG d   1      11.066  10.372  -6.487  0.00  0.00     0.066 H 
ATOM     45  H   LIG d   1       9.742  11.522  -6.792  0.00  0.00     0.066 H 
ENDBRANCH  41  42
ENDBRANCH   7  41
TORSDOF 10
ENDMDL
MODEL 10
REMARK VINA RESULT:      -5.0      2.445      5.313
REMARK  10 active torsions:
REMARK  status: ('A' for Active; 'I' for Inactive)
REMARK    1  A    between atoms: C_1  and  C_2 
REMARK    2  A    between atoms: C_2  and  C_29 
REMARK    3  A    between atoms: C_3  and  C_10 
REMARK    4  A    between atoms: C_5  and  C_7 
REMARK       I    between atoms: C_10  and  N_12 
REMARK    5  A    between atoms: N_12  and  C_13 
REMARK    6  A    between atoms: C_19  and  O_20 
REMARK    7  A    between atoms: O_20  and  C_21 
REMARK    8  A    between atoms: C_24  and  C_25 
REMARK    9  A    between atoms: C_25  and  O_27 
REMARK   10  A    between atoms: O_27  and  C_28 
ROOT
ATOM      1  C   LIG d   1       5.518  -0.939  -5.960  0.00  0.00     0.077 A 
ATOM      2  C   LIG d   1       6.802  -0.244  -6.050  0.00  0.00     0.063 A 
ATOM      3  C   LIG d   1       7.638  -0.812  -5.071  0.00  0.00     0.052 A 
ATOM      4  C   LIG d   1       8.940  -0.339  -4.927  0.00  0.00    -0.037 A 
ATOM      5  C   LIG d   1       9.400   0.675  -5.738  0.00  0.00    -0.056 A 
ATOM      6  C   LIG d   1       8.580   1.239  -6.705  0.00  0.00    -0.019 A 
ATOM      7  C   LIG d   1       7.285   0.787  -6.870  0.00  0.00     0.131 A 
ATOM      8  N   LIG d   1       6.923  -1.790  -4.418  0.00  0.00    -0.347 N 
ATOM      9  H   LIG d   1       7.263  -2.340  -3.696  0.00  0.00     0.166 HD
ATOM     10  C   LIG d   1       5.641  -1.868  -4.946  0.00  0.00     0.147 A 
ATOM     11  H   LIG d   1       9.590  -0.768  -4.179  0.00  0.00     0.064 H 
ATOM     12  H   LIG d   1      10.412   1.036  -5.618  0.00  0.00     0.062 H 
ATOM     13  H   LIG d   1       8.957   2.033  -7.332  0.00  0.00     0.065 H 
ENDROOT
BRANCH   1  14
ATOM     14  N   LIG d   1       4.389  -0.706  -6.739  0.00  0.00    -0.283 N 
ATOM     15  C   LIG d   1       4.246  -1.336  -7.922  0.00  0.00     0.222 C 
ATOM     16  O   LIG d   1       5.139  -2.036  -8.349  0.00  0.00    -0.275 OA
ATOM     17  H   LIG d   1       3.706  -0.089  -6.432  0.00  0.00     0.155 HD
BRANCH  15  18
ATOM     18  C   LIG d   1       2.973  -1.173  -8.712  0.00  0.00     0.050 A 
ATOM     19  C   LIG d   1       3.037  -0.324  -9.984  0.00  0.00    -0.015 A 
ATOM     20  C   LIG d   1       2.331   0.216  -8.738  0.00  0.00     0.016 A 
ATOM     21  H   LIG d   1       1.243   0.267  -8.759  0.00  0.00     0.037 H 
ATOM     22  H   LIG d   1       2.307  -2.035  -8.717  0.00  0.00     0.041 H 
BRANCH  19  23
ATOM     23  C   LIG d   1       4.387   0.294 -10.355  0.00  0.00    -0.059 C 
ATOM     24  H   LIG d   1       5.145  -0.042  -9.648  0.00  0.00     0.024 H 
ATOM     25  H   LIG d   1       4.664  -0.018 -11.362  0.00  0.00     0.024 H 
ATOM     26  H   LIG d   1       4.311   1.380 -10.319  0.00  0.00     0.024 H 
ENDBRANCH  19  23
BRANCH  19  27
ATOM     27  C   LIG d   1       2.160  -0.751 -11.163  0.00  0.00    -0.059 C 
ATOM     28  H   LIG d   1       2.768  -0.814 -12.065  0.00  0.00     0.024 H 
ATOM     29  H   LIG d   1       1.718  -1.726 -10.954  0.00  0.00     0.024 H 
ATOM     30  H   LIG d   1       1.367  -0.018 -11.310  0.00  0.00     0.024 H 
ENDBRANCH  19  27
BRANCH  20  31
ATOM     31  C   LIG d   1       3.019   1.314  -7.970  0.00  0.00     0.046 C 
ATOM     32  O   LIG d   1       3.749   2.099  -8.551  0.00  0.00    -0.549 OA
ATOM     33  O   LIG d   1       2.846   1.419  -6.768  0.00  0.00    -0.549 OA
ENDBRANCH  20  31
ENDBRANCH  15  18
ENDBRANCH   1  14
BRANCH  10  34
ATOM     34  C   LIG d   1       4.627  -2.758  -4.515  0.00  0.00     0.357 C 
ATOM     35  O   LIG d   1       4.252  -3.654  -5.248  0.00  0.00    -0.243 OA
BRANCH  34  36
ATOM     36  O   LIG d   1       4.077  -2.613  -3.291  0.00  0.00    -0.463 OA
BRANCH  36  37
ATOM     37  C   LIG d   1       3.281  -1.447  -3.071  0.00  0.00     0.082 C 
ATOM     38  H   LIG d   1       3.926  -0.614  -2.790  0.00  0.00     0.066 H 
ATOM     39  H   LIG d   1       2.743  -1.196  -3.985  0.00  0.00     0.066 H 
ATOM     40  H   LIG d   1       2.568  -1.640  -2.270  0.00  0.00     0.066 H 
ENDBRANCH  36  37
ENDBRANCH  34  36
ENDBRANCH  10  34
BRANCH   7  41
ATOM     41  O   LIG d   1       6.484   1.340  -7.816  0.00  0.00    -0.494 OA
BRANCH  41  42
ATOM     42  C   LIG d   1       7.122   2.117  -8.832  0.00  0.00     0.079 C 
ATOM     43  H   LIG d   1       6.392   2.784  -9.290  0.00  0.00     0.066 H 
ATOM     44  H   LIG d   1       7.924   2.707  -8.387  0.00  0.00     0.066 H 
ATOM     45  H   LIG d   1       7.536   1.454  -9.590  0.00  0.00     0.066 H 
ENDBRANCH  41  42
ENDBRANCH   7  41
TORSDOF 10
ENDMDL
