MODEL 1
REMARK VINA RESULT:      -6.4      0.000      0.000
REMARK  5 active torsions:
REMARK  status: ('A' for Active; 'I' for Inactive)
REMARK    1  A    between atoms: C_1  and  O_2 
REMARK    2  A    between atoms: O_2  and  C_3 
REMARK    3  A    between atoms: C_6  and  O_9 
REMARK    4  A    between atoms: O_9  and  C_10 
REMARK    5  A    between atoms: C_10  and  C_11 
ROOT
ATOM      1  C   LIG d   1       2.499   0.376  -5.794  0.00  0.00     0.132 C 
ATOM      2  H   LIG d   1       2.610  -0.482  -6.296  0.00  0.00     0.076 H 
ATOM      3  H   LIG d   1       1.462   0.479  -5.476  0.00  0.00     0.076 H 
ENDROOT
BRANCH   1   4
ATOM      4  O   LIG d   1       2.848   1.472  -6.642  0.00  0.00    -0.486 OA
BRANCH   4   5
ATOM      5  C   LIG d   1       3.078   1.190  -7.952  0.00  0.00     0.121 A 
ATOM      6  C   LIG d   1       2.843  -0.088  -8.439  0.00  0.00    -0.017 A 
ATOM      7  C   LIG d   1       3.077  -0.374  -9.770  0.00  0.00    -0.017 A 
ATOM      8  H   LIG d   1       2.478  -0.859  -7.776  0.00  0.00     0.066 H 
ATOM      9  C   LIG d   1       3.546   0.616 -10.620  0.00  0.00     0.120 A 
ATOM     10  H   LIG d   1       2.896  -1.369 -10.148  0.00  0.00     0.066 H 
ATOM     11  C   LIG d   1       3.780   1.894 -10.134  0.00  0.00    -0.017 A 
ATOM     12  C   LIG d   1       3.541   2.182  -8.804  0.00  0.00    -0.017 A 
ATOM     13  H   LIG d   1       4.145   2.665 -10.796  0.00  0.00     0.066 H 
ATOM     14  H   LIG d   1       3.720   3.177  -8.427  0.00  0.00     0.066 H 
BRANCH   9  15
ATOM     15  O   LIG d   1       3.776   0.334 -11.930  0.00  0.00    -0.495 OA
BRANCH  15  16
ATOM     16  C   LIG d   1       3.367  -0.953 -12.398  0.00  0.00     0.079 C 
ATOM     17  H   LIG d   1       2.339  -1.142 -12.088  0.00  0.00     0.066 H 
ATOM     18  H   LIG d   1       3.429  -0.980 -13.487  0.00  0.00     0.066 H 
ATOM     19  H   LIG d   1       4.020  -1.717 -11.979  0.00  0.00     0.066 H 
ENDBRANCH  15  16
ENDBRANCH   9  15
ENDBRANCH   4   5
ENDBRANCH   1   4
BRANCH   1  20
ATOM     20  C   LIG d   1       3.397   0.371  -4.584  0.00  0.00     0.080 C 
ATOM     21  C   LIG d   1       4.448  -0.655  -4.447  0.00  0.00     0.002 A 
ATOM     22  C   LIG d   1       4.988  -0.894  -3.178  0.00  0.00    -0.037 A 
ATOM     23  C   LIG d   1       4.904  -1.380  -5.543  0.00  0.00    -0.052 A 
ATOM     24  C   LIG d   1       4.476  -0.091  -2.011  0.00  0.00    -0.007 C 
ATOM     25  C   LIG d   1       5.969  -1.846  -3.017  0.00  0.00    -0.058 A 
ATOM     26  C   LIG d   1       4.106   1.314  -2.483  0.00  0.00     0.044 C 
ATOM     27  H   LIG d   1       3.596  -0.578  -1.594  0.00  0.00     0.033 H 
ATOM     28  H   LIG d   1       5.252  -0.025  -1.248  0.00  0.00     0.033 H 
ATOM     29  N   LIG d   1       3.251   1.266  -3.665  0.00  0.00    -0.284 NA
ATOM     30  H   LIG d   1       5.016   1.862  -2.724  0.00  0.00     0.051 H 
ATOM     31  H   LIG d   1       3.578   1.831  -1.682  0.00  0.00     0.051 H 
ATOM     32  C   LIG d   1       6.422  -2.561  -4.114  0.00  0.00    -0.061 A 
ATOM     33  H   LIG d   1       6.387  -2.031  -2.039  0.00  0.00     0.062 H 
ATOM     34  C   LIG d   1       5.888  -2.333  -5.369  0.00  0.00    -0.061 A 
ATOM     35  H   LIG d   1       7.194  -3.305  -3.986  0.00  0.00     0.062 H 
ATOM     36  H   LIG d   1       6.246  -2.899  -6.216  0.00  0.00     0.062 H 
ATOM     37  H   LIG d   1       4.489  -1.200  -6.525  0.00  0.00     0.062 H 
ENDBRANCH   1  20
TORSDOF 5
ENDMDL
MODEL 2
REMARK VINA RESULT:      -6.3      2.029      2.416
REMARK  5 active torsions:
REMARK  status: ('A' for Active; 'I' for Inactive)
REMARK    1  A    between atoms: C_1  and  O_2 
REMARK    2  A    between atoms: O_2  and  C_3 
REMARK    3  A    between atoms: C_6  and  O_9 
REMARK    4  A    between atoms: O_9  and  C_10 
REMARK    5  A    between atoms: C_10  and  C_11 
ROOT
ATOM      1  C   LIG d   1       6.208  -0.499  -6.611  0.00  0.00     0.132 C 
ATOM      2  H   LIG d   1       7.149  -0.675  -6.899  0.00  0.00     0.076 H 
ATOM      3  H   LIG d   1       5.617  -1.408  -6.724  0.00  0.00     0.076 H 
ENDROOT
BRANCH   1   4
ATOM      4  O   LIG d   1       5.647   0.536  -7.422  0.00  0.00    -0.486 OA
BRANCH   4   5
ATOM      5  C   LIG d   1       4.502   0.242  -8.094  0.00  0.00     0.121 A 
ATOM      6  C   LIG d   1       4.051  -1.069  -8.155  0.00  0.00    -0.017 A 
ATOM      7  C   LIG d   1       2.888  -1.367  -8.838  0.00  0.00    -0.017 A 
ATOM      8  H   LIG d   1       4.609  -1.855  -7.669  0.00  0.00     0.066 H 
ATOM      9  C   LIG d   1       2.171  -0.358  -9.462  0.00  0.00     0.120 A 
ATOM     10  H   LIG d   1       2.537  -2.388  -8.887  0.00  0.00     0.066 H 
ATOM     11  C   LIG d   1       2.622   0.953  -9.401  0.00  0.00    -0.017 A 
ATOM     12  C   LIG d   1       3.782   1.252  -8.714  0.00  0.00    -0.017 A 
ATOM     13  H   LIG d   1       2.064   1.739  -9.887  0.00  0.00     0.066 H 
ATOM     14  H   LIG d   1       4.131   2.273  -8.663  0.00  0.00     0.066 H 
BRANCH   9  15
ATOM     15  O   LIG d   1       1.026  -0.652 -10.134  0.00  0.00    -0.495 OA
BRANCH  15  16
ATOM     16  C   LIG d   1       1.164  -1.112 -11.480  0.00  0.00     0.079 C 
ATOM     17  H   LIG d   1       1.930  -0.525 -11.988  0.00  0.00     0.066 H 
ATOM     18  H   LIG d   1       1.455  -2.163 -11.476  0.00  0.00     0.066 H 
ATOM     19  H   LIG d   1       0.215  -1.000 -12.002  0.00  0.00     0.066 H 
ENDBRANCH  15  16
ENDBRANCH   9  15
ENDBRANCH   4   5
ENDBRANCH   1   4
BRANCH   1  20
ATOM     20  C   LIG d   1       6.195  -0.068  -5.168  0.00  0.00     0.080 C 
ATOM     21  C   LIG d   1       5.393  -0.815  -4.179  0.00  0.00     0.002 A 
ATOM     22  C   LIG d   1       5.072  -0.191  -2.969  0.00  0.00    -0.037 A 
ATOM     23  C   LIG d   1       4.956  -2.113  -4.430  0.00  0.00    -0.052 A 
ATOM     24  C   LIG d   1       5.562   1.212  -2.726  0.00  0.00    -0.007 C 
ATOM     25  C   LIG d   1       4.325  -0.862  -2.028  0.00  0.00    -0.058 A 
ATOM     26  C   LIG d   1       6.919   1.401  -3.401  0.00  0.00     0.044 C 
ATOM     27  H   LIG d   1       4.848   1.922  -3.141  0.00  0.00     0.033 H 
ATOM     28  H   LIG d   1       5.662   1.381  -1.654  0.00  0.00     0.033 H 
ATOM     29  N   LIG d   1       6.886   0.955  -4.790  0.00  0.00    -0.284 NA
ATOM     30  H   LIG d   1       7.671   0.827  -2.860  0.00  0.00     0.051 H 
ATOM     31  H   LIG d   1       7.187   2.458  -3.372  0.00  0.00     0.051 H 
ATOM     32  C   LIG d   1       3.897  -2.155  -2.280  0.00  0.00    -0.061 A 
ATOM     33  H   LIG d   1       4.077  -0.382  -1.092  0.00  0.00     0.062 H 
ATOM     34  C   LIG d   1       4.207  -2.775  -3.477  0.00  0.00    -0.061 A 
ATOM     35  H   LIG d   1       3.314  -2.681  -1.539  0.00  0.00     0.062 H 
ATOM     36  H   LIG d   1       3.865  -3.782  -3.666  0.00  0.00     0.062 H 
ATOM     37  H   LIG d   1       5.201  -2.598  -5.363  0.00  0.00     0.062 H 
ENDBRANCH   1  20
TORSDOF 5
ENDMDL
MODEL 3
REMARK VINA RESULT:      -5.9      5.675      7.981
REMARK  5 active torsions:
REMARK  status: ('A' for Active; 'I' for Inactive)
REMARK    1  A    between atoms: C_1  and  O_2 
REMARK    2  A    between atoms: O_2  and  C_3 
REMARK    3  A    between atoms: C_6  and  O_9 
REMARK    4  A    between atoms: O_9  and  C_10 
REMARK    5  A    between atoms: C_10  and  C_11 
ROOT
ATOM      1  C   LIG d   1       7.948   2.096  -4.156  0.00  0.00     0.132 C 
ATOM      2  H   LIG d   1       8.024   2.439  -5.092  0.00  0.00     0.076 H 
ATOM      3  H   LIG d   1       7.246   2.715  -3.598  0.00  0.00     0.076 H 
ENDROOT
BRANCH   1   4
ATOM      4  O   LIG d   1       9.230   2.145  -3.525  0.00  0.00    -0.486 OA
BRANCH   4   5
ATOM      5  C   LIG d   1       9.798   3.371  -3.376  0.00  0.00     0.121 A 
ATOM      6  C   LIG d   1      10.737   3.584  -2.376  0.00  0.00    -0.017 A 
ATOM      7  C   LIG d   1      11.314   4.830  -2.225  0.00  0.00    -0.017 A 
ATOM      8  H   LIG d   1      11.015   2.776  -1.717  0.00  0.00     0.066 H 
ATOM      9  C   LIG d   1      10.956   5.868  -3.073  0.00  0.00     0.120 A 
ATOM     10  H   LIG d   1      12.044   4.996  -1.446  0.00  0.00     0.066 H 
ATOM     11  C   LIG d   1      10.018   5.655  -4.073  0.00  0.00    -0.017 A 
ATOM     12  C   LIG d   1       9.445   4.408  -4.227  0.00  0.00    -0.017 A 
ATOM     13  H   LIG d   1       9.739   6.463  -4.732  0.00  0.00     0.066 H 
ATOM     14  H   LIG d   1       8.718   4.241  -5.008  0.00  0.00     0.066 H 
BRANCH   9  15
ATOM     15  O   LIG d   1      11.525   7.094  -2.924  0.00  0.00    -0.495 OA
BRANCH  15  16
ATOM     16  C   LIG d   1      10.647   8.186  -2.642  0.00  0.00     0.079 C 
ATOM     17  H   LIG d   1      10.221   8.560  -3.573  0.00  0.00     0.066 H 
ATOM     18  H   LIG d   1       9.844   7.847  -1.986  0.00  0.00     0.066 H 
ATOM     19  H   LIG d   1      11.203   8.983  -2.151  0.00  0.00     0.066 H 
ENDBRANCH  15  16
ENDBRANCH   9  15
ENDBRANCH   4   5
ENDBRANCH   1   4
BRANCH   1  20
ATOM     20  C   LIG d   1       7.455   0.673  -4.180  0.00  0.00     0.080 C 
ATOM     21  C   LIG d   1       6.300   0.276  -3.350  0.00  0.00     0.002 A 
ATOM     22  C   LIG d   1       6.111  -1.082  -3.074  0.00  0.00    -0.037 A 
ATOM     23  C   LIG d   1       5.410   1.219  -2.846  0.00  0.00    -0.052 A 
ATOM     24  C   LIG d   1       7.089  -2.079  -3.637  0.00  0.00    -0.007 C 
ATOM     25  C   LIG d   1       5.043  -1.484  -2.303  0.00  0.00    -0.058 A 
ATOM     26  C   LIG d   1       7.589  -1.590  -4.996  0.00  0.00     0.044 C 
ATOM     27  H   LIG d   1       7.933  -2.184  -2.956  0.00  0.00     0.033 H 
ATOM     28  H   LIG d   1       6.596  -3.044  -3.757  0.00  0.00     0.033 H 
ATOM     29  N   LIG d   1       8.039  -0.204  -4.925  0.00  0.00    -0.284 NA
ATOM     30  H   LIG d   1       6.781  -1.666  -5.722  0.00  0.00     0.051 H 
ATOM     31  H   LIG d   1       8.419  -2.219  -5.317  0.00  0.00     0.051 H 
ATOM     32  C   LIG d   1       4.157  -0.541  -1.807  0.00  0.00    -0.061 A 
ATOM     33  H   LIG d   1       4.895  -2.532  -2.089  0.00  0.00     0.062 H 
ATOM     34  C   LIG d   1       4.343   0.804  -2.073  0.00  0.00    -0.061 A 
ATOM     35  H   LIG d   1       3.319  -0.858  -1.205  0.00  0.00     0.062 H 
ATOM     36  H   LIG d   1       3.649   1.531  -1.678  0.00  0.00     0.062 H 
ATOM     37  H   LIG d   1       5.553   2.269  -3.056  0.00  0.00     0.062 H 
ENDBRANCH   1  20
TORSDOF 5
ENDMDL
MODEL 4
REMARK VINA RESULT:      -5.9      2.831      4.211
REMARK  5 active torsions:
REMARK  status: ('A' for Active; 'I' for Inactive)
REMARK    1  A    between atoms: C_1  and  O_2 
REMARK    2  A    between atoms: O_2  and  C_3 
REMARK    3  A    between atoms: C_6  and  O_9 
REMARK    4  A    between atoms: O_9  and  C_10 
REMARK    5  A    between atoms: C_10  and  C_11 
ROOT
ATOM      1  C   LIG d   1       7.899  -1.400  -4.972  0.00  0.00     0.132 C 
ATOM      2  H   LIG d   1       8.137  -0.461  -4.722  0.00  0.00     0.076 H 
ATOM      3  H   LIG d   1       8.617  -2.088  -4.526  0.00  0.00     0.076 H 
ENDROOT
BRANCH   1   4
ATOM      4  O   LIG d   1       7.930  -1.536  -6.394  0.00  0.00    -0.486 OA
BRANCH   4   5
ATOM      5  C   LIG d   1       7.379  -0.530  -7.123  0.00  0.00     0.121 A 
ATOM      6  C   LIG d   1       7.999   0.711  -7.172  0.00  0.00    -0.017 A 
ATOM      7  C   LIG d   1       7.439   1.734  -7.913  0.00  0.00    -0.017 A 
ATOM      8  H   LIG d   1       8.918   0.876  -6.631  0.00  0.00     0.066 H 
ATOM      9  C   LIG d   1       6.258   1.521  -8.608  0.00  0.00     0.120 A 
ATOM     10  H   LIG d   1       7.921   2.700  -7.950  0.00  0.00     0.066 H 
ATOM     11  C   LIG d   1       5.638   0.280  -8.560  0.00  0.00    -0.017 A 
ATOM     12  C   LIG d   1       6.201  -0.744  -7.823  0.00  0.00    -0.017 A 
ATOM     13  H   LIG d   1       4.719   0.115  -9.101  0.00  0.00     0.066 H 
ATOM     14  H   LIG d   1       5.721  -1.710  -7.789  0.00  0.00     0.066 H 
BRANCH   9  15
ATOM     15  O   LIG d   1       5.708   2.528  -9.337  0.00  0.00    -0.495 OA
BRANCH  15  16
ATOM     16  C   LIG d   1       4.284   2.643  -9.313  0.00  0.00     0.079 C 
ATOM     17  H   LIG d   1       3.880   1.996  -8.533  0.00  0.00     0.066 H 
ATOM     18  H   LIG d   1       4.006   3.677  -9.106  0.00  0.00     0.066 H 
ATOM     19  H   LIG d   1       3.877   2.344 -10.279  0.00  0.00     0.066 H 
ENDBRANCH  15  16
ENDBRANCH   9  15
ENDBRANCH   4   5
ENDBRANCH   1   4
BRANCH   1  20
ATOM     20  C   LIG d   1       6.516  -1.720  -4.467  0.00  0.00     0.080 C 
ATOM     21  C   LIG d   1       5.812  -0.769  -3.584  0.00  0.00     0.002 A 
ATOM     22  C   LIG d   1       4.740  -1.236  -2.817  0.00  0.00    -0.037 A 
ATOM     23  C   LIG d   1       6.194   0.567  -3.505  0.00  0.00    -0.052 A 
ATOM     24  C   LIG d   1       4.349  -2.687  -2.927  0.00  0.00    -0.007 C 
ATOM     25  C   LIG d   1       4.064  -0.373  -1.984  0.00  0.00    -0.058 A 
ATOM     26  C   LIG d   1       4.599  -3.174  -4.353  0.00  0.00     0.044 C 
ATOM     27  H   LIG d   1       4.945  -3.277  -2.232  0.00  0.00     0.033 H 
ATOM     28  H   LIG d   1       3.292  -2.797  -2.685  0.00  0.00     0.033 H 
ATOM     29  N   LIG d   1       5.943  -2.826  -4.803  0.00  0.00    -0.284 NA
ATOM     30  H   LIG d   1       3.869  -2.715  -5.020  0.00  0.00     0.051 H 
ATOM     31  H   LIG d   1       4.481  -4.257  -4.385  0.00  0.00     0.051 H 
ATOM     32  C   LIG d   1       4.445   0.957  -1.912  0.00  0.00    -0.061 A 
ATOM     33  H   LIG d   1       3.236  -0.732  -1.391  0.00  0.00     0.062 H 
ATOM     34  C   LIG d   1       5.508   1.423  -2.665  0.00  0.00    -0.061 A 
ATOM     35  H   LIG d   1       3.912   1.632  -1.261  0.00  0.00     0.062 H 
ATOM     36  H   LIG d   1       5.799   2.460  -2.599  0.00  0.00     0.062 H 
ATOM     37  H   LIG d   1       7.021   0.933  -4.095  0.00  0.00     0.062 H 
ENDBRANCH   1  20
TORSDOF 5
ENDMDL
MODEL 5
REMARK VINA RESULT:      -5.8      2.380      3.649
REMARK  5 active torsions:
REMARK  status: ('A' for Active; 'I' for Inactive)
REMARK    1  A    between atoms: C_1  and  O_2 
REMARK    2  A    between atoms: O_2  and  C_3 
REMARK    3  A    between atoms: C_6  and  O_9 
REMARK    4  A    between atoms: O_9  and  C_10 
REMARK    5  A    between atoms: C_10  and  C_11 
ROOT
ATOM      1  C   LIG d   1       4.535  -3.418  -5.522  0.00  0.00     0.132 C 
ATOM      2  H   LIG d   1       4.619  -4.397  -5.335  0.00  0.00     0.076 H 
ATOM      3  H   LIG d   1       3.493  -3.115  -5.414  0.00  0.00     0.076 H 
ENDROOT
BRANCH   1   4
ATOM      4  O   LIG d   1       4.972  -3.148  -6.856  0.00  0.00    -0.486 OA
BRANCH   4   5
ATOM      5  C   LIG d   1       4.099  -2.500  -7.672  0.00  0.00     0.121 A 
ATOM      6  C   LIG d   1       3.783  -1.170  -7.435  0.00  0.00    -0.017 A 
ATOM      7  C   LIG d   1       2.896  -0.512  -8.265  0.00  0.00    -0.017 A 
ATOM      8  H   LIG d   1       4.231  -0.650  -6.601  0.00  0.00     0.066 H 
ATOM      9  C   LIG d   1       2.321  -1.180  -9.335  0.00  0.00     0.120 A 
ATOM     10  H   LIG d   1       2.650   0.523  -8.079  0.00  0.00     0.066 H 
ATOM     11  C   LIG d   1       2.637  -2.511  -9.573  0.00  0.00    -0.017 A 
ATOM     12  C   LIG d   1       3.528  -3.167  -8.746  0.00  0.00    -0.017 A 
ATOM     13  H   LIG d   1       2.189  -3.030 -10.406  0.00  0.00     0.066 H 
ATOM     14  H   LIG d   1       3.776  -4.201  -8.934  0.00  0.00     0.066 H 
BRANCH   9  15
ATOM     15  O   LIG d   1       1.449  -0.532 -10.151  0.00  0.00    -0.495 OA
BRANCH  15  16
ATOM     16  C   LIG d   1       1.176  -1.134 -11.418  0.00  0.00     0.079 C 
ATOM     17  H   LIG d   1       0.494  -1.974 -11.282  0.00  0.00     0.066 H 
ATOM     18  H   LIG d   1       0.718  -0.398 -12.080  0.00  0.00     0.066 H 
ATOM     19  H   LIG d   1       2.106  -1.490 -11.861  0.00  0.00     0.066 H 
ENDBRANCH  15  16
ENDBRANCH   9  15
ENDBRANCH   4   5
ENDBRANCH   1   4
BRANCH   1  20
ATOM     20  C   LIG d   1       5.386  -2.645  -4.549  0.00  0.00     0.080 C 
ATOM     21  C   LIG d   1       4.793  -1.555  -3.750  0.00  0.00     0.002 A 
ATOM     22  C   LIG d   1       5.646  -0.609  -3.172  0.00  0.00    -0.037 A 
ATOM     23  C   LIG d   1       3.417  -1.456  -3.565  0.00  0.00    -0.052 A 
ATOM     24  C   LIG d   1       7.131  -0.745  -3.387  0.00  0.00    -0.007 C 
ATOM     25  C   LIG d   1       5.123   0.420  -2.422  0.00  0.00    -0.058 A 
ATOM     26  C   LIG d   1       7.499  -2.226  -3.469  0.00  0.00     0.044 C 
ATOM     27  H   LIG d   1       7.409  -0.250  -4.316  0.00  0.00     0.033 H 
ATOM     28  H   LIG d   1       7.662  -0.284  -2.555  0.00  0.00     0.033 H 
ATOM     29  N   LIG d   1       6.637  -2.934  -4.410  0.00  0.00    -0.284 NA
ATOM     30  H   LIG d   1       7.394  -2.675  -2.482  0.00  0.00     0.051 H 
ATOM     31  H   LIG d   1       8.535  -2.318  -3.796  0.00  0.00     0.051 H 
ATOM     32  C   LIG d   1       3.753   0.511  -2.237  0.00  0.00    -0.061 A 
ATOM     33  H   LIG d   1       5.780   1.151  -1.974  0.00  0.00     0.062 H 
ATOM     34  C   LIG d   1       2.905  -0.419  -2.811  0.00  0.00    -0.061 A 
ATOM     35  H   LIG d   1       3.344   1.317  -1.646  0.00  0.00     0.062 H 
ATOM     36  H   LIG d   1       1.838  -0.336  -2.664  0.00  0.00     0.062 H 
ATOM     37  H   LIG d   1       2.755  -2.184  -4.010  0.00  0.00     0.062 H 
ENDBRANCH   1  20
TORSDOF 5
ENDMDL
MODEL 6
REMARK VINA RESULT:      -5.8      5.242      6.665
REMARK  5 active torsions:
REMARK  status: ('A' for Active; 'I' for Inactive)
REMARK    1  A    between atoms: C_1  and  O_2 
REMARK    2  A    between atoms: O_2  and  C_3 
REMARK    3  A    between atoms: C_6  and  O_9 
REMARK    4  A    between atoms: O_9  and  C_10 
REMARK    5  A    between atoms: C_10  and  C_11 
ROOT
ATOM      1  C   LIG d   1       8.238   1.888  -3.916  0.00  0.00     0.132 C 
ATOM      2  H   LIG d   1       7.529   2.592  -3.959  0.00  0.00     0.076 H 
ATOM      3  H   LIG d   1       8.757   1.952  -2.960  0.00  0.00     0.076 H 
ENDROOT
BRANCH   1   4
ATOM      4  O   LIG d   1       9.172   2.089  -4.979  0.00  0.00    -0.486 OA
BRANCH   4   5
ATOM      5  C   LIG d   1       9.373   3.369  -5.391  0.00  0.00     0.121 A 
ATOM      6  C   LIG d   1       9.683   3.631  -6.718  0.00  0.00    -0.017 A 
ATOM      7  C   LIG d   1       9.887   4.932  -7.136  0.00  0.00    -0.017 A 
ATOM      8  H   LIG d   1       9.763   2.818  -7.424  0.00  0.00     0.066 H 
ATOM      9  C   LIG d   1       9.784   5.976  -6.229  0.00  0.00     0.120 A 
ATOM     10  H   LIG d   1      10.129   5.135  -8.169  0.00  0.00     0.066 H 
ATOM     11  C   LIG d   1       9.475   5.714  -4.902  0.00  0.00    -0.017 A 
ATOM     12  C   LIG d   1       9.265   4.414  -4.486  0.00  0.00    -0.017 A 
ATOM     13  H   LIG d   1       9.394   6.528  -4.196  0.00  0.00     0.066 H 
ATOM     14  H   LIG d   1       9.020   4.211  -3.454  0.00  0.00     0.066 H 
BRANCH   9  15
ATOM     15  O   LIG d   1       9.985   7.256  -6.641  0.00  0.00    -0.495 OA
BRANCH  15  16
ATOM     16  C   LIG d   1       9.474   7.612  -7.927  0.00  0.00     0.079 C 
ATOM     17  H   LIG d   1       9.026   8.604  -7.878  0.00  0.00     0.066 H 
ATOM     18  H   LIG d   1      10.289   7.618  -8.653  0.00  0.00     0.066 H 
ATOM     19  H   LIG d   1       8.721   6.887  -8.234  0.00  0.00     0.066 H 
ENDBRANCH  15  16
ENDBRANCH   9  15
ENDBRANCH   4   5
ENDBRANCH   1   4
BRANCH   1  20
ATOM     20  C   LIG d   1       7.606   0.528  -4.054  0.00  0.00     0.080 C 
ATOM     21  C   LIG d   1       6.383   0.200  -3.295  0.00  0.00     0.002 A 
ATOM     22  C   LIG d   1       6.047  -1.147  -3.118  0.00  0.00    -0.037 A 
ATOM     23  C   LIG d   1       5.572   1.195  -2.759  0.00  0.00    -0.052 A 
ATOM     24  C   LIG d   1       6.944  -2.201  -3.712  0.00  0.00    -0.007 C 
ATOM     25  C   LIG d   1       4.913  -1.485  -2.414  0.00  0.00    -0.058 A 
ATOM     26  C   LIG d   1       7.547  -1.680  -5.016  0.00  0.00     0.044 C 
ATOM     27  H   LIG d   1       7.743  -2.435  -3.010  0.00  0.00     0.033 H 
ATOM     28  H   LIG d   1       6.362  -3.100  -3.915  0.00  0.00     0.033 H 
ATOM     29  N   LIG d   1       8.130  -0.355  -4.836  0.00  0.00    -0.284 NA
ATOM     30  H   LIG d   1       6.766  -1.626  -5.774  0.00  0.00     0.051 H 
ATOM     31  H   LIG d   1       8.322  -2.370  -5.350  0.00  0.00     0.051 H 
ATOM     32  C   LIG d   1       4.106  -0.490  -1.887  0.00  0.00    -0.061 A 
ATOM     33  H   LIG d   1       4.652  -2.524  -2.277  0.00  0.00     0.062 H 
ATOM     34  C   LIG d   1       4.437   0.843  -2.055  0.00  0.00    -0.061 A 
ATOM     35  H   LIG d   1       3.216  -0.757  -1.339  0.00  0.00     0.062 H 
ATOM     36  H   LIG d   1       3.803   1.611  -1.637  0.00  0.00     0.062 H 
ATOM     37  H   LIG d   1       5.827   2.236  -2.893  0.00  0.00     0.062 H 
ENDBRANCH   1  20
TORSDOF 5
ENDMDL
MODEL 7
REMARK VINA RESULT:      -5.8      1.547      2.932
REMARK  5 active torsions:
REMARK  status: ('A' for Active; 'I' for Inactive)
REMARK    1  A    between atoms: C_1  and  O_2 
REMARK    2  A    between atoms: O_2  and  C_3 
REMARK    3  A    between atoms: C_6  and  O_9 
REMARK    4  A    between atoms: O_9  and  C_10 
REMARK    5  A    between atoms: C_10  and  C_11 
ROOT
ATOM      1  C   LIG d   1       3.646   0.263  -6.900  0.00  0.00     0.132 C 
ATOM      2  H   LIG d   1       3.444   1.093  -6.380  0.00  0.00     0.076 H 
ATOM      3  H   LIG d   1       4.443   0.467  -7.615  0.00  0.00     0.076 H 
ENDROOT
BRANCH   1   4
ATOM      4  O   LIG d   1       2.474  -0.155  -7.603  0.00  0.00    -0.486 OA
BRANCH   4   5
ATOM      5  C   LIG d   1       2.596  -0.357  -8.942  0.00  0.00     0.121 A 
ATOM      6  C   LIG d   1       3.369   0.506  -9.707  0.00  0.00    -0.017 A 
ATOM      7  C   LIG d   1       3.493   0.299 -11.067  0.00  0.00    -0.017 A 
ATOM      8  H   LIG d   1       3.873   1.337  -9.238  0.00  0.00     0.066 H 
ATOM      9  C   LIG d   1       2.845  -0.769 -11.669  0.00  0.00     0.120 A 
ATOM     10  H   LIG d   1       4.094   0.972 -11.662  0.00  0.00     0.066 H 
ATOM     11  C   LIG d   1       2.072  -1.631 -10.904  0.00  0.00    -0.017 A 
ATOM     12  C   LIG d   1       1.953  -1.428  -9.544  0.00  0.00    -0.017 A 
ATOM     13  H   LIG d   1       1.568  -2.463 -11.373  0.00  0.00     0.066 H 
ATOM     14  H   LIG d   1       1.354  -2.102  -8.948  0.00  0.00     0.066 H 
BRANCH   9  15
ATOM     15  O   LIG d   1       2.967  -0.971 -13.008  0.00  0.00    -0.495 OA
BRANCH  15  16
ATOM     16  C   LIG d   1       2.284  -2.099 -13.558  0.00  0.00     0.079 C 
ATOM     17  H   LIG d   1       2.109  -1.933 -14.622  0.00  0.00     0.066 H 
ATOM     18  H   LIG d   1       2.893  -2.993 -13.426  0.00  0.00     0.066 H 
ATOM     19  H   LIG d   1       1.330  -2.231 -13.049  0.00  0.00     0.066 H 
ENDBRANCH  15  16
ENDBRANCH   9  15
ENDBRANCH   4   5
ENDBRANCH   1   4
BRANCH   1  20
ATOM     20  C   LIG d   1       4.082  -0.828  -5.958  0.00  0.00     0.080 C 
ATOM     21  C   LIG d   1       4.137  -0.574  -4.505  0.00  0.00     0.002 A 
ATOM     22  C   LIG d   1       4.904  -1.428  -3.705  0.00  0.00    -0.037 A 
ATOM     23  C   LIG d   1       3.446   0.487  -3.927  0.00  0.00    -0.052 A 
ATOM     24  C   LIG d   1       5.638  -2.569  -4.360  0.00  0.00    -0.007 C 
ATOM     25  C   LIG d   1       4.975  -1.216  -2.347  0.00  0.00    -0.058 A 
ATOM     26  C   LIG d   1       4.823  -3.084  -5.546  0.00  0.00     0.044 C 
ATOM     27  H   LIG d   1       6.609  -2.222  -4.710  0.00  0.00     0.033 H 
ATOM     28  H   LIG d   1       5.776  -3.373  -3.638  0.00  0.00     0.033 H 
ATOM     29  N   LIG d   1       4.409  -1.989  -6.418  0.00  0.00    -0.284 NA
ATOM     30  H   LIG d   1       3.937  -3.597  -5.174  0.00  0.00     0.051 H 
ATOM     31  H   LIG d   1       5.430  -3.786  -6.117  0.00  0.00     0.051 H 
ATOM     32  C   LIG d   1       4.282  -0.161  -1.776  0.00  0.00    -0.061 A 
ATOM     33  H   LIG d   1       5.567  -1.874  -1.728  0.00  0.00     0.062 H 
ATOM     34  C   LIG d   1       3.526   0.688  -2.563  0.00  0.00    -0.061 A 
ATOM     35  H   LIG d   1       4.337   0.001  -0.710  0.00  0.00     0.062 H 
ATOM     36  H   LIG d   1       2.993   1.510  -2.109  0.00  0.00     0.062 H 
ATOM     37  H   LIG d   1       2.853   1.148  -4.541  0.00  0.00     0.062 H 
ENDBRANCH   1  20
TORSDOF 5
ENDMDL
MODEL 8
REMARK VINA RESULT:      -5.8      5.016      6.856
REMARK  5 active torsions:
REMARK  status: ('A' for Active; 'I' for Inactive)
REMARK    1  A    between atoms: C_1  and  O_2 
REMARK    2  A    between atoms: O_2  and  C_3 
REMARK    3  A    between atoms: C_6  and  O_9 
REMARK    4  A    between atoms: O_9  and  C_10 
REMARK    5  A    between atoms: C_10  and  C_11 
ROOT
ATOM      1  C   LIG d   1       7.306   1.189  -4.344  0.00  0.00     0.132 C 
ATOM      2  H   LIG d   1       7.470   0.516  -5.065  0.00  0.00     0.076 H 
ATOM      3  H   LIG d   1       7.009   2.137  -4.793  0.00  0.00     0.076 H 
ENDROOT
BRANCH   1   4
ATOM      4  O   LIG d   1       8.503   1.376  -3.586  0.00  0.00    -0.486 OA
BRANCH   4   5
ATOM      5  C   LIG d   1       9.148   2.564  -3.734  0.00  0.00     0.121 A 
ATOM      6  C   LIG d   1      10.165   2.915  -2.857  0.00  0.00    -0.017 A 
ATOM      7  C   LIG d   1      10.820   4.121  -3.008  0.00  0.00    -0.017 A 
ATOM      8  H   LIG d   1      10.444   2.244  -2.059  0.00  0.00     0.066 H 
ATOM      9  C   LIG d   1      10.462   4.983  -4.034  0.00  0.00     0.120 A 
ATOM     10  H   LIG d   1      11.612   4.395  -2.325  0.00  0.00     0.066 H 
ATOM     11  C   LIG d   1       9.444   4.632  -4.910  0.00  0.00    -0.017 A 
ATOM     12  C   LIG d   1       8.793   3.423  -4.763  0.00  0.00    -0.017 A 
ATOM     13  H   LIG d   1       9.165   5.303  -5.709  0.00  0.00     0.066 H 
ATOM     14  H   LIG d   1       8.004   3.149  -5.447  0.00  0.00     0.066 H 
BRANCH   9  15
ATOM     15  O   LIG d   1      11.107   6.170  -4.181  0.00  0.00    -0.495 OA
BRANCH  15  16
ATOM     16  C   LIG d   1      10.379   7.351  -3.835  0.00  0.00     0.079 C 
ATOM     17  H   LIG d   1      10.515   8.102  -4.614  0.00  0.00     0.066 H 
ATOM     18  H   LIG d   1       9.319   7.111  -3.744  0.00  0.00     0.066 H 
ATOM     19  H   LIG d   1      10.746   7.740  -2.887  0.00  0.00     0.066 H 
ENDBRANCH  15  16
ENDBRANCH   9  15
ENDBRANCH   4   5
ENDBRANCH   1   4
BRANCH   1  20
ATOM     20  C   LIG d   1       6.208   0.697  -3.437  0.00  0.00     0.080 C 
ATOM     21  C   LIG d   1       5.688  -0.677  -3.582  0.00  0.00     0.002 A 
ATOM     22  C   LIG d   1       4.438  -0.980  -3.032  0.00  0.00    -0.037 A 
ATOM     23  C   LIG d   1       6.412  -1.661  -4.248  0.00  0.00    -0.052 A 
ATOM     24  C   LIG d   1       3.680   0.106  -2.314  0.00  0.00    -0.007 C 
ATOM     25  C   LIG d   1       3.926  -2.252  -3.152  0.00  0.00    -0.058 A 
ATOM     26  C   LIG d   1       4.668   1.040  -1.617  0.00  0.00     0.044 C 
ATOM     27  H   LIG d   1       3.090   0.673  -3.034  0.00  0.00     0.033 H 
ATOM     28  H   LIG d   1       3.019  -0.343  -1.574  0.00  0.00     0.033 H 
ATOM     29  N   LIG d   1       5.720   1.475  -2.530  0.00  0.00    -0.284 NA
ATOM     30  H   LIG d   1       5.120   0.516  -0.775  0.00  0.00     0.051 H 
ATOM     31  H   LIG d   1       4.131   1.914  -1.248  0.00  0.00     0.051 H 
ATOM     32  C   LIG d   1       4.653  -3.229  -3.812  0.00  0.00    -0.061 A 
ATOM     33  H   LIG d   1       2.961  -2.488  -2.727  0.00  0.00     0.062 H 
ATOM     34  C   LIG d   1       5.887  -2.933  -4.362  0.00  0.00    -0.061 A 
ATOM     35  H   LIG d   1       4.251  -4.227  -3.902  0.00  0.00     0.062 H 
ATOM     36  H   LIG d   1       6.444  -3.701  -4.878  0.00  0.00     0.062 H 
ATOM     37  H   LIG d   1       7.377  -1.431  -4.675  0.00  0.00     0.062 H 
ENDBRANCH   1  20
TORSDOF 5
ENDMDL
MODEL 9
REMARK VINA RESULT:      -5.5      4.805      7.272
REMARK  5 active torsions:
REMARK  status: ('A' for Active; 'I' for Inactive)
REMARK    1  A    between atoms: C_1  and  O_2 
REMARK    2  A    between atoms: O_2  and  C_3 
REMARK    3  A    between atoms: C_6  and  O_9 
REMARK    4  A    between atoms: O_9  and  C_10 
REMARK    5  A    between atoms: C_10  and  C_11 
ROOT
ATOM      1  C   LIG d   1       7.471   0.556  -5.634  0.00  0.00     0.132 C 
ATOM      2  H   LIG d   1       7.478   0.665  -6.628  0.00  0.00     0.076 H 
ATOM      3  H   LIG d   1       7.165   1.492  -5.168  0.00  0.00     0.076 H 
ENDROOT
BRANCH   1   4
ATOM      4  O   LIG d   1       8.782   0.206  -5.184  0.00  0.00    -0.486 OA
BRANCH   4   5
ATOM      5  C   LIG d   1       9.498   1.177  -4.557  0.00  0.00     0.121 A 
ATOM      6  C   LIG d   1      10.885   1.117  -4.545  0.00  0.00    -0.017 A 
ATOM      7  C   LIG d   1      11.612   2.104  -3.908  0.00  0.00    -0.017 A 
ATOM      8  H   LIG d   1      11.394   0.300  -5.033  0.00  0.00     0.066 H 
ATOM      9  C   LIG d   1      10.958   3.153  -3.280  0.00  0.00     0.120 A 
ATOM     10  H   LIG d   1      12.691   2.057  -3.897  0.00  0.00     0.066 H 
ATOM     11  C   LIG d   1       9.572   3.213  -3.292  0.00  0.00    -0.017 A 
ATOM     12  C   LIG d   1       8.844   2.230  -3.934  0.00  0.00    -0.017 A 
ATOM     13  H   LIG d   1       9.062   4.030  -2.804  0.00  0.00     0.066 H 
ATOM     14  H   LIG d   1       7.766   2.278  -3.947  0.00  0.00     0.066 H 
BRANCH   9  15
ATOM     15  O   LIG d   1      11.675   4.124  -2.653  0.00  0.00    -0.495 OA
BRANCH  15  16
ATOM     16  C   LIG d   1      10.989   4.906  -1.673  0.00  0.00     0.079 C 
ATOM     17  H   LIG d   1      10.624   4.254  -0.879  0.00  0.00     0.066 H 
ATOM     18  H   LIG d   1      11.674   5.642  -1.252  0.00  0.00     0.066 H 
ATOM     19  H   LIG d   1      10.147   5.417  -2.139  0.00  0.00     0.066 H 
ENDBRANCH  15  16
ENDBRANCH   9  15
ENDBRANCH   4   5
ENDBRANCH   1   4
BRANCH   1  20
ATOM     20  C   LIG d   1       6.502  -0.534  -5.255  0.00  0.00     0.080 C 
ATOM     21  C   LIG d   1       5.766  -0.459  -3.979  0.00  0.00     0.002 A 
ATOM     22  C   LIG d   1       5.199  -1.630  -3.463  0.00  0.00    -0.037 A 
ATOM     23  C   LIG d   1       5.629   0.742  -3.289  0.00  0.00    -0.052 A 
ATOM     24  C   LIG d   1       5.362  -2.913  -4.234  0.00  0.00    -0.007 C 
ATOM     25  C   LIG d   1       4.507  -1.591  -2.274  0.00  0.00    -0.058 A 
ATOM     26  C   LIG d   1       5.374  -2.609  -5.732  0.00  0.00     0.044 C 
ATOM     27  H   LIG d   1       6.301  -3.389  -3.953  0.00  0.00     0.033 H 
ATOM     28  H   LIG d   1       4.532  -3.581  -4.006  0.00  0.00     0.033 H 
ATOM     29  N   LIG d   1       6.313  -1.537  -6.046  0.00  0.00    -0.284 NA
ATOM     30  H   LIG d   1       4.374  -2.310  -6.043  0.00  0.00     0.051 H 
ATOM     31  H   LIG d   1       5.664  -3.508  -6.275  0.00  0.00     0.051 H 
ATOM     32  C   LIG d   1       4.369  -0.392  -1.594  0.00  0.00    -0.061 A 
ATOM     33  H   LIG d   1       4.068  -2.494  -1.875  0.00  0.00     0.062 H 
ATOM     34  C   LIG d   1       4.932   0.767  -2.097  0.00  0.00    -0.061 A 
ATOM     35  H   LIG d   1       3.823  -0.364  -0.663  0.00  0.00     0.062 H 
ATOM     36  H   LIG d   1       4.822   1.696  -1.557  0.00  0.00     0.062 H 
ATOM     37  H   LIG d   1       6.065   1.648  -3.683  0.00  0.00     0.062 H 
ENDBRANCH   1  20
TORSDOF 5
ENDMDL
MODEL 10
REMARK VINA RESULT:      -5.5      4.149      6.766
REMARK  5 active torsions:
REMARK  status: ('A' for Active; 'I' for Inactive)
REMARK    1  A    between atoms: C_1  and  O_2 
REMARK    2  A    between atoms: O_2  and  C_3 
REMARK    3  A    between atoms: C_6  and  O_9 
REMARK    4  A    between atoms: O_9  and  C_10 
REMARK    5  A    between atoms: C_10  and  C_11 
ROOT
ATOM      1  C   LIG d   1       5.103  -3.112  -4.345  0.00  0.00     0.132 C 
ATOM      2  H   LIG d   1       6.091  -3.138  -4.495  0.00  0.00     0.076 H 
ATOM      3  H   LIG d   1       4.893  -3.238  -3.283  0.00  0.00     0.076 H 
ENDROOT
BRANCH   1   4
ATOM      4  O   LIG d   1       4.481  -4.167  -5.081  0.00  0.00    -0.486 OA
BRANCH   4   5
ATOM      5  C   LIG d   1       5.258  -5.234  -5.406  0.00  0.00     0.121 A 
ATOM      6  C   LIG d   1       6.637  -5.096  -5.467  0.00  0.00    -0.017 A 
ATOM      7  C   LIG d   1       7.426  -6.181  -5.797  0.00  0.00    -0.017 A 
ATOM      8  H   LIG d   1       7.093  -4.140  -5.256  0.00  0.00     0.066 H 
ATOM      9  C   LIG d   1       6.840  -7.408  -6.068  0.00  0.00     0.120 A 
ATOM     10  H   LIG d   1       8.500  -6.072  -5.846  0.00  0.00     0.066 H 
ATOM     11  C   LIG d   1       5.461  -7.546  -6.008  0.00  0.00    -0.017 A 
ATOM     12  C   LIG d   1       4.672  -6.463  -5.672  0.00  0.00    -0.017 A 
ATOM     13  H   LIG d   1       5.005  -8.502  -6.219  0.00  0.00     0.066 H 
ATOM     14  H   LIG d   1       3.599  -6.572  -5.621  0.00  0.00     0.066 H 
BRANCH   9  15
ATOM     15  O   LIG d   1       7.617  -8.475  -6.393  0.00  0.00    -0.495 OA
BRANCH  15  16
ATOM     16  C   LIG d   1       7.385  -9.689  -5.675  0.00  0.00     0.079 C 
ATOM     17  H   LIG d   1       8.091  -9.762  -4.848  0.00  0.00     0.066 H 
ATOM     18  H   LIG d   1       6.367  -9.691  -5.284  0.00  0.00     0.066 H 
ATOM     19  H   LIG d   1       7.518 -10.539  -6.343  0.00  0.00     0.066 H 
ENDBRANCH  15  16
ENDBRANCH   9  15
ENDBRANCH   4   5
ENDBRANCH   1   4
BRANCH   1  20
ATOM     20  C   LIG d   1       4.559  -1.786  -4.811  0.00  0.00     0.080 C 
ATOM     21  C   LIG d   1       4.312  -0.704  -3.838  0.00  0.00     0.002 A 
ATOM     22  C   LIG d   1       3.455   0.340  -4.202  0.00  0.00    -0.037 A 
ATOM     23  C   LIG d   1       4.908  -0.708  -2.581  0.00  0.00    -0.052 A 
ATOM     24  C   LIG d   1       2.827   0.318  -5.571  0.00  0.00    -0.007 C 
ATOM     25  C   LIG d   1       3.204   1.363  -3.316  0.00  0.00    -0.058 A 
ATOM     26  C   LIG d   1       3.796  -0.321  -6.565  0.00  0.00     0.044 C 
ATOM     27  H   LIG d   1       1.906  -0.263  -5.538  0.00  0.00     0.033 H 
ATOM     28  H   LIG d   1       2.604   1.337  -5.885  0.00  0.00     0.033 H 
ATOM     29  N   LIG d   1       4.308  -1.592  -6.062  0.00  0.00    -0.284 NA
ATOM     30  H   LIG d   1       4.631   0.358  -6.736  0.00  0.00     0.051 H 
ATOM     31  H   LIG d   1       3.277  -0.493  -7.508  0.00  0.00     0.051 H 
ATOM     32  C   LIG d   1       3.805   1.357  -2.067  0.00  0.00    -0.061 A 
ATOM     33  H   LIG d   1       2.544   2.171  -3.596  0.00  0.00     0.062 H 
ATOM     34  C   LIG d   1       4.648   0.324  -1.701  0.00  0.00    -0.061 A 
ATOM     35  H   LIG d   1       3.609   2.162  -1.375  0.00  0.00     0.062 H 
ATOM     36  H   LIG d   1       5.108   0.327  -0.723  0.00  0.00     0.062 H 
ATOM     37  H   LIG d   1       5.570  -1.513  -2.295  0.00  0.00     0.062 H 
ENDBRANCH   1  20
TORSDOF 5
ENDMDL
