MODEL 1
REMARK VINA RESULT:      -6.4      0.000      0.000
REMARK  9 active torsions:
REMARK  status: ('A' for Active; 'I' for Inactive)
REMARK    1  A    between atoms: C_1  and  C_2 
REMARK    2  A    between atoms: C_5  and  N_21 
REMARK    3  A    between atoms: C_10  and  C_11 
REMARK    4  A    between atoms: C_11  and  C_13 
REMARK    5  A    between atoms: C_16  and  O_19 
REMARK    6  A    between atoms: O_19  and  C_20 
REMARK       I    between atoms: N_21  and  C_22 
REMARK    7  A    between atoms: C_22  and  C_24 
REMARK    8  A    between atoms: C_27  and  O_30 
REMARK    9  A    between atoms: O_30  and  C_31 
ROOT
ATOM      1  C   LIG d   1       8.725   1.489  -5.229  0.00  0.00     0.006 A 
ATOM      2  C   LIG d   1       7.440   0.794  -5.189  0.00  0.00     0.025 A 
ATOM      3  C   LIG d   1       6.657   0.143  -6.147  0.00  0.00    -0.029 A 
ATOM      4  C   LIG d   1       5.454  -0.426  -5.771  0.00  0.00     0.035 A 
ATOM      5  C   LIG d   1       5.032  -0.358  -4.444  0.00  0.00    -0.037 A 
ATOM      6  C   LIG d   1       5.800   0.276  -3.493  0.00  0.00    -0.017 A 
ATOM      7  C   LIG d   1       7.011   0.859  -3.851  0.00  0.00     0.136 A 
ATOM      8  O   LIG d   1       7.950   1.531  -3.154  0.00  0.00    -0.451 OA
ATOM      9  C   LIG d   1       8.966   1.907  -3.958  0.00  0.00     0.179 A 
ATOM     10  H   LIG d   1       6.987   0.088  -7.173  0.00  0.00     0.064 H 
ATOM     11  H   LIG d   1       4.093  -0.808  -4.157  0.00  0.00     0.064 H 
ATOM     12  H   LIG d   1       5.462   0.321  -2.468  0.00  0.00     0.066 H 
ENDROOT
BRANCH   4  13
ATOM     13  N   LIG d   1       4.660  -1.074  -6.724  0.00  0.00    -0.281 N 
ATOM     14  C   LIG d   1       3.757  -0.374  -7.439  0.00  0.00     0.248 C 
ATOM     15  O   LIG d   1       3.563   0.800  -7.189  0.00  0.00    -0.270 OA
ATOM     16  H   LIG d   1       4.760  -2.029  -6.870  0.00  0.00     0.155 HD
BRANCH  14  17
ATOM     17  C   LIG d   1       3.000  -1.033  -8.521  0.00  0.00     0.037 A 
ATOM     18  C   LIG d   1       3.229  -2.379  -8.817  0.00  0.00    -0.046 A 
ATOM     19  C   LIG d   1       2.521  -2.991  -9.827  0.00  0.00    -0.019 A 
ATOM     20  H   LIG d   1       3.961  -2.940  -8.254  0.00  0.00     0.063 H 
ATOM     21  C   LIG d   1       1.579  -2.270 -10.552  0.00  0.00     0.120 A 
ATOM     22  H   LIG d   1       2.698  -4.031 -10.057  0.00  0.00     0.065 H 
ATOM     23  C   LIG d   1       1.348  -0.931 -10.261  0.00  0.00    -0.019 A 
ATOM     24  C   LIG d   1       2.048  -0.314  -9.249  0.00  0.00    -0.046 A 
ATOM     25  H   LIG d   1       0.616  -0.374 -10.828  0.00  0.00     0.065 H 
ATOM     26  H   LIG d   1       1.866   0.726  -9.021  0.00  0.00     0.063 H 
BRANCH  21  27
ATOM     27  O   LIG d   1       0.883  -2.876 -11.547  0.00  0.00    -0.495 OA
BRANCH  27  28
ATOM     28  C   LIG d   1       0.539  -2.074 -12.679  0.00  0.00     0.079 C 
ATOM     29  H   LIG d   1      -0.288  -2.539 -13.215  0.00  0.00     0.066 H 
ATOM     30  H   LIG d   1       0.244  -1.080 -12.344  0.00  0.00     0.066 H 
ATOM     31  H   LIG d   1       1.401  -1.992 -13.341  0.00  0.00     0.066 H 
ENDBRANCH  27  28
ENDBRANCH  21  27
ENDBRANCH  14  17
ENDBRANCH   4  13
BRANCH   1  32
ATOM     32  C   LIG d   1       9.605   1.700  -6.435  0.00  0.00    -0.035 C 
ATOM     33  H   LIG d   1       9.273   1.051  -7.245  0.00  0.00     0.028 H 
ATOM     34  H   LIG d   1       9.542   2.740  -6.752  0.00  0.00     0.028 H 
ATOM     35  H   LIG d   1      10.637   1.461  -6.177  0.00  0.00     0.028 H 
ENDBRANCH   1  32
BRANCH   9  36
ATOM     36  C   LIG d   1      10.154   2.654  -3.525  0.00  0.00     0.228 C 
ATOM     37  O   LIG d   1      11.215   2.078  -3.377  0.00  0.00    -0.283 OA
BRANCH  36  38
ATOM     38  C   LIG d   1      10.060   4.106  -3.270  0.00  0.00     0.026 A 
ATOM     39  C   LIG d   1      10.506   4.635  -2.056  0.00  0.00    -0.047 A 
ATOM     40  C   LIG d   1      10.418   5.988  -1.822  0.00  0.00    -0.019 A 
ATOM     41  H   LIG d   1      10.920   3.981  -1.302  0.00  0.00     0.063 H 
ATOM     42  C   LIG d   1       9.885   6.829  -2.793  0.00  0.00     0.120 A 
ATOM     43  H   LIG d   1      10.762   6.398  -0.884  0.00  0.00     0.065 H 
ATOM     44  C   LIG d   1       9.439   6.307  -4.002  0.00  0.00    -0.019 A 
ATOM     45  C   LIG d   1       9.529   4.955  -4.246  0.00  0.00    -0.047 A 
ATOM     46  H   LIG d   1       9.025   6.965  -4.752  0.00  0.00     0.065 H 
ATOM     47  H   LIG d   1       9.186   4.551  -5.186  0.00  0.00     0.063 H 
BRANCH  42  48
ATOM     48  O   LIG d   1       9.798   8.163  -2.559  0.00  0.00    -0.495 OA
BRANCH  48  49
ATOM     49  C   LIG d   1       9.674   8.577  -1.197  0.00  0.00     0.079 C 
ATOM     50  H   LIG d   1       8.761   8.159  -0.772  0.00  0.00     0.066 H 
ATOM     51  H   LIG d   1      10.535   8.222  -0.629  0.00  0.00     0.066 H 
ATOM     52  H   LIG d   1       9.630   9.665  -1.150  0.00  0.00     0.066 H 
ENDBRANCH  48  49
ENDBRANCH  42  48
ENDBRANCH  36  38
ENDBRANCH   9  36
TORSDOF 9
ENDMDL
MODEL 2
REMARK VINA RESULT:      -6.2      5.088     12.096
REMARK  9 active torsions:
REMARK  status: ('A' for Active; 'I' for Inactive)
REMARK    1  A    between atoms: C_1  and  C_2 
REMARK    2  A    between atoms: C_5  and  N_21 
REMARK    3  A    between atoms: C_10  and  C_11 
REMARK    4  A    between atoms: C_11  and  C_13 
REMARK    5  A    between atoms: C_16  and  O_19 
REMARK    6  A    between atoms: O_19  and  C_20 
REMARK       I    between atoms: N_21  and  C_22 
REMARK    7  A    between atoms: C_22  and  C_24 
REMARK    8  A    between atoms: C_27  and  O_30 
REMARK    9  A    between atoms: O_30  and  C_31 
ROOT
ATOM      1  C   LIG d   1      10.103   3.455  -3.695  0.00  0.00     0.006 A 
ATOM      2  C   LIG d   1      10.106   4.913  -3.590  0.00  0.00     0.025 A 
ATOM      3  C   LIG d   1      10.629   5.820  -2.663  0.00  0.00    -0.029 A 
ATOM      4  C   LIG d   1      10.449   7.175  -2.861  0.00  0.00     0.035 A 
ATOM      5  C   LIG d   1       9.760   7.634  -3.983  0.00  0.00    -0.037 A 
ATOM      6  C   LIG d   1       9.246   6.748  -4.904  0.00  0.00    -0.017 A 
ATOM      7  C   LIG d   1       9.412   5.380  -4.721  0.00  0.00     0.136 A 
ATOM      8  O   LIG d   1       9.028   4.303  -5.437  0.00  0.00    -0.451 OA
ATOM      9  C   LIG d   1       9.430   3.162  -4.841  0.00  0.00     0.179 A 
ATOM     10  H   LIG d   1      11.166   5.462  -1.797  0.00  0.00     0.064 H 
ATOM     11  H   LIG d   1       9.627   8.696  -4.132  0.00  0.00     0.064 H 
ATOM     12  H   LIG d   1       8.716   7.117  -5.769  0.00  0.00     0.066 H 
ENDROOT
BRANCH   4  13
ATOM     13  N   LIG d   1      10.964   8.091  -1.935  0.00  0.00    -0.281 N 
ATOM     14  C   LIG d   1      10.262   8.394  -0.825  0.00  0.00     0.248 C 
ATOM     15  O   LIG d   1       9.141   7.949  -0.675  0.00  0.00    -0.270 OA
ATOM     16  H   LIG d   1      11.827   8.507  -2.093  0.00  0.00     0.155 HD
BRANCH  14  17
ATOM     17  C   LIG d   1      10.853   9.271   0.205  0.00  0.00     0.037 A 
ATOM     18  C   LIG d   1      11.654   8.727   1.211  0.00  0.00    -0.046 A 
ATOM     19  C   LIG d   1      12.204   9.548   2.171  0.00  0.00    -0.019 A 
ATOM     20  H   LIG d   1      11.843   7.664   1.238  0.00  0.00     0.063 H 
ATOM     21  C   LIG d   1      11.962  10.916   2.138  0.00  0.00     0.120 A 
ATOM     22  H   LIG d   1      12.823   9.128   2.950  0.00  0.00     0.065 H 
ATOM     23  C   LIG d   1      11.165  11.461   1.138  0.00  0.00    -0.019 A 
ATOM     24  C   LIG d   1      10.617  10.648   0.173  0.00  0.00    -0.046 A 
ATOM     25  H   LIG d   1      10.978  12.525   1.118  0.00  0.00     0.065 H 
ATOM     26  H   LIG d   1      10.000  11.073  -0.606  0.00  0.00     0.063 H 
BRANCH  21  27
ATOM     27  O   LIG d   1      12.505  11.722   3.086  0.00  0.00    -0.495 OA
BRANCH  27  28
ATOM     28  C   LIG d   1      12.957  11.096   4.288  0.00  0.00     0.079 C 
ATOM     29  H   LIG d   1      12.335  11.417   5.121  0.00  0.00     0.066 H 
ATOM     30  H   LIG d   1      12.892  10.013   4.179  0.00  0.00     0.066 H 
ATOM     31  H   LIG d   1      13.993  11.378   4.477  0.00  0.00     0.066 H 
ENDBRANCH  27  28
ENDBRANCH  21  27
ENDBRANCH  14  17
ENDBRANCH   4  13
BRANCH   1  32
ATOM     32  C   LIG d   1      10.719   2.475  -2.730  0.00  0.00    -0.035 C 
ATOM     33  H   LIG d   1       9.946   2.075  -2.075  0.00  0.00     0.028 H 
ATOM     34  H   LIG d   1      11.182   1.660  -3.287  0.00  0.00     0.028 H 
ATOM     35  H   LIG d   1      11.476   2.982  -2.132  0.00  0.00     0.028 H 
ENDBRANCH   1  32
BRANCH   9  36
ATOM     36  C   LIG d   1       9.181   1.808  -5.351  0.00  0.00     0.228 C 
ATOM     37  O   LIG d   1       9.782   1.406  -6.330  0.00  0.00    -0.283 OA
BRANCH  36  38
ATOM     38  C   LIG d   1       8.202   0.933  -4.676  0.00  0.00     0.026 A 
ATOM     39  C   LIG d   1       8.244  -0.450  -4.875  0.00  0.00    -0.047 A 
ATOM     40  C   LIG d   1       7.330  -1.262  -4.243  0.00  0.00    -0.019 A 
ATOM     41  H   LIG d   1       8.993  -0.880  -5.523  0.00  0.00     0.063 H 
ATOM     42  C   LIG d   1       6.365  -0.708  -3.409  0.00  0.00     0.120 A 
ATOM     43  H   LIG d   1       7.361  -2.331  -4.396  0.00  0.00     0.065 H 
ATOM     44  C   LIG d   1       6.320   0.667  -3.209  0.00  0.00    -0.019 A 
ATOM     45  C   LIG d   1       7.234   1.486  -3.833  0.00  0.00    -0.047 A 
ATOM     46  H   LIG d   1       5.567   1.092  -2.561  0.00  0.00     0.065 H 
ATOM     47  H   LIG d   1       7.200   2.553  -3.675  0.00  0.00     0.063 H 
BRANCH  42  48
ATOM     48  O   LIG d   1       5.465  -1.512  -2.789  0.00  0.00    -0.495 OA
BRANCH  48  49
ATOM     49  C   LIG d   1       4.497  -0.878  -1.950  0.00  0.00     0.079 C 
ATOM     50  H   LIG d   1       3.677  -0.501  -2.563  0.00  0.00     0.066 H 
ATOM     51  H   LIG d   1       4.110  -1.601  -1.231  0.00  0.00     0.066 H 
ATOM     52  H   LIG d   1       4.963  -0.049  -1.419  0.00  0.00     0.066 H 
ENDBRANCH  48  49
ENDBRANCH  42  48
ENDBRANCH  36  38
ENDBRANCH   9  36
TORSDOF 9
ENDMDL
MODEL 3
REMARK VINA RESULT:      -6.1      4.697     10.401
REMARK  9 active torsions:
REMARK  status: ('A' for Active; 'I' for Inactive)
REMARK    1  A    between atoms: C_1  and  C_2 
REMARK    2  A    between atoms: C_5  and  N_21 
REMARK    3  A    between atoms: C_10  and  C_11 
REMARK    4  A    between atoms: C_11  and  C_13 
REMARK    5  A    between atoms: C_16  and  O_19 
REMARK    6  A    between atoms: O_19  and  C_20 
REMARK       I    between atoms: N_21  and  C_22 
REMARK    7  A    between atoms: C_22  and  C_24 
REMARK    8  A    between atoms: C_27  and  O_30 
REMARK    9  A    between atoms: O_30  and  C_31 
ROOT
ATOM      1  C   LIG d   1       9.026   2.704  -5.348  0.00  0.00     0.006 A 
ATOM      2  C   LIG d   1       9.272   3.952  -4.629  0.00  0.00     0.025 A 
ATOM      3  C   LIG d   1       9.128   5.305  -4.951  0.00  0.00    -0.029 A 
ATOM      4  C   LIG d   1       9.463   6.266  -4.017  0.00  0.00     0.035 A 
ATOM      5  C   LIG d   1       9.931   5.888  -2.759  0.00  0.00    -0.037 A 
ATOM      6  C   LIG d   1      10.070   4.558  -2.431  0.00  0.00    -0.017 A 
ATOM      7  C   LIG d   1       9.744   3.574  -3.358  0.00  0.00     0.136 A 
ATOM      8  O   LIG d   1       9.777   2.226  -3.319  0.00  0.00    -0.451 OA
ATOM      9  C   LIG d   1       9.356   1.703  -4.488  0.00  0.00     0.179 A 
ATOM     10  H   LIG d   1       8.762   5.595  -5.925  0.00  0.00     0.064 H 
ATOM     11  H   LIG d   1      10.186   6.647  -2.033  0.00  0.00     0.064 H 
ATOM     12  H   LIG d   1      10.432   4.279  -1.453  0.00  0.00     0.066 H 
ENDROOT
BRANCH   4  13
ATOM     13  N   LIG d   1       9.328   7.624  -4.333  0.00  0.00    -0.281 N 
ATOM     14  C   LIG d   1      10.196   8.207  -5.183  0.00  0.00     0.248 C 
ATOM     15  O   LIG d   1      11.152   7.582  -5.600  0.00  0.00    -0.270 OA
ATOM     16  H   LIG d   1       8.610   8.144  -3.940  0.00  0.00     0.155 HD
BRANCH  14  17
ATOM     17  C   LIG d   1       9.988   9.606  -5.605  0.00  0.00     0.037 A 
ATOM     18  C   LIG d   1       9.499  10.547  -4.696  0.00  0.00    -0.046 A 
ATOM     19  C   LIG d   1       9.307  11.852  -5.093  0.00  0.00    -0.019 A 
ATOM     20  H   LIG d   1       9.271  10.251  -3.682  0.00  0.00     0.063 H 
ATOM     21  C   LIG d   1       9.600  12.233  -6.397  0.00  0.00     0.120 A 
ATOM     22  H   LIG d   1       8.928  12.579  -4.391  0.00  0.00     0.065 H 
ATOM     23  C   LIG d   1      10.088  11.300  -7.305  0.00  0.00    -0.019 A 
ATOM     24  C   LIG d   1      10.287   9.995  -6.914  0.00  0.00    -0.046 A 
ATOM     25  H   LIG d   1      10.313  11.600  -8.318  0.00  0.00     0.065 H 
ATOM     26  H   LIG d   1      10.669   9.272  -7.619  0.00  0.00     0.063 H 
BRANCH  21  27
ATOM     27  O   LIG d   1       9.410  13.519  -6.785  0.00  0.00    -0.495 OA
BRANCH  27  28
ATOM     28  C   LIG d   1       9.933  13.896  -8.060  0.00  0.00     0.079 C 
ATOM     29  H   LIG d   1      10.846  13.336  -8.258  0.00  0.00     0.066 H 
ATOM     30  H   LIG d   1       9.197  13.679  -8.834  0.00  0.00     0.066 H 
ATOM     31  H   LIG d   1      10.154  14.964  -8.061  0.00  0.00     0.066 H 
ENDBRANCH  27  28
ENDBRANCH  21  27
ENDBRANCH  14  17
ENDBRANCH   4  13
BRANCH   1  32
ATOM     32  C   LIG d   1       8.511   2.555  -6.757  0.00  0.00    -0.035 C 
ATOM     33  H   LIG d   1       8.970   3.312  -7.393  0.00  0.00     0.028 H 
ATOM     34  H   LIG d   1       8.761   1.563  -7.132  0.00  0.00     0.028 H 
ATOM     35  H   LIG d   1       7.429   2.683  -6.763  0.00  0.00     0.028 H 
ENDBRANCH   1  32
BRANCH   9  36
ATOM     36  C   LIG d   1       9.266   0.268  -4.788  0.00  0.00     0.228 C 
ATOM     37  O   LIG d   1      10.185  -0.296  -5.352  0.00  0.00    -0.283 OA
BRANCH  36  38
ATOM     38  C   LIG d   1       8.059  -0.492  -4.404  0.00  0.00     0.026 A 
ATOM     39  C   LIG d   1       7.938  -1.840  -4.755  0.00  0.00    -0.047 A 
ATOM     40  C   LIG d   1       6.812  -2.545  -4.395  0.00  0.00    -0.019 A 
ATOM     41  H   LIG d   1       8.728  -2.327  -5.308  0.00  0.00     0.063 H 
ATOM     42  C   LIG d   1       5.795  -1.917  -3.683  0.00  0.00     0.120 A 
ATOM     43  H   LIG d   1       6.717  -3.586  -4.666  0.00  0.00     0.065 H 
ATOM     44  C   LIG d   1       5.912  -0.577  -3.333  0.00  0.00    -0.019 A 
ATOM     45  C   LIG d   1       7.037   0.134  -3.684  0.00  0.00    -0.047 A 
ATOM     46  H   LIG d   1       5.119  -0.094  -2.781  0.00  0.00     0.065 H 
ATOM     47  H   LIG d   1       7.128   1.174  -3.409  0.00  0.00     0.063 H 
BRANCH  42  48
ATOM     48  O   LIG d   1       4.686  -2.615  -3.330  0.00  0.00    -0.495 OA
BRANCH  48  49
ATOM     49  C   LIG d   1       3.803  -2.000  -2.391  0.00  0.00     0.079 C 
ATOM     50  H   LIG d   1       3.886  -2.507  -1.429  0.00  0.00     0.066 H 
ATOM     51  H   LIG d   1       4.074  -0.950  -2.271  0.00  0.00     0.066 H 
ATOM     52  H   LIG d   1       2.778  -2.073  -2.753  0.00  0.00     0.066 H 
ENDBRANCH  48  49
ENDBRANCH  42  48
ENDBRANCH  36  38
ENDBRANCH   9  36
TORSDOF 9
ENDMDL
MODEL 4
REMARK VINA RESULT:      -6.0      2.416     11.115
REMARK  9 active torsions:
REMARK  status: ('A' for Active; 'I' for Inactive)
REMARK    1  A    between atoms: C_1  and  C_2 
REMARK    2  A    between atoms: C_5  and  N_21 
REMARK    3  A    between atoms: C_10  and  C_11 
REMARK    4  A    between atoms: C_11  and  C_13 
REMARK    5  A    between atoms: C_16  and  O_19 
REMARK    6  A    between atoms: O_19  and  C_20 
REMARK       I    between atoms: N_21  and  C_22 
REMARK    7  A    between atoms: C_22  and  C_24 
REMARK    8  A    between atoms: C_27  and  O_30 
REMARK    9  A    between atoms: O_30  and  C_31 
ROOT
ATOM      1  C   LIG d   1       6.731   0.233  -4.696  0.00  0.00     0.006 A 
ATOM      2  C   LIG d   1       7.658   1.360  -4.769  0.00  0.00     0.025 A 
ATOM      3  C   LIG d   1       8.120   2.301  -3.843  0.00  0.00    -0.029 A 
ATOM      4  C   LIG d   1       9.019   3.268  -4.247  0.00  0.00     0.035 A 
ATOM      5  C   LIG d   1       9.470   3.299  -5.566  0.00  0.00    -0.037 A 
ATOM      6  C   LIG d   1       9.025   2.373  -6.483  0.00  0.00    -0.017 A 
ATOM      7  C   LIG d   1       8.116   1.394  -6.099  0.00  0.00     0.136 A 
ATOM      8  O   LIG d   1       7.519   0.382  -6.762  0.00  0.00    -0.451 OA
ATOM      9  C   LIG d   1       6.700  -0.310  -5.943  0.00  0.00     0.179 A 
ATOM     10  H   LIG d   1       7.772   2.273  -2.821  0.00  0.00     0.064 H 
ATOM     11  H   LIG d   1      10.177   4.057  -5.873  0.00  0.00     0.064 H 
ATOM     12  H   LIG d   1       9.383   2.407  -7.501  0.00  0.00     0.066 H 
ENDROOT
BRANCH   4  13
ATOM     13  N   LIG d   1       9.482   4.218  -3.328  0.00  0.00    -0.281 N 
ATOM     14  C   LIG d   1      10.555   3.945  -2.560  0.00  0.00     0.248 C 
ATOM     15  O   LIG d   1      11.063   2.841  -2.594  0.00  0.00    -0.270 OA
ATOM     16  H   LIG d   1       9.030   5.072  -3.244  0.00  0.00     0.155 HD
BRANCH  14  17
ATOM     17  C   LIG d   1      11.112   4.986  -1.673  0.00  0.00     0.037 A 
ATOM     18  C   LIG d   1      12.489   5.051  -1.448  0.00  0.00    -0.046 A 
ATOM     19  C   LIG d   1      13.005   6.024  -0.621  0.00  0.00    -0.019 A 
ATOM     20  H   LIG d   1      13.149   4.339  -1.922  0.00  0.00     0.063 H 
ATOM     21  C   LIG d   1      12.157   6.940  -0.010  0.00  0.00     0.120 A 
ATOM     22  H   LIG d   1      14.070   6.074  -0.446  0.00  0.00     0.065 H 
ATOM     23  C   LIG d   1      10.786   6.879  -0.232  0.00  0.00    -0.019 A 
ATOM     24  C   LIG d   1      10.264   5.913  -1.062  0.00  0.00    -0.046 A 
ATOM     25  H   LIG d   1      10.130   7.593   0.246  0.00  0.00     0.065 H 
ATOM     26  H   LIG d   1       9.199   5.868  -1.236  0.00  0.00     0.063 H 
BRANCH  21  27
ATOM     27  O   LIG d   1      12.669   7.897   0.805  0.00  0.00    -0.495 OA
BRANCH  27  28
ATOM     28  C   LIG d   1      11.746   8.832   1.367  0.00  0.00     0.079 C 
ATOM     29  H   LIG d   1      11.117   8.325   2.098  0.00  0.00     0.066 H 
ATOM     30  H   LIG d   1      12.296   9.636   1.855  0.00  0.00     0.066 H 
ATOM     31  H   LIG d   1      11.122   9.247   0.576  0.00  0.00     0.066 H 
ENDBRANCH  27  28
ENDBRANCH  21  27
ENDBRANCH  14  17
ENDBRANCH   4  13
BRANCH   1  32
ATOM     32  C   LIG d   1       5.964  -0.235  -3.485  0.00  0.00    -0.035 C 
ATOM     33  H   LIG d   1       6.624  -0.813  -2.838  0.00  0.00     0.028 H 
ATOM     34  H   LIG d   1       5.585   0.629  -2.940  0.00  0.00     0.028 H 
ATOM     35  H   LIG d   1       5.129  -0.859  -3.803  0.00  0.00     0.028 H 
ENDBRANCH   1  32
BRANCH   9  36
ATOM     36  C   LIG d   1       5.896  -1.474  -6.338  0.00  0.00     0.228 C 
ATOM     37  O   LIG d   1       6.210  -2.587  -5.962  0.00  0.00    -0.283 OA
BRANCH  36  38
ATOM     38  C   LIG d   1       4.705  -1.292  -7.192  0.00  0.00     0.026 A 
ATOM     39  C   LIG d   1       4.435  -2.199  -8.221  0.00  0.00    -0.047 A 
ATOM     40  C   LIG d   1       3.323  -2.027  -9.014  0.00  0.00    -0.019 A 
ATOM     41  H   LIG d   1       5.098  -3.035  -8.392  0.00  0.00     0.063 H 
ATOM     42  C   LIG d   1       2.470  -0.952  -8.793  0.00  0.00     0.120 A 
ATOM     43  H   LIG d   1       3.114  -2.727  -9.809  0.00  0.00     0.065 H 
ATOM     44  C   LIG d   1       2.735  -0.047  -7.772  0.00  0.00    -0.019 A 
ATOM     45  C   LIG d   1       3.842  -0.215  -6.970  0.00  0.00    -0.047 A 
ATOM     46  H   LIG d   1       2.070   0.787  -7.605  0.00  0.00     0.065 H 
ATOM     47  H   LIG d   1       4.045   0.486  -6.174  0.00  0.00     0.063 H 
BRANCH  42  48
ATOM     48  O   LIG d   1       1.376  -0.785  -9.578  0.00  0.00    -0.495 OA
BRANCH  48  49
ATOM     49  C   LIG d   1       1.535  -1.030 -10.976  0.00  0.00     0.079 C 
ATOM     50  H   LIG d   1       1.092  -0.209 -11.542  0.00  0.00     0.066 H 
ATOM     51  H   LIG d   1       2.596  -1.103 -11.214  0.00  0.00     0.066 H 
ATOM     52  H   LIG d   1       1.037  -1.963 -11.242  0.00  0.00     0.066 H 
ENDBRANCH  48  49
ENDBRANCH  42  48
ENDBRANCH  36  38
ENDBRANCH   9  36
TORSDOF 9
ENDMDL
MODEL 5
REMARK VINA RESULT:      -5.9      4.674     10.617
REMARK  9 active torsions:
REMARK  status: ('A' for Active; 'I' for Inactive)
REMARK    1  A    between atoms: C_1  and  C_2 
REMARK    2  A    between atoms: C_5  and  N_21 
REMARK    3  A    between atoms: C_10  and  C_11 
REMARK    4  A    between atoms: C_11  and  C_13 
REMARK    5  A    between atoms: C_16  and  O_19 
REMARK    6  A    between atoms: O_19  and  C_20 
REMARK       I    between atoms: N_21  and  C_22 
REMARK    7  A    between atoms: C_22  and  C_24 
REMARK    8  A    between atoms: C_27  and  O_30 
REMARK    9  A    between atoms: O_30  and  C_31 
ROOT
ATOM      1  C   LIG d   1       5.605  -2.929  -5.855  0.00  0.00     0.006 A 
ATOM      2  C   LIG d   1       5.762  -1.799  -4.942  0.00  0.00     0.025 A 
ATOM      3  C   LIG d   1       6.394  -0.556  -5.032  0.00  0.00    -0.029 A 
ATOM      4  C   LIG d   1       6.356   0.307  -3.953  0.00  0.00     0.035 A 
ATOM      5  C   LIG d   1       5.683  -0.057  -2.788  0.00  0.00    -0.037 A 
ATOM      6  C   LIG d   1       5.052  -1.278  -2.692  0.00  0.00    -0.017 A 
ATOM      7  C   LIG d   1       5.082  -2.163  -3.764  0.00  0.00     0.136 A 
ATOM      8  O   LIG d   1       4.568  -3.395  -3.954  0.00  0.00    -0.451 OA
ATOM      9  C   LIG d   1       4.871  -3.857  -5.185  0.00  0.00     0.179 A 
ATOM     10  H   LIG d   1       6.911  -0.274  -5.937  0.00  0.00     0.064 H 
ATOM     11  H   LIG d   1       5.655   0.625  -1.950  0.00  0.00     0.064 H 
ATOM     12  H   LIG d   1       4.533  -1.547  -1.785  0.00  0.00     0.066 H 
ENDROOT
BRANCH   4  13
ATOM     13  N   LIG d   1       6.992   1.552  -4.032  0.00  0.00    -0.281 N 
ATOM     14  C   LIG d   1       8.328   1.617  -4.197  0.00  0.00     0.248 C 
ATOM     15  O   LIG d   1       8.993   0.599  -4.181  0.00  0.00    -0.270 OA
ATOM     16  H   LIG d   1       6.471   2.368  -3.967  0.00  0.00     0.155 HD
BRANCH  14  17
ATOM     17  C   LIG d   1       8.985   2.925  -4.394  0.00  0.00     0.037 A 
ATOM     18  C   LIG d   1       9.417   3.664  -3.291  0.00  0.00    -0.046 A 
ATOM     19  C   LIG d   1      10.029   4.884  -3.479  0.00  0.00    -0.019 A 
ATOM     20  H   LIG d   1       9.271   3.281  -2.292  0.00  0.00     0.063 H 
ATOM     21  C   LIG d   1      10.218   5.377  -4.764  0.00  0.00     0.120 A 
ATOM     22  H   LIG d   1      10.364   5.456  -2.626  0.00  0.00     0.065 H 
ATOM     23  C   LIG d   1       9.790   4.644  -5.864  0.00  0.00    -0.019 A 
ATOM     24  C   LIG d   1       9.182   3.423  -5.685  0.00  0.00    -0.046 A 
ATOM     25  H   LIG d   1       9.937   5.033  -6.862  0.00  0.00     0.065 H 
ATOM     26  H   LIG d   1       8.852   2.852  -6.541  0.00  0.00     0.063 H 
BRANCH  21  27
ATOM     27  O   LIG d   1      10.822   6.579  -4.945  0.00  0.00    -0.495 OA
BRANCH  27  28
ATOM     28  C   LIG d   1      10.030   7.745  -4.707  0.00  0.00     0.079 C 
ATOM     29  H   LIG d   1       9.470   7.993  -5.608  0.00  0.00     0.066 H 
ATOM     30  H   LIG d   1       9.337   7.552  -3.888  0.00  0.00     0.066 H 
ATOM     31  H   LIG d   1      10.680   8.578  -4.442  0.00  0.00     0.066 H 
ENDBRANCH  27  28
ENDBRANCH  21  27
ENDBRANCH  14  17
ENDBRANCH   4  13
BRANCH   1  32
ATOM     32  C   LIG d   1       6.149  -3.044  -7.257  0.00  0.00    -0.035 C 
ATOM     33  H   LIG d   1       6.578  -4.035  -7.400  0.00  0.00     0.028 H 
ATOM     34  H   LIG d   1       5.342  -2.888  -7.973  0.00  0.00     0.028 H 
ATOM     35  H   LIG d   1       6.920  -2.289  -7.410  0.00  0.00     0.028 H 
ENDBRANCH   1  32
BRANCH   9  36
ATOM     36  C   LIG d   1       4.468  -5.163  -5.721  0.00  0.00     0.228 C 
ATOM     37  O   LIG d   1       3.406  -5.282  -6.302  0.00  0.00    -0.283 OA
BRANCH  36  38
ATOM     38  C   LIG d   1       5.352  -6.334  -5.555  0.00  0.00     0.026 A 
ATOM     39  C   LIG d   1       6.738  -6.161  -5.485  0.00  0.00    -0.047 A 
ATOM     40  C   LIG d   1       7.559  -7.255  -5.329  0.00  0.00    -0.019 A 
ATOM     41  H   LIG d   1       7.163  -5.171  -5.553  0.00  0.00     0.063 H 
ATOM     42  C   LIG d   1       7.012  -8.530  -5.242  0.00  0.00     0.120 A 
ATOM     43  H   LIG d   1       8.630  -7.122  -5.276  0.00  0.00     0.065 H 
ATOM     44  C   LIG d   1       5.635  -8.706  -5.312  0.00  0.00    -0.019 A 
ATOM     45  C   LIG d   1       4.806  -7.617  -5.462  0.00  0.00    -0.047 A 
ATOM     46  H   LIG d   1       5.215  -9.699  -5.245  0.00  0.00     0.065 H 
ATOM     47  H   LIG d   1       3.736  -7.754  -5.512  0.00  0.00     0.063 H 
BRANCH  42  48
ATOM     48  O   LIG d   1       7.825  -9.606  -5.090  0.00  0.00    -0.495 OA
BRANCH  48  49
ATOM     49  C   LIG d   1       8.890  -9.487  -4.145  0.00  0.00     0.079 C 
ATOM     50  H   LIG d   1       9.842  -9.657  -4.648  0.00  0.00     0.066 H 
ATOM     51  H   LIG d   1       8.882  -8.486  -3.713  0.00  0.00     0.066 H 
ATOM     52  H   LIG d   1       8.760 -10.226  -3.355  0.00  0.00     0.066 H 
ENDBRANCH  48  49
ENDBRANCH  42  48
ENDBRANCH  36  38
ENDBRANCH   9  36
TORSDOF 9
ENDMDL
MODEL 6
REMARK VINA RESULT:      -5.9      1.640      2.614
REMARK  9 active torsions:
REMARK  status: ('A' for Active; 'I' for Inactive)
REMARK    1  A    between atoms: C_1  and  C_2 
REMARK    2  A    between atoms: C_5  and  N_21 
REMARK    3  A    between atoms: C_10  and  C_11 
REMARK    4  A    between atoms: C_11  and  C_13 
REMARK    5  A    between atoms: C_16  and  O_19 
REMARK    6  A    between atoms: O_19  and  C_20 
REMARK       I    between atoms: N_21  and  C_22 
REMARK    7  A    between atoms: C_22  and  C_24 
REMARK    8  A    between atoms: C_27  and  O_30 
REMARK    9  A    between atoms: O_30  and  C_31 
ROOT
ATOM      1  C   LIG d   1       8.352   1.909  -4.964  0.00  0.00     0.006 A 
ATOM      2  C   LIG d   1       8.004   1.694  -6.367  0.00  0.00     0.025 A 
ATOM      3  C   LIG d   1       6.968   1.019  -7.020  0.00  0.00    -0.029 A 
ATOM      4  C   LIG d   1       6.929   1.004  -8.401  0.00  0.00     0.035 A 
ATOM      5  C   LIG d   1       7.911   1.667  -9.137  0.00  0.00    -0.037 A 
ATOM      6  C   LIG d   1       8.932   2.339  -8.502  0.00  0.00    -0.017 A 
ATOM      7  C   LIG d   1       8.992   2.362  -7.113  0.00  0.00     0.136 A 
ATOM      8  O   LIG d   1       9.853   2.924  -6.240  0.00  0.00    -0.451 OA
ATOM      9  C   LIG d   1       9.484   2.662  -4.969  0.00  0.00     0.179 A 
ATOM     10  H   LIG d   1       6.206   0.510  -6.448  0.00  0.00     0.064 H 
ATOM     11  H   LIG d   1       7.871   1.654 -10.216  0.00  0.00     0.064 H 
ATOM     12  H   LIG d   1       9.685   2.849  -9.084  0.00  0.00     0.066 H 
ENDROOT
BRANCH   4  13
ATOM     13  N   LIG d   1       5.899   0.326  -9.063  0.00  0.00    -0.281 N 
ATOM     14  C   LIG d   1       4.691   0.908  -9.206  0.00  0.00     0.248 C 
ATOM     15  O   LIG d   1       4.467   1.979  -8.677  0.00  0.00    -0.270 OA
ATOM     16  H   LIG d   1       6.054  -0.563  -9.419  0.00  0.00     0.155 HD
BRANCH  14  17
ATOM     17  C   LIG d   1       3.640   0.242 -10.000  0.00  0.00     0.037 A 
ATOM     18  C   LIG d   1       3.871  -0.077 -11.340  0.00  0.00    -0.046 A 
ATOM     19  C   LIG d   1       2.889  -0.698 -12.078  0.00  0.00    -0.019 A 
ATOM     20  H   LIG d   1       4.820   0.163 -11.797  0.00  0.00     0.063 H 
ATOM     21  C   LIG d   1       1.668  -1.008 -11.490  0.00  0.00     0.120 A 
ATOM     22  H   LIG d   1       3.067  -0.945 -13.115  0.00  0.00     0.065 H 
ATOM     23  C   LIG d   1       1.434  -0.692 -10.157  0.00  0.00    -0.019 A 
ATOM     24  C   LIG d   1       2.413  -0.076  -9.412  0.00  0.00    -0.046 A 
ATOM     25  H   LIG d   1       0.482  -0.934  -9.705  0.00  0.00     0.065 H 
ATOM     26  H   LIG d   1       2.231   0.166  -8.375  0.00  0.00     0.063 H 
BRANCH  21  27
ATOM     27  O   LIG d   1       0.701  -1.620 -12.221  0.00  0.00    -0.495 OA
BRANCH  27  28
ATOM     28  C   LIG d   1       0.463  -3.003 -11.952  0.00  0.00     0.079 C 
ATOM     29  H   LIG d   1      -0.457  -3.315 -12.445  0.00  0.00     0.066 H 
ATOM     30  H   LIG d   1       1.297  -3.595 -12.327  0.00  0.00     0.066 H 
ATOM     31  H   LIG d   1       0.367  -3.152 -10.876  0.00  0.00     0.066 H 
ENDBRANCH  27  28
ENDBRANCH  21  27
ENDBRANCH  14  17
ENDBRANCH   4  13
BRANCH   1  32
ATOM     32  C   LIG d   1       7.608   1.398  -3.757  0.00  0.00    -0.035 C 
ATOM     33  H   LIG d   1       6.588   1.139  -4.041  0.00  0.00     0.028 H 
ATOM     34  H   LIG d   1       8.113   0.514  -3.366  0.00  0.00     0.028 H 
ATOM     35  H   LIG d   1       7.586   2.172  -2.990  0.00  0.00     0.028 H 
ENDBRANCH   1  32
BRANCH   9  36
ATOM     36  C   LIG d   1      10.197   3.123  -3.770  0.00  0.00     0.228 C 
ATOM     37  O   LIG d   1      10.889   2.348  -3.137  0.00  0.00    -0.283 OA
BRANCH  36  38
ATOM     38  C   LIG d   1      10.074   4.528  -3.333  0.00  0.00     0.026 A 
ATOM     39  C   LIG d   1       9.635   5.506  -4.230  0.00  0.00    -0.047 A 
ATOM     40  C   LIG d   1       9.521   6.814  -3.819  0.00  0.00    -0.019 A 
ATOM     41  H   LIG d   1       9.384   5.234  -5.245  0.00  0.00     0.063 H 
ATOM     42  C   LIG d   1       9.844   7.164  -2.512  0.00  0.00     0.120 A 
ATOM     43  H   LIG d   1       9.182   7.570  -4.511  0.00  0.00     0.065 H 
ATOM     44  C   LIG d   1      10.282   6.195  -1.617  0.00  0.00    -0.019 A 
ATOM     45  C   LIG d   1      10.393   4.883  -2.018  0.00  0.00    -0.047 A 
ATOM     46  H   LIG d   1      10.532   6.472  -0.603  0.00  0.00     0.065 H 
ATOM     47  H   LIG d   1      10.730   4.130  -1.322  0.00  0.00     0.063 H 
BRANCH  42  48
ATOM     48  O   LIG d   1       9.731   8.455  -2.110  0.00  0.00    -0.495 OA
BRANCH  48  49
ATOM     49  C   LIG d   1       9.050   8.695  -0.877  0.00  0.00     0.079 C 
ATOM     50  H   LIG d   1       9.606   9.427  -0.291  0.00  0.00     0.066 H 
ATOM     51  H   LIG d   1       8.051   9.079  -1.083  0.00  0.00     0.066 H 
ATOM     52  H   LIG d   1       8.974   7.764  -0.316  0.00  0.00     0.066 H 
ENDBRANCH  48  49
ENDBRANCH  42  48
ENDBRANCH  36  38
ENDBRANCH   9  36
TORSDOF 9
ENDMDL
MODEL 7
REMARK VINA RESULT:      -5.9      3.275     10.863
REMARK  9 active torsions:
REMARK  status: ('A' for Active; 'I' for Inactive)
REMARK    1  A    between atoms: C_1  and  C_2 
REMARK    2  A    between atoms: C_5  and  N_21 
REMARK    3  A    between atoms: C_10  and  C_11 
REMARK    4  A    between atoms: C_11  and  C_13 
REMARK    5  A    between atoms: C_16  and  O_19 
REMARK    6  A    between atoms: O_19  and  C_20 
REMARK       I    between atoms: N_21  and  C_22 
REMARK    7  A    between atoms: C_22  and  C_24 
REMARK    8  A    between atoms: C_27  and  O_30 
REMARK    9  A    between atoms: O_30  and  C_31 
ROOT
ATOM      1  C   LIG d   1       6.260  -3.940  -5.447  0.00  0.00     0.006 A 
ATOM      2  C   LIG d   1       6.308  -2.696  -4.683  0.00  0.00     0.025 A 
ATOM      3  C   LIG d   1       7.266  -1.690  -4.520  0.00  0.00    -0.029 A 
ATOM      4  C   LIG d   1       6.990  -0.613  -3.699  0.00  0.00     0.035 A 
ATOM      5  C   LIG d   1       5.760  -0.527  -3.046  0.00  0.00    -0.037 A 
ATOM      6  C   LIG d   1       4.809  -1.510  -3.206  0.00  0.00    -0.017 A 
ATOM      7  C   LIG d   1       5.068  -2.604  -4.023  0.00  0.00     0.136 A 
ATOM      8  O   LIG d   1       4.345  -3.692  -4.360  0.00  0.00    -0.451 OA
ATOM      9  C   LIG d   1       5.040  -4.487  -5.200  0.00  0.00     0.179 A 
ATOM     10  H   LIG d   1       8.215  -1.757  -5.029  0.00  0.00     0.064 H 
ATOM     11  H   LIG d   1       5.551   0.320  -2.409  0.00  0.00     0.064 H 
ATOM     12  H   LIG d   1       3.860  -1.430  -2.696  0.00  0.00     0.066 H 
ENDROOT
BRANCH   4  13
ATOM     13  N   LIG d   1       7.945   0.395  -3.525  0.00  0.00    -0.281 N 
ATOM     14  C   LIG d   1       7.997   1.430  -4.386  0.00  0.00     0.248 C 
ATOM     15  O   LIG d   1       7.279   1.441  -5.368  0.00  0.00    -0.270 OA
ATOM     16  H   LIG d   1       8.571   0.348  -2.785  0.00  0.00     0.155 HD
BRANCH  14  17
ATOM     17  C   LIG d   1       8.927   2.550  -4.140  0.00  0.00     0.037 A 
ATOM     18  C   LIG d   1       9.911   2.439  -3.156  0.00  0.00    -0.046 A 
ATOM     19  C   LIG d   1      10.778   3.486  -2.929  0.00  0.00    -0.019 A 
ATOM     20  H   LIG d   1       9.993   1.534  -2.572  0.00  0.00     0.063 H 
ATOM     21  C   LIG d   1      10.673   4.651  -3.680  0.00  0.00     0.120 A 
ATOM     22  H   LIG d   1      11.539   3.401  -2.167  0.00  0.00     0.065 H 
ATOM     23  C   LIG d   1       9.695   4.764  -4.661  0.00  0.00    -0.019 A 
ATOM     24  C   LIG d   1       8.829   3.721  -4.897  0.00  0.00    -0.046 A 
ATOM     25  H   LIG d   1       9.617   5.673  -5.241  0.00  0.00     0.065 H 
ATOM     26  H   LIG d   1       8.072   3.809  -5.661  0.00  0.00     0.063 H 
BRANCH  21  27
ATOM     27  O   LIG d   1      11.529   5.680  -3.454  0.00  0.00    -0.495 OA
BRANCH  27  28
ATOM     28  C   LIG d   1      10.967   6.888  -2.937  0.00  0.00     0.079 C 
ATOM     29  H   LIG d   1      10.027   7.098  -3.445  0.00  0.00     0.066 H 
ATOM     30  H   LIG d   1      10.786   6.776  -1.868  0.00  0.00     0.066 H 
ATOM     31  H   LIG d   1      11.661   7.711  -3.102  0.00  0.00     0.066 H 
ENDBRANCH  27  28
ENDBRANCH  21  27
ENDBRANCH  14  17
ENDBRANCH   4  13
BRANCH   1  32
ATOM     32  C   LIG d   1       7.344  -4.504  -6.329  0.00  0.00    -0.035 C 
ATOM     33  H   LIG d   1       6.952  -5.352  -6.891  0.00  0.00     0.028 H 
ATOM     34  H   LIG d   1       7.685  -3.735  -7.022  0.00  0.00     0.028 H 
ATOM     35  H   LIG d   1       8.180  -4.833  -5.712  0.00  0.00     0.028 H 
ENDBRANCH   1  32
BRANCH   9  36
ATOM     36  C   LIG d   1       4.552  -5.753  -5.763  0.00  0.00     0.228 C 
ATOM     37  O   LIG d   1       4.498  -6.749  -5.067  0.00  0.00    -0.283 OA
BRANCH  36  38
ATOM     38  C   LIG d   1       4.125  -5.816  -7.175  0.00  0.00     0.026 A 
ATOM     39  C   LIG d   1       4.199  -7.023  -7.877  0.00  0.00    -0.047 A 
ATOM     40  C   LIG d   1       3.800  -7.078  -9.193  0.00  0.00    -0.019 A 
ATOM     41  H   LIG d   1       4.569  -7.911  -7.386  0.00  0.00     0.063 H 
ATOM     42  C   LIG d   1       3.323  -5.934  -9.825  0.00  0.00     0.120 A 
ATOM     43  H   LIG d   1       3.857  -8.009  -9.736  0.00  0.00     0.065 H 
ATOM     44  C   LIG d   1       3.248  -4.732  -9.131  0.00  0.00    -0.019 A 
ATOM     45  C   LIG d   1       3.641  -4.669  -7.812  0.00  0.00    -0.047 A 
ATOM     46  H   LIG d   1       2.879  -3.846  -9.626  0.00  0.00     0.065 H 
ATOM     47  H   LIG d   1       3.579  -3.736  -7.273  0.00  0.00     0.063 H 
BRANCH  42  48
ATOM     48  O   LIG d   1       2.931  -5.991 -11.122  0.00  0.00    -0.495 OA
BRANCH  48  49
ATOM     49  C   LIG d   1       2.358  -4.808 -11.681  0.00  0.00     0.079 C 
ATOM     50  H   LIG d   1       2.612  -3.951 -11.055  0.00  0.00     0.066 H 
ATOM     51  H   LIG d   1       2.753  -4.652 -12.685  0.00  0.00     0.066 H 
ATOM     52  H   LIG d   1       1.275  -4.914 -11.728  0.00  0.00     0.066 H 
ENDBRANCH  48  49
ENDBRANCH  42  48
ENDBRANCH  36  38
ENDBRANCH   9  36
TORSDOF 9
ENDMDL
MODEL 8
REMARK VINA RESULT:      -5.8      3.870      4.722
REMARK  9 active torsions:
REMARK  status: ('A' for Active; 'I' for Inactive)
REMARK    1  A    between atoms: C_1  and  C_2 
REMARK    2  A    between atoms: C_5  and  N_21 
REMARK    3  A    between atoms: C_10  and  C_11 
REMARK    4  A    between atoms: C_11  and  C_13 
REMARK    5  A    between atoms: C_16  and  O_19 
REMARK    6  A    between atoms: O_19  and  C_20 
REMARK       I    between atoms: N_21  and  C_22 
REMARK    7  A    between atoms: C_22  and  C_24 
REMARK    8  A    between atoms: C_27  and  O_30 
REMARK    9  A    between atoms: O_30  and  C_31 
ROOT
ATOM      1  C   LIG d   1       9.060   1.434  -4.837  0.00  0.00     0.006 A 
ATOM      2  C   LIG d   1       8.069   0.450  -4.407  0.00  0.00     0.025 A 
ATOM      3  C   LIG d   1       7.955  -0.938  -4.539  0.00  0.00    -0.029 A 
ATOM      4  C   LIG d   1       6.858  -1.585  -4.003  0.00  0.00     0.035 A 
ATOM      5  C   LIG d   1       5.878  -0.860  -3.327  0.00  0.00    -0.037 A 
ATOM      6  C   LIG d   1       5.985   0.506  -3.187  0.00  0.00    -0.017 A 
ATOM      7  C   LIG d   1       7.078   1.178  -3.723  0.00  0.00     0.136 A 
ATOM      8  O   LIG d   1       7.440   2.477  -3.742  0.00  0.00    -0.451 OA
ATOM      9  C   LIG d   1       8.609   2.639  -4.397  0.00  0.00     0.179 A 
ATOM     10  H   LIG d   1       8.717  -1.498  -5.060  0.00  0.00     0.064 H 
ATOM     11  H   LIG d   1       5.025  -1.374  -2.908  0.00  0.00     0.064 H 
ATOM     12  H   LIG d   1       5.219   1.056  -2.660  0.00  0.00     0.066 H 
ENDROOT
BRANCH   4  13
ATOM     13  N   LIG d   1       6.733  -2.973  -4.136  0.00  0.00    -0.281 N 
ATOM     14  C   LIG d   1       6.104  -3.494  -5.209  0.00  0.00     0.248 C 
ATOM     15  O   LIG d   1       5.561  -2.758  -6.011  0.00  0.00    -0.270 OA
ATOM     16  H   LIG d   1       7.098  -3.560  -3.456  0.00  0.00     0.155 HD
BRANCH  14  17
ATOM     17  C   LIG d   1       6.070  -4.956  -5.407  0.00  0.00     0.037 A 
ATOM     18  C   LIG d   1       4.848  -5.614  -5.561  0.00  0.00    -0.046 A 
ATOM     19  C   LIG d   1       4.820  -6.978  -5.746  0.00  0.00    -0.019 A 
ATOM     20  H   LIG d   1       3.925  -5.053  -5.534  0.00  0.00     0.063 H 
ATOM     21  C   LIG d   1       6.008  -7.700  -5.781  0.00  0.00     0.120 A 
ATOM     22  H   LIG d   1       3.875  -7.488  -5.864  0.00  0.00     0.065 H 
ATOM     23  C   LIG d   1       7.226  -7.049  -5.628  0.00  0.00    -0.019 A 
ATOM     24  C   LIG d   1       7.262  -5.685  -5.448  0.00  0.00    -0.046 A 
ATOM     25  H   LIG d   1       8.146  -7.615  -5.654  0.00  0.00     0.065 H 
ATOM     26  H   LIG d   1       8.209  -5.179  -5.333  0.00  0.00     0.063 H 
BRANCH  21  27
ATOM     27  O   LIG d   1       5.977  -9.045  -5.963  0.00  0.00    -0.495 OA
BRANCH  27  28
ATOM     28  C   LIG d   1       4.759  -9.716  -5.632  0.00  0.00     0.079 C 
ATOM     29  H   LIG d   1       4.280  -9.207  -4.797  0.00  0.00     0.066 H 
ATOM     30  H   LIG d   1       4.093  -9.706  -6.495  0.00  0.00     0.066 H 
ATOM     31  H   LIG d   1       4.976 -10.747  -5.354  0.00  0.00     0.066 H 
ENDBRANCH  27  28
ENDBRANCH  21  27
ENDBRANCH  14  17
ENDBRANCH   4  13
BRANCH   1  32
ATOM     32  C   LIG d   1      10.325   1.168  -5.612  0.00  0.00    -0.035 C 
ATOM     33  H   LIG d   1      10.162   0.339  -6.300  0.00  0.00     0.028 H 
ATOM     34  H   LIG d   1      10.601   2.060  -6.173  0.00  0.00     0.028 H 
ATOM     35  H   LIG d   1      11.128   0.912  -4.919  0.00  0.00     0.028 H 
ENDBRANCH   1  32
BRANCH   9  36
ATOM     36  C   LIG d   1       9.291   3.923  -4.603  0.00  0.00     0.228 C 
ATOM     37  O   LIG d   1       9.447   4.356  -5.729  0.00  0.00    -0.283 OA
BRANCH  36  38
ATOM     38  C   LIG d   1       9.788   4.689  -3.442  0.00  0.00     0.026 A 
ATOM     39  C   LIG d   1       9.435   6.033  -3.286  0.00  0.00    -0.047 A 
ATOM     40  C   LIG d   1       9.900   6.743  -2.203  0.00  0.00    -0.019 A 
ATOM     41  H   LIG d   1       8.798   6.512  -4.015  0.00  0.00     0.063 H 
ATOM     42  C   LIG d   1      10.720   6.126  -1.265  0.00  0.00     0.120 A 
ATOM     43  H   LIG d   1       9.628   7.782  -2.081  0.00  0.00     0.065 H 
ATOM     44  C   LIG d   1      11.074   4.790  -1.416  0.00  0.00    -0.019 A 
ATOM     45  C   LIG d   1      10.609   4.070  -2.494  0.00  0.00    -0.047 A 
ATOM     46  H   LIG d   1      11.712   4.315  -0.685  0.00  0.00     0.065 H 
ATOM     47  H   LIG d   1      10.881   3.032  -2.610  0.00  0.00     0.063 H 
BRANCH  42  48
ATOM     48  O   LIG d   1      11.177   6.830  -0.198  0.00  0.00    -0.495 OA
BRANCH  48  49
ATOM     49  C   LIG d   1      11.115   6.190   1.078  0.00  0.00     0.079 C 
ATOM     50  H   LIG d   1      11.869   5.404   1.127  0.00  0.00     0.066 H 
ATOM     51  H   LIG d   1      11.304   6.923   1.862  0.00  0.00     0.066 H 
ATOM     52  H   LIG d   1      10.127   5.752   1.218  0.00  0.00     0.066 H 
ENDBRANCH  48  49
ENDBRANCH  42  48
ENDBRANCH  36  38
ENDBRANCH   9  36
TORSDOF 9
ENDMDL
MODEL 9
REMARK VINA RESULT:      -5.7      6.761      8.269
REMARK  9 active torsions:
REMARK  status: ('A' for Active; 'I' for Inactive)
REMARK    1  A    between atoms: C_1  and  C_2 
REMARK    2  A    between atoms: C_5  and  N_21 
REMARK    3  A    between atoms: C_10  and  C_11 
REMARK    4  A    between atoms: C_11  and  C_13 
REMARK    5  A    between atoms: C_16  and  O_19 
REMARK    6  A    between atoms: O_19  and  C_20 
REMARK       I    between atoms: N_21  and  C_22 
REMARK    7  A    between atoms: C_22  and  C_24 
REMARK    8  A    between atoms: C_27  and  O_30 
REMARK    9  A    between atoms: O_30  and  C_31 
ROOT
ATOM      1  C   LIG d   1      10.183   4.955  -5.535  0.00  0.00     0.006 A 
ATOM      2  C   LIG d   1       9.952   5.969  -6.562  0.00  0.00     0.025 A 
ATOM      3  C   LIG d   1      10.156   6.016  -7.944  0.00  0.00    -0.029 A 
ATOM      4  C   LIG d   1       9.824   7.162  -8.642  0.00  0.00     0.035 A 
ATOM      5  C   LIG d   1       9.279   8.257  -7.973  0.00  0.00    -0.037 A 
ATOM      6  C   LIG d   1       9.068   8.216  -6.612  0.00  0.00    -0.017 A 
ATOM      7  C   LIG d   1       9.401   7.075  -5.890  0.00  0.00     0.136 A 
ATOM      8  O   LIG d   1       9.310   6.756  -4.583  0.00  0.00    -0.451 OA
ATOM      9  C   LIG d   1       9.770   5.507  -4.362  0.00  0.00     0.179 A 
ATOM     10  H   LIG d   1      10.575   5.166  -8.461  0.00  0.00     0.064 H 
ATOM     11  H   LIG d   1       9.017   9.147  -8.527  0.00  0.00     0.064 H 
ATOM     12  H   LIG d   1       8.644   9.071  -6.107  0.00  0.00     0.066 H 
ENDROOT
BRANCH   4  13
ATOM     13  N   LIG d   1      10.031   7.221 -10.026  0.00  0.00    -0.281 N 
ATOM     14  C   LIG d   1       9.181   6.592 -10.862  0.00  0.00     0.248 C 
ATOM     15  O   LIG d   1       8.292   5.894 -10.413  0.00  0.00    -0.270 OA
ATOM     16  H   LIG d   1      10.787   7.714 -10.382  0.00  0.00     0.155 HD
BRANCH  14  17
ATOM     17  C   LIG d   1       9.333   6.747 -12.322  0.00  0.00     0.037 A 
ATOM     18  C   LIG d   1       9.085   5.665 -13.171  0.00  0.00    -0.046 A 
ATOM     19  C   LIG d   1       9.227   5.814 -14.532  0.00  0.00    -0.019 A 
ATOM     20  H   LIG d   1       8.783   4.713 -12.759  0.00  0.00     0.063 H 
ATOM     21  C   LIG d   1       9.616   7.039 -15.062  0.00  0.00     0.120 A 
ATOM     22  H   LIG d   1       9.036   4.978 -15.189  0.00  0.00     0.065 H 
ATOM     23  C   LIG d   1       9.863   8.117 -14.221  0.00  0.00    -0.019 A 
ATOM     24  C   LIG d   1       9.718   7.978 -12.860  0.00  0.00    -0.046 A 
ATOM     25  H   LIG d   1      10.166   9.067 -14.638  0.00  0.00     0.065 H 
ATOM     26  H   LIG d   1       9.907   8.818 -12.207  0.00  0.00     0.063 H 
BRANCH  21  27
ATOM     27  O   LIG d   1       9.755   7.181 -16.405  0.00  0.00    -0.495 OA
BRANCH  27  28
ATOM     28  C   LIG d   1      10.625   8.219 -16.860  0.00  0.00     0.079 C 
ATOM     29  H   LIG d   1      10.364   8.490 -17.882  0.00  0.00     0.066 H 
ATOM     30  H   LIG d   1      10.520   9.090 -16.213  0.00  0.00     0.066 H 
ATOM     31  H   LIG d   1      11.656   7.868 -16.830  0.00  0.00     0.066 H 
ENDBRANCH  27  28
ENDBRANCH  21  27
ENDBRANCH  14  17
ENDBRANCH   4  13
BRANCH   1  32
ATOM     32  C   LIG d   1      10.763   3.578  -5.733  0.00  0.00    -0.035 C 
ATOM     33  H   LIG d   1      10.408   2.917  -4.943  0.00  0.00     0.028 H 
ATOM     34  H   LIG d   1      10.450   3.189  -6.702  0.00  0.00     0.028 H 
ATOM     35  H   LIG d   1      11.851   3.634  -5.699  0.00  0.00     0.028 H 
ENDBRANCH   1  32
BRANCH   9  36
ATOM     36  C   LIG d   1       9.815   4.842  -3.053  0.00  0.00     0.228 C 
ATOM     37  O   LIG d   1       9.418   3.698  -2.937  0.00  0.00    -0.283 OA
BRANCH  36  38
ATOM     38  C   LIG d   1      10.344   5.562  -1.878  0.00  0.00     0.026 A 
ATOM     39  C   LIG d   1       9.772   6.776  -1.483  0.00  0.00    -0.047 A 
ATOM     40  C   LIG d   1      10.268   7.444  -0.387  0.00  0.00    -0.019 A 
ATOM     41  H   LIG d   1       8.942   7.187  -2.038  0.00  0.00     0.063 H 
ATOM     42  C   LIG d   1      11.337   6.914   0.328  0.00  0.00     0.120 A 
ATOM     43  H   LIG d   1       9.826   8.381  -0.081  0.00  0.00     0.065 H 
ATOM     44  C   LIG d   1      11.909   5.708  -0.062  0.00  0.00    -0.019 A 
ATOM     45  C   LIG d   1      11.416   5.031  -1.154  0.00  0.00    -0.047 A 
ATOM     46  H   LIG d   1      12.740   5.301   0.496  0.00  0.00     0.065 H 
ATOM     47  H   LIG d   1      11.858   4.093  -1.454  0.00  0.00     0.063 H 
BRANCH  42  48
ATOM     48  O   LIG d   1      11.823   7.576   1.408  0.00  0.00    -0.495 OA
BRANCH  48  49
ATOM     49  C   LIG d   1      11.771   9.003   1.373  0.00  0.00     0.079 C 
ATOM     50  H   LIG d   1      10.965   9.353   2.018  0.00  0.00     0.066 H 
ATOM     51  H   LIG d   1      12.719   9.410   1.725  0.00  0.00     0.066 H 
ATOM     52  H   LIG d   1      11.589   9.337   0.351  0.00  0.00     0.066 H 
ENDBRANCH  48  49
ENDBRANCH  42  48
ENDBRANCH  36  38
ENDBRANCH   9  36
TORSDOF 9
ENDMDL
