MODEL 1
REMARK VINA RESULT:      -5.9      0.000      0.000
REMARK  15 active torsions:
REMARK  status: ('A' for Active; 'I' for Inactive)
REMARK    1  A    between atoms: C_1  and  C_2 
REMARK    2  A    between atoms: C_2  and  C_9 
REMARK    3  A    between atoms: C_3  and  C_4 
REMARK    4  A    between atoms: C_4  and  O_5 
REMARK    5  A    between atoms: O_5  and  C_6 
REMARK    6  A    between atoms: C_6  and  C_8 
REMARK    7  A    between atoms: C_9  and  O_11 
REMARK    8  A    between atoms: O_11  and  C_12 
REMARK    9  A    between atoms: C_15  and  C_36 
REMARK   10  A    between atoms: C_16  and  O_35 
REMARK   11  A    between atoms: C_24  and  O_34 
REMARK   12  A    between atoms: C_26  and  C_28 
REMARK   13  A    between atoms: C_28  and  C_30 
REMARK   14  A    between atoms: C_30  and  O_32 
REMARK   15  A    between atoms: O_32  and  C_33 
ROOT
ATOM      1  C   LIG d   1       5.393  -3.062  -4.759  0.00  0.00     0.113 C 
ATOM      2  H   LIG d   1       5.387  -2.569  -5.730  0.00  0.00     0.074 H 
ATOM      3  C   LIG d   1       4.214  -2.554  -3.923  0.00  0.00    -0.006 C 
ATOM      4  C   LIG d   1       4.359  -1.046  -3.725  0.00  0.00     0.009 C 
ATOM      5  C   LIG d   1       3.186  -0.489  -2.921  0.00  0.00     0.062 C 
ATOM      6  H   LIG d   1       3.200  -0.913  -1.917  0.00  0.00     0.060 H 
ATOM      7  C   LIG d   1       3.306   1.035  -2.834  0.00  0.00    -0.020 C 
ATOM      8  C   LIG d   1       4.584   1.414  -2.081  0.00  0.00     0.009 C 
ATOM      9  C   LIG d   1       5.762   0.726  -2.738  0.00  0.00     0.140 C 
ATOM     10  O   LIG d   1       6.746   1.347  -3.062  0.00  0.00    -0.297 OA
ATOM     11  C   LIG d   1       5.666  -0.763  -2.975  0.00  0.00     0.052 C 
ATOM     12  H   LIG d   1       5.658  -1.285  -2.018  0.00  0.00     0.041 H 
ATOM     13  C   LIG d   1       6.841  -1.246  -3.822  0.00  0.00     0.076 C 
ATOM     14  H   LIG d   1       7.776  -1.034  -3.303  0.00  0.00     0.061 H 
ATOM     15  C   LIG d   1       6.708  -2.756  -4.042  0.00  0.00     0.054 C 
ATOM     16  H   LIG d   1       6.723  -3.266  -3.078  0.00  0.00     0.041 H 
ATOM     17  H   LIG d   1       3.280  -2.766  -4.442  0.00  0.00     0.031 H 
ATOM     18  H   LIG d   1       4.215  -3.050  -2.952  0.00  0.00     0.031 H 
ATOM     19  H   LIG d   1       3.341   1.453  -3.841  0.00  0.00     0.029 H 
ATOM     20  H   LIG d   1       2.441   1.436  -2.306  0.00  0.00     0.029 H 
ATOM     21  H   LIG d   1       4.723   2.495  -2.119  0.00  0.00     0.034 H 
ATOM     22  H   LIG d   1       4.504   1.090  -1.043  0.00  0.00     0.034 H 
ENDROOT
BRANCH   1  23
ATOM     23  O   LIG d   1       5.270  -4.474  -4.942  0.00  0.00    -0.457 OA
BRANCH  23  24
ATOM     24  C   LIG d   1       4.676  -4.895  -6.076  0.00  0.00     0.335 C 
ATOM     25  O   LIG d   1       3.543  -5.334  -6.042  0.00  0.00    -0.245 OA
BRANCH  24  26
ATOM     26  C   LIG d   1       5.397  -4.823  -7.354  0.00  0.00     0.033 C 
ATOM     27  C   LIG d   1       5.108  -3.861  -8.228  0.00  0.00    -0.037 C 
ATOM     28  H   LIG d   1       5.690  -3.758  -9.131  0.00  0.00     0.061 H 
BRANCH  26  29
ATOM     29  C   LIG d   1       6.465  -5.836  -7.676  0.00  0.00    -0.033 C 
ATOM     30  H   LIG d   1       6.000  -6.793  -7.911  0.00  0.00     0.028 H 
ATOM     31  H   LIG d   1       7.044  -5.493  -8.534  0.00  0.00     0.028 H 
ATOM     32  H   LIG d   1       7.125  -5.954  -6.817  0.00  0.00     0.028 H 
ENDBRANCH  26  29
BRANCH  27  33
ATOM     33  C   LIG d   1       3.965  -2.916  -7.956  0.00  0.00     0.111 C 
ATOM     34  H   LIG d   1       3.092  -3.485  -7.633  0.00  0.00     0.074 H 
ATOM     35  H   LIG d   1       4.252  -2.215  -7.173  0.00  0.00     0.074 H 
BRANCH  33  36
ATOM     36  O   LIG d   1       3.649  -2.197  -9.149  0.00  0.00    -0.461 OA
BRANCH  36  37
ATOM     37  C   LIG d   1       2.515  -1.478  -9.146  0.00  0.00     0.304 C 
ATOM     38  O   LIG d   1       1.571  -1.835  -9.812  0.00  0.00    -0.251 OA
BRANCH  37  39
ATOM     39  C   LIG d   1       2.418  -0.227  -8.312  0.00  0.00     0.033 C 
ATOM     40  H   LIG d   1       3.341  -0.095  -7.747  0.00  0.00     0.034 H 
ATOM     41  H   LIG d   1       2.266   0.633  -8.964  0.00  0.00     0.034 H 
ATOM     42  H   LIG d   1       1.579  -0.315  -7.622  0.00  0.00     0.034 H 
ENDBRANCH  37  39
ENDBRANCH  36  37
ENDBRANCH  33  36
ENDBRANCH  27  33
ENDBRANCH  24  26
ENDBRANCH  23  24
ENDBRANCH   1  23
BRANCH  15  43
ATOM     43  C   LIG d   1       7.862  -3.242  -4.881  0.00  0.00     0.039 C 
ATOM     44  C   LIG d   1       8.074  -2.717  -6.086  0.00  0.00    -0.088 C 
ATOM     45  H   LIG d   1       8.901  -3.065  -6.689  0.00  0.00     0.054 H 
ATOM     46  H   LIG d   1       7.420  -1.944  -6.462  0.00  0.00     0.054 H 
BRANCH  43  47
ATOM     47  C   LIG d   1       8.751  -4.293  -4.371  0.00  0.00     0.335 C 
ATOM     48  O   LIG d   1       8.494  -5.462  -4.581  0.00  0.00    -0.245 OA
BRANCH  47  49
ATOM     49  O   LIG d   1       9.854  -3.961  -3.668  0.00  0.00    -0.465 OA
BRANCH  49  50
ATOM     50  C   LIG d   1       9.917  -4.404  -2.312  0.00  0.00     0.082 C 
ATOM     51  H   LIG d   1      10.869  -4.905  -2.137  0.00  0.00     0.066 H 
ATOM     52  H   LIG d   1       9.831  -3.546  -1.645  0.00  0.00     0.066 H 
ATOM     53  H   LIG d   1       9.100  -5.099  -2.118  0.00  0.00     0.066 H 
ENDBRANCH  49  50
ENDBRANCH  47  49
ENDBRANCH  43  47
ENDBRANCH  15  43
BRANCH  13  54
ATOM     54  O   LIG d   1       6.831  -0.573  -5.084  0.00  0.00    -0.390 OA
ATOM     55  H   LIG d   1       6.033  -0.048  -5.242  0.00  0.00     0.210 HD
ENDBRANCH  13  54
BRANCH   4  56
ATOM     56  C   LIG d   1       4.399  -0.358  -5.090  0.00  0.00    -0.056 C 
ATOM     57  H   LIG d   1       5.013  -0.942  -5.775  0.00  0.00     0.024 H 
ATOM     58  H   LIG d   1       3.387  -0.280  -5.488  0.00  0.00     0.024 H 
ATOM     59  H   LIG d   1       4.824   0.640  -4.982  0.00  0.00     0.024 H 
ENDBRANCH   4  56
BRANCH   5  60
ATOM     60  O   LIG d   1       1.960  -0.835  -3.567  0.00  0.00    -0.391 OA
ATOM     61  H   LIG d   1       1.588  -1.681  -3.280  0.00  0.00     0.210 HD
ENDBRANCH   5  60
TORSDOF 15
ENDMDL
MODEL 2
REMARK VINA RESULT:      -5.9      1.864      3.314
REMARK  15 active torsions:
REMARK  status: ('A' for Active; 'I' for Inactive)
REMARK    1  A    between atoms: C_1  and  C_2 
REMARK    2  A    between atoms: C_2  and  C_9 
REMARK    3  A    between atoms: C_3  and  C_4 
REMARK    4  A    between atoms: C_4  and  O_5 
REMARK    5  A    between atoms: O_5  and  C_6 
REMARK    6  A    between atoms: C_6  and  C_8 
REMARK    7  A    between atoms: C_9  and  O_11 
REMARK    8  A    between atoms: O_11  and  C_12 
REMARK    9  A    between atoms: C_15  and  C_36 
REMARK   10  A    between atoms: C_16  and  O_35 
REMARK   11  A    between atoms: C_24  and  O_34 
REMARK   12  A    between atoms: C_26  and  C_28 
REMARK   13  A    between atoms: C_28  and  C_30 
REMARK   14  A    between atoms: C_30  and  O_32 
REMARK   15  A    between atoms: O_32  and  C_33 
ROOT
ATOM      1  C   LIG d   1       5.735  -3.116  -4.766  0.00  0.00     0.113 C 
ATOM      2  H   LIG d   1       5.666  -2.626  -5.737  0.00  0.00     0.074 H 
ATOM      3  C   LIG d   1       4.528  -2.722  -3.910  0.00  0.00    -0.006 C 
ATOM      4  C   LIG d   1       4.533  -1.207  -3.711  0.00  0.00     0.009 C 
ATOM      5  C   LIG d   1       3.326  -0.764  -2.888  0.00  0.00     0.062 C 
ATOM      6  H   LIG d   1       3.397  -1.185  -1.885  0.00  0.00     0.060 H 
ATOM      7  C   LIG d   1       3.301   0.764  -2.800  0.00  0.00    -0.020 C 
ATOM      8  C   LIG d   1       4.550   1.263  -2.068  0.00  0.00     0.009 C 
ATOM      9  C   LIG d   1       5.777   0.690  -2.746  0.00  0.00     0.140 C 
ATOM     10  O   LIG d   1       6.692   1.402  -3.085  0.00  0.00    -0.297 OA
ATOM     11  C   LIG d   1       5.819  -0.801  -2.984  0.00  0.00     0.052 C 
ATOM     12  H   LIG d   1       5.877  -1.321  -2.028  0.00  0.00     0.041 H 
ATOM     13  C   LIG d   1       7.021  -1.170  -3.851  0.00  0.00     0.076 C 
ATOM     14  H   LIG d   1       7.940  -0.870  -3.348  0.00  0.00     0.061 H 
ATOM     15  C   LIG d   1       7.027  -2.686  -4.071  0.00  0.00     0.054 C 
ATOM     16  H   LIG d   1       7.107  -3.192  -3.109  0.00  0.00     0.041 H 
ATOM     17  H   LIG d   1       3.610  -3.022  -4.413  0.00  0.00     0.031 H 
ATOM     18  H   LIG d   1       4.593  -3.216  -2.940  0.00  0.00     0.031 H 
ATOM     19  H   LIG d   1       3.280   1.184  -3.807  0.00  0.00     0.029 H 
ATOM     20  H   LIG d   1       2.412   1.082  -2.257  0.00  0.00     0.029 H 
ATOM     21  H   LIG d   1       4.586   2.352  -2.106  0.00  0.00     0.034 H 
ATOM     22  H   LIG d   1       4.519   0.933  -1.029  0.00  0.00     0.034 H 
ENDROOT
BRANCH   1  23
ATOM     23  O   LIG d   1       5.744  -4.533  -4.950  0.00  0.00    -0.457 OA
BRANCH  23  24
ATOM     24  C   LIG d   1       4.751  -5.061  -5.691  0.00  0.00     0.335 C 
ATOM     25  O   LIG d   1       3.841  -5.659  -5.151  0.00  0.00    -0.245 OA
BRANCH  24  26
ATOM     26  C   LIG d   1       4.766  -4.913  -7.153  0.00  0.00     0.033 C 
ATOM     27  C   LIG d   1       5.332  -5.849  -7.911  0.00  0.00    -0.037 C 
ATOM     28  H   LIG d   1       5.274  -5.782  -8.987  0.00  0.00     0.061 H 
BRANCH  26  29
ATOM     29  C   LIG d   1       4.139  -3.702  -7.795  0.00  0.00    -0.033 C 
ATOM     30  H   LIG d   1       3.091  -3.636  -7.502  0.00  0.00     0.028 H 
ATOM     31  H   LIG d   1       4.665  -2.804  -7.469  0.00  0.00     0.028 H 
ATOM     32  H   LIG d   1       4.208  -3.789  -8.879  0.00  0.00     0.028 H 
ENDBRANCH  26  29
BRANCH  27  33
ATOM     33  C   LIG d   1       6.058  -7.003  -7.266  0.00  0.00     0.111 C 
ATOM     34  H   LIG d   1       6.961  -7.227  -7.834  0.00  0.00     0.074 H 
ATOM     35  H   LIG d   1       6.327  -6.736  -6.244  0.00  0.00     0.074 H 
BRANCH  33  36
ATOM     36  O   LIG d   1       5.207  -8.150  -7.252  0.00  0.00    -0.461 OA
BRANCH  36  37
ATOM     37  C   LIG d   1       5.085  -8.804  -6.086  0.00  0.00     0.304 C 
ATOM     38  O   LIG d   1       4.226  -9.644  -5.952  0.00  0.00    -0.251 OA
BRANCH  37  39
ATOM     39  C   LIG d   1       6.018  -8.493  -4.944  0.00  0.00     0.033 C 
ATOM     40  H   LIG d   1       6.109  -7.412  -4.835  0.00  0.00     0.034 H 
ATOM     41  H   LIG d   1       5.620  -8.918  -4.024  0.00  0.00     0.034 H 
ATOM     42  H   LIG d   1       6.999  -8.922  -5.150  0.00  0.00     0.034 H 
ENDBRANCH  37  39
ENDBRANCH  36  37
ENDBRANCH  33  36
ENDBRANCH  27  33
ENDBRANCH  24  26
ENDBRANCH  23  24
ENDBRANCH   1  23
BRANCH  15  43
ATOM     43  C   LIG d   1       8.208  -3.060  -4.931  0.00  0.00     0.039 C 
ATOM     44  C   LIG d   1       8.063  -3.166  -6.249  0.00  0.00    -0.088 C 
ATOM     45  H   LIG d   1       8.908  -3.435  -6.866  0.00  0.00     0.054 H 
ATOM     46  H   LIG d   1       7.100  -2.984  -6.704  0.00  0.00     0.054 H 
BRANCH  43  47
ATOM     47  C   LIG d   1       9.518  -3.307  -4.314  0.00  0.00     0.335 C 
ATOM     48  O   LIG d   1      10.527  -2.876  -4.837  0.00  0.00    -0.245 OA
BRANCH  47  49
ATOM     49  O   LIG d   1       9.601  -4.012  -3.167  0.00  0.00    -0.465 OA
BRANCH  49  50
ATOM     50  C   LIG d   1       9.462  -5.430  -3.266  0.00  0.00     0.082 C 
ATOM     51  H   LIG d   1      10.234  -5.826  -3.925  0.00  0.00     0.066 H 
ATOM     52  H   LIG d   1       9.566  -5.874  -2.276  0.00  0.00     0.066 H 
ATOM     53  H   LIG d   1       8.479  -5.672  -3.671  0.00  0.00     0.066 H 
ENDBRANCH  49  50
ENDBRANCH  47  49
ENDBRANCH  43  47
ENDBRANCH  15  43
BRANCH  13  54
ATOM     54  O   LIG d   1       6.925  -0.501  -5.111  0.00  0.00    -0.390 OA
ATOM     55  H   LIG d   1       7.760  -0.459  -5.598  0.00  0.00     0.210 HD
ENDBRANCH  13  54
BRANCH   4  56
ATOM     56  C   LIG d   1       4.483  -0.518  -5.076  0.00  0.00    -0.056 C 
ATOM     57  H   LIG d   1       4.572   0.560  -4.943  0.00  0.00     0.024 H 
ATOM     58  H   LIG d   1       5.307  -0.876  -5.694  0.00  0.00     0.024 H 
ATOM     59  H   LIG d   1       3.536  -0.747  -5.565  0.00  0.00     0.024 H 
ENDBRANCH   4  56
BRANCH   5  60
ATOM     60  O   LIG d   1       2.127  -1.225  -3.513  0.00  0.00    -0.391 OA
ATOM     61  H   LIG d   1       1.648  -0.540  -3.999  0.00  0.00     0.210 HD
ENDBRANCH   5  60
TORSDOF 15
ENDMDL
MODEL 3
REMARK VINA RESULT:      -5.7      1.114      1.648
REMARK  15 active torsions:
REMARK  status: ('A' for Active; 'I' for Inactive)
REMARK    1  A    between atoms: C_1  and  C_2 
REMARK    2  A    between atoms: C_2  and  C_9 
REMARK    3  A    between atoms: C_3  and  C_4 
REMARK    4  A    between atoms: C_4  and  O_5 
REMARK    5  A    between atoms: O_5  and  C_6 
REMARK    6  A    between atoms: C_6  and  C_8 
REMARK    7  A    between atoms: C_9  and  O_11 
REMARK    8  A    between atoms: O_11  and  C_12 
REMARK    9  A    between atoms: C_15  and  C_36 
REMARK   10  A    between atoms: C_16  and  O_35 
REMARK   11  A    between atoms: C_24  and  O_34 
REMARK   12  A    between atoms: C_26  and  C_28 
REMARK   13  A    between atoms: C_28  and  C_30 
REMARK   14  A    between atoms: C_30  and  O_32 
REMARK   15  A    between atoms: O_32  and  C_33 
ROOT
ATOM      1  C   LIG d   1       5.431  -3.099  -4.844  0.00  0.00     0.113 C 
ATOM      2  H   LIG d   1       5.445  -2.584  -5.803  0.00  0.00     0.074 H 
ATOM      3  C   LIG d   1       4.237  -2.609  -4.019  0.00  0.00    -0.006 C 
ATOM      4  C   LIG d   1       4.380  -1.106  -3.782  0.00  0.00     0.009 C 
ATOM      5  C   LIG d   1       3.193  -0.566  -2.989  0.00  0.00     0.062 C 
ATOM      6  H   LIG d   1       3.187  -1.014  -1.995  0.00  0.00     0.060 H 
ATOM      7  C   LIG d   1       3.313   0.955  -2.863  0.00  0.00    -0.020 C 
ATOM      8  C   LIG d   1       4.577   1.313  -2.076  0.00  0.00     0.009 C 
ATOM      9  C   LIG d   1       5.767   0.638  -2.726  0.00  0.00     0.140 C 
ATOM     10  O   LIG d   1       6.758   1.265  -3.015  0.00  0.00    -0.297 OA
ATOM     11  C   LIG d   1       5.672  -0.844  -3.001  0.00  0.00     0.052 C 
ATOM     12  H   LIG d   1       5.645  -1.389  -2.056  0.00  0.00     0.041 H 
ATOM     13  C   LIG d   1       6.864  -1.309  -3.836  0.00  0.00     0.076 C 
ATOM     14  H   LIG d   1       7.789  -1.111  -3.293  0.00  0.00     0.061 H 
ATOM     15  C   LIG d   1       6.732  -2.814  -4.094  0.00  0.00     0.054 C 
ATOM     16  H   LIG d   1       6.727  -3.346  -3.143  0.00  0.00     0.041 H 
ATOM     17  H   LIG d   1       3.313  -2.806  -4.561  0.00  0.00     0.031 H 
ATOM     18  H   LIG d   1       4.218  -3.128  -3.061  0.00  0.00     0.031 H 
ATOM     19  H   LIG d   1       3.369   1.397  -3.859  0.00  0.00     0.029 H 
ATOM     20  H   LIG d   1       2.439   1.346  -2.343  0.00  0.00     0.029 H 
ATOM     21  H   LIG d   1       4.719   2.394  -2.085  0.00  0.00     0.034 H 
ATOM     22  H   LIG d   1       4.476   0.965  -1.047  0.00  0.00     0.034 H 
ENDROOT
BRANCH   1  23
ATOM     23  O   LIG d   1       5.309  -4.507  -5.063  0.00  0.00    -0.457 OA
BRANCH  23  24
ATOM     24  C   LIG d   1       4.676  -4.899  -6.186  0.00  0.00     0.335 C 
ATOM     25  O   LIG d   1       3.553  -5.359  -6.121  0.00  0.00    -0.245 OA
BRANCH  24  26
ATOM     26  C   LIG d   1       5.342  -4.769  -7.489  0.00  0.00     0.033 C 
ATOM     27  C   LIG d   1       4.893  -3.891  -8.382  0.00  0.00    -0.037 C 
ATOM     28  H   LIG d   1       5.429  -3.738  -9.307  0.00  0.00     0.061 H 
BRANCH  26  29
ATOM     29  C   LIG d   1       6.536  -5.630  -7.815  0.00  0.00    -0.033 C 
ATOM     30  H   LIG d   1       7.421  -5.003  -7.915  0.00  0.00     0.028 H 
ATOM     31  H   LIG d   1       6.692  -6.353  -7.013  0.00  0.00     0.028 H 
ATOM     32  H   LIG d   1       6.357  -6.159  -8.751  0.00  0.00     0.028 H 
ENDBRANCH  26  29
BRANCH  27  33
ATOM     33  C   LIG d   1       3.634  -3.110  -8.103  0.00  0.00     0.111 C 
ATOM     34  H   LIG d   1       2.810  -3.530  -8.680  0.00  0.00     0.074 H 
ATOM     35  H   LIG d   1       3.399  -3.168  -7.040  0.00  0.00     0.074 H 
BRANCH  33  36
ATOM     36  O   LIG d   1       3.828  -1.745  -8.475  0.00  0.00    -0.461 OA
BRANCH  36  37
ATOM     37  C   LIG d   1       2.728  -1.018  -8.725  0.00  0.00     0.304 C 
ATOM     38  O   LIG d   1       2.444  -0.086  -8.010  0.00  0.00    -0.251 OA
BRANCH  37  39
ATOM     39  C   LIG d   1       1.846  -1.363  -9.897  0.00  0.00     0.033 C 
ATOM     40  H   LIG d   1       2.466  -1.546 -10.775  0.00  0.00     0.034 H 
ATOM     41  H   LIG d   1       1.269  -2.258  -9.667  0.00  0.00     0.034 H 
ATOM     42  H   LIG d   1       1.168  -0.533 -10.098  0.00  0.00     0.034 H 
ENDBRANCH  37  39
ENDBRANCH  36  37
ENDBRANCH  33  36
ENDBRANCH  27  33
ENDBRANCH  24  26
ENDBRANCH  23  24
ENDBRANCH   1  23
BRANCH  15  43
ATOM     43  C   LIG d   1       7.901  -3.281  -4.922  0.00  0.00     0.039 C 
ATOM     44  C   LIG d   1       8.480  -4.450  -4.654  0.00  0.00    -0.088 C 
ATOM     45  H   LIG d   1       9.319  -4.786  -5.247  0.00  0.00     0.054 H 
ATOM     46  H   LIG d   1       8.111  -5.063  -3.845  0.00  0.00     0.054 H 
BRANCH  43  47
ATOM     47  C   LIG d   1       8.402  -2.449  -6.023  0.00  0.00     0.335 C 
ATOM     48  O   LIG d   1       7.799  -2.408  -7.077  0.00  0.00    -0.245 OA
BRANCH  47  49
ATOM     49  O   LIG d   1       9.532  -1.730  -5.865  0.00  0.00    -0.465 OA
BRANCH  49  50
ATOM     50  C   LIG d   1       9.887  -0.837  -6.922  0.00  0.00     0.082 C 
ATOM     51  H   LIG d   1      10.704  -1.266  -7.501  0.00  0.00     0.066 H 
ATOM     52  H   LIG d   1       9.024  -0.682  -7.571  0.00  0.00     0.066 H 
ATOM     53  H   LIG d   1      10.201   0.118  -6.502  0.00  0.00     0.066 H 
ENDBRANCH  49  50
ENDBRANCH  47  49
ENDBRANCH  43  47
ENDBRANCH  15  43
BRANCH  13  54
ATOM     54  O   LIG d   1       6.879  -0.607  -5.080  0.00  0.00    -0.390 OA
ATOM     55  H   LIG d   1       7.414   0.200  -5.070  0.00  0.00     0.210 HD
ENDBRANCH  13  54
BRANCH   4  56
ATOM     56  C   LIG d   1       4.448  -0.385  -5.130  0.00  0.00    -0.056 C 
ATOM     57  H   LIG d   1       5.431   0.068  -5.251  0.00  0.00     0.024 H 
ATOM     58  H   LIG d   1       4.277  -1.101  -5.934  0.00  0.00     0.024 H 
ATOM     59  H   LIG d   1       3.683   0.390  -5.166  0.00  0.00     0.024 H 
ENDBRANCH   4  56
BRANCH   5  60
ATOM     60  O   LIG d   1       1.979  -0.894  -3.667  0.00  0.00    -0.391 OA
ATOM     61  H   LIG d   1       1.178  -0.674  -3.170  0.00  0.00     0.210 HD
ENDBRANCH   5  60
TORSDOF 15
ENDMDL
MODEL 4
REMARK VINA RESULT:      -5.7      2.177      4.096
REMARK  15 active torsions:
REMARK  status: ('A' for Active; 'I' for Inactive)
REMARK    1  A    between atoms: C_1  and  C_2 
REMARK    2  A    between atoms: C_2  and  C_9 
REMARK    3  A    between atoms: C_3  and  C_4 
REMARK    4  A    between atoms: C_4  and  O_5 
REMARK    5  A    between atoms: O_5  and  C_6 
REMARK    6  A    between atoms: C_6  and  C_8 
REMARK    7  A    between atoms: C_9  and  O_11 
REMARK    8  A    between atoms: O_11  and  C_12 
REMARK    9  A    between atoms: C_15  and  C_36 
REMARK   10  A    between atoms: C_16  and  O_35 
REMARK   11  A    between atoms: C_24  and  O_34 
REMARK   12  A    between atoms: C_26  and  C_28 
REMARK   13  A    between atoms: C_28  and  C_30 
REMARK   14  A    between atoms: C_30  and  O_32 
REMARK   15  A    between atoms: O_32  and  C_33 
ROOT
ATOM      1  C   LIG d   1       6.199  -2.983  -4.663  0.00  0.00     0.113 C 
ATOM      2  H   LIG d   1       6.160  -2.511  -5.644  0.00  0.00     0.074 H 
ATOM      3  C   LIG d   1       4.891  -2.708  -3.915  0.00  0.00    -0.006 C 
ATOM      4  C   LIG d   1       4.725  -1.199  -3.743  0.00  0.00     0.009 C 
ATOM      5  C   LIG d   1       3.415  -0.875  -3.028  0.00  0.00     0.062 C 
ATOM      6  H   LIG d   1       3.446  -1.278  -2.015  0.00  0.00     0.060 H 
ATOM      7  C   LIG d   1       3.228   0.643  -2.969  0.00  0.00    -0.020 C 
ATOM      8  C   LIG d   1       4.354   1.274  -2.146  0.00  0.00     0.009 C 
ATOM      9  C   LIG d   1       5.685   0.825  -2.712  0.00  0.00     0.140 C 
ATOM     10  O   LIG d   1       6.548   1.624  -2.988  0.00  0.00    -0.297 OA
ATOM     11  C   LIG d   1       5.898  -0.656  -2.920  0.00  0.00     0.052 C 
ATOM     12  H   LIG d   1       5.930  -1.159  -1.953  0.00  0.00     0.041 H 
ATOM     13  C   LIG d   1       7.199  -0.907  -3.680  0.00  0.00     0.076 C 
ATOM     14  H   LIG d   1       8.038  -0.510  -3.109  0.00  0.00     0.061 H 
ATOM     15  C   LIG d   1       7.378  -2.417  -3.872  0.00  0.00     0.054 C 
ATOM     16  H   LIG d   1       7.430  -2.903  -2.899  0.00  0.00     0.041 H 
ATOM     17  H   LIG d   1       4.053  -3.105  -4.486  0.00  0.00     0.031 H 
ATOM     18  H   LIG d   1       4.925  -3.184  -2.935  0.00  0.00     0.031 H 
ATOM     19  H   LIG d   1       3.247   1.049  -3.981  0.00  0.00     0.029 H 
ATOM     20  H   LIG d   1       2.269   0.872  -2.505  0.00  0.00     0.029 H 
ATOM     21  H   LIG d   1       4.282   2.361  -2.200  0.00  0.00     0.034 H 
ATOM     22  H   LIG d   1       4.272   0.952  -1.107  0.00  0.00     0.034 H 
ENDROOT
BRANCH   1  23
ATOM     23  O   LIG d   1       6.367  -4.394  -4.821  0.00  0.00    -0.457 OA
BRANCH  23  24
ATOM     24  C   LIG d   1       6.240  -4.890  -6.067  0.00  0.00     0.335 C 
ATOM     25  O   LIG d   1       7.227  -5.070  -6.754  0.00  0.00    -0.245 OA
BRANCH  24  26
ATOM     26  C   LIG d   1       4.908  -5.214  -6.597  0.00  0.00     0.033 C 
ATOM     27  C   LIG d   1       4.369  -6.407  -6.357  0.00  0.00    -0.037 C 
ATOM     28  H   LIG d   1       3.360  -6.618  -6.676  0.00  0.00     0.061 H 
BRANCH  26  29
ATOM     29  C   LIG d   1       4.151  -4.195  -7.410  0.00  0.00    -0.033 C 
ATOM     30  H   LIG d   1       4.387  -4.324  -8.466  0.00  0.00     0.028 H 
ATOM     31  H   LIG d   1       3.080  -4.332  -7.257  0.00  0.00     0.028 H 
ATOM     32  H   LIG d   1       4.438  -3.192  -7.093  0.00  0.00     0.028 H 
ENDBRANCH  26  29
BRANCH  27  33
ATOM     33  C   LIG d   1       5.170  -7.465  -5.642  0.00  0.00     0.111 C 
ATOM     34  H   LIG d   1       6.074  -7.684  -6.211  0.00  0.00     0.074 H 
ATOM     35  H   LIG d   1       5.444  -7.104  -4.650  0.00  0.00     0.074 H 
BRANCH  33  36
ATOM     36  O   LIG d   1       4.386  -8.652  -5.518  0.00  0.00    -0.461 OA
BRANCH  36  37
ATOM     37  C   LIG d   1       4.478  -9.327  -4.361  0.00  0.00     0.304 C 
ATOM     38  O   LIG d   1       3.484  -9.549  -3.710  0.00  0.00    -0.251 OA
BRANCH  37  39
ATOM     39  C   LIG d   1       5.820  -9.808  -3.873  0.00  0.00     0.033 C 
ATOM     40  H   LIG d   1       5.677 -10.510  -3.051  0.00  0.00     0.034 H 
ATOM     41  H   LIG d   1       6.345 -10.307  -4.688  0.00  0.00     0.034 H 
ATOM     42  H   LIG d   1       6.407  -8.958  -3.527  0.00  0.00     0.034 H 
ENDBRANCH  37  39
ENDBRANCH  36  37
ENDBRANCH  33  36
ENDBRANCH  27  33
ENDBRANCH  24  26
ENDBRANCH  23  24
ENDBRANCH   1  23
BRANCH  15  43
ATOM     43  C   LIG d   1       8.658  -2.674  -4.626  0.00  0.00     0.039 C 
ATOM     44  C   LIG d   1       9.491  -3.627  -4.216  0.00  0.00    -0.088 C 
ATOM     45  H   LIG d   1      10.409  -3.812  -4.755  0.00  0.00     0.054 H 
ATOM     46  H   LIG d   1       9.250  -4.216  -3.343  0.00  0.00     0.054 H 
BRANCH  43  47
ATOM     47  C   LIG d   1       8.985  -1.874  -5.814  0.00  0.00     0.335 C 
ATOM     48  O   LIG d   1       8.415  -2.086  -6.866  0.00  0.00    -0.245 OA
BRANCH  47  49
ATOM     49  O   LIG d   1       9.919  -0.905  -5.737  0.00  0.00    -0.465 OA
BRANCH  49  50
ATOM     50  C   LIG d   1      10.352  -0.321  -6.967  0.00  0.00     0.082 C 
ATOM     51  H   LIG d   1      10.363   0.764  -6.870  0.00  0.00     0.066 H 
ATOM     52  H   LIG d   1      11.356  -0.675  -7.204  0.00  0.00     0.066 H 
ATOM     53  H   LIG d   1       9.668  -0.608  -7.766  0.00  0.00     0.066 H 
ENDBRANCH  49  50
ENDBRANCH  47  49
ENDBRANCH  43  47
ENDBRANCH  15  43
BRANCH  13  54
ATOM     54  O   LIG d   1       7.140  -0.263  -4.955  0.00  0.00    -0.390 OA
ATOM     55  H   LIG d   1       6.620   0.553  -4.959  0.00  0.00     0.210 HD
ENDBRANCH  13  54
BRANCH   4  56
ATOM     56  C   LIG d   1       4.719  -0.531  -5.119  0.00  0.00    -0.056 C 
ATOM     57  H   LIG d   1       4.062   0.339  -5.098  0.00  0.00     0.024 H 
ATOM     58  H   LIG d   1       5.730  -0.215  -5.374  0.00  0.00     0.024 H 
ATOM     59  H   LIG d   1       4.360  -1.239  -5.865  0.00  0.00     0.024 H 
ENDBRANCH   4  56
BRANCH   5  60
ATOM     60  O   LIG d   1       2.326  -1.463  -3.741  0.00  0.00    -0.391 OA
ATOM     61  H   LIG d   1       2.402  -2.420  -3.857  0.00  0.00     0.210 HD
ENDBRANCH   5  60
TORSDOF 15
ENDMDL
MODEL 5
REMARK VINA RESULT:      -5.6      2.783      7.294
REMARK  15 active torsions:
REMARK  status: ('A' for Active; 'I' for Inactive)
REMARK    1  A    between atoms: C_1  and  C_2 
REMARK    2  A    between atoms: C_2  and  C_9 
REMARK    3  A    between atoms: C_3  and  C_4 
REMARK    4  A    between atoms: C_4  and  O_5 
REMARK    5  A    between atoms: O_5  and  C_6 
REMARK    6  A    between atoms: C_6  and  C_8 
REMARK    7  A    between atoms: C_9  and  O_11 
REMARK    8  A    between atoms: O_11  and  C_12 
REMARK    9  A    between atoms: C_15  and  C_36 
REMARK   10  A    between atoms: C_16  and  O_35 
REMARK   11  A    between atoms: C_24  and  O_34 
REMARK   12  A    between atoms: C_26  and  C_28 
REMARK   13  A    between atoms: C_28  and  C_30 
REMARK   14  A    between atoms: C_30  and  O_32 
REMARK   15  A    between atoms: O_32  and  C_33 
ROOT
ATOM      1  C   LIG d   1       6.580  -1.351  -4.819  0.00  0.00     0.113 C 
ATOM      2  H   LIG d   1       5.889  -0.920  -5.543  0.00  0.00     0.074 H 
ATOM      3  C   LIG d   1       7.471  -2.382  -5.518  0.00  0.00    -0.006 C 
ATOM      4  C   LIG d   1       6.591  -3.489  -6.097  0.00  0.00     0.009 C 
ATOM      5  C   LIG d   1       7.436  -4.525  -6.833  0.00  0.00     0.062 C 
ATOM      6  H   LIG d   1       8.097  -5.025  -6.124  0.00  0.00     0.060 H 
ATOM      7  C   LIG d   1       6.518  -5.558  -7.492  0.00  0.00    -0.020 C 
ATOM      8  C   LIG d   1       5.725  -6.308  -6.418  0.00  0.00     0.009 C 
ATOM      9  C   LIG d   1       5.013  -5.300  -5.540  0.00  0.00     0.140 C 
ATOM     10  O   LIG d   1       3.830  -5.393  -5.316  0.00  0.00    -0.297 OA
ATOM     11  C   LIG d   1       5.832  -4.173  -4.956  0.00  0.00     0.052 C 
ATOM     12  H   LIG d   1       6.543  -4.575  -4.234  0.00  0.00     0.041 H 
ATOM     13  C   LIG d   1       4.923  -3.150  -4.277  0.00  0.00     0.076 C 
ATOM     14  H   LIG d   1       4.367  -3.632  -3.473  0.00  0.00     0.061 H 
ATOM     15  C   LIG d   1       5.788  -2.025  -3.699  0.00  0.00     0.054 C 
ATOM     16  H   LIG d   1       6.479  -2.438  -2.964  0.00  0.00     0.041 H 
ATOM     17  H   LIG d   1       8.027  -1.899  -6.322  0.00  0.00     0.031 H 
ATOM     18  H   LIG d   1       8.167  -2.811  -4.797  0.00  0.00     0.031 H 
ATOM     19  H   LIG d   1       5.826  -5.050  -8.164  0.00  0.00     0.029 H 
ATOM     20  H   LIG d   1       7.119  -6.267  -8.060  0.00  0.00     0.029 H 
ATOM     21  H   LIG d   1       4.993  -6.961  -6.893  0.00  0.00     0.034 H 
ATOM     22  H   LIG d   1       6.408  -6.903  -5.810  0.00  0.00     0.034 H 
ENDROOT
BRANCH   1  23
ATOM     23  O   LIG d   1       7.396  -0.316  -4.267  0.00  0.00    -0.457 OA
BRANCH  23  24
ATOM     24  C   LIG d   1       7.950   0.555  -5.133  0.00  0.00     0.335 C 
ATOM     25  O   LIG d   1       7.241   1.221  -5.862  0.00  0.00    -0.245 OA
BRANCH  24  26
ATOM     26  C   LIG d   1       9.411   0.700  -5.196  0.00  0.00     0.033 C 
ATOM     27  C   LIG d   1      10.024   1.599  -4.429  0.00  0.00    -0.037 C 
ATOM     28  H   LIG d   1      11.102   1.652  -4.415  0.00  0.00     0.061 H 
BRANCH  26  29
ATOM     29  C   LIG d   1      10.216  -0.169  -6.128  0.00  0.00    -0.033 C 
ATOM     30  H   LIG d   1       9.630  -0.385  -7.022  0.00  0.00     0.028 H 
ATOM     31  H   LIG d   1      11.131   0.353  -6.411  0.00  0.00     0.028 H 
ATOM     32  H   LIG d   1      10.470  -1.102  -5.626  0.00  0.00     0.028 H 
ENDBRANCH  26  29
BRANCH  27  33
ATOM     33  C   LIG d   1       9.212   2.544  -3.581  0.00  0.00     0.111 C 
ATOM     34  H   LIG d   1       8.661   3.230  -4.226  0.00  0.00     0.074 H 
ATOM     35  H   LIG d   1       8.510   1.974  -2.973  0.00  0.00     0.074 H 
BRANCH  33  36
ATOM     36  O   LIG d   1      10.085   3.290  -2.731  0.00  0.00    -0.461 OA
BRANCH  36  37
ATOM     37  C   LIG d   1      10.001   4.628  -2.794  0.00  0.00     0.304 C 
ATOM     38  O   LIG d   1      10.247   5.295  -1.816  0.00  0.00    -0.251 OA
BRANCH  37  39
ATOM     39  C   LIG d   1       9.604   5.300  -4.083  0.00  0.00     0.033 C 
ATOM     40  H   LIG d   1       8.518   5.386  -4.126  0.00  0.00     0.034 H 
ATOM     41  H   LIG d   1      10.048   6.294  -4.126  0.00  0.00     0.034 H 
ATOM     42  H   LIG d   1       9.956   4.705  -4.926  0.00  0.00     0.034 H 
ENDBRANCH  37  39
ENDBRANCH  36  37
ENDBRANCH  33  36
ENDBRANCH  27  33
ENDBRANCH  24  26
ENDBRANCH  23  24
ENDBRANCH   1  23
BRANCH  15  43
ATOM     43  C   LIG d   1       4.900  -1.007  -3.030  0.00  0.00     0.039 C 
ATOM     44  C   LIG d   1       4.414  -1.245  -1.814  0.00  0.00    -0.088 C 
ATOM     45  H   LIG d   1       3.776  -0.517  -1.335  0.00  0.00     0.054 H 
ATOM     46  H   LIG d   1       4.656  -2.167  -1.306  0.00  0.00     0.054 H 
BRANCH  43  47
ATOM     47  C   LIG d   1       4.570   0.247  -3.720  0.00  0.00     0.335 C 
ATOM     48  O   LIG d   1       4.911   1.311  -3.242  0.00  0.00    -0.245 OA
BRANCH  47  49
ATOM     49  O   LIG d   1       3.888   0.218  -4.883  0.00  0.00    -0.465 OA
BRANCH  49  50
ATOM     50  C   LIG d   1       2.485   0.478  -4.819  0.00  0.00     0.082 C 
ATOM     51  H   LIG d   1       2.271   1.438  -5.287  0.00  0.00     0.066 H 
ATOM     52  H   LIG d   1       1.945  -0.311  -5.345  0.00  0.00     0.066 H 
ATOM     53  H   LIG d   1       2.166   0.502  -3.777  0.00  0.00     0.066 H 
ENDBRANCH  49  50
ENDBRANCH  47  49
ENDBRANCH  43  47
ENDBRANCH  15  43
BRANCH  13  54
ATOM     54  O   LIG d   1       4.010  -2.611  -5.235  0.00  0.00    -0.390 OA
ATOM     55  H   LIG d   1       3.396  -3.263  -5.602  0.00  0.00     0.210 HD
ENDBRANCH  13  54
BRANCH   4  56
ATOM     56  C   LIG d   1       5.589  -2.877  -7.078  0.00  0.00    -0.056 C 
ATOM     57  H   LIG d   1       5.615  -1.791  -6.995  0.00  0.00     0.024 H 
ATOM     58  H   LIG d   1       5.850  -3.170  -8.095  0.00  0.00     0.024 H 
ATOM     59  H   LIG d   1       4.586  -3.235  -6.844  0.00  0.00     0.024 H 
ENDBRANCH   4  56
BRANCH   5  60
ATOM     60  O   LIG d   1       8.220  -3.876  -7.836  0.00  0.00    -0.391 OA
ATOM     61  H   LIG d   1       8.143  -2.912  -7.833  0.00  0.00     0.210 HD
ENDBRANCH   5  60
TORSDOF 15
ENDMDL
MODEL 6
REMARK VINA RESULT:      -5.5      2.136      3.127
REMARK  15 active torsions:
REMARK  status: ('A' for Active; 'I' for Inactive)
REMARK    1  A    between atoms: C_1  and  C_2 
REMARK    2  A    between atoms: C_2  and  C_9 
REMARK    3  A    between atoms: C_3  and  C_4 
REMARK    4  A    between atoms: C_4  and  O_5 
REMARK    5  A    between atoms: O_5  and  C_6 
REMARK    6  A    between atoms: C_6  and  C_8 
REMARK    7  A    between atoms: C_9  and  O_11 
REMARK    8  A    between atoms: O_11  and  C_12 
REMARK    9  A    between atoms: C_15  and  C_36 
REMARK   10  A    between atoms: C_16  and  O_35 
REMARK   11  A    between atoms: C_24  and  O_34 
REMARK   12  A    between atoms: C_26  and  C_28 
REMARK   13  A    between atoms: C_28  and  C_30 
REMARK   14  A    between atoms: C_30  and  O_32 
REMARK   15  A    between atoms: O_32  and  C_33 
ROOT
ATOM      1  C   LIG d   1       7.178  -2.357  -5.021  0.00  0.00     0.113 C 
ATOM      2  H   LIG d   1       6.579  -2.077  -5.887  0.00  0.00     0.074 H 
ATOM      3  C   LIG d   1       6.255  -2.619  -3.827  0.00  0.00    -0.006 C 
ATOM      4  C   LIG d   1       5.478  -1.343  -3.510  0.00  0.00     0.009 C 
ATOM      5  C   LIG d   1       4.519  -1.567  -2.344  0.00  0.00     0.062 C 
ATOM      6  H   LIG d   1       5.090  -1.786  -1.441  0.00  0.00     0.060 H 
ATOM      7  C   LIG d   1       3.680  -0.305  -2.123  0.00  0.00    -0.020 C 
ATOM      8  C   LIG d   1       4.590   0.863  -1.736  0.00  0.00     0.009 C 
ATOM      9  C   LIG d   1       5.678   1.004  -2.780  0.00  0.00     0.140 C 
ATOM     10  O   LIG d   1       5.907   2.068  -3.304  0.00  0.00    -0.297 OA
ATOM     11  C   LIG d   1       6.467  -0.231  -3.146  0.00  0.00     0.052 C 
ATOM     12  H   LIG d   1       7.070  -0.544  -2.294  0.00  0.00     0.041 H 
ATOM     13  C   LIG d   1       7.369   0.048  -4.347  0.00  0.00     0.076 C 
ATOM     14  H   LIG d   1       8.066   0.849  -4.102  0.00  0.00     0.061 H 
ATOM     15  C   LIG d   1       8.150  -1.225  -4.688  0.00  0.00     0.054 C 
ATOM     16  H   LIG d   1       8.764  -1.514  -3.834  0.00  0.00     0.041 H 
ATOM     17  H   LIG d   1       5.559  -3.420  -4.073  0.00  0.00     0.031 H 
ATOM     18  H   LIG d   1       6.852  -2.906  -2.962  0.00  0.00     0.031 H 
ATOM     19  H   LIG d   1       3.147  -0.060  -3.043  0.00  0.00     0.029 H 
ATOM     20  H   LIG d   1       2.960  -0.484  -1.325  0.00  0.00     0.029 H 
ATOM     21  H   LIG d   1       4.006   1.782  -1.690  0.00  0.00     0.034 H 
ATOM     22  H   LIG d   1       5.042   0.666  -0.763  0.00  0.00     0.034 H 
ENDROOT
BRANCH   1  23
ATOM     23  O   LIG d   1       7.916  -3.544  -5.320  0.00  0.00    -0.457 OA
BRANCH  23  24
ATOM     24  C   LIG d   1       7.365  -4.403  -6.200  0.00  0.00     0.335 C 
ATOM     25  O   LIG d   1       7.181  -4.058  -7.351  0.00  0.00    -0.245 OA
BRANCH  24  26
ATOM     26  C   LIG d   1       6.989  -5.756  -5.769  0.00  0.00     0.033 C 
ATOM     27  C   LIG d   1       5.711  -6.050  -5.542  0.00  0.00    -0.037 C 
ATOM     28  H   LIG d   1       5.424  -7.064  -5.304  0.00  0.00     0.061 H 
BRANCH  26  29
ATOM     29  C   LIG d   1       8.049  -6.812  -5.585  0.00  0.00    -0.033 C 
ATOM     30  H   LIG d   1       7.582  -7.796  -5.562  0.00  0.00     0.028 H 
ATOM     31  H   LIG d   1       8.756  -6.764  -6.414  0.00  0.00     0.028 H 
ATOM     32  H   LIG d   1       8.576  -6.637  -4.647  0.00  0.00     0.028 H 
ENDBRANCH  26  29
BRANCH  27  33
ATOM     33  C   LIG d   1       4.664  -4.968  -5.616  0.00  0.00     0.111 C 
ATOM     34  H   LIG d   1       4.362  -4.685  -4.607  0.00  0.00     0.074 H 
ATOM     35  H   LIG d   1       5.076  -4.100  -6.130  0.00  0.00     0.074 H 
BRANCH  33  36
ATOM     36  O   LIG d   1       3.528  -5.453  -6.333  0.00  0.00    -0.461 OA
BRANCH  36  37
ATOM     37  C   LIG d   1       3.512  -5.249  -7.660  0.00  0.00     0.304 C 
ATOM     38  O   LIG d   1       3.253  -6.163  -8.409  0.00  0.00    -0.251 OA
BRANCH  37  39
ATOM     39  C   LIG d   1       3.814  -3.882  -8.217  0.00  0.00     0.033 C 
ATOM     40  H   LIG d   1       4.406  -3.984  -9.127  0.00  0.00     0.034 H 
ATOM     41  H   LIG d   1       2.881  -3.370  -8.448  0.00  0.00     0.034 H 
ATOM     42  H   LIG d   1       4.375  -3.306  -7.481  0.00  0.00     0.034 H 
ENDBRANCH  37  39
ENDBRANCH  36  37
ENDBRANCH  33  36
ENDBRANCH  27  33
ENDBRANCH  24  26
ENDBRANCH  23  24
ENDBRANCH   1  23
BRANCH  15  43
ATOM     43  C   LIG d   1       9.040  -0.961  -5.875  0.00  0.00     0.039 C 
ATOM     44  C   LIG d   1       8.518  -0.911  -7.099  0.00  0.00    -0.088 C 
ATOM     45  H   LIG d   1       9.155  -0.722  -7.951  0.00  0.00     0.054 H 
ATOM     46  H   LIG d   1       7.457  -1.058  -7.240  0.00  0.00     0.054 H 
BRANCH  43  47
ATOM     47  C   LIG d   1      10.482  -0.760  -5.684  0.00  0.00     0.335 C 
ATOM     48  O   LIG d   1      11.211  -1.717  -5.511  0.00  0.00    -0.245 OA
BRANCH  47  49
ATOM     49  O   LIG d   1      10.997   0.486  -5.699  0.00  0.00    -0.465 OA
BRANCH  49  50
ATOM     50  C   LIG d   1      12.071   0.733  -6.608  0.00  0.00     0.082 C 
ATOM     51  H   LIG d   1      11.668   0.930  -7.602  0.00  0.00     0.066 H 
ATOM     52  H   LIG d   1      12.641   1.598  -6.270  0.00  0.00     0.066 H 
ATOM     53  H   LIG d   1      12.723  -0.139  -6.646  0.00  0.00     0.066 H 
ENDBRANCH  49  50
ENDBRANCH  47  49
ENDBRANCH  43  47
ENDBRANCH  15  43
BRANCH  13  54
ATOM     54  O   LIG d   1       6.569   0.436  -5.466  0.00  0.00    -0.390 OA
ATOM     55  H   LIG d   1       7.077   0.796  -6.206  0.00  0.00     0.210 HD
ENDBRANCH  13  54
BRANCH   4  56
ATOM     56  C   LIG d   1       4.673  -0.922  -4.742  0.00  0.00    -0.056 C 
ATOM     57  H   LIG d   1       3.813  -0.331  -4.429  0.00  0.00     0.024 H 
ATOM     58  H   LIG d   1       5.303  -0.325  -5.401  0.00  0.00     0.024 H 
ATOM     59  H   LIG d   1       4.330  -1.809  -5.273  0.00  0.00     0.024 H 
ENDBRANCH   4  56
BRANCH   5  60
ATOM     60  O   LIG d   1       3.657  -2.667  -2.640  0.00  0.00    -0.391 OA
ATOM     61  H   LIG d   1       3.993  -3.256  -3.330  0.00  0.00     0.210 HD
ENDBRANCH   5  60
TORSDOF 15
ENDMDL
MODEL 7
REMARK VINA RESULT:      -5.4      2.199      6.793
REMARK  15 active torsions:
REMARK  status: ('A' for Active; 'I' for Inactive)
REMARK    1  A    between atoms: C_1  and  C_2 
REMARK    2  A    between atoms: C_2  and  C_9 
REMARK    3  A    between atoms: C_3  and  C_4 
REMARK    4  A    between atoms: C_4  and  O_5 
REMARK    5  A    between atoms: O_5  and  C_6 
REMARK    6  A    between atoms: C_6  and  C_8 
REMARK    7  A    between atoms: C_9  and  O_11 
REMARK    8  A    between atoms: O_11  and  C_12 
REMARK    9  A    between atoms: C_15  and  C_36 
REMARK   10  A    between atoms: C_16  and  O_35 
REMARK   11  A    between atoms: C_24  and  O_34 
REMARK   12  A    between atoms: C_26  and  C_28 
REMARK   13  A    between atoms: C_28  and  C_30 
REMARK   14  A    between atoms: C_30  and  O_32 
REMARK   15  A    between atoms: O_32  and  C_33 
ROOT
ATOM      1  C   LIG d   1       5.303  -1.095  -6.640  0.00  0.00     0.113 C 
ATOM      2  H   LIG d   1       6.341  -1.340  -6.863  0.00  0.00     0.074 H 
ATOM      3  C   LIG d   1       4.618  -2.311  -6.008  0.00  0.00    -0.006 C 
ATOM      4  C   LIG d   1       4.659  -3.475  -6.996  0.00  0.00     0.009 C 
ATOM      5  C   LIG d   1       4.014  -4.721  -6.395  0.00  0.00     0.062 C 
ATOM      6  H   LIG d   1       2.955  -4.532  -6.219  0.00  0.00     0.060 H 
ATOM      7  C   LIG d   1       4.169  -5.895  -7.366  0.00  0.00    -0.020 C 
ATOM      8  C   LIG d   1       3.427  -5.592  -8.670  0.00  0.00     0.009 C 
ATOM      9  C   LIG d   1       3.907  -4.261  -9.209  0.00  0.00     0.140 C 
ATOM     10  O   LIG d   1       4.280  -4.148 -10.353  0.00  0.00    -0.297 OA
ATOM     11  C   LIG d   1       3.904  -3.078  -8.269  0.00  0.00     0.052 C 
ATOM     12  H   LIG d   1       2.877  -2.815  -8.017  0.00  0.00     0.041 H 
ATOM     13  C   LIG d   1       4.605  -1.883  -8.913  0.00  0.00     0.076 C 
ATOM     14  H   LIG d   1       4.083  -1.604  -9.829  0.00  0.00     0.061 H 
ATOM     15  C   LIG d   1       4.583  -0.707  -7.931  0.00  0.00     0.054 C 
ATOM     16  H   LIG d   1       3.550  -0.442  -7.705  0.00  0.00     0.041 H 
ATOM     17  H   LIG d   1       5.140  -2.589  -5.093  0.00  0.00     0.031 H 
ATOM     18  H   LIG d   1       3.581  -2.066  -5.778  0.00  0.00     0.031 H 
ATOM     19  H   LIG d   1       5.228  -6.050  -7.579  0.00  0.00     0.029 H 
ATOM     20  H   LIG d   1       3.755  -6.796  -6.914  0.00  0.00     0.029 H 
ATOM     21  H   LIG d   1       3.633  -6.377  -9.398  0.00  0.00     0.034 H 
ATOM     22  H   LIG d   1       2.355  -5.543  -8.476  0.00  0.00     0.034 H 
ENDROOT
BRANCH   1  23
ATOM     23  O   LIG d   1       5.261   0.002  -5.725  0.00  0.00    -0.457 OA
BRANCH  23  24
ATOM     24  C   LIG d   1       6.317   0.153  -4.902  0.00  0.00     0.335 C 
ATOM     25  O   LIG d   1       7.233   0.887  -5.217  0.00  0.00    -0.245 OA
BRANCH  24  26
ATOM     26  C   LIG d   1       6.361  -0.567  -3.622  0.00  0.00     0.033 C 
ATOM     27  C   LIG d   1       5.603  -0.164  -2.605  0.00  0.00    -0.037 C 
ATOM     28  H   LIG d   1       5.574  -0.739  -1.691  0.00  0.00     0.061 H 
BRANCH  26  29
ATOM     29  C   LIG d   1       7.262  -1.765  -3.461  0.00  0.00    -0.033 C 
ATOM     30  H   LIG d   1       8.176  -1.612  -4.035  0.00  0.00     0.028 H 
ATOM     31  H   LIG d   1       7.512  -1.892  -2.407  0.00  0.00     0.028 H 
ATOM     32  H   LIG d   1       6.750  -2.656  -3.824  0.00  0.00     0.028 H 
ENDBRANCH  26  29
BRANCH  27  33
ATOM     33  C   LIG d   1       4.787   1.098  -2.728  0.00  0.00     0.111 C 
ATOM     34  H   LIG d   1       5.154   1.839  -2.017  0.00  0.00     0.074 H 
ATOM     35  H   LIG d   1       4.876   1.491  -3.740  0.00  0.00     0.074 H 
BRANCH  33  36
ATOM     36  O   LIG d   1       3.417   0.807  -2.447  0.00  0.00    -0.461 OA
BRANCH  36  37
ATOM     37  C   LIG d   1       2.781  -0.014  -3.297  0.00  0.00     0.304 C 
ATOM     38  O   LIG d   1       2.535  -1.151  -2.968  0.00  0.00    -0.251 OA
BRANCH  37  39
ATOM     39  C   LIG d   1       2.372   0.480  -4.660  0.00  0.00     0.033 C 
ATOM     40  H   LIG d   1       1.361   0.136  -4.882  0.00  0.00     0.034 H 
ATOM     41  H   LIG d   1       2.396   1.569  -4.673  0.00  0.00     0.034 H 
ATOM     42  H   LIG d   1       3.061   0.091  -5.409  0.00  0.00     0.034 H 
ENDBRANCH  37  39
ENDBRANCH  36  37
ENDBRANCH  33  36
ENDBRANCH  27  33
ENDBRANCH  24  26
ENDBRANCH  23  24
ENDBRANCH   1  23
BRANCH  15  43
ATOM     43  C   LIG d   1       5.276   0.477  -8.556  0.00  0.00     0.039 C 
ATOM     44  C   LIG d   1       6.606   0.531  -8.580  0.00  0.00    -0.088 C 
ATOM     45  H   LIG d   1       7.104   1.380  -9.027  0.00  0.00     0.054 H 
ATOM     46  H   LIG d   1       7.188  -0.272  -8.153  0.00  0.00     0.054 H 
BRANCH  43  47
ATOM     47  C   LIG d   1       4.486   1.569  -9.138  0.00  0.00     0.335 C 
ATOM     48  O   LIG d   1       3.790   2.264  -8.423  0.00  0.00    -0.245 OA
BRANCH  47  49
ATOM     49  O   LIG d   1       4.531   1.802 -10.465  0.00  0.00    -0.465 OA
BRANCH  49  50
ATOM     50  C   LIG d   1       3.996   0.790 -11.320  0.00  0.00     0.082 C 
ATOM     51  H   LIG d   1       3.800  -0.111 -10.739  0.00  0.00     0.066 H 
ATOM     52  H   LIG d   1       3.066   1.145 -11.764  0.00  0.00     0.066 H 
ATOM     53  H   LIG d   1       4.713   0.564 -12.110  0.00  0.00     0.066 H 
ENDBRANCH  49  50
ENDBRANCH  47  49
ENDBRANCH  43  47
ENDBRANCH  15  43
BRANCH  13  54
ATOM     54  O   LIG d   1       5.957  -2.229  -9.220  0.00  0.00    -0.390 OA
ATOM     55  H   LIG d   1       6.519  -2.344  -8.441  0.00  0.00     0.210 HD
ENDBRANCH  13  54
BRANCH   4  56
ATOM     56  C   LIG d   1       6.115  -3.789  -7.348  0.00  0.00    -0.056 C 
ATOM     57  H   LIG d   1       6.531  -2.972  -7.938  0.00  0.00     0.024 H 
ATOM     58  H   LIG d   1       6.693  -3.905  -6.431  0.00  0.00     0.024 H 
ATOM     59  H   LIG d   1       6.159  -4.712  -7.924  0.00  0.00     0.024 H 
ENDBRANCH   4  56
BRANCH   5  60
ATOM     60  O   LIG d   1       4.653  -5.038  -5.157  0.00  0.00    -0.391 OA
ATOM     61  H   LIG d   1       4.904  -5.968  -5.070  0.00  0.00     0.210 HD
ENDBRANCH   5  60
TORSDOF 15
ENDMDL
MODEL 8
REMARK VINA RESULT:      -5.4      2.656      5.020
REMARK  15 active torsions:
REMARK  status: ('A' for Active; 'I' for Inactive)
REMARK    1  A    between atoms: C_1  and  C_2 
REMARK    2  A    between atoms: C_2  and  C_9 
REMARK    3  A    between atoms: C_3  and  C_4 
REMARK    4  A    between atoms: C_4  and  O_5 
REMARK    5  A    between atoms: O_5  and  C_6 
REMARK    6  A    between atoms: C_6  and  C_8 
REMARK    7  A    between atoms: C_9  and  O_11 
REMARK    8  A    between atoms: O_11  and  C_12 
REMARK    9  A    between atoms: C_15  and  C_36 
REMARK   10  A    between atoms: C_16  and  O_35 
REMARK   11  A    between atoms: C_24  and  O_34 
REMARK   12  A    between atoms: C_26  and  C_28 
REMARK   13  A    between atoms: C_28  and  C_30 
REMARK   14  A    between atoms: C_30  and  O_32 
REMARK   15  A    between atoms: O_32  and  C_33 
ROOT
ATOM      1  C   LIG d   1       7.592  -2.066  -5.004  0.00  0.00     0.113 C 
ATOM      2  H   LIG d   1       7.036  -1.813  -5.906  0.00  0.00     0.074 H 
ATOM      3  C   LIG d   1       6.614  -2.505  -3.910  0.00  0.00    -0.006 C 
ATOM      4  C   LIG d   1       5.657  -1.354  -3.607  0.00  0.00     0.009 C 
ATOM      5  C   LIG d   1       4.640  -1.758  -2.542  0.00  0.00     0.062 C 
ATOM      6  H   LIG d   1       5.158  -1.956  -1.603  0.00  0.00     0.060 H 
ATOM      7  C   LIG d   1       3.633  -0.623  -2.341  0.00  0.00    -0.020 C 
ATOM      8  C   LIG d   1       4.352   0.624  -1.821  0.00  0.00     0.009 C 
ATOM      9  C   LIG d   1       5.496   0.955  -2.756  0.00  0.00     0.140 C 
ATOM     10  O   LIG d   1       5.631   2.067  -3.209  0.00  0.00    -0.297 OA
ATOM     11  C   LIG d   1       6.464  -0.151  -3.105  0.00  0.00     0.052 C 
ATOM     12  H   LIG d   1       7.028  -0.435  -2.217  0.00  0.00     0.041 H 
ATOM     13  C   LIG d   1       7.419   0.303  -4.207  0.00  0.00     0.076 C 
ATOM     14  H   LIG d   1       7.986   1.168  -3.864  0.00  0.00     0.061 H 
ATOM     15  C   LIG d   1       8.381  -0.844  -4.533  0.00  0.00     0.054 C 
ATOM     16  H   LIG d   1       8.954  -1.103  -3.643  0.00  0.00     0.041 H 
ATOM     17  H   LIG d   1       6.047  -3.370  -4.254  0.00  0.00     0.031 H 
ATOM     18  H   LIG d   1       7.168  -2.765  -3.008  0.00  0.00     0.031 H 
ATOM     19  H   LIG d   1       3.152  -0.394  -3.292  0.00  0.00     0.029 H 
ATOM     20  H   LIG d   1       2.877  -0.933  -1.619  0.00  0.00     0.029 H 
ATOM     21  H   LIG d   1       3.654   1.461  -1.786  0.00  0.00     0.034 H 
ATOM     22  H   LIG d   1       4.742   0.430  -0.821  0.00  0.00     0.034 H 
ENDROOT
BRANCH   1  23
ATOM     23  O   LIG d   1       8.497  -3.135  -5.288  0.00  0.00    -0.457 OA
BRANCH  23  24
ATOM     24  C   LIG d   1       8.060  -4.103  -6.117  0.00  0.00     0.335 C 
ATOM     25  O   LIG d   1       8.152  -3.961  -7.320  0.00  0.00    -0.245 OA
BRANCH  24  26
ATOM     26  C   LIG d   1       7.472  -5.332  -5.566  0.00  0.00     0.033 C 
ATOM     27  C   LIG d   1       8.229  -6.177  -4.869  0.00  0.00    -0.037 C 
ATOM     28  H   LIG d   1       7.782  -7.039  -4.396  0.00  0.00     0.061 H 
BRANCH  26  29
ATOM     29  C   LIG d   1       6.013  -5.636  -5.787  0.00  0.00    -0.033 C 
ATOM     30  H   LIG d   1       5.673  -6.355  -5.042  0.00  0.00     0.028 H 
ATOM     31  H   LIG d   1       5.433  -4.717  -5.696  0.00  0.00     0.028 H 
ATOM     32  H   LIG d   1       5.876  -6.054  -6.784  0.00  0.00     0.028 H 
ENDBRANCH  26  29
BRANCH  27  33
ATOM     33  C   LIG d   1       9.711  -5.932  -4.743  0.00  0.00     0.111 C 
ATOM     34  H   LIG d   1      10.257  -6.750  -5.214  0.00  0.00     0.074 H 
ATOM     35  H   LIG d   1       9.967  -4.993  -5.234  0.00  0.00     0.074 H 
BRANCH  33  36
ATOM     36  O   LIG d   1      10.065  -5.858  -3.361  0.00  0.00    -0.461 OA
BRANCH  36  37
ATOM     37  C   LIG d   1      10.276  -4.635  -2.849  0.00  0.00     0.304 C 
ATOM     38  O   LIG d   1       9.581  -4.230  -1.947  0.00  0.00    -0.251 OA
BRANCH  37  39
ATOM     39  C   LIG d   1      11.379  -3.768  -3.398  0.00  0.00     0.033 C 
ATOM     40  H   LIG d   1      11.690  -4.149  -4.371  0.00  0.00     0.034 H 
ATOM     41  H   LIG d   1      11.017  -2.746  -3.507  0.00  0.00     0.034 H 
ATOM     42  H   LIG d   1      12.228  -3.783  -2.713  0.00  0.00     0.034 H 
ENDBRANCH  37  39
ENDBRANCH  36  37
ENDBRANCH  33  36
ENDBRANCH  27  33
ENDBRANCH  24  26
ENDBRANCH  23  24
ENDBRANCH   1  23
BRANCH  15  43
ATOM     43  C   LIG d   1       9.326  -0.407  -5.624  0.00  0.00     0.039 C 
ATOM     44  C   LIG d   1       8.952  -0.485  -6.898  0.00  0.00    -0.088 C 
ATOM     45  H   LIG d   1       9.629  -0.173  -7.680  0.00  0.00     0.054 H 
ATOM     46  H   LIG d   1       7.971  -0.861  -7.152  0.00  0.00     0.054 H 
BRANCH  43  47
ATOM     47  C   LIG d   1      10.659   0.105  -5.280  0.00  0.00     0.335 C 
ATOM     48  O   LIG d   1      11.577  -0.669  -5.089  0.00  0.00    -0.245 OA
BRANCH  47  49
ATOM     49  O   LIG d   1      10.865   1.433  -5.175  0.00  0.00    -0.465 OA
BRANCH  49  50
ATOM     50  C   LIG d   1      10.783   2.002  -3.868  0.00  0.00     0.082 C 
ATOM     51  H   LIG d   1      10.672   3.083  -3.948  0.00  0.00     0.066 H 
ATOM     52  H   LIG d   1       9.922   1.586  -3.344  0.00  0.00     0.066 H 
ATOM     53  H   LIG d   1      11.692   1.770  -3.313  0.00  0.00     0.066 H 
ENDBRANCH  49  50
ENDBRANCH  47  49
ENDBRANCH  43  47
ENDBRANCH  15  43
BRANCH  13  54
ATOM     54  O   LIG d   1       6.672   0.652  -5.375  0.00  0.00    -0.390 OA
ATOM     55  H   LIG d   1       7.063   0.334  -6.201  0.00  0.00     0.210 HD
ENDBRANCH  13  54
BRANCH   4  56
ATOM     56  C   LIG d   1       4.910  -0.966  -4.885  0.00  0.00    -0.056 C 
ATOM     57  H   LIG d   1       3.840  -0.934  -4.686  0.00  0.00     0.024 H 
ATOM     58  H   LIG d   1       5.247   0.016  -5.219  0.00  0.00     0.024 H 
ATOM     59  H   LIG d   1       5.113  -1.703  -5.662  0.00  0.00     0.024 H 
ENDBRANCH   4  56
BRANCH   5  60
ATOM     60  O   LIG d   1       3.953  -2.937  -2.964  0.00  0.00    -0.391 OA
ATOM     61  H   LIG d   1       3.055  -3.017  -2.613  0.00  0.00     0.210 HD
ENDBRANCH   5  60
TORSDOF 15
ENDMDL
MODEL 9
REMARK VINA RESULT:      -5.4      2.285      5.633
REMARK  15 active torsions:
REMARK  status: ('A' for Active; 'I' for Inactive)
REMARK    1  A    between atoms: C_1  and  C_2 
REMARK    2  A    between atoms: C_2  and  C_9 
REMARK    3  A    between atoms: C_3  and  C_4 
REMARK    4  A    between atoms: C_4  and  O_5 
REMARK    5  A    between atoms: O_5  and  C_6 
REMARK    6  A    between atoms: C_6  and  C_8 
REMARK    7  A    between atoms: C_9  and  O_11 
REMARK    8  A    between atoms: O_11  and  C_12 
REMARK    9  A    between atoms: C_15  and  C_36 
REMARK   10  A    between atoms: C_16  and  O_35 
REMARK   11  A    between atoms: C_24  and  O_34 
REMARK   12  A    between atoms: C_26  and  C_28 
REMARK   13  A    between atoms: C_28  and  C_30 
REMARK   14  A    between atoms: C_30  and  O_32 
REMARK   15  A    between atoms: O_32  and  C_33 
ROOT
ATOM      1  C   LIG d   1       5.042  -2.712  -6.068  0.00  0.00     0.113 C 
ATOM      2  H   LIG d   1       6.015  -2.273  -6.285  0.00  0.00     0.074 H 
ATOM      3  C   LIG d   1       4.290  -2.957  -7.380  0.00  0.00    -0.006 C 
ATOM      4  C   LIG d   1       4.094  -1.622  -8.097  0.00  0.00     0.009 C 
ATOM      5  C   LIG d   1       3.375  -1.821  -9.429  0.00  0.00     0.062 C 
ATOM      6  H   LIG d   1       2.369  -2.199  -9.245  0.00  0.00     0.060 H 
ATOM      7  C   LIG d   1       3.291  -0.484 -10.169  0.00  0.00    -0.020 C 
ATOM      8  C   LIG d   1       2.457   0.509  -9.355  0.00  0.00     0.009 C 
ATOM      9  C   LIG d   1       3.029   0.598  -7.955  0.00  0.00     0.140 C 
ATOM     10  O   LIG d   1       3.290   1.665  -7.454  0.00  0.00    -0.297 OA
ATOM     11  C   LIG d   1       3.261  -0.693  -7.206  0.00  0.00     0.052 C 
ATOM     12  H   LIG d   1       2.302  -1.163  -6.984  0.00  0.00     0.041 H 
ATOM     13  C   LIG d   1       4.024  -0.429  -5.910  0.00  0.00     0.076 C 
ATOM     14  H   LIG d   1       3.445   0.244  -5.277  0.00  0.00     0.061 H 
ATOM     15  C   LIG d   1       4.241  -1.759  -5.181  0.00  0.00     0.054 C 
ATOM     16  H   LIG d   1       3.275  -2.207  -4.947  0.00  0.00     0.041 H 
ATOM     17  H   LIG d   1       4.869  -3.629  -8.012  0.00  0.00     0.031 H 
ATOM     18  H   LIG d   1       3.318  -3.401  -7.166  0.00  0.00     0.031 H 
ATOM     19  H   LIG d   1       4.296  -0.084 -10.307  0.00  0.00     0.029 H 
ATOM     20  H   LIG d   1       2.825  -0.636 -11.142  0.00  0.00     0.029 H 
ATOM     21  H   LIG d   1       2.493   1.491  -9.828  0.00  0.00     0.034 H 
ATOM     22  H   LIG d   1       1.424   0.163  -9.306  0.00  0.00     0.034 H 
ENDROOT
BRANCH   1  23
ATOM     23  O   LIG d   1       5.223  -3.955  -5.386  0.00  0.00    -0.457 OA
BRANCH  23  24
ATOM     24  C   LIG d   1       6.370  -4.622  -5.622  0.00  0.00     0.335 C 
ATOM     25  O   LIG d   1       7.319  -4.481  -4.876  0.00  0.00    -0.245 OA
BRANCH  24  26
ATOM     26  C   LIG d   1       6.473  -5.519  -6.781  0.00  0.00     0.033 C 
ATOM     27  C   LIG d   1       5.789  -6.661  -6.802  0.00  0.00    -0.037 C 
ATOM     28  H   LIG d   1       5.801  -7.282  -7.685  0.00  0.00     0.061 H 
BRANCH  26  29
ATOM     29  C   LIG d   1       7.354  -5.147  -7.947  0.00  0.00    -0.033 C 
ATOM     30  H   LIG d   1       8.092  -5.932  -8.110  0.00  0.00     0.028 H 
ATOM     31  H   LIG d   1       6.741  -5.033  -8.841  0.00  0.00     0.028 H 
ATOM     32  H   LIG d   1       7.863  -4.208  -7.732  0.00  0.00     0.028 H 
ENDBRANCH  26  29
BRANCH  27  33
ATOM     33  C   LIG d   1       4.998  -7.087  -5.591  0.00  0.00     0.111 C 
ATOM     34  H   LIG d   1       5.596  -6.931  -4.693  0.00  0.00     0.074 H 
ATOM     35  H   LIG d   1       4.085  -6.495  -5.527  0.00  0.00     0.074 H 
BRANCH  33  36
ATOM     36  O   LIG d   1       4.663  -8.471  -5.705  0.00  0.00    -0.461 OA
BRANCH  36  37
ATOM     37  C   LIG d   1       4.705  -9.203  -4.580  0.00  0.00     0.304 C 
ATOM     38  O   LIG d   1       3.677  -9.525  -4.031  0.00  0.00    -0.251 OA
BRANCH  37  39
ATOM     39  C   LIG d   1       6.031  -9.624  -4.002  0.00  0.00     0.033 C 
ATOM     40  H   LIG d   1       6.319  -8.929  -3.212  0.00  0.00     0.034 H 
ATOM     41  H   LIG d   1       5.944 -10.628  -3.588  0.00  0.00     0.034 H 
ATOM     42  H   LIG d   1       6.788  -9.616  -4.786  0.00  0.00     0.034 H 
ENDBRANCH  37  39
ENDBRANCH  36  37
ENDBRANCH  33  36
ENDBRANCH  27  33
ENDBRANCH  24  26
ENDBRANCH  23  24
ENDBRANCH   1  23
BRANCH  15  43
ATOM     43  C   LIG d   1       4.997  -1.509  -3.902  0.00  0.00     0.039 C 
ATOM     44  C   LIG d   1       6.305  -1.267  -3.940  0.00  0.00    -0.088 C 
ATOM     45  H   LIG d   1       6.849  -1.088  -3.023  0.00  0.00     0.054 H 
ATOM     46  H   LIG d   1       6.825  -1.249  -4.887  0.00  0.00     0.054 H 
BRANCH  43  47
ATOM     47  C   LIG d   1       4.292  -1.532  -2.614  0.00  0.00     0.335 C 
ATOM     48  O   LIG d   1       3.620  -2.497  -2.306  0.00  0.00    -0.245 OA
BRANCH  47  49
ATOM     49  O   LIG d   1       4.390  -0.483  -1.772  0.00  0.00    -0.465 OA
BRANCH  49  50
ATOM     50  C   LIG d   1       3.840   0.759  -2.216  0.00  0.00     0.082 C 
ATOM     51  H   LIG d   1       3.427   0.636  -3.218  0.00  0.00     0.066 H 
ATOM     52  H   LIG d   1       3.049   1.070  -1.533  0.00  0.00     0.066 H 
ATOM     53  H   LIG d   1       4.622   1.517  -2.236  0.00  0.00     0.066 H 
ENDBRANCH  49  50
ENDBRANCH  47  49
ENDBRANCH  43  47
ENDBRANCH  15  43
BRANCH  13  54
ATOM     54  O   LIG d   1       5.288   0.167  -6.211  0.00  0.00    -0.390 OA
ATOM     55  H   LIG d   1       5.223   1.057  -6.585  0.00  0.00     0.210 HD
ENDBRANCH  13  54
BRANCH   4  56
ATOM     56  C   LIG d   1       5.459  -0.982  -8.359  0.00  0.00    -0.056 C 
ATOM     57  H   LIG d   1       5.884  -1.394  -9.274  0.00  0.00     0.024 H 
ATOM     58  H   LIG d   1       5.340   0.096  -8.467  0.00  0.00     0.024 H 
ATOM     59  H   LIG d   1       6.125  -1.192  -7.522  0.00  0.00     0.024 H 
ENDBRANCH   4  56
BRANCH   5  60
ATOM     60  O   LIG d   1       4.099  -2.762 -10.224  0.00  0.00    -0.391 OA
ATOM     61  H   LIG d   1       3.874  -3.685 -10.045  0.00  0.00     0.210 HD
ENDBRANCH   5  60
TORSDOF 15
ENDMDL
MODEL 10
REMARK VINA RESULT:      -5.3      3.039      3.952
REMARK  15 active torsions:
REMARK  status: ('A' for Active; 'I' for Inactive)
REMARK    1  A    between atoms: C_1  and  C_2 
REMARK    2  A    between atoms: C_2  and  C_9 
REMARK    3  A    between atoms: C_3  and  C_4 
REMARK    4  A    between atoms: C_4  and  O_5 
REMARK    5  A    between atoms: O_5  and  C_6 
REMARK    6  A    between atoms: C_6  and  C_8 
REMARK    7  A    between atoms: C_9  and  O_11 
REMARK    8  A    between atoms: O_11  and  C_12 
REMARK    9  A    between atoms: C_15  and  C_36 
REMARK   10  A    between atoms: C_16  and  O_35 
REMARK   11  A    between atoms: C_24  and  O_34 
REMARK   12  A    between atoms: C_26  and  C_28 
REMARK   13  A    between atoms: C_28  and  C_30 
REMARK   14  A    between atoms: C_30  and  O_32 
REMARK   15  A    between atoms: O_32  and  C_33 
ROOT
ATOM      1  C   LIG d   1       7.596  -1.326  -5.921  0.00  0.00     0.113 C 
ATOM      2  H   LIG d   1       7.030  -0.642  -6.552  0.00  0.00     0.074 H 
ATOM      3  C   LIG d   1       6.636  -2.318  -5.257  0.00  0.00    -0.006 C 
ATOM      4  C   LIG d   1       5.638  -1.545  -4.397  0.00  0.00     0.009 C 
ATOM      5  C   LIG d   1       4.639  -2.493  -3.739  0.00  0.00     0.062 C 
ATOM      6  H   LIG d   1       5.164  -3.152  -3.048  0.00  0.00     0.060 H 
ATOM      7  C   LIG d   1       3.591  -1.680  -2.975  0.00  0.00    -0.020 C 
ATOM      8  C   LIG d   1       4.265  -0.891  -1.849  0.00  0.00     0.009 C 
ATOM      9  C   LIG d   1       5.395  -0.071  -2.435  0.00  0.00     0.140 C 
ATOM     10  O   LIG d   1       5.489   1.112  -2.211  0.00  0.00    -0.297 OA
ATOM     11  C   LIG d   1       6.402  -0.781  -3.309  0.00  0.00     0.052 C 
ATOM     12  H   LIG d   1       6.978  -1.483  -2.706  0.00  0.00     0.041 H 
ATOM     13  C   LIG d   1       7.339   0.227  -3.972  0.00  0.00     0.076 C 
ATOM     14  H   LIG d   1       7.875   0.786  -3.204  0.00  0.00     0.061 H 
ATOM     15  C   LIG d   1       8.341  -0.530  -4.849  0.00  0.00     0.054 C 
ATOM     16  H   LIG d   1       8.924  -1.212  -4.230  0.00  0.00     0.041 H 
ATOM     17  H   LIG d   1       6.101  -2.876  -6.025  0.00  0.00     0.031 H 
ATOM     18  H   LIG d   1       7.201  -3.007  -4.629  0.00  0.00     0.031 H 
ATOM     19  H   LIG d   1       3.101  -0.987  -3.659  0.00  0.00     0.029 H 
ATOM     20  H   LIG d   1       2.848  -2.355  -2.550  0.00  0.00     0.029 H 
ATOM     21  H   LIG d   1       3.537  -0.229  -1.380  0.00  0.00     0.034 H 
ATOM     22  H   LIG d   1       4.664  -1.584  -1.107  0.00  0.00     0.034 H 
ENDROOT
BRANCH   1  23
ATOM     23  O   LIG d   1       8.539  -2.041  -6.722  0.00  0.00    -0.457 OA
BRANCH  23  24
ATOM     24  C   LIG d   1       8.187  -2.301  -7.996  0.00  0.00     0.335 C 
ATOM     25  O   LIG d   1       7.607  -3.334  -8.268  0.00  0.00    -0.245 OA
BRANCH  24  26
ATOM     26  C   LIG d   1       8.504  -1.336  -9.057  0.00  0.00     0.033 C 
ATOM     27  C   LIG d   1       7.555  -0.530  -9.528  0.00  0.00    -0.037 C 
ATOM     28  H   LIG d   1       7.803   0.234 -10.250  0.00  0.00     0.061 H 
BRANCH  26  29
ATOM     29  C   LIG d   1       9.903  -1.256  -9.612  0.00  0.00    -0.033 C 
ATOM     30  H   LIG d   1       9.956  -0.458 -10.353  0.00  0.00     0.028 H 
ATOM     31  H   LIG d   1      10.603  -1.047  -8.803  0.00  0.00     0.028 H 
ATOM     32  H   LIG d   1      10.162  -2.205 -10.081  0.00  0.00     0.028 H 
ENDBRANCH  26  29
BRANCH  27  33
ATOM     33  C   LIG d   1       6.132  -0.685  -9.055  0.00  0.00     0.111 C 
ATOM     34  H   LIG d   1       5.496  -0.957  -9.898  0.00  0.00     0.074 H 
ATOM     35  H   LIG d   1       6.084  -1.468  -8.298  0.00  0.00     0.074 H 
BRANCH  33  36
ATOM     36  O   LIG d   1       5.679   0.548  -8.496  0.00  0.00    -0.461 OA
BRANCH  36  37
ATOM     37  C   LIG d   1       5.369   1.531  -9.356  0.00  0.00     0.304 C 
ATOM     38  O   LIG d   1       5.932   2.598  -9.284  0.00  0.00    -0.251 OA
BRANCH  37  39
ATOM     39  C   LIG d   1       4.319   1.305 -10.413  0.00  0.00     0.033 C 
ATOM     40  H   LIG d   1       4.448   0.312 -10.845  0.00  0.00     0.034 H 
ATOM     41  H   LIG d   1       3.329   1.379  -9.964  0.00  0.00     0.034 H 
ATOM     42  H   LIG d   1       4.422   2.058 -11.195  0.00  0.00     0.034 H 
ENDBRANCH  37  39
ENDBRANCH  36  37
ENDBRANCH  33  36
ENDBRANCH  27  33
ENDBRANCH  24  26
ENDBRANCH  23  24
ENDBRANCH   1  23
BRANCH  15  43
ATOM     43  C   LIG d   1       9.268   0.457  -5.511  0.00  0.00     0.039 C 
ATOM     44  C   LIG d   1       8.843   1.176  -6.548  0.00  0.00    -0.088 C 
ATOM     45  H   LIG d   1       9.507   1.883  -7.024  0.00  0.00     0.054 H 
ATOM     46  H   LIG d   1       7.834   1.052  -6.914  0.00  0.00     0.054 H 
BRANCH  43  47
ATOM     47  C   LIG d   1      10.639   0.627  -5.014  0.00  0.00     0.335 C 
ATOM     48  O   LIG d   1      11.395  -0.324  -4.980  0.00  0.00    -0.245 OA
BRANCH  47  49
ATOM     49  O   LIG d   1      11.060   1.837  -4.594  0.00  0.00    -0.465 OA
BRANCH  49  50
ATOM     50  C   LIG d   1      10.459   2.357  -3.407  0.00  0.00     0.082 C 
ATOM     51  H   LIG d   1       9.776   3.165  -3.668  0.00  0.00     0.066 H 
ATOM     52  H   LIG d   1       9.907   1.564  -2.902  0.00  0.00     0.066 H 
ATOM     53  H   LIG d   1      11.236   2.738  -2.743  0.00  0.00     0.066 H 
ENDBRANCH  49  50
ENDBRANCH  47  49
ENDBRANCH  43  47
ENDBRANCH  15  43
BRANCH  13  54
ATOM     54  O   LIG d   1       6.578   1.129  -4.778  0.00  0.00    -0.390 OA
ATOM     55  H   LIG d   1       7.116   1.760  -5.276  0.00  0.00     0.210 HD
ENDBRANCH  13  54
BRANCH   4  56
ATOM     56  C   LIG d   1       4.877  -0.550  -5.275  0.00  0.00    -0.056 C 
ATOM     57  H   LIG d   1       3.850  -0.463  -4.920  0.00  0.00     0.024 H 
ATOM     58  H   LIG d   1       5.362   0.425  -5.224  0.00  0.00     0.024 H 
ATOM     59  H   LIG d   1       4.876  -0.902  -6.306  0.00  0.00     0.024 H 
ENDBRANCH   4  56
BRANCH   5  60
ATOM     60  O   LIG d   1       3.994  -3.277  -4.745  0.00  0.00    -0.391 OA
ATOM     61  H   LIG d   1       4.582  -3.894  -5.201  0.00  0.00     0.210 HD
ENDBRANCH   5  60
TORSDOF 15
ENDMDL
