MODEL 1
REMARK VINA RESULT:      -6.3      0.000      0.000
REMARK  5 active torsions:
REMARK  status: ('A' for Active; 'I' for Inactive)
REMARK    1  A    between atoms: C_1  and  S_2 
REMARK    2  A    between atoms: S_2  and  N_5 
REMARK    3  A    between atoms: CA_15  and  CB_19 
REMARK    4  A    between atoms: CB_19  and  CG_20 
REMARK    5  A    between atoms: CZ_23  and  OH_26 
ROOT
ATOM      1  N   UNK d   1       3.182  -3.650 -10.593  0.00  0.00    -0.178 N 
ATOM      2  C   UNK d   1       3.150  -5.067 -10.257  0.00  0.00     0.036 C 
ATOM      3  C   UNK d   1       3.073  -5.260  -8.755  0.00  0.00     0.030 C 
ATOM      4  N   UNK d   1       3.852  -4.289  -8.011  0.00  0.00    -0.286 N 
ATOM      5  C   UNK d   1       4.401  -3.055  -8.533  0.00  0.00     0.117 C 
ATOM      6  H   UNK d   1       5.481  -3.160  -8.430  0.00  0.00     0.061 H 
ATOM      7  C   UNK d   1       4.156  -2.759  -9.983  0.00  0.00     0.047 C 
ATOM      8  C   UNK d   1       4.019  -1.914  -7.623  0.00  0.00     0.235 C 
ATOM      9  O   UNK d   1       3.583  -0.866  -8.051  0.00  0.00    -0.274 OA
ATOM     10  H   UNK d   1       4.052  -5.547 -10.635  0.00  0.00     0.046 H 
ATOM     11  H   UNK d   1       2.277  -5.527 -10.723  0.00  0.00     0.046 H 
ATOM     12  H   UNK d   1       2.031  -5.183  -8.445  0.00  0.00     0.048 H 
ATOM     13  H   UNK d   1       3.435  -6.259  -8.511  0.00  0.00     0.048 H 
ATOM     14  H   UNK d   1       5.099  -2.849 -10.523  0.00  0.00     0.047 H 
ATOM     15  H   UNK d   1       3.798  -1.733 -10.074  0.00  0.00     0.047 H 
ATOM     16  N   TYR d   2       4.196  -2.133  -6.287  0.00  0.00    -0.302 N 
ATOM     17  CA  TYR d   2       4.770  -3.432  -5.894  0.00  0.00     0.104 C 
ATOM     18  HA  TYR d   2       5.836  -3.448  -6.124  0.00  0.00     0.060 H 
ATOM     19  C   TYR d   2       4.065  -4.523  -6.675  0.00  0.00     0.237 C 
ATOM     20  O   TYR d   2       3.706  -5.552  -6.144  0.00  0.00    -0.274 OA
ATOM     21  H   TYR d   2       3.955  -1.464  -5.626  0.00  0.00     0.149 HD
ENDROOT
BRANCH  17  22
ATOM     22  CB  TYR d   2       4.563  -3.655  -4.395  0.00  0.00    -0.001 C 
ATOM     23  HB1 TYR d   2       3.565  -4.056  -4.221  0.00  0.00     0.034 H 
ATOM     24  HB2 TYR d   2       5.307  -4.361  -4.026  0.00  0.00     0.034 H 
BRANCH  22  25
ATOM     25  CG  TYR d   2       4.711  -2.345  -3.667  0.00  0.00    -0.045 A 
ATOM     26  CD1 TYR d   2       3.641  -1.821  -2.963  0.00  0.00    -0.055 A 
ATOM     27  CE1 TYR d   2       3.774  -0.620  -2.295  0.00  0.00    -0.020 A 
ATOM     28  HD1 TYR d   2       2.701  -2.354  -2.936  0.00  0.00     0.062 H 
ATOM     29  CZ  TYR d   2       4.980   0.063  -2.331  0.00  0.00     0.117 A 
ATOM     30  HE1 TYR d   2       2.938  -0.212  -1.745  0.00  0.00     0.065 H 
ATOM     31  CE2 TYR d   2       6.052  -0.463  -3.037  0.00  0.00    -0.020 A 
ATOM     32  CD2 TYR d   2       5.917  -1.668  -3.699  0.00  0.00    -0.055 A 
ATOM     33  HE2 TYR d   2       6.993   0.066  -3.066  0.00  0.00     0.065 H 
ATOM     34  HD2 TYR d   2       6.751  -2.080  -4.247  0.00  0.00     0.062 H 
BRANCH  29  35
ATOM     35  OH  TYR d   2       5.113   1.246  -1.674  0.00  0.00    -0.507 OA
ATOM     36  HH  TYR d   2       4.438   1.900  -1.903  0.00  0.00     0.292 HD
ENDBRANCH  29  35
ENDBRANCH  22  25
ENDBRANCH  17  22
BRANCH   1  37
ATOM     37  S   UNK d   1       2.094  -3.044 -11.685  0.00  0.00     0.029 S 
ATOM     38  O   UNK d   1       2.788  -3.037 -12.924  0.00  0.00    -0.158 OA
ATOM     39  O   UNK d   1       0.928  -3.836 -11.512  0.00  0.00    -0.158 OA
BRANCH  37  40
ATOM     40  C   UNK d   1       1.780  -1.343 -11.136  0.00  0.00     0.071 C 
ATOM     41  H   UNK d   1       0.821  -1.006 -11.528  0.00  0.00     0.048 H 
ATOM     42  H   UNK d   1       1.760  -1.312 -10.047  0.00  0.00     0.048 H 
ATOM     43  H   UNK d   1       2.573  -0.691 -11.503  0.00  0.00     0.048 H 
ENDBRANCH  37  40
ENDBRANCH   1  37
TORSDOF 5
ENDMDL
MODEL 2
REMARK VINA RESULT:      -6.1      3.334      8.207
REMARK  5 active torsions:
REMARK  status: ('A' for Active; 'I' for Inactive)
REMARK    1  A    between atoms: C_1  and  S_2 
REMARK    2  A    between atoms: S_2  and  N_5 
REMARK    3  A    between atoms: CA_15  and  CB_19 
REMARK    4  A    between atoms: CB_19  and  CG_20 
REMARK    5  A    between atoms: CZ_23  and  OH_26 
ROOT
ATOM      1  N   UNK d   1       3.992  -0.128  -4.757  0.00  0.00    -0.178 N 
ATOM      2  C   UNK d   1       4.733  -1.337  -5.092  0.00  0.00     0.036 C 
ATOM      3  C   UNK d   1       5.100  -1.350  -6.564  0.00  0.00     0.030 C 
ATOM      4  N   UNK d   1       4.069  -0.792  -7.417  0.00  0.00    -0.286 N 
ATOM      5  C   UNK d   1       2.938   0.001  -6.983  0.00  0.00     0.117 C 
ATOM      6  H   UNK d   1       2.060  -0.584  -7.260  0.00  0.00     0.061 H 
ATOM      7  C   UNK d   1       2.810   0.258  -5.510  0.00  0.00     0.047 C 
ATOM      8  C   UNK d   1       2.862   1.258  -7.813  0.00  0.00     0.235 C 
ATOM      9  O   UNK d   1       2.689   2.350  -7.313  0.00  0.00    -0.274 OA
ATOM     10  H   UNK d   1       4.119  -2.209  -4.868  0.00  0.00     0.046 H 
ATOM     11  H   UNK d   1       5.644  -1.377  -4.494  0.00  0.00     0.046 H 
ATOM     12  H   UNK d   1       6.015  -0.774  -6.701  0.00  0.00     0.048 H 
ATOM     13  H   UNK d   1       5.287  -2.379  -6.869  0.00  0.00     0.048 H 
ATOM     14  H   UNK d   1       1.954  -0.302  -5.131  0.00  0.00     0.047 H 
ATOM     15  H   UNK d   1       2.627   1.322  -5.357  0.00  0.00     0.047 H 
ATOM     16  N   TYR d   2       2.997   1.092  -9.161  0.00  0.00    -0.302 N 
ATOM     17  CA  TYR d   2       3.161  -0.289  -9.649  0.00  0.00     0.104 C 
ATOM     18  HA  TYR d   2       2.208  -0.814  -9.594  0.00  0.00     0.060 H 
ATOM     19  C   TYR d   2       4.179  -0.989  -8.772  0.00  0.00     0.237 C 
ATOM     20  O   TYR d   2       5.050  -1.688  -9.245  0.00  0.00    -0.274 OA
ATOM     21  H   TYR d   2       2.984   1.848  -9.770  0.00  0.00     0.149 HD
ENDROOT
BRANCH  17  22
ATOM     22  CB  TYR d   2       3.656  -0.268 -11.096  0.00  0.00    -0.001 C 
ATOM     23  HB1 TYR d   2       3.755   0.763 -11.432  0.00  0.00     0.034 H 
ATOM     24  HB2 TYR d   2       4.624  -0.764 -11.157  0.00  0.00     0.034 H 
BRANCH  22  25
ATOM     25  CG  TYR d   2       2.667  -0.990 -11.976  0.00  0.00    -0.045 A 
ATOM     26  CD1 TYR d   2       3.078  -1.520 -13.186  0.00  0.00    -0.055 A 
ATOM     27  CE1 TYR d   2       2.175  -2.182 -13.994  0.00  0.00    -0.020 A 
ATOM     28  HD1 TYR d   2       4.108  -1.416 -13.498  0.00  0.00     0.062 H 
ATOM     29  CZ  TYR d   2       0.853  -2.313 -13.592  0.00  0.00     0.117 A 
ATOM     30  HE1 TYR d   2       2.497  -2.595 -14.938  0.00  0.00     0.065 H 
ATOM     31  CE2 TYR d   2       0.443  -1.781 -12.379  0.00  0.00    -0.020 A 
ATOM     32  CD2 TYR d   2       1.352  -1.126 -11.571  0.00  0.00    -0.055 A 
ATOM     33  HE2 TYR d   2      -0.585  -1.883 -12.063  0.00  0.00     0.065 H 
ATOM     34  HD2 TYR d   2       1.035  -0.714 -10.624  0.00  0.00     0.062 H 
BRANCH  29  35
ATOM     35  OH  TYR d   2      -0.038  -2.963 -14.386  0.00  0.00    -0.507 OA
ATOM     36  HH  TYR d   2       0.152  -3.905 -14.502  0.00  0.00     0.292 HD
ENDBRANCH  29  35
ENDBRANCH  22  25
ENDBRANCH  17  22
BRANCH   1  37
ATOM     37  S   UNK d   1       4.504   0.822  -3.500  0.00  0.00     0.029 S 
ATOM     38  O   UNK d   1       5.889   1.026  -3.740  0.00  0.00    -0.158 OA
ATOM     39  O   UNK d   1       3.601   1.919  -3.484  0.00  0.00    -0.158 OA
BRANCH  37  40
ATOM     40  C   UNK d   1       4.271  -0.200  -2.019  0.00  0.00     0.071 C 
ATOM     41  H   UNK d   1       3.248  -0.577  -1.995  0.00  0.00     0.048 H 
ATOM     42  H   UNK d   1       4.967  -1.038  -2.044  0.00  0.00     0.048 H 
ATOM     43  H   UNK d   1       4.458   0.402  -1.129  0.00  0.00     0.048 H 
ENDBRANCH  37  40
ENDBRANCH   1  37
TORSDOF 5
ENDMDL
MODEL 3
REMARK VINA RESULT:      -5.9      9.181     10.790
REMARK  5 active torsions:
REMARK  status: ('A' for Active; 'I' for Inactive)
REMARK    1  A    between atoms: C_1  and  S_2 
REMARK    2  A    between atoms: S_2  and  N_5 
REMARK    3  A    between atoms: CA_15  and  CB_19 
REMARK    4  A    between atoms: CB_19  and  CG_20 
REMARK    5  A    between atoms: CZ_23  and  OH_26 
ROOT
ATOM      1  N   UNK d   1       5.350  -9.870  -3.914  0.00  0.00    -0.178 N 
ATOM      2  C   UNK d   1       6.380  -8.994  -4.458  0.00  0.00     0.036 C 
ATOM      3  C   UNK d   1       7.747  -9.383  -3.930  0.00  0.00     0.030 C 
ATOM      4  N   UNK d   1       7.726  -9.815  -2.546  0.00  0.00    -0.286 N 
ATOM      5  C   UNK d   1       6.550 -10.175  -1.782  0.00  0.00     0.117 C 
ATOM      6  H   UNK d   1       6.509  -9.452  -0.968  0.00  0.00     0.061 H 
ATOM      7  C   UNK d   1       5.226 -10.079  -2.481  0.00  0.00     0.047 C 
ATOM      8  C   UNK d   1       6.775 -11.513  -1.120  0.00  0.00     0.235 C 
ATOM      9  O   UNK d   1       5.941 -12.393  -1.147  0.00  0.00    -0.274 OA
ATOM     10  H   UNK d   1       6.164  -7.965  -4.173  0.00  0.00     0.046 H 
ATOM     11  H   UNK d   1       6.379  -9.072  -5.546  0.00  0.00     0.046 H 
ATOM     12  H   UNK d   1       8.141 -10.194  -4.542  0.00  0.00     0.048 H 
ATOM     13  H   UNK d   1       8.414  -8.525  -4.019  0.00  0.00     0.048 H 
ATOM     14  H   UNK d   1       4.664  -9.248  -2.052  0.00  0.00     0.047 H 
ATOM     15  H   UNK d   1       4.672 -11.002  -2.307  0.00  0.00     0.047 H 
ATOM     16  N   TYR d   2       7.975 -11.670  -0.488  0.00  0.00    -0.302 N 
ATOM     17  CA  TYR d   2       8.887 -10.513  -0.491  0.00  0.00     0.104 C 
ATOM     18  HA  TYR d   2       8.524  -9.756   0.205  0.00  0.00     0.060 H 
ATOM     19  C   TYR d   2       8.928  -9.939  -1.892  0.00  0.00     0.237 C 
ATOM     20  O   TYR d   2       9.972  -9.607  -2.412  0.00  0.00    -0.274 OA
ATOM     21  H   TYR d   2       8.215 -12.506  -0.055  0.00  0.00     0.149 HD
ENDROOT
BRANCH  17  22
ATOM     22  CB  TYR d   2      10.290 -10.962  -0.077  0.00  0.00    -0.001 C 
ATOM     23  HB1 TYR d   2      10.276 -12.026   0.159  0.00  0.00     0.034 H 
ATOM     24  HB2 TYR d   2      10.986 -10.781  -0.896  0.00  0.00     0.034 H 
BRANCH  22  25
ATOM     25  CG  TYR d   2      10.730 -10.184   1.136  0.00  0.00    -0.045 A 
ATOM     26  CD1 TYR d   2      10.911 -10.832   2.344  0.00  0.00    -0.055 A 
ATOM     27  CE1 TYR d   2      11.314 -10.121   3.457  0.00  0.00    -0.020 A 
ATOM     28  HD1 TYR d   2      10.737 -11.896   2.416  0.00  0.00     0.062 H 
ATOM     29  CZ  TYR d   2      11.535  -8.755   3.364  0.00  0.00     0.117 A 
ATOM     30  HE1 TYR d   2      11.455 -10.629   4.400  0.00  0.00     0.065 H 
ATOM     31  CE2 TYR d   2      11.353  -8.106   2.151  0.00  0.00    -0.020 A 
ATOM     32  CD2 TYR d   2      10.956  -8.822   1.039  0.00  0.00    -0.055 A 
ATOM     33  HE2 TYR d   2      11.526  -7.043   2.075  0.00  0.00     0.065 H 
ATOM     34  HD2 TYR d   2      10.817  -8.319   0.093  0.00  0.00     0.062 H 
BRANCH  29  35
ATOM     35  OH  TYR d   2      11.931  -8.053   4.458  0.00  0.00    -0.507 OA
ATOM     36  HH  TYR d   2      11.419  -7.247   4.615  0.00  0.00     0.292 HD
ENDBRANCH  29  35
ENDBRANCH  22  25
ENDBRANCH  17  22
BRANCH   1  37
ATOM     37  S   UNK d   1       4.304 -10.639  -4.944  0.00  0.00     0.029 S 
ATOM     38  O   UNK d   1       3.164 -10.934  -4.150  0.00  0.00    -0.158 OA
ATOM     39  O   UNK d   1       4.202  -9.776  -6.067  0.00  0.00    -0.158 OA
BRANCH  37  40
ATOM     40  C   UNK d   1       5.154 -12.173  -5.410  0.00  0.00     0.071 C 
ATOM     41  H   UNK d   1       6.197 -12.120  -5.098  0.00  0.00     0.048 H 
ATOM     42  H   UNK d   1       4.671 -13.018  -4.922  0.00  0.00     0.048 H 
ATOM     43  H   UNK d   1       5.105 -12.301  -6.492  0.00  0.00     0.048 H 
ENDBRANCH  37  40
ENDBRANCH   1  37
TORSDOF 5
ENDMDL
MODEL 4
REMARK VINA RESULT:      -5.8      1.956      2.337
REMARK  5 active torsions:
REMARK  status: ('A' for Active; 'I' for Inactive)
REMARK    1  A    between atoms: C_1  and  S_2 
REMARK    2  A    between atoms: S_2  and  N_5 
REMARK    3  A    between atoms: CA_15  and  CB_19 
REMARK    4  A    between atoms: CB_19  and  CG_20 
REMARK    5  A    between atoms: CZ_23  and  OH_26 
ROOT
ATOM      1  N   UNK d   1       4.351  -1.366 -10.340  0.00  0.00    -0.178 N 
ATOM      2  C   UNK d   1       3.711  -2.668 -10.197  0.00  0.00     0.036 C 
ATOM      3  C   UNK d   1       3.562  -3.033  -8.733  0.00  0.00     0.030 C 
ATOM      4  N   UNK d   1       4.685  -2.610  -7.919  0.00  0.00    -0.286 N 
ATOM      5  C   UNK d   1       5.712  -1.665  -8.305  0.00  0.00     0.117 C 
ATOM      6  H   UNK d   1       6.641  -2.235  -8.290  0.00  0.00     0.061 H 
ATOM      7  C   UNK d   1       5.615  -1.078  -9.683  0.00  0.00     0.047 C 
ATOM      8  C   UNK d   1       5.861  -0.622  -7.226  0.00  0.00     0.235 C 
ATOM      9  O   UNK d   1       5.919   0.563  -7.479  0.00  0.00    -0.274 OA
ATOM     10  H   UNK d   1       4.317  -3.424 -10.696  0.00  0.00     0.046 H 
ATOM     11  H   UNK d   1       2.724  -2.635 -10.662  0.00  0.00     0.046 H 
ATOM     12  H   UNK d   1       2.656  -2.566  -8.346  0.00  0.00     0.048 H 
ATOM     13  H   UNK d   1       3.458  -4.115  -8.651  0.00  0.00     0.048 H 
ATOM     14  H   UNK d   1       6.426  -1.479 -10.291  0.00  0.00     0.047 H 
ATOM     15  H   UNK d   1       5.734   0.003  -9.610  0.00  0.00     0.047 H 
ATOM     16  N   TYR d   2       5.930  -1.094  -5.947  0.00  0.00    -0.302 N 
ATOM     17  CA  TYR d   2       5.888  -2.556  -5.773  0.00  0.00     0.104 C 
ATOM     18  HA  TYR d   2       6.842  -2.989  -6.073  0.00  0.00     0.060 H 
ATOM     19  C   TYR d   2       4.780  -3.111  -6.644  0.00  0.00     0.237 C 
ATOM     20  O   TYR d   2       4.013  -3.956  -6.233  0.00  0.00    -0.274 OA
ATOM     21  H   TYR d   2       6.003  -0.493  -5.188  0.00  0.00     0.149 HD
ENDROOT
BRANCH  17  22
ATOM     22  CB  TYR d   2       5.608  -2.892  -4.307  0.00  0.00    -0.001 C 
ATOM     23  HB1 TYR d   2       4.922  -3.736  -4.251  0.00  0.00     0.034 H 
ATOM     24  HB2 TYR d   2       6.542  -3.151  -3.808  0.00  0.00     0.034 H 
BRANCH  22  25
ATOM     25  CG  TYR d   2       4.992  -1.698  -3.626  0.00  0.00    -0.045 A 
ATOM     26  CD1 TYR d   2       3.616  -1.561  -3.584  0.00  0.00    -0.055 A 
ATOM     27  CE1 TYR d   2       3.048  -0.467  -2.960  0.00  0.00    -0.020 A 
ATOM     28  HD1 TYR d   2       2.986  -2.311  -4.038  0.00  0.00     0.062 H 
ATOM     29  CZ  TYR d   2       3.859   0.496  -2.377  0.00  0.00     0.117 A 
ATOM     30  HE1 TYR d   2       1.974  -0.361  -2.928  0.00  0.00     0.065 H 
ATOM     31  CE2 TYR d   2       5.239   0.357  -2.421  0.00  0.00    -0.020 A 
ATOM     32  CD2 TYR d   2       5.802  -0.741  -3.040  0.00  0.00    -0.055 A 
ATOM     33  HE2 TYR d   2       5.872   1.105  -1.967  0.00  0.00     0.065 H 
ATOM     34  HD2 TYR d   2       6.876  -0.853  -3.071  0.00  0.00     0.062 H 
BRANCH  29  35
ATOM     35  OH  TYR d   2       3.303   1.574  -1.764  0.00  0.00    -0.507 OA
ATOM     36  HH  TYR d   2       3.356   2.391  -2.280  0.00  0.00     0.292 HD
ENDBRANCH  29  35
ENDBRANCH  22  25
ENDBRANCH  17  22
BRANCH   1  37
ATOM     37  S   UNK d   1       3.628  -0.198 -11.265  0.00  0.00     0.029 S 
ATOM     38  O   UNK d   1       2.241  -0.501 -11.213  0.00  0.00    -0.158 OA
ATOM     39  O   UNK d   1       4.121   1.030 -10.749  0.00  0.00    -0.158 OA
BRANCH  37  40
ATOM     40  C   UNK d   1       4.264  -0.471 -12.942  0.00  0.00     0.071 C 
ATOM     41  H   UNK d   1       5.350  -0.554 -12.909  0.00  0.00     0.048 H 
ATOM     42  H   UNK d   1       3.840  -1.390 -13.346  0.00  0.00     0.048 H 
ATOM     43  H   UNK d   1       3.983   0.368 -13.579  0.00  0.00     0.048 H 
ENDBRANCH  37  40
ENDBRANCH   1  37
TORSDOF 5
ENDMDL
MODEL 5
REMARK VINA RESULT:      -5.8     13.405     15.169
REMARK  5 active torsions:
REMARK  status: ('A' for Active; 'I' for Inactive)
REMARK    1  A    between atoms: C_1  and  S_2 
REMARK    2  A    between atoms: S_2  and  N_5 
REMARK    3  A    between atoms: CA_15  and  CB_19 
REMARK    4  A    between atoms: CB_19  and  CG_20 
REMARK    5  A    between atoms: CZ_23  and  OH_26 
ROOT
ATOM      1  N   UNK d   1      10.693  12.735  -6.547  0.00  0.00    -0.178 N 
ATOM      2  C   UNK d   1      11.462  11.716  -7.250  0.00  0.00     0.036 C 
ATOM      3  C   UNK d   1      11.094  10.330  -6.755  0.00  0.00     0.030 C 
ATOM      4  N   UNK d   1      10.834  10.281  -5.329  0.00  0.00    -0.286 N 
ATOM      5  C   UNK d   1      10.608  11.419  -4.463  0.00  0.00     0.117 C 
ATOM      6  H   UNK d   1      11.426  11.392  -3.743  0.00  0.00     0.061 H 
ATOM      7  C   UNK d   1      10.663  12.779  -5.094  0.00  0.00     0.047 C 
ATOM      8  C   UNK d   1       9.354  11.190  -3.656  0.00  0.00     0.235 C 
ATOM      9  O   UNK d   1       8.505  12.047  -3.529  0.00  0.00    -0.274 OA
ATOM     10  H   UNK d   1      12.525  11.887  -7.082  0.00  0.00     0.046 H 
ATOM     11  H   UNK d   1      11.253  11.783  -8.319  0.00  0.00     0.046 H 
ATOM     12  H   UNK d   1      10.203   9.995  -7.284  0.00  0.00     0.048 H 
ATOM     13  H   UNK d   1      11.913   9.648  -6.985  0.00  0.00     0.048 H 
ATOM     14  H   UNK d   1      11.558  13.292  -4.740  0.00  0.00     0.047 H 
ATOM     15  H   UNK d   1       9.787  13.345  -4.778  0.00  0.00     0.047 H 
ATOM     16  N   TYR d   2       9.234   9.960  -3.076  0.00  0.00    -0.302 N 
ATOM     17  CA  TYR d   2      10.351   9.019  -3.272  0.00  0.00     0.104 C 
ATOM     18  HA  TYR d   2      11.198   9.321  -2.655  0.00  0.00     0.060 H 
ATOM     19  C   TYR d   2      10.750   9.047  -4.733  0.00  0.00     0.237 C 
ATOM     20  O   TYR d   2      10.982   8.027  -5.346  0.00  0.00    -0.274 OA
ATOM     21  H   TYR d   2       8.449   9.717  -2.559  0.00  0.00     0.149 HD
ENDROOT
BRANCH  17  22
ATOM     22  CB  TYR d   2       9.909   7.607  -2.885  0.00  0.00    -0.001 C 
ATOM     23  HB1 TYR d   2       8.826   7.527  -2.975  0.00  0.00     0.034 H 
ATOM     24  HB2 TYR d   2      10.382   6.883  -3.548  0.00  0.00     0.034 H 
BRANCH  22  25
ATOM     25  CG  TYR d   2      10.316   7.325  -1.462  0.00  0.00    -0.045 A 
ATOM     26  CD1 TYR d   2      10.455   8.368  -0.564  0.00  0.00    -0.055 A 
ATOM     27  CE1 TYR d   2      10.828   8.112   0.741  0.00  0.00    -0.020 A 
ATOM     28  HD1 TYR d   2      10.270   9.383  -0.884  0.00  0.00     0.062 H 
ATOM     29  CZ  TYR d   2      11.066   6.808   1.151  0.00  0.00     0.117 A 
ATOM     30  HE1 TYR d   2      10.936   8.927   1.442  0.00  0.00     0.065 H 
ATOM     31  CE2 TYR d   2      10.926   5.764   0.249  0.00  0.00    -0.020 A 
ATOM     32  CD2 TYR d   2      10.547   6.024  -1.054  0.00  0.00    -0.055 A 
ATOM     33  HE2 TYR d   2      11.110   4.748   0.565  0.00  0.00     0.065 H 
ATOM     34  HD2 TYR d   2      10.434   5.211  -1.756  0.00  0.00     0.062 H 
BRANCH  29  35
ATOM     35  OH  TYR d   2      11.434   6.555   2.434  0.00  0.00    -0.507 OA
ATOM     36  HH  TYR d   2      10.719   6.210   2.987  0.00  0.00     0.292 HD
ENDBRANCH  29  35
ENDBRANCH  22  25
ENDBRANCH  17  22
BRANCH   1  37
ATOM     37  S   UNK d   1       9.841  13.859  -7.415  0.00  0.00     0.029 S 
ATOM     38  O   UNK d   1       8.950  13.098  -8.218  0.00  0.00    -0.158 OA
ATOM     39  O   UNK d   1       9.343  14.767  -6.442  0.00  0.00    -0.158 OA
BRANCH  37  40
ATOM     40  C   UNK d   1      11.078  14.678  -8.459  0.00  0.00     0.071 C 
ATOM     41  H   UNK d   1      10.784  15.714  -8.626  0.00  0.00     0.048 H 
ATOM     42  H   UNK d   1      12.047  14.650  -7.962  0.00  0.00     0.048 H 
ATOM     43  H   UNK d   1      11.146  14.160  -9.416  0.00  0.00     0.048 H 
ENDBRANCH  37  40
ENDBRANCH   1  37
TORSDOF 5
ENDMDL
MODEL 6
REMARK VINA RESULT:      -5.7      2.081      3.239
REMARK  5 active torsions:
REMARK  status: ('A' for Active; 'I' for Inactive)
REMARK    1  A    between atoms: C_1  and  S_2 
REMARK    2  A    between atoms: S_2  and  N_5 
REMARK    3  A    between atoms: CA_15  and  CB_19 
REMARK    4  A    between atoms: CB_19  and  CG_20 
REMARK    5  A    between atoms: CZ_23  and  OH_26 
ROOT
ATOM      1  N   UNK d   1       4.455  -4.964 -10.052  0.00  0.00    -0.178 N 
ATOM      2  C   UNK d   1       5.229  -3.746 -10.259  0.00  0.00     0.036 C 
ATOM      3  C   UNK d   1       5.917  -3.324  -8.975  0.00  0.00     0.030 C 
ATOM      4  N   UNK d   1       5.115  -3.560  -7.790  0.00  0.00    -0.286 N 
ATOM      5  C   UNK d   1       3.931  -4.389  -7.712  0.00  0.00     0.117 C 
ATOM      6  H   UNK d   1       3.127  -3.709  -7.433  0.00  0.00     0.061 H 
ATOM      7  C   UNK d   1       3.480  -5.057  -8.978  0.00  0.00     0.047 C 
ATOM      8  C   UNK d   1       4.068  -5.347  -6.554  0.00  0.00     0.235 C 
ATOM      9  O   UNK d   1       3.809  -6.527  -6.660  0.00  0.00    -0.274 OA
ATOM     10  H   UNK d   1       4.563  -2.949 -10.589  0.00  0.00     0.046 H 
ATOM     11  H   UNK d   1       5.982  -3.926 -11.028  0.00  0.00     0.046 H 
ATOM     12  H   UNK d   1       6.851  -3.878  -8.880  0.00  0.00     0.048 H 
ATOM     13  H   UNK d   1       6.148  -2.261  -9.035  0.00  0.00     0.048 H 
ATOM     14  H   UNK d   1       2.551  -4.591  -9.307  0.00  0.00     0.047 H 
ATOM     15  H   UNK d   1       3.289  -6.109  -8.768  0.00  0.00     0.047 H 
ATOM     16  N   TYR d   2       4.499  -4.802  -5.379  0.00  0.00    -0.302 N 
ATOM     17  CA  TYR d   2       4.742  -3.349  -5.367  0.00  0.00     0.104 C 
ATOM     18  HA  TYR d   2       3.790  -2.817  -5.362  0.00  0.00     0.060 H 
ATOM     19  C   TYR d   2       5.523  -2.983  -6.613  0.00  0.00     0.237 C 
ATOM     20  O   TYR d   2       6.464  -2.220  -6.570  0.00  0.00    -0.274 OA
ATOM     21  H   TYR d   2       4.638  -5.347  -4.588  0.00  0.00     0.149 HD
ENDROOT
BRANCH  17  22
ATOM     22  CB  TYR d   2       5.549  -2.972  -4.123  0.00  0.00    -0.001 C 
ATOM     23  HB1 TYR d   2       5.510  -3.788  -3.403  0.00  0.00     0.034 H 
ATOM     24  HB2 TYR d   2       6.586  -2.786  -4.405  0.00  0.00     0.034 H 
BRANCH  22  25
ATOM     25  CG  TYR d   2       4.968  -1.728  -3.504  0.00  0.00    -0.045 A 
ATOM     26  CD1 TYR d   2       5.799  -0.682  -3.144  0.00  0.00    -0.055 A 
ATOM     27  CE1 TYR d   2       5.268   0.459  -2.575  0.00  0.00    -0.020 A 
ATOM     28  HD1 TYR d   2       6.864  -0.760  -3.308  0.00  0.00     0.062 H 
ATOM     29  CZ  TYR d   2       3.901   0.557  -2.365  0.00  0.00     0.117 A 
ATOM     30  HE1 TYR d   2       5.918   1.275  -2.295  0.00  0.00     0.065 H 
ATOM     31  CE2 TYR d   2       3.069  -0.492  -2.727  0.00  0.00    -0.020 A 
ATOM     32  CD2 TYR d   2       3.603  -1.630  -3.300  0.00  0.00    -0.055 A 
ATOM     33  HE2 TYR d   2       2.003  -0.419  -2.565  0.00  0.00     0.065 H 
ATOM     34  HD2 TYR d   2       2.956  -2.446  -3.586  0.00  0.00     0.062 H 
BRANCH  29  35
ATOM     35  OH  TYR d   2       3.376   1.679  -1.805  0.00  0.00    -0.507 OA
ATOM     36  HH  TYR d   2       3.092   2.343  -2.449  0.00  0.00     0.292 HD
ENDBRANCH  29  35
ENDBRANCH  22  25
ENDBRANCH  17  22
BRANCH   1  37
ATOM     37  S   UNK d   1       4.690  -6.261 -11.055  0.00  0.00     0.029 S 
ATOM     38  O   UNK d   1       3.677  -6.143 -12.045  0.00  0.00    -0.158 OA
ATOM     39  O   UNK d   1       6.063  -6.199 -11.413  0.00  0.00    -0.158 OA
BRANCH  37  40
ATOM     40  C   UNK d   1       4.381  -7.715 -10.016  0.00  0.00     0.071 C 
ATOM     41  H   UNK d   1       3.481  -8.224 -10.361  0.00  0.00     0.048 H 
ATOM     42  H   UNK d   1       5.230  -8.395 -10.080  0.00  0.00     0.048 H 
ATOM     43  H   UNK d   1       4.245  -7.400  -8.981  0.00  0.00     0.048 H 
ENDBRANCH  37  40
ENDBRANCH   1  37
TORSDOF 5
ENDMDL
MODEL 7
REMARK VINA RESULT:      -5.6      2.917      8.037
REMARK  5 active torsions:
REMARK  status: ('A' for Active; 'I' for Inactive)
REMARK    1  A    between atoms: C_1  and  S_2 
REMARK    2  A    between atoms: S_2  and  N_5 
REMARK    3  A    between atoms: CA_15  and  CB_19 
REMARK    4  A    between atoms: CB_19  and  CG_20 
REMARK    5  A    between atoms: CZ_23  and  OH_26 
ROOT
ATOM      1  N   UNK d   1       4.657  -1.532  -5.205  0.00  0.00    -0.178 N 
ATOM      2  C   UNK d   1       4.222  -0.155  -5.397  0.00  0.00     0.036 C 
ATOM      3  C   UNK d   1       3.225  -0.063  -6.537  0.00  0.00     0.030 C 
ATOM      4  N   UNK d   1       3.527  -0.958  -7.637  0.00  0.00    -0.286 N 
ATOM      5  C   UNK d   1       4.452  -2.072  -7.602  0.00  0.00     0.117 C 
ATOM      6  H   UNK d   1       5.221  -1.823  -8.335  0.00  0.00     0.061 H 
ATOM      7  C   UNK d   1       5.180  -2.314  -6.313  0.00  0.00     0.047 C 
ATOM      8  C   UNK d   1       3.769  -3.305  -8.138  0.00  0.00     0.235 C 
ATOM      9  O   UNK d   1       3.839  -4.377  -7.573  0.00  0.00    -0.274 OA
ATOM     10  H   UNK d   1       5.087   0.467  -5.626  0.00  0.00     0.046 H 
ATOM     11  H   UNK d   1       3.753   0.205  -4.480  0.00  0.00     0.046 H 
ATOM     12  H   UNK d   1       2.233  -0.302  -6.155  0.00  0.00     0.048 H 
ATOM     13  H   UNK d   1       3.216   0.961  -6.912  0.00  0.00     0.048 H 
ATOM     14  H   UNK d   1       6.232  -2.062  -6.453  0.00  0.00     0.047 H 
ATOM     15  H   UNK d   1       5.104  -3.372  -6.063  0.00  0.00     0.047 H 
ATOM     16  N   TYR d   2       3.068  -3.142  -9.298  0.00  0.00    -0.302 N 
ATOM     17  CA  TYR d   2       3.092  -1.801  -9.908  0.00  0.00     0.104 C 
ATOM     18  HA  TYR d   2       4.063  -1.625 -10.371  0.00  0.00     0.060 H 
ATOM     19  C   TYR d   2       2.853  -0.775  -8.819  0.00  0.00     0.237 C 
ATOM     20  O   TYR d   2       2.100   0.161  -8.984  0.00  0.00    -0.274 OA
ATOM     21  H   TYR d   2       2.578  -3.876  -9.702  0.00  0.00     0.149 HD
ENDROOT
BRANCH  17  22
ATOM     22  CB  TYR d   2       1.991  -1.697 -10.965  0.00  0.00    -0.001 C 
ATOM     23  HB1 TYR d   2       1.398  -2.611 -10.964  0.00  0.00     0.034 H 
ATOM     24  HB2 TYR d   2       1.348  -0.847 -10.738  0.00  0.00     0.034 H 
BRANCH  22  25
ATOM     25  CG  TYR d   2       2.614  -1.505 -12.323  0.00  0.00    -0.045 A 
ATOM     26  CD1 TYR d   2       2.052  -2.109 -13.433  0.00  0.00    -0.055 A 
ATOM     27  CE1 TYR d   2       2.621  -1.935 -14.679  0.00  0.00    -0.020 A 
ATOM     28  HD1 TYR d   2       1.165  -2.718 -13.324  0.00  0.00     0.062 H 
ATOM     29  CZ  TYR d   2       3.759  -1.155 -14.817  0.00  0.00     0.117 A 
ATOM     30  HE1 TYR d   2       2.181  -2.408 -15.545  0.00  0.00     0.065 H 
ATOM     31  CE2 TYR d   2       4.322  -0.549 -13.704  0.00  0.00    -0.020 A 
ATOM     32  CD2 TYR d   2       3.746  -0.722 -12.460  0.00  0.00    -0.055 A 
ATOM     33  HE2 TYR d   2       5.208   0.059 -13.808  0.00  0.00     0.065 H 
ATOM     34  HD2 TYR d   2       4.181  -0.248 -11.592  0.00  0.00     0.062 H 
BRANCH  29  35
ATOM     35  OH  TYR d   2       4.322  -0.983 -16.043  0.00  0.00    -0.507 OA
ATOM     36  HH  TYR d   2       5.045  -1.597 -16.233  0.00  0.00     0.292 HD
ENDBRANCH  29  35
ENDBRANCH  22  25
ENDBRANCH  17  22
BRANCH   1  37
ATOM     37  S   UNK d   1       4.553  -2.219  -3.700  0.00  0.00     0.029 S 
ATOM     38  O   UNK d   1       4.209  -3.576  -3.943  0.00  0.00    -0.158 OA
ATOM     39  O   UNK d   1       5.778  -1.884  -3.063  0.00  0.00    -0.158 OA
BRANCH  37  40
ATOM     40  C   UNK d   1       3.173  -1.361  -2.892  0.00  0.00     0.071 C 
ATOM     41  H   UNK d   1       2.378  -2.074  -2.676  0.00  0.00     0.048 H 
ATOM     42  H   UNK d   1       3.521  -0.912  -1.962  0.00  0.00     0.048 H 
ATOM     43  H   UNK d   1       2.793  -0.581  -3.552  0.00  0.00     0.048 H 
ENDBRANCH  37  40
ENDBRANCH   1  37
TORSDOF 5
ENDMDL
MODEL 8
REMARK VINA RESULT:      -5.6     10.752     14.949
REMARK  5 active torsions:
REMARK  status: ('A' for Active; 'I' for Inactive)
REMARK    1  A    between atoms: C_1  and  S_2 
REMARK    2  A    between atoms: S_2  and  N_5 
REMARK    3  A    between atoms: CA_15  and  CB_19 
REMARK    4  A    between atoms: CB_19  and  CG_20 
REMARK    5  A    between atoms: CZ_23  and  OH_26 
ROOT
ATOM      1  N   UNK d   1      11.826  10.180   0.160  0.00  0.00    -0.178 N 
ATOM      2  C   UNK d   1      12.949   9.980  -0.747  0.00  0.00     0.036 C 
ATOM      3  C   UNK d   1      12.480   9.359  -2.050  0.00  0.00     0.030 C 
ATOM      4  N   UNK d   1      11.423   8.383  -1.872  0.00  0.00    -0.286 N 
ATOM      5  C   UNK d   1      10.624   8.197  -0.679  0.00  0.00     0.117 C 
ATOM      6  H   UNK d   1      10.846   7.183  -0.346  0.00  0.00     0.061 H 
ATOM      7  C   UNK d   1      10.928   9.086   0.490  0.00  0.00     0.047 C 
ATOM      8  C   UNK d   1       9.163   8.187  -1.054  0.00  0.00     0.235 C 
ATOM      9  O   UNK d   1       8.336   8.826  -0.437  0.00  0.00    -0.274 OA
ATOM     10  H   UNK d   1      13.678   9.321  -0.277  0.00  0.00     0.046 H 
ATOM     11  H   UNK d   1      13.417  10.943  -0.956  0.00  0.00     0.046 H 
ATOM     12  H   UNK d   1      12.117  10.152  -2.704  0.00  0.00     0.048 H 
ATOM     13  H   UNK d   1      13.329   8.873  -2.530  0.00  0.00     0.048 H 
ATOM     14  H   UNK d   1      11.382   8.484   1.278  0.00  0.00     0.047 H 
ATOM     15  H   UNK d   1       9.991   9.501   0.864  0.00  0.00     0.047 H 
ATOM     16  N   TYR d   2       8.828   7.415  -2.128  0.00  0.00    -0.302 N 
ATOM     17  CA  TYR d   2       9.917   6.656  -2.768  0.00  0.00     0.104 C 
ATOM     18  HA  TYR d   2      10.194   5.810  -2.140  0.00  0.00     0.060 H 
ATOM     19  C   TYR d   2      11.107   7.577  -2.938  0.00  0.00     0.237 C 
ATOM     20  O   TYR d   2      11.749   7.601  -3.967  0.00  0.00    -0.274 OA
ATOM     21  H   TYR d   2       7.915   7.367  -2.454  0.00  0.00     0.149 HD
ENDROOT
BRANCH  17  22
ATOM     22  CB  TYR d   2       9.456   6.151  -4.137  0.00  0.00    -0.001 C 
ATOM     23  HB1 TYR d   2       8.403   6.392  -4.279  0.00  0.00     0.034 H 
ATOM     24  HB2 TYR d   2      10.046   6.629  -4.919  0.00  0.00     0.034 H 
BRANCH  22  25
ATOM     25  CG  TYR d   2       9.644   4.658  -4.212  0.00  0.00    -0.045 A 
ATOM     26  CD1 TYR d   2       9.543   4.009  -5.429  0.00  0.00    -0.055 A 
ATOM     27  CE1 TYR d   2       9.714   2.640  -5.500  0.00  0.00    -0.020 A 
ATOM     28  HD1 TYR d   2       9.331   4.574  -6.325  0.00  0.00     0.062 H 
ATOM     29  CZ  TYR d   2       9.986   1.915  -4.349  0.00  0.00     0.117 A 
ATOM     30  HE1 TYR d   2       9.636   2.135  -6.452  0.00  0.00     0.065 H 
ATOM     31  CE2 TYR d   2      10.086   2.568  -3.129  0.00  0.00    -0.020 A 
ATOM     32  CD2 TYR d   2       9.920   3.937  -3.064  0.00  0.00    -0.055 A 
ATOM     33  HE2 TYR d   2      10.298   2.006  -2.231  0.00  0.00     0.065 H 
ATOM     34  HD2 TYR d   2      10.002   4.447  -2.115  0.00  0.00     0.062 H 
BRANCH  29  35
ATOM     35  OH  TYR d   2      10.154   0.568  -4.417  0.00  0.00    -0.507 OA
ATOM     36  HH  TYR d   2      10.875   0.291  -4.999  0.00  0.00     0.292 HD
ENDBRANCH  29  35
ENDBRANCH  22  25
ENDBRANCH  17  22
BRANCH   1  37
ATOM     37  S   UNK d   1      11.569  11.675   0.825  0.00  0.00     0.029 S 
ATOM     38  O   UNK d   1      10.294  12.073   0.342  0.00  0.00    -0.158 OA
ATOM     39  O   UNK d   1      11.794  11.497   2.217  0.00  0.00    -0.158 OA
BRANCH  37  40
ATOM     40  C   UNK d   1      12.863  12.729   0.114  0.00  0.00     0.071 C 
ATOM     41  H   UNK d   1      12.870  13.692   0.625  0.00  0.00     0.048 H 
ATOM     42  H   UNK d   1      13.832  12.246   0.236  0.00  0.00     0.048 H 
ATOM     43  H   UNK d   1      12.665  12.883  -0.947  0.00  0.00     0.048 H 
ENDBRANCH  37  40
ENDBRANCH   1  37
TORSDOF 5
ENDMDL
MODEL 9
REMARK VINA RESULT:      -5.6      8.832     13.014
REMARK  5 active torsions:
REMARK  status: ('A' for Active; 'I' for Inactive)
REMARK    1  A    between atoms: C_1  and  S_2 
REMARK    2  A    between atoms: S_2  and  N_5 
REMARK    3  A    between atoms: CA_15  and  CB_19 
REMARK    4  A    between atoms: CB_19  and  CG_20 
REMARK    5  A    between atoms: CZ_23  and  OH_26 
ROOT
ATOM      1  N   UNK d   1      10.756   7.581   0.172  0.00  0.00    -0.178 N 
ATOM      2  C   UNK d   1      11.142   6.290   0.726  0.00  0.00     0.036 C 
ATOM      3  C   UNK d   1      11.422   5.293  -0.383  0.00  0.00     0.030 C 
ATOM      4  N   UNK d   1      10.531   5.432  -1.518  0.00  0.00    -0.286 N 
ATOM      5  C   UNK d   1       9.665   6.560  -1.791  0.00  0.00     0.117 C 
ATOM      6  H   UNK d   1       8.654   6.154  -1.765  0.00  0.00     0.061 H 
ATOM      7  C   UNK d   1       9.679   7.686  -0.799  0.00  0.00     0.047 C 
ATOM      8  C   UNK d   1       9.878   7.020  -3.212  0.00  0.00     0.235 C 
ATOM      9  O   UNK d   1      10.018   8.191  -3.496  0.00  0.00    -0.274 OA
ATOM     10  H   UNK d   1      10.335   5.911   1.353  0.00  0.00     0.046 H 
ATOM     11  H   UNK d   1      12.040   6.414   1.333  0.00  0.00     0.046 H 
ATOM     12  H   UNK d   1      12.448   5.431  -0.725  0.00  0.00     0.048 H 
ATOM     13  H   UNK d   1      11.322   4.285   0.019  0.00  0.00     0.048 H 
ATOM     14  H   UNK d   1       8.727   7.695  -0.267  0.00  0.00     0.047 H 
ATOM     15  H   UNK d   1       9.786   8.627  -1.341  0.00  0.00     0.047 H 
ATOM     16  N   TYR d   2       9.900   6.037  -4.159  0.00  0.00    -0.302 N 
ATOM     17  CA  TYR d   2       9.679   4.657  -3.693  0.00  0.00     0.104 C 
ATOM     18  HA  TYR d   2       8.625   4.515  -3.450  0.00  0.00     0.060 H 
ATOM     19  C   TYR d   2      10.522   4.428  -2.455  0.00  0.00     0.237 C 
ATOM     20  O   TYR d   2      11.158   3.408  -2.301  0.00  0.00    -0.274 OA
ATOM     21  H   TYR d   2      10.055   6.238  -5.096  0.00  0.00     0.149 HD
ENDROOT
BRANCH  17  22
ATOM     22  CB  TYR d   2      10.092   3.671  -4.787  0.00  0.00    -0.001 C 
ATOM     23  HB1 TYR d   2      10.188   4.199  -5.735  0.00  0.00     0.034 H 
ATOM     24  HB2 TYR d   2      11.048   3.217  -4.526  0.00  0.00     0.034 H 
BRANCH  22  25
ATOM     25  CG  TYR d   2       9.045   2.594  -4.915  0.00  0.00    -0.045 A 
ATOM     26  CD1 TYR d   2       8.373   2.148  -3.792  0.00  0.00    -0.055 A 
ATOM     27  CE1 TYR d   2       7.413   1.161  -3.906  0.00  0.00    -0.020 A 
ATOM     28  HD1 TYR d   2       8.598   2.573  -2.824  0.00  0.00     0.062 H 
ATOM     29  CZ  TYR d   2       7.125   0.616  -5.149  0.00  0.00     0.117 A 
ATOM     30  HE1 TYR d   2       6.888   0.814  -3.028  0.00  0.00     0.065 H 
ATOM     31  CE2 TYR d   2       7.801   1.065  -6.274  0.00  0.00    -0.020 A 
ATOM     32  CD2 TYR d   2       8.755   2.056  -6.156  0.00  0.00    -0.055 A 
ATOM     33  HE2 TYR d   2       7.578   0.643  -7.243  0.00  0.00     0.065 H 
ATOM     34  HD2 TYR d   2       9.280   2.409  -7.032  0.00  0.00     0.062 H 
BRANCH  29  35
ATOM     35  OH  TYR d   2       6.182  -0.356  -5.264  0.00  0.00    -0.507 OA
ATOM     36  HH  TYR d   2       5.376  -0.183  -4.757  0.00  0.00     0.292 HD
ENDBRANCH  29  35
ENDBRANCH  22  25
ENDBRANCH  17  22
BRANCH   1  37
ATOM     37  S   UNK d   1      11.555   8.949   0.655  0.00  0.00     0.029 S 
ATOM     38  O   UNK d   1      10.615   9.999   0.481  0.00  0.00    -0.158 OA
ATOM     39  O   UNK d   1      12.063   8.636   1.944  0.00  0.00    -0.158 OA
BRANCH  37  40
ATOM     40  C   UNK d   1      12.920   9.132  -0.527  0.00  0.00     0.071 C 
ATOM     41  H   UNK d   1      13.148  10.190  -0.658  0.00  0.00     0.048 H 
ATOM     42  H   UNK d   1      13.800   8.614  -0.147  0.00  0.00     0.048 H 
ATOM     43  H   UNK d   1      12.631   8.701  -1.486  0.00  0.00     0.048 H 
ENDBRANCH  37  40
ENDBRANCH   1  37
TORSDOF 5
ENDMDL
