MODEL 1
REMARK VINA RESULT:      -8.5      0.000      0.000
REMARK  3 active torsions:
REMARK  status: ('A' for Active; 'I' for Inactive)
REMARK    1  A    between atoms: C_6  and  C_11 
REMARK    2  A    between atoms: N_25  and  C_27 
REMARK    3  A    between atoms: C_27  and  C_28 
ROOT
ATOM      1  C   LIG d   1       4.778  -2.417  -5.988  0.00  0.00     0.002 A 
ATOM      2  C   LIG d   1       4.533  -1.933  -7.288  0.00  0.00    -0.047 A 
ATOM      3  C   LIG d   1       3.860  -0.758  -7.434  0.00  0.00     0.004 A 
ATOM      4  C   LIG d   1       3.407  -0.081  -6.293  0.00  0.00     0.252 A 
ATOM      5  O   LIG d   1       2.834   0.989  -6.418  0.00  0.00    -0.268 OA
ATOM      6  N   LIG d   1       3.595  -0.597  -5.053  0.00  0.00    -0.311 N 
ATOM      7  C   LIG d   1       4.329  -1.720  -4.896  0.00  0.00     0.034 A 
ATOM      8  C   LIG d   1       4.719  -2.240  -3.531  0.00  0.00     0.013 C 
ATOM      9  H   LIG d   1       4.792  -3.337  -3.558  0.00  0.00     0.038 H 
ATOM     10  C   LIG d   1       3.666  -1.804  -2.506  0.00  0.00    -0.038 C 
ATOM     11  C   LIG d   1       3.537  -0.280  -2.596  0.00  0.00    -0.009 C 
ATOM     12  H   LIG d   1       2.860   0.085  -1.809  0.00  0.00     0.033 H 
ATOM     13  C   LIG d   1       2.943   0.097  -3.942  0.00  0.00     0.030 C 
ATOM     14  C   LIG d   1       4.883   0.390  -2.362  0.00  0.00     0.004 C 
ATOM     15  N   LIG d   1       5.897  -0.124  -3.288  0.00  0.00    -0.297 N 
ATOM     16  C   LIG d   1       6.054  -1.580  -3.148  0.00  0.00     0.007 C 
ATOM     17  H   LIG d   1       4.873  -2.483  -8.153  0.00  0.00     0.063 H 
ATOM     18  H   LIG d   1       3.673  -0.355  -8.418  0.00  0.00     0.067 H 
ATOM     19  H   LIG d   1       2.705  -2.285  -2.740  0.00  0.00     0.028 H 
ATOM     20  H   LIG d   1       3.989  -2.103  -1.497  0.00  0.00     0.028 H 
ATOM     21  H   LIG d   1       3.056   1.183  -4.071  0.00  0.00     0.050 H 
ATOM     22  H   LIG d   1       1.873  -0.161  -3.926  0.00  0.00     0.050 H 
ATOM     23  H   LIG d   1       4.783   1.475  -2.516  0.00  0.00     0.043 H 
ATOM     24  H   LIG d   1       5.216   0.194  -1.332  0.00  0.00     0.043 H 
ATOM     25  H   LIG d   1       6.307  -1.837  -2.109  0.00  0.00     0.043 H 
ATOM     26  H   LIG d   1       6.847  -1.943  -3.819  0.00  0.00     0.043 H 
ENDROOT
BRANCH   1  27
ATOM     27  C   LIG d   1       5.524  -3.684  -5.799  0.00  0.00    -0.016 A 
ATOM     28  C   LIG d   1       4.834  -4.877  -5.689  0.00  0.00    -0.046 A 
ATOM     29  C   LIG d   1       5.546  -6.074  -5.515  0.00  0.00    -0.017 A 
ATOM     30  H   LIG d   1       3.755  -4.888  -5.742  0.00  0.00     0.063 H 
ATOM     31  C   LIG d   1       4.879  -7.307  -5.405  0.00  0.00    -0.054 A 
ATOM     32  C   LIG d   1       6.961  -6.040  -5.443  0.00  0.00    -0.018 A 
ATOM     33  C   LIG d   1       5.598  -8.448  -5.231  0.00  0.00    -0.061 A 
ATOM     34  H   LIG d   1       3.800  -7.348  -5.458  0.00  0.00     0.062 H 
ATOM     35  C   LIG d   1       6.990  -8.415  -5.160  0.00  0.00    -0.061 A 
ATOM     36  H   LIG d   1       5.085  -9.395  -5.146  0.00  0.00     0.062 H 
ATOM     37  C   LIG d   1       7.669  -7.241  -5.263  0.00  0.00    -0.054 A 
ATOM     38  H   LIG d   1       7.538  -9.336  -5.021  0.00  0.00     0.062 H 
ATOM     39  H   LIG d   1       8.748  -7.231  -5.205  0.00  0.00     0.062 H 
ATOM     40  C   LIG d   1       7.634  -4.809  -5.552  0.00  0.00    -0.053 A 
ATOM     41  C   LIG d   1       6.927  -3.663  -5.726  0.00  0.00    -0.053 A 
ATOM     42  H   LIG d   1       8.712  -4.776  -5.499  0.00  0.00     0.062 H 
ATOM     43  H   LIG d   1       7.450  -2.722  -5.809  0.00  0.00     0.062 H 
ENDBRANCH   1  27
BRANCH  15  44
ATOM     44  C   LIG d   1       7.180   0.565  -3.098  0.00  0.00     0.024 C 
ATOM     45  H   LIG d   1       7.051   1.392  -2.385  0.00  0.00     0.048 H 
ATOM     46  H   LIG d   1       7.922  -0.146  -2.705  0.00  0.00     0.048 H 
BRANCH  44  47
ATOM     47  C   LIG d   1       7.659   1.110  -4.419  0.00  0.00    -0.033 A 
ATOM     48  C   LIG d   1       8.477   2.224  -4.450  0.00  0.00    -0.055 A 
ATOM     49  C   LIG d   1       8.917   2.726  -5.660  0.00  0.00    -0.026 A 
ATOM     50  H   LIG d   1       8.772   2.703  -3.528  0.00  0.00     0.062 H 
ATOM     51  C   LIG d   1       8.538   2.112  -6.842  0.00  0.00     0.123 A 
ATOM     52  H   LIG d   1       9.556   3.596  -5.685  0.00  0.00     0.065 H 
ATOM     53  C   LIG d   1       7.719   0.996  -6.810  0.00  0.00    -0.026 A 
ATOM     54  F   LIG d   1       8.967   2.601  -8.026  0.00  0.00    -0.205 F 
ATOM     55  C   LIG d   1       7.285   0.493  -5.598  0.00  0.00    -0.055 A 
ATOM     56  H   LIG d   1       7.422   0.517  -7.731  0.00  0.00     0.065 H 
ATOM     57  H   LIG d   1       6.650  -0.381  -5.572  0.00  0.00     0.062 H 
ENDBRANCH  44  47
ENDBRANCH  15  44
TORSDOF 3
ENDMDL
MODEL 2
REMARK VINA RESULT:      -8.1      2.511      6.330
REMARK  3 active torsions:
REMARK  status: ('A' for Active; 'I' for Inactive)
REMARK    1  A    between atoms: C_6  and  C_11 
REMARK    2  A    between atoms: N_25  and  C_27 
REMARK    3  A    between atoms: C_27  and  C_28 
ROOT
ATOM      1  C   LIG d   1       6.775  -0.998  -4.987  0.00  0.00     0.002 A 
ATOM      2  C   LIG d   1       7.147  -2.142  -5.720  0.00  0.00    -0.047 A 
ATOM      3  C   LIG d   1       6.436  -3.291  -5.546  0.00  0.00     0.004 A 
ATOM      4  C   LIG d   1       5.378  -3.310  -4.625  0.00  0.00     0.252 A 
ATOM      5  O   LIG d   1       4.716  -4.326  -4.492  0.00  0.00    -0.268 OA
ATOM      6  N   LIG d   1       5.078  -2.216  -3.882  0.00  0.00    -0.311 N 
ATOM      7  C   LIG d   1       5.727  -1.052  -4.105  0.00  0.00     0.034 A 
ATOM      8  C   LIG d   1       5.315   0.238  -3.433  0.00  0.00     0.013 C 
ATOM      9  H   LIG d   1       6.198   0.876  -3.282  0.00  0.00     0.038 H 
ATOM     10  C   LIG d   1       4.656  -0.083  -2.087  0.00  0.00    -0.038 C 
ATOM     11  C   LIG d   1       3.505  -1.057  -2.357  0.00  0.00    -0.009 C 
ATOM     12  H   LIG d   1       2.943  -1.239  -1.429  0.00  0.00     0.033 H 
ATOM     13  C   LIG d   1       4.070  -2.384  -2.835  0.00  0.00     0.030 C 
ATOM     14  C   LIG d   1       2.521  -0.467  -3.356  0.00  0.00     0.004 C 
ATOM     15  N   LIG d   1       3.199  -0.072  -4.596  0.00  0.00    -0.297 N 
ATOM     16  C   LIG d   1       4.261   0.910  -4.329  0.00  0.00     0.007 C 
ATOM     17  H   LIG d   1       7.979  -2.110  -6.407  0.00  0.00     0.063 H 
ATOM     18  H   LIG d   1       6.688  -4.179  -6.106  0.00  0.00     0.067 H 
ATOM     19  H   LIG d   1       5.397  -0.541  -1.415  0.00  0.00     0.028 H 
ATOM     20  H   LIG d   1       4.275   0.845  -1.635  0.00  0.00     0.028 H 
ATOM     21  H   LIG d   1       3.236  -2.989  -3.222  0.00  0.00     0.050 H 
ATOM     22  H   LIG d   1       4.521  -2.893  -1.970  0.00  0.00     0.050 H 
ATOM     23  H   LIG d   1       1.753  -1.216  -3.599  0.00  0.00     0.043 H 
ATOM     24  H   LIG d   1       2.043   0.421  -2.919  0.00  0.00     0.043 H 
ATOM     25  H   LIG d   1       3.847   1.789  -3.813  0.00  0.00     0.043 H 
ATOM     26  H   LIG d   1       4.731   1.227  -5.272  0.00  0.00     0.043 H 
ENDROOT
BRANCH   1  27
ATOM     27  C   LIG d   1       7.520   0.271  -5.170  0.00  0.00    -0.016 A 
ATOM     28  C   LIG d   1       8.157   0.855  -4.091  0.00  0.00    -0.046 A 
ATOM     29  C   LIG d   1       8.864   2.054  -4.271  0.00  0.00    -0.017 A 
ATOM     30  H   LIG d   1       8.115   0.388  -3.117  0.00  0.00     0.063 H 
ATOM     31  C   LIG d   1       9.529   2.674  -3.199  0.00  0.00    -0.054 A 
ATOM     32  C   LIG d   1       8.905   2.653  -5.554  0.00  0.00    -0.018 A 
ATOM     33  C   LIG d   1      10.201   3.838  -3.406  0.00  0.00    -0.061 A 
ATOM     34  H   LIG d   1       9.507   2.227  -2.214  0.00  0.00     0.062 H 
ATOM     35  C   LIG d   1      10.241   4.428  -4.668  0.00  0.00    -0.061 A 
ATOM     36  H   LIG d   1      10.711   4.313  -2.581  0.00  0.00     0.062 H 
ATOM     37  C   LIG d   1       9.610   3.857  -5.729  0.00  0.00    -0.054 A 
ATOM     38  H   LIG d   1      10.782   5.353  -4.805  0.00  0.00     0.062 H 
ATOM     39  H   LIG d   1       9.650   4.326  -6.701  0.00  0.00     0.062 H 
ATOM     40  C   LIG d   1       8.241   2.038  -6.632  0.00  0.00    -0.053 A 
ATOM     41  C   LIG d   1       7.567   0.875  -6.438  0.00  0.00    -0.053 A 
ATOM     42  H   LIG d   1       8.269   2.489  -7.612  0.00  0.00     0.062 H 
ATOM     43  H   LIG d   1       7.060   0.409  -7.269  0.00  0.00     0.062 H 
ENDBRANCH   1  27
BRANCH  15  44
ATOM     44  C   LIG d   1       2.239   0.445  -5.579  0.00  0.00     0.024 C 
ATOM     45  H   LIG d   1       1.357  -0.212  -5.612  0.00  0.00     0.048 H 
ATOM     46  H   LIG d   1       1.929   1.460  -5.289  0.00  0.00     0.048 H 
BRANCH  44  47
ATOM     47  C   LIG d   1       2.885   0.486  -6.939  0.00  0.00    -0.033 A 
ATOM     48  C   LIG d   1       2.769   1.618  -7.725  0.00  0.00    -0.055 A 
ATOM     49  C   LIG d   1       3.361   1.658  -8.973  0.00  0.00    -0.026 A 
ATOM     50  H   LIG d   1       2.214   2.471  -7.363  0.00  0.00     0.062 H 
ATOM     51  C   LIG d   1       4.072   0.563  -9.436  0.00  0.00     0.123 A 
ATOM     52  H   LIG d   1       3.271   2.542  -9.586  0.00  0.00     0.065 H 
ATOM     53  C   LIG d   1       4.189  -0.569  -8.649  0.00  0.00    -0.026 A 
ATOM     54  F   LIG d   1       4.652   0.601 -10.655  0.00  0.00    -0.205 F 
ATOM     55  C   LIG d   1       3.600  -0.604  -7.399  0.00  0.00    -0.055 A 
ATOM     56  H   LIG d   1       4.742  -1.423  -9.009  0.00  0.00     0.065 H 
ATOM     57  H   LIG d   1       3.695  -1.486  -6.782  0.00  0.00     0.062 H 
ENDBRANCH  44  47
ENDBRANCH  15  44
TORSDOF 3
ENDMDL
MODEL 3
REMARK VINA RESULT:      -8.1      3.153      6.554
REMARK  3 active torsions:
REMARK  status: ('A' for Active; 'I' for Inactive)
REMARK    1  A    between atoms: C_6  and  C_11 
REMARK    2  A    between atoms: N_25  and  C_27 
REMARK    3  A    between atoms: C_27  and  C_28 
ROOT
ATOM      1  C   LIG d   1       5.017  -3.480  -7.343  0.00  0.00     0.002 A 
ATOM      2  C   LIG d   1       3.933  -4.329  -7.050  0.00  0.00    -0.047 A 
ATOM      3  C   LIG d   1       4.161  -5.456  -6.320  0.00  0.00     0.004 A 
ATOM      4  C   LIG d   1       5.468  -5.752  -5.906  0.00  0.00     0.252 A 
ATOM      5  O   LIG d   1       5.672  -6.741  -5.222  0.00  0.00    -0.268 OA
ATOM      6  N   LIG d   1       6.509  -4.955  -6.255  0.00  0.00    -0.311 N 
ATOM      7  C   LIG d   1       6.279  -3.796  -6.911  0.00  0.00     0.034 A 
ATOM      8  C   LIG d   1       7.376  -2.789  -7.168  0.00  0.00     0.013 C 
ATOM      9  H   LIG d   1       7.177  -2.254  -8.109  0.00  0.00     0.038 H 
ATOM     10  C   LIG d   1       8.722  -3.518  -7.247  0.00  0.00    -0.038 C 
ATOM     11  C   LIG d   1       8.887  -4.324  -5.955  0.00  0.00    -0.009 C 
ATOM     12  H   LIG d   1       9.884  -4.787  -5.928  0.00  0.00     0.033 H 
ATOM     13  C   LIG d   1       7.850  -5.434  -5.919  0.00  0.00     0.030 C 
ATOM     14  C   LIG d   1       8.791  -3.418  -4.737  0.00  0.00     0.004 C 
ATOM     15  N   LIG d   1       7.539  -2.655  -4.743  0.00  0.00    -0.297 N 
ATOM     16  C   LIG d   1       7.422  -1.837  -5.961  0.00  0.00     0.007 C 
ATOM     17  H   LIG d   1       2.938  -4.092  -7.398  0.00  0.00     0.063 H 
ATOM     18  H   LIG d   1       3.346  -6.117  -6.066  0.00  0.00     0.067 H 
ATOM     19  H   LIG d   1       8.727  -4.186  -8.120  0.00  0.00     0.028 H 
ATOM     20  H   LIG d   1       9.533  -2.780  -7.345  0.00  0.00     0.028 H 
ATOM     21  H   LIG d   1       7.844  -5.860  -4.904  0.00  0.00     0.050 H 
ATOM     22  H   LIG d   1       8.154  -6.208  -6.639  0.00  0.00     0.050 H 
ATOM     23  H   LIG d   1       8.826  -4.029  -3.823  0.00  0.00     0.043 H 
ATOM     24  H   LIG d   1       9.633  -2.712  -4.738  0.00  0.00     0.043 H 
ATOM     25  H   LIG d   1       8.289  -1.167  -6.054  0.00  0.00     0.043 H 
ATOM     26  H   LIG d   1       6.499  -1.240  -5.930  0.00  0.00     0.043 H 
ENDROOT
BRANCH   1  27
ATOM     27  C   LIG d   1       4.794  -2.237  -8.121  0.00  0.00    -0.016 A 
ATOM     28  C   LIG d   1       4.051  -1.209  -7.572  0.00  0.00    -0.046 A 
ATOM     29  C   LIG d   1       3.846  -0.033  -8.312  0.00  0.00    -0.017 A 
ATOM     30  H   LIG d   1       3.634  -1.307  -6.580  0.00  0.00     0.063 H 
ATOM     31  C   LIG d   1       3.101   1.037  -7.785  0.00  0.00    -0.054 A 
ATOM     32  C   LIG d   1       4.395   0.077  -9.613  0.00  0.00    -0.018 A 
ATOM     33  C   LIG d   1       2.916   2.160  -8.529  0.00  0.00    -0.061 A 
ATOM     34  H   LIG d   1       2.676   0.967  -6.793  0.00  0.00     0.062 H 
ATOM     35  C   LIG d   1       3.457   2.268  -9.810  0.00  0.00    -0.061 A 
ATOM     36  H   LIG d   1       2.343   2.980  -8.124  0.00  0.00     0.062 H 
ATOM     37  C   LIG d   1       4.184   1.254 -10.352  0.00  0.00    -0.054 A 
ATOM     38  H   LIG d   1       3.295   3.171 -10.380  0.00  0.00     0.062 H 
ATOM     39  H   LIG d   1       4.596   1.352 -11.346  0.00  0.00     0.062 H 
ATOM     40  C   LIG d   1       5.142  -0.990 -10.146  0.00  0.00    -0.053 A 
ATOM     41  C   LIG d   1       5.333  -2.117  -9.412  0.00  0.00    -0.053 A 
ATOM     42  H   LIG d   1       5.564  -0.912 -11.137  0.00  0.00     0.062 H 
ATOM     43  H   LIG d   1       5.907  -2.931  -9.828  0.00  0.00     0.062 H 
ENDBRANCH   1  27
BRANCH  15  44
ATOM     44  C   LIG d   1       7.423  -1.823  -3.538  0.00  0.00     0.024 C 
ATOM     45  H   LIG d   1       7.826  -2.371  -2.674  0.00  0.00     0.048 H 
ATOM     46  H   LIG d   1       7.993  -0.893  -3.680  0.00  0.00     0.048 H 
BRANCH  44  47
ATOM     47  C   LIG d   1       5.974  -1.492  -3.293  0.00  0.00    -0.033 A 
ATOM     48  C   LIG d   1       4.995  -2.424  -3.583  0.00  0.00    -0.055 A 
ATOM     49  C   LIG d   1       3.664  -2.123  -3.358  0.00  0.00    -0.026 A 
ATOM     50  H   LIG d   1       5.269  -3.387  -3.985  0.00  0.00     0.062 H 
ATOM     51  C   LIG d   1       3.313  -0.887  -2.842  0.00  0.00     0.123 A 
ATOM     52  H   LIG d   1       2.899  -2.851  -3.584  0.00  0.00     0.065 H 
ATOM     53  C   LIG d   1       4.294   0.046  -2.552  0.00  0.00    -0.026 A 
ATOM     54  F   LIG d   1       2.014  -0.591  -2.622  0.00  0.00    -0.205 F 
ATOM     55  C   LIG d   1       5.624  -0.260  -2.772  0.00  0.00    -0.055 A 
ATOM     56  H   LIG d   1       4.022   1.010  -2.150  0.00  0.00     0.065 H 
ATOM     57  H   LIG d   1       6.391   0.465  -2.541  0.00  0.00     0.062 H 
ENDBRANCH  44  47
ENDBRANCH  15  44
TORSDOF 3
ENDMDL
MODEL 4
REMARK VINA RESULT:      -7.8      3.740      6.594
REMARK  3 active torsions:
REMARK  status: ('A' for Active; 'I' for Inactive)
REMARK    1  A    between atoms: C_6  and  C_11 
REMARK    2  A    between atoms: N_25  and  C_27 
REMARK    3  A    between atoms: C_27  and  C_28 
ROOT
ATOM      1  C   LIG d   1       6.148  -2.511  -8.108  0.00  0.00     0.002 A 
ATOM      2  C   LIG d   1       7.291  -1.758  -8.444  0.00  0.00    -0.047 A 
ATOM      3  C   LIG d   1       7.777  -1.837  -9.714  0.00  0.00     0.004 A 
ATOM      4  C   LIG d   1       7.147  -2.682 -10.638  0.00  0.00     0.252 A 
ATOM      5  O   LIG d   1       7.558  -2.728 -11.786  0.00  0.00    -0.268 OA
ATOM      6  N   LIG d   1       6.089  -3.448 -10.277  0.00  0.00    -0.311 N 
ATOM      7  C   LIG d   1       5.553  -3.317  -9.044  0.00  0.00     0.034 A 
ATOM      8  C   LIG d   1       4.270  -4.012  -8.648  0.00  0.00     0.013 C 
ATOM      9  H   LIG d   1       4.292  -4.249  -7.574  0.00  0.00     0.038 H 
ATOM     10  C   LIG d   1       4.118  -5.296  -9.471  0.00  0.00    -0.038 C 
ATOM     11  C   LIG d   1       4.203  -4.909 -10.951  0.00  0.00    -0.009 C 
ATOM     12  H   LIG d   1       4.003  -5.789 -11.579  0.00  0.00     0.033 H 
ATOM     13  C   LIG d   1       5.606  -4.417 -11.262  0.00  0.00     0.030 C 
ATOM     14  C   LIG d   1       3.147  -3.871 -11.299  0.00  0.00     0.004 C 
ATOM     15  N   LIG d   1       3.251  -2.698 -10.425  0.00  0.00    -0.297 N 
ATOM     16  C   LIG d   1       3.105  -3.076  -9.010  0.00  0.00     0.007 C 
ATOM     17  H   LIG d   1       7.773  -1.131  -7.708  0.00  0.00     0.063 H 
ATOM     18  H   LIG d   1       8.642  -1.258 -10.004  0.00  0.00     0.067 H 
ATOM     19  H   LIG d   1       4.925  -5.997  -9.210  0.00  0.00     0.028 H 
ATOM     20  H   LIG d   1       3.144  -5.760  -9.251  0.00  0.00     0.028 H 
ATOM     21  H   LIG d   1       5.589  -3.949 -12.258  0.00  0.00     0.050 H 
ATOM     22  H   LIG d   1       6.277  -5.288 -11.278  0.00  0.00     0.050 H 
ATOM     23  H   LIG d   1       3.283  -3.546 -12.341  0.00  0.00     0.043 H 
ATOM     24  H   LIG d   1       2.147  -4.312 -11.179  0.00  0.00     0.043 H 
ATOM     25  H   LIG d   1       2.151  -3.598  -8.852  0.00  0.00     0.043 H 
ATOM     26  H   LIG d   1       3.143  -2.181  -8.372  0.00  0.00     0.043 H 
ENDROOT
BRANCH   1  27
ATOM     27  C   LIG d   1       5.587  -2.431  -6.738  0.00  0.00    -0.016 A 
ATOM     28  C   LIG d   1       4.787  -1.359  -6.387  0.00  0.00    -0.046 A 
ATOM     29  C   LIG d   1       4.254  -1.291  -5.090  0.00  0.00    -0.017 A 
ATOM     30  H   LIG d   1       4.569  -0.583  -7.106  0.00  0.00     0.063 H 
ATOM     31  C   LIG d   1       3.432  -0.220  -4.697  0.00  0.00    -0.054 A 
ATOM     32  C   LIG d   1       4.553  -2.315  -4.158  0.00  0.00    -0.018 A 
ATOM     33  C   LIG d   1       2.936  -0.181  -3.431  0.00  0.00    -0.061 A 
ATOM     34  H   LIG d   1       3.195   0.568  -5.398  0.00  0.00     0.062 H 
ATOM     35  C   LIG d   1       3.231  -1.189  -2.514  0.00  0.00    -0.061 A 
ATOM     36  H   LIG d   1       2.305   0.643  -3.131  0.00  0.00     0.062 H 
ATOM     37  C   LIG d   1       4.022  -2.240  -2.858  0.00  0.00    -0.054 A 
ATOM     38  H   LIG d   1       2.824  -1.133  -1.515  0.00  0.00     0.062 H 
ATOM     39  H   LIG d   1       4.242  -3.013  -2.137  0.00  0.00     0.062 H 
ATOM     40  C   LIG d   1       5.376  -3.390  -4.545  0.00  0.00    -0.053 A 
ATOM     41  C   LIG d   1       5.877  -3.440  -5.806  0.00  0.00    -0.053 A 
ATOM     42  H   LIG d   1       5.607  -4.174  -3.840  0.00  0.00     0.062 H 
ATOM     43  H   LIG d   1       6.507  -4.267  -6.095  0.00  0.00     0.062 H 
ENDBRANCH   1  27
BRANCH  15  44
ATOM     44  C   LIG d   1       2.267  -1.674 -10.799  0.00  0.00     0.024 C 
ATOM     45  H   LIG d   1       2.138  -1.671 -11.892  0.00  0.00     0.048 H 
ATOM     46  H   LIG d   1       1.303  -1.899 -10.318  0.00  0.00     0.048 H 
BRANCH  44  47
ATOM     47  C   LIG d   1       2.751  -0.322 -10.347  0.00  0.00    -0.033 A 
ATOM     48  C   LIG d   1       2.166   0.291  -9.254  0.00  0.00    -0.055 A 
ATOM     49  C   LIG d   1       2.610   1.532  -8.836  0.00  0.00    -0.026 A 
ATOM     50  H   LIG d   1       1.362  -0.200  -8.727  0.00  0.00     0.062 H 
ATOM     51  C   LIG d   1       3.641   2.161  -9.514  0.00  0.00     0.123 A 
ATOM     52  H   LIG d   1       2.153   2.010  -7.982  0.00  0.00     0.065 H 
ATOM     53  C   LIG d   1       4.227   1.547 -10.607  0.00  0.00    -0.026 A 
ATOM     54  F   LIG d   1       4.076   3.374  -9.106  0.00  0.00    -0.205 F 
ATOM     55  C   LIG d   1       3.785   0.304 -11.019  0.00  0.00    -0.055 A 
ATOM     56  H   LIG d   1       5.030   2.037 -11.136  0.00  0.00     0.065 H 
ATOM     57  H   LIG d   1       4.245  -0.178 -11.870  0.00  0.00     0.062 H 
ENDBRANCH  44  47
ENDBRANCH  15  44
TORSDOF 3
ENDMDL
MODEL 5
REMARK VINA RESULT:      -7.7      3.369      6.302
REMARK  3 active torsions:
REMARK  status: ('A' for Active; 'I' for Inactive)
REMARK    1  A    between atoms: C_6  and  C_11 
REMARK    2  A    between atoms: N_25  and  C_27 
REMARK    3  A    between atoms: C_27  and  C_28 
ROOT
ATOM      1  C   LIG d   1       7.597  -2.077  -6.912  0.00  0.00     0.002 A 
ATOM      2  C   LIG d   1       7.566  -3.384  -6.387  0.00  0.00    -0.047 A 
ATOM      3  C   LIG d   1       8.497  -3.739  -5.459  0.00  0.00     0.004 A 
ATOM      4  C   LIG d   1       9.474  -2.809  -5.076  0.00  0.00     0.252 A 
ATOM      5  O   LIG d   1      10.288  -3.111  -4.219  0.00  0.00    -0.268 OA
ATOM      6  N   LIG d   1       9.527  -1.578  -5.642  0.00  0.00    -0.311 N 
ATOM      7  C   LIG d   1       8.561  -1.191  -6.504  0.00  0.00     0.034 A 
ATOM      8  C   LIG d   1       8.472   0.224  -7.027  0.00  0.00     0.013 C 
ATOM      9  H   LIG d   1       8.048   0.219  -8.043  0.00  0.00     0.038 H 
ATOM     10  C   LIG d   1       9.872   0.846  -7.040  0.00  0.00    -0.038 C 
ATOM     11  C   LIG d   1      10.444   0.724  -5.624  0.00  0.00    -0.009 C 
ATOM     12  H   LIG d   1      11.411   1.245  -5.566  0.00  0.00     0.033 H 
ATOM     13  C   LIG d   1      10.678  -0.741  -5.299  0.00  0.00     0.030 C 
ATOM     14  C   LIG d   1       9.526   1.391  -4.611  0.00  0.00     0.004 C 
ATOM     15  N   LIG d   1       8.165   0.848  -4.695  0.00  0.00    -0.297 N 
ATOM     16  C   LIG d   1       7.605   1.027  -6.043  0.00  0.00     0.007 C 
ATOM     17  H   LIG d   1       6.817  -4.091  -6.713  0.00  0.00     0.063 H 
ATOM     18  H   LIG d   1       8.487  -4.729  -5.026  0.00  0.00     0.067 H 
ATOM     19  H   LIG d   1      10.507   0.307  -7.758  0.00  0.00     0.028 H 
ATOM     20  H   LIG d   1       9.801   1.904  -7.335  0.00  0.00     0.028 H 
ATOM     21  H   LIG d   1      10.881  -0.822  -4.222  0.00  0.00     0.050 H 
ATOM     22  H   LIG d   1      11.558  -1.079  -5.866  0.00  0.00     0.050 H 
ATOM     23  H   LIG d   1       9.911   1.216  -3.596  0.00  0.00     0.043 H 
ATOM     24  H   LIG d   1       9.485   2.472  -4.808  0.00  0.00     0.043 H 
ATOM     25  H   LIG d   1       7.620   2.091  -6.324  0.00  0.00     0.043 H 
ATOM     26  H   LIG d   1       6.571   0.654  -6.077  0.00  0.00     0.043 H 
ENDROOT
BRANCH   1  27
ATOM     27  C   LIG d   1       6.584  -1.657  -7.911  0.00  0.00    -0.016 A 
ATOM     28  C   LIG d   1       5.306  -1.333  -7.496  0.00  0.00    -0.046 A 
ATOM     29  C   LIG d   1       4.353  -0.932  -8.445  0.00  0.00    -0.017 A 
ATOM     30  H   LIG d   1       5.045  -1.383  -6.449  0.00  0.00     0.063 H 
ATOM     31  C   LIG d   1       3.044  -0.589  -8.061  0.00  0.00    -0.054 A 
ATOM     32  C   LIG d   1       4.712  -0.876  -9.815  0.00  0.00    -0.018 A 
ATOM     33  C   LIG d   1       2.143  -0.210  -9.006  0.00  0.00    -0.061 A 
ATOM     34  H   LIG d   1       2.756  -0.626  -7.020  0.00  0.00     0.062 H 
ATOM     35  C   LIG d   1       2.496  -0.155 -10.353  0.00  0.00    -0.061 A 
ATOM     36  H   LIG d   1       1.138   0.053  -8.709  0.00  0.00     0.062 H 
ATOM     37  C   LIG d   1       3.752  -0.480 -10.762  0.00  0.00    -0.054 A 
ATOM     38  H   LIG d   1       1.761   0.149 -11.084  0.00  0.00     0.062 H 
ATOM     39  H   LIG d   1       4.011  -0.433 -11.810  0.00  0.00     0.062 H 
ATOM     40  C   LIG d   1       6.020  -1.219 -10.205  0.00  0.00    -0.053 A 
ATOM     41  C   LIG d   1       6.929  -1.599  -9.271  0.00  0.00    -0.053 A 
ATOM     42  H   LIG d   1       6.300  -1.178 -11.247  0.00  0.00     0.062 H 
ATOM     43  H   LIG d   1       7.930  -1.860  -9.579  0.00  0.00     0.062 H 
ENDBRANCH   1  27
BRANCH  15  44
ATOM     44  C   LIG d   1       7.294   1.453  -3.679  0.00  0.00     0.024 C 
ATOM     45  H   LIG d   1       7.905   1.809  -2.836  0.00  0.00     0.048 H 
ATOM     46  H   LIG d   1       6.750   2.301  -4.121  0.00  0.00     0.048 H 
BRANCH  44  47
ATOM     47  C   LIG d   1       6.309   0.426  -3.186  0.00  0.00    -0.033 A 
ATOM     48  C   LIG d   1       5.215   0.821  -2.438  0.00  0.00    -0.055 A 
ATOM     49  C   LIG d   1       4.309  -0.120  -1.985  0.00  0.00    -0.026 A 
ATOM     50  H   LIG d   1       5.069   1.865  -2.207  0.00  0.00     0.062 H 
ATOM     51  C   LIG d   1       4.498  -1.459  -2.281  0.00  0.00     0.123 A 
ATOM     52  H   LIG d   1       3.455   0.189  -1.401  0.00  0.00     0.065 H 
ATOM     53  C   LIG d   1       5.593  -1.855  -3.030  0.00  0.00    -0.026 A 
ATOM     54  F   LIG d   1       3.614  -2.380  -1.839  0.00  0.00    -0.205 F 
ATOM     55  C   LIG d   1       6.494  -0.911  -3.487  0.00  0.00    -0.055 A 
ATOM     56  H   LIG d   1       5.742  -2.899  -3.261  0.00  0.00     0.065 H 
ATOM     57  H   LIG d   1       7.346  -1.219  -4.075  0.00  0.00     0.062 H 
ENDBRANCH  44  47
ENDBRANCH  15  44
TORSDOF 3
ENDMDL
MODEL 6
REMARK VINA RESULT:      -7.6      2.586      6.329
REMARK  3 active torsions:
REMARK  status: ('A' for Active; 'I' for Inactive)
REMARK    1  A    between atoms: C_6  and  C_11 
REMARK    2  A    between atoms: N_25  and  C_27 
REMARK    3  A    between atoms: C_27  and  C_28 
ROOT
ATOM      1  C   LIG d   1       5.659  -0.131  -7.648  0.00  0.00     0.002 A 
ATOM      2  C   LIG d   1       4.566   0.652  -8.067  0.00  0.00    -0.047 A 
ATOM      3  C   LIG d   1       3.449   0.025  -8.530  0.00  0.00     0.004 A 
ATOM      4  C   LIG d   1       3.430  -1.375  -8.603  0.00  0.00     0.252 A 
ATOM      5  O   LIG d   1       2.419  -1.943  -8.984  0.00  0.00    -0.268 OA
ATOM      6  N   LIG d   1       4.517  -2.108  -8.257  0.00  0.00    -0.311 N 
ATOM      7  C   LIG d   1       5.598  -1.499  -7.723  0.00  0.00     0.034 A 
ATOM      8  C   LIG d   1       6.763  -2.279  -7.158  0.00  0.00     0.013 C 
ATOM      9  H   LIG d   1       7.693  -1.709  -7.293  0.00  0.00     0.038 H 
ATOM     10  C   LIG d   1       6.860  -3.630  -7.875  0.00  0.00    -0.038 C 
ATOM     11  C   LIG d   1       5.501  -4.324  -7.740  0.00  0.00    -0.009 C 
ATOM     12  H   LIG d   1       5.556  -5.340  -8.158  0.00  0.00     0.033 H 
ATOM     13  C   LIG d   1       4.458  -3.546  -8.524  0.00  0.00     0.030 C 
ATOM     14  C   LIG d   1       5.115  -4.474  -6.276  0.00  0.00     0.004 C 
ATOM     15  N   LIG d   1       5.133  -3.178  -5.589  0.00  0.00    -0.297 N 
ATOM     16  C   LIG d   1       6.461  -2.551  -5.674  0.00  0.00     0.007 C 
ATOM     17  H   LIG d   1       4.612   1.730  -8.022  0.00  0.00     0.063 H 
ATOM     18  H   LIG d   1       2.590   0.599  -8.843  0.00  0.00     0.067 H 
ATOM     19  H   LIG d   1       7.103  -3.466  -8.935  0.00  0.00     0.028 H 
ATOM     20  H   LIG d   1       7.649  -4.238  -7.408  0.00  0.00     0.028 H 
ATOM     21  H   LIG d   1       3.466  -3.931  -8.244  0.00  0.00     0.050 H 
ATOM     22  H   LIG d   1       4.633  -3.727  -9.595  0.00  0.00     0.050 H 
ATOM     23  H   LIG d   1       4.101  -4.895  -6.205  0.00  0.00     0.043 H 
ATOM     24  H   LIG d   1       5.827  -5.146  -5.776  0.00  0.00     0.043 H 
ATOM     25  H   LIG d   1       7.227  -3.223  -5.261  0.00  0.00     0.043 H 
ATOM     26  H   LIG d   1       6.469  -1.601  -5.119  0.00  0.00     0.043 H 
ENDROOT
BRANCH   1  27
ATOM     27  C   LIG d   1       6.881   0.525  -7.122  0.00  0.00    -0.016 A 
ATOM     28  C   LIG d   1       6.971   0.829  -5.777  0.00  0.00    -0.046 A 
ATOM     29  C   LIG d   1       8.131   1.447  -5.284  0.00  0.00    -0.017 A 
ATOM     30  H   LIG d   1       6.156   0.589  -5.109  0.00  0.00     0.063 H 
ATOM     31  C   LIG d   1       8.262   1.766  -3.921  0.00  0.00    -0.054 A 
ATOM     32  C   LIG d   1       9.188   1.759  -6.175  0.00  0.00    -0.018 A 
ATOM     33  C   LIG d   1       9.397   2.369  -3.477  0.00  0.00    -0.061 A 
ATOM     34  H   LIG d   1       7.464   1.534  -3.230  0.00  0.00     0.062 H 
ATOM     35  C   LIG d   1      10.436   2.676  -4.354  0.00  0.00    -0.061 A 
ATOM     36  H   LIG d   1       9.496   2.614  -2.429  0.00  0.00     0.062 H 
ATOM     37  C   LIG d   1      10.345   2.382  -5.678  0.00  0.00    -0.054 A 
ATOM     38  H   LIG d   1      11.327   3.155  -3.975  0.00  0.00     0.062 H 
ATOM     39  H   LIG d   1      11.159   2.626  -6.346  0.00  0.00     0.062 H 
ATOM     40  C   LIG d   1       9.062   1.442  -7.541  0.00  0.00    -0.053 A 
ATOM     41  C   LIG d   1       7.934   0.840  -7.997  0.00  0.00    -0.053 A 
ATOM     42  H   LIG d   1       9.864   1.676  -8.225  0.00  0.00     0.062 H 
ATOM     43  H   LIG d   1       7.845   0.599  -9.045  0.00  0.00     0.062 H 
ENDBRANCH   1  27
BRANCH  15  44
ATOM     44  C   LIG d   1       4.706  -3.317  -4.191  0.00  0.00     0.024 C 
ATOM     45  H   LIG d   1       3.829  -3.979  -4.139  0.00  0.00     0.048 H 
ATOM     46  H   LIG d   1       5.526  -3.749  -3.599  0.00  0.00     0.048 H 
BRANCH  44  47
ATOM     47  C   LIG d   1       4.346  -1.963  -3.638  0.00  0.00    -0.033 A 
ATOM     48  C   LIG d   1       3.712  -1.034  -4.443  0.00  0.00    -0.055 A 
ATOM     49  C   LIG d   1       3.381   0.209  -3.938  0.00  0.00    -0.026 A 
ATOM     50  H   LIG d   1       3.476  -1.281  -5.467  0.00  0.00     0.062 H 
ATOM     51  C   LIG d   1       3.685   0.524  -2.624  0.00  0.00     0.123 A 
ATOM     52  H   LIG d   1       2.885   0.934  -4.566  0.00  0.00     0.065 H 
ATOM     53  C   LIG d   1       4.319  -0.406  -1.818  0.00  0.00    -0.026 A 
ATOM     54  F   LIG d   1       3.361   1.738  -2.128  0.00  0.00    -0.205 F 
ATOM     55  C   LIG d   1       4.643  -1.650  -2.324  0.00  0.00    -0.055 A 
ATOM     56  H   LIG d   1       4.556  -0.161  -0.794  0.00  0.00     0.065 H 
ATOM     57  H   LIG d   1       5.134  -2.379  -1.695  0.00  0.00     0.062 H 
ENDBRANCH  44  47
ENDBRANCH  15  44
TORSDOF 3
ENDMDL
MODEL 7
REMARK VINA RESULT:      -7.5      3.393      6.639
REMARK  3 active torsions:
REMARK  status: ('A' for Active; 'I' for Inactive)
REMARK    1  A    between atoms: C_6  and  C_11 
REMARK    2  A    between atoms: N_25  and  C_27 
REMARK    3  A    between atoms: C_27  and  C_28 
ROOT
ATOM      1  C   LIG d   1       3.198  -0.377  -8.182  0.00  0.00     0.002 A 
ATOM      2  C   LIG d   1       1.980  -0.745  -8.786  0.00  0.00    -0.047 A 
ATOM      3  C   LIG d   1       1.933  -0.879 -10.141  0.00  0.00     0.004 A 
ATOM      4  C   LIG d   1       3.086  -0.620 -10.895  0.00  0.00     0.252 A 
ATOM      5  O   LIG d   1       3.059  -0.772 -12.105  0.00  0.00    -0.268 OA
ATOM      6  N   LIG d   1       4.231  -0.202 -10.301  0.00  0.00    -0.311 N 
ATOM      7  C   LIG d   1       4.308  -0.143  -8.953  0.00  0.00     0.034 A 
ATOM      8  C   LIG d   1       5.606   0.143  -8.234  0.00  0.00     0.013 C 
ATOM      9  H   LIG d   1       5.401   0.677  -7.295  0.00  0.00     0.038 H 
ATOM     10  C   LIG d   1       6.508   0.990  -9.139  0.00  0.00    -0.038 C 
ATOM     11  C   LIG d   1       6.665   0.240 -10.466  0.00  0.00    -0.009 C 
ATOM     12  H   LIG d   1       7.383   0.768 -11.111  0.00  0.00     0.033 H 
ATOM     13  C   LIG d   1       5.327   0.201 -11.184  0.00  0.00     0.030 C 
ATOM     14  C   LIG d   1       7.226  -1.155 -10.235  0.00  0.00     0.004 C 
ATOM     15  N   LIG d   1       6.400  -1.905  -9.283  0.00  0.00    -0.297 N 
ATOM     16  C   LIG d   1       6.308  -1.204  -7.993  0.00  0.00     0.007 C 
ATOM     17  H   LIG d   1       1.098  -0.918  -8.186  0.00  0.00     0.063 H 
ATOM     18  H   LIG d   1       1.017  -1.176 -10.629  0.00  0.00     0.067 H 
ATOM     19  H   LIG d   1       6.041   1.972  -9.306  0.00  0.00     0.028 H 
ATOM     20  H   LIG d   1       7.488   1.126  -8.657  0.00  0.00     0.028 H 
ATOM     21  H   LIG d   1       5.408  -0.514 -12.016  0.00  0.00     0.050 H 
ATOM     22  H   LIG d   1       5.125   1.206 -11.582  0.00  0.00     0.050 H 
ATOM     23  H   LIG d   1       7.248  -1.703 -11.188  0.00  0.00     0.043 H 
ATOM     24  H   LIG d   1       8.245  -1.078  -9.831  0.00  0.00     0.043 H 
ATOM     25  H   LIG d   1       7.313  -1.027  -7.583  0.00  0.00     0.043 H 
ATOM     26  H   LIG d   1       5.721  -1.799  -7.278  0.00  0.00     0.043 H 
ENDROOT
BRANCH   1  27
ATOM     27  C   LIG d   1       3.281  -0.242  -6.708  0.00  0.00    -0.016 A 
ATOM     28  C   LIG d   1       3.985  -1.177  -5.973  0.00  0.00    -0.046 A 
ATOM     29  C   LIG d   1       4.065  -1.042  -4.578  0.00  0.00    -0.017 A 
ATOM     30  H   LIG d   1       4.474  -2.003  -6.468  0.00  0.00     0.063 H 
ATOM     31  C   LIG d   1       4.776  -1.970  -3.796  0.00  0.00    -0.054 A 
ATOM     32  C   LIG d   1       3.413   0.045  -3.944  0.00  0.00    -0.018 A 
ATOM     33  C   LIG d   1       4.829  -1.813  -2.447  0.00  0.00    -0.061 A 
ATOM     34  H   LIG d   1       5.278  -2.804  -4.267  0.00  0.00     0.062 H 
ATOM     35  C   LIG d   1       4.188  -0.743  -1.823  0.00  0.00    -0.061 A 
ATOM     36  H   LIG d   1       5.375  -2.527  -1.848  0.00  0.00     0.062 H 
ATOM     37  C   LIG d   1       3.491   0.174  -2.546  0.00  0.00    -0.054 A 
ATOM     38  H   LIG d   1       4.246  -0.642  -0.749  0.00  0.00     0.062 H 
ATOM     39  H   LIG d   1       2.999   0.997  -2.049  0.00  0.00     0.062 H 
ATOM     40  C   LIG d   1       2.700   0.977  -4.720  0.00  0.00    -0.053 A 
ATOM     41  C   LIG d   1       2.639   0.831  -6.069  0.00  0.00    -0.053 A 
ATOM     42  H   LIG d   1       2.202   1.809  -4.244  0.00  0.00     0.062 H 
ATOM     43  H   LIG d   1       2.090   1.551  -6.658  0.00  0.00     0.062 H 
ENDBRANCH   1  27
BRANCH  15  44
ATOM     44  C   LIG d   1       6.911  -3.270  -9.104  0.00  0.00     0.024 C 
ATOM     45  H   LIG d   1       6.748  -3.847 -10.027  0.00  0.00     0.048 H 
ATOM     46  H   LIG d   1       7.988  -3.232  -8.882  0.00  0.00     0.048 H 
BRANCH  44  47
ATOM     47  C   LIG d   1       6.186  -3.933  -7.962  0.00  0.00    -0.033 A 
ATOM     48  C   LIG d   1       4.821  -4.141  -8.038  0.00  0.00    -0.055 A 
ATOM     49  C   LIG d   1       4.155  -4.750  -6.991  0.00  0.00    -0.026 A 
ATOM     50  H   LIG d   1       4.277  -3.828  -8.916  0.00  0.00     0.062 H 
ATOM     51  C   LIG d   1       4.854  -5.151  -5.866  0.00  0.00     0.123 A 
ATOM     52  H   LIG d   1       3.089  -4.913  -7.051  0.00  0.00     0.065 H 
ATOM     53  C   LIG d   1       6.221  -4.943  -5.790  0.00  0.00    -0.026 A 
ATOM     54  F   LIG d   1       4.204  -5.746  -4.842  0.00  0.00    -0.205 F 
ATOM     55  C   LIG d   1       6.886  -4.340  -6.841  0.00  0.00    -0.055 A 
ATOM     56  H   LIG d   1       6.768  -5.255  -4.913  0.00  0.00     0.065 H 
ATOM     57  H   LIG d   1       7.954  -4.181  -6.784  0.00  0.00     0.062 H 
ENDBRANCH  44  47
ENDBRANCH  15  44
TORSDOF 3
ENDMDL
MODEL 8
REMARK VINA RESULT:      -7.4      3.854      6.483
REMARK  3 active torsions:
REMARK  status: ('A' for Active; 'I' for Inactive)
REMARK    1  A    between atoms: C_6  and  C_11 
REMARK    2  A    between atoms: N_25  and  C_27 
REMARK    3  A    between atoms: C_27  and  C_28 
ROOT
ATOM      1  C   LIG d   1       7.914   0.139  -6.638  0.00  0.00     0.002 A 
ATOM      2  C   LIG d   1       8.347   1.480  -6.638  0.00  0.00    -0.047 A 
ATOM      3  C   LIG d   1       9.124   1.918  -7.667  0.00  0.00     0.004 A 
ATOM      4  C   LIG d   1       9.493   1.019  -8.678  0.00  0.00     0.252 A 
ATOM      5  O   LIG d   1      10.159   1.416  -9.620  0.00  0.00    -0.268 OA
ATOM      6  N   LIG d   1       9.121  -0.283  -8.626  0.00  0.00    -0.311 N 
ATOM      7  C   LIG d   1       8.286  -0.707  -7.651  0.00  0.00     0.034 A 
ATOM      8  C   LIG d   1       7.700  -2.100  -7.645  0.00  0.00     0.013 C 
ATOM      9  H   LIG d   1       7.543  -2.432  -6.608  0.00  0.00     0.038 H 
ATOM     10  C   LIG d   1       8.657  -3.053  -8.369  0.00  0.00    -0.038 C 
ATOM     11  C   LIG d   1       8.916  -2.476  -9.764  0.00  0.00    -0.009 C 
ATOM     12  H   LIG d   1       9.523  -3.179 -10.353  0.00  0.00     0.033 H 
ATOM     13  C   LIG d   1       9.692  -1.176  -9.636  0.00  0.00     0.030 C 
ATOM     14  C   LIG d   1       7.610  -2.285 -10.520  0.00  0.00     0.004 C 
ATOM     15  N   LIG d   1       6.673  -1.454  -9.755  0.00  0.00    -0.297 N 
ATOM     16  C   LIG d   1       6.385  -2.052  -8.442  0.00  0.00     0.007 C 
ATOM     17  H   LIG d   1       8.068   2.148  -5.837  0.00  0.00     0.063 H 
ATOM     18  H   LIG d   1       9.456   2.945  -7.701  0.00  0.00     0.067 H 
ATOM     19  H   LIG d   1       9.598  -3.127  -7.803  0.00  0.00     0.028 H 
ATOM     20  H   LIG d   1       8.195  -4.049  -8.445  0.00  0.00     0.028 H 
ATOM     21  H   LIG d   1       9.681  -0.675 -10.615  0.00  0.00     0.050 H 
ATOM     22  H   LIG d   1      10.728  -1.424  -9.361  0.00  0.00     0.050 H 
ATOM     23  H   LIG d   1       7.813  -1.791 -11.482  0.00  0.00     0.043 H 
ATOM     24  H   LIG d   1       7.145  -3.264 -10.701  0.00  0.00     0.043 H 
ATOM     25  H   LIG d   1       5.993  -3.072  -8.566  0.00  0.00     0.043 H 
ATOM     26  H   LIG d   1       5.650  -1.440  -7.899  0.00  0.00     0.043 H 
ENDROOT
BRANCH   1  27
ATOM     27  C   LIG d   1       7.052  -0.360  -5.539  0.00  0.00    -0.016 A 
ATOM     28  C   LIG d   1       5.696  -0.092  -5.556  0.00  0.00    -0.046 A 
ATOM     29  C   LIG d   1       4.884  -0.571  -4.515  0.00  0.00    -0.017 A 
ATOM     30  H   LIG d   1       5.264   0.477  -6.367  0.00  0.00     0.063 H 
ATOM     31  C   LIG d   1       3.500  -0.324  -4.501  0.00  0.00    -0.054 A 
ATOM     32  C   LIG d   1       5.470  -1.311  -3.458  0.00  0.00    -0.018 A 
ATOM     33  C   LIG d   1       2.743  -0.797  -3.475  0.00  0.00    -0.061 A 
ATOM     34  H   LIG d   1       3.040   0.239  -5.301  0.00  0.00     0.062 H 
ATOM     35  C   LIG d   1       3.318  -1.525  -2.435  0.00  0.00    -0.061 A 
ATOM     36  H   LIG d   1       1.680  -0.606  -3.465  0.00  0.00     0.062 H 
ATOM     37  C   LIG d   1       4.654  -1.784  -2.416  0.00  0.00    -0.054 A 
ATOM     38  H   LIG d   1       2.694  -1.889  -1.632  0.00  0.00     0.062 H 
ATOM     39  H   LIG d   1       5.086  -2.349  -1.603  0.00  0.00     0.062 H 
ATOM     40  C   LIG d   1       6.854  -1.561  -3.467  0.00  0.00    -0.053 A 
ATOM     41  C   LIG d   1       7.622  -1.094  -4.486  0.00  0.00    -0.053 A 
ATOM     42  H   LIG d   1       7.306  -2.126  -2.666  0.00  0.00     0.062 H 
ATOM     43  H   LIG d   1       8.683  -1.290  -4.486  0.00  0.00     0.062 H 
ENDBRANCH   1  27
BRANCH  15  44
ATOM     44  C   LIG d   1       5.436  -1.225 -10.512  0.00  0.00     0.024 C 
ATOM     45  H   LIG d   1       5.684  -0.899 -11.532  0.00  0.00     0.048 H 
ATOM     46  H   LIG d   1       4.856  -2.159 -10.557  0.00  0.00     0.048 H 
BRANCH  44  47
ATOM     47  C   LIG d   1       4.619  -0.160  -9.828  0.00  0.00    -0.033 A 
ATOM     48  C   LIG d   1       3.348  -0.452  -9.368  0.00  0.00    -0.055 A 
ATOM     49  C   LIG d   1       2.598   0.524  -8.740  0.00  0.00    -0.026 A 
ATOM     50  H   LIG d   1       2.942  -1.444  -9.500  0.00  0.00     0.062 H 
ATOM     51  C   LIG d   1       3.119   1.796  -8.572  0.00  0.00     0.123 A 
ATOM     52  H   LIG d   1       1.605   0.295  -8.380  0.00  0.00     0.065 H 
ATOM     53  C   LIG d   1       4.392   2.088  -9.032  0.00  0.00    -0.026 A 
ATOM     54  F   LIG d   1       2.387   2.750  -7.958  0.00  0.00    -0.205 F 
ATOM     55  C   LIG d   1       5.142   1.109  -9.654  0.00  0.00    -0.055 A 
ATOM     56  H   LIG d   1       4.800   3.079  -8.902  0.00  0.00     0.065 H 
ATOM     57  H   LIG d   1       6.137   1.334 -10.010  0.00  0.00     0.062 H 
ENDBRANCH  44  47
ENDBRANCH  15  44
TORSDOF 3
ENDMDL
MODEL 9
REMARK VINA RESULT:      -7.4      4.471      7.780
REMARK  3 active torsions:
REMARK  status: ('A' for Active; 'I' for Inactive)
REMARK    1  A    between atoms: C_6  and  C_11 
REMARK    2  A    between atoms: N_25  and  C_27 
REMARK    3  A    between atoms: C_27  and  C_28 
ROOT
ATOM      1  C   LIG d   1       3.943   0.146  -8.292  0.00  0.00     0.002 A 
ATOM      2  C   LIG d   1       3.505   1.325  -8.927  0.00  0.00    -0.047 A 
ATOM      3  C   LIG d   1       3.666   1.442 -10.274  0.00  0.00     0.004 A 
ATOM      4  C   LIG d   1       4.286   0.404 -10.983  0.00  0.00     0.252 A 
ATOM      5  O   LIG d   1       4.401   0.489 -12.195  0.00  0.00    -0.268 OA
ATOM      6  N   LIG d   1       4.760  -0.694 -10.344  0.00  0.00    -0.311 N 
ATOM      7  C   LIG d   1       4.534  -0.853  -9.021  0.00  0.00     0.034 A 
ATOM      8  C   LIG d   1       4.883  -2.132  -8.295  0.00  0.00     0.013 C 
ATOM      9  H   LIG d   1       5.152  -1.906  -7.253  0.00  0.00     0.038 H 
ATOM     10  C   LIG d   1       6.055  -2.814  -9.009  0.00  0.00    -0.038 C 
ATOM     11  C   LIG d   1       5.656  -3.001 -10.476  0.00  0.00    -0.009 C 
ATOM     12  H   LIG d   1       6.432  -3.575 -11.004  0.00  0.00     0.033 H 
ATOM     13  C   LIG d   1       5.537  -1.642 -11.144  0.00  0.00     0.030 C 
ATOM     14  C   LIG d   1       4.368  -3.803 -10.587  0.00  0.00     0.004 C 
ATOM     15  N   LIG d   1       3.291  -3.182  -9.807  0.00  0.00    -0.297 N 
ATOM     16  C   LIG d   1       3.663  -3.064  -8.389  0.00  0.00     0.007 C 
ATOM     17  H   LIG d   1       3.049   2.121  -8.357  0.00  0.00     0.063 H 
ATOM     18  H   LIG d   1       3.324   2.327 -10.790  0.00  0.00     0.067 H 
ATOM     19  H   LIG d   1       6.951  -2.179  -8.933  0.00  0.00     0.028 H 
ATOM     20  H   LIG d   1       6.255  -3.788  -8.538  0.00  0.00     0.028 H 
ATOM     21  H   LIG d   1       5.049  -1.784 -12.119  0.00  0.00     0.050 H 
ATOM     22  H   LIG d   1       6.553  -1.247 -11.295  0.00  0.00     0.050 H 
ATOM     23  H   LIG d   1       4.055  -3.851 -11.640  0.00  0.00     0.043 H 
ATOM     24  H   LIG d   1       4.535  -4.820 -10.207  0.00  0.00     0.043 H 
ATOM     25  H   LIG d   1       3.923  -4.051  -7.980  0.00  0.00     0.043 H 
ATOM     26  H   LIG d   1       2.831  -2.636  -7.812  0.00  0.00     0.043 H 
ENDROOT
BRANCH   1  27
ATOM     27  C   LIG d   1       3.763  -0.016  -6.829  0.00  0.00    -0.016 A 
ATOM     28  C   LIG d   1       4.781  -0.562  -6.069  0.00  0.00    -0.046 A 
ATOM     29  C   LIG d   1       4.607  -0.709  -4.684  0.00  0.00    -0.017 A 
ATOM     30  H   LIG d   1       5.705  -0.869  -6.538  0.00  0.00     0.063 H 
ATOM     31  C   LIG d   1       5.621  -1.256  -3.878  0.00  0.00    -0.054 A 
ATOM     32  C   LIG d   1       3.387  -0.305  -4.087  0.00  0.00    -0.018 A 
ATOM     33  C   LIG d   1       5.419  -1.390  -2.540  0.00  0.00    -0.061 A 
ATOM     34  H   LIG d   1       6.557  -1.568  -4.320  0.00  0.00     0.062 H 
ATOM     35  C   LIG d   1       4.218  -0.992  -1.953  0.00  0.00    -0.061 A 
ATOM     36  H   LIG d   1       6.199  -1.810  -1.922  0.00  0.00     0.062 H 
ATOM     37  C   LIG d   1       3.215  -0.460  -2.701  0.00  0.00    -0.054 A 
ATOM     38  H   LIG d   1       4.083  -1.110  -0.887  0.00  0.00     0.062 H 
ATOM     39  H   LIG d   1       2.290  -0.157  -2.232  0.00  0.00     0.062 H 
ATOM     40  C   LIG d   1       2.368   0.242  -4.889  0.00  0.00    -0.053 A 
ATOM     41  C   LIG d   1       2.558   0.380  -6.227  0.00  0.00    -0.053 A 
ATOM     42  H   LIG d   1       1.436   0.552  -4.441  0.00  0.00     0.062 H 
ATOM     43  H   LIG d   1       1.771   0.802  -6.835  0.00  0.00     0.062 H 
ENDBRANCH   1  27
BRANCH  15  44
ATOM     44  C   LIG d   1       2.034  -3.926  -9.961  0.00  0.00     0.024 C 
ATOM     45  H   LIG d   1       2.254  -4.960 -10.264  0.00  0.00     0.048 H 
ATOM     46  H   LIG d   1       1.493  -3.932  -9.003  0.00  0.00     0.048 H 
BRANCH  44  47
ATOM     47  C   LIG d   1       1.184  -3.264 -11.014  0.00  0.00    -0.033 A 
ATOM     48  C   LIG d   1       1.336  -1.915 -11.276  0.00  0.00    -0.055 A 
ATOM     49  C   LIG d   1       0.557  -1.306 -12.242  0.00  0.00    -0.026 A 
ATOM     50  H   LIG d   1       2.064  -1.337 -10.727  0.00  0.00     0.062 H 
ATOM     51  C   LIG d   1      -0.376  -2.047 -12.947  0.00  0.00     0.123 A 
ATOM     52  H   LIG d   1       0.677  -0.252 -12.448  0.00  0.00     0.065 H 
ATOM     53  C   LIG d   1      -0.528  -3.398 -12.684  0.00  0.00    -0.026 A 
ATOM     54  F   LIG d   1      -1.138  -1.453 -13.891  0.00  0.00    -0.205 F 
ATOM     55  C   LIG d   1       0.256  -4.006 -11.722  0.00  0.00    -0.055 A 
ATOM     56  H   LIG d   1      -1.255  -3.977 -13.232  0.00  0.00     0.065 H 
ATOM     57  H   LIG d   1       0.142  -5.061 -11.519  0.00  0.00     0.062 H 
ENDBRANCH  44  47
ENDBRANCH  15  44
TORSDOF 3
ENDMDL
