MODEL 1
REMARK VINA RESULT:      -7.0      0.000      0.000
REMARK  7 active torsions:
REMARK  status: ('A' for Active; 'I' for Inactive)
REMARK    1  A    between atoms: C_1  and  C_2 
REMARK    2  A    between atoms: C_5  and  N_21 
REMARK    3  A    between atoms: C_10  and  C_11 
REMARK    4  A    between atoms: C_11  and  C_13 
REMARK    5  A    between atoms: C_17  and  O_19 
REMARK    6  A    between atoms: O_19  and  C_20 
REMARK       I    between atoms: N_21  and  C_22 
REMARK    7  A    between atoms: C_22  and  C_24 
ROOT
ATOM      1  C   LIG d   1       2.034  -2.234 -10.500  0.00  0.00     0.006 A 
ATOM      2  C   LIG d   1       2.533  -1.234  -9.557  0.00  0.00     0.025 A 
ATOM      3  C   LIG d   1       3.017  -1.290  -8.247  0.00  0.00    -0.029 A 
ATOM      4  C   LIG d   1       3.417  -0.126  -7.619  0.00  0.00     0.035 A 
ATOM      5  C   LIG d   1       3.348   1.093  -8.292  0.00  0.00    -0.037 A 
ATOM      6  C   LIG d   1       2.872   1.157  -9.584  0.00  0.00    -0.017 A 
ATOM      7  C   LIG d   1       2.459  -0.001 -10.232  0.00  0.00     0.136 A 
ATOM      8  O   LIG d   1       1.963  -0.240 -11.462  0.00  0.00    -0.451 OA
ATOM      9  C   LIG d   1       1.707  -1.553 -11.633  0.00  0.00     0.179 A 
ATOM     10  H   LIG d   1       3.073  -2.236  -7.728  0.00  0.00     0.064 H 
ATOM     11  H   LIG d   1       3.666   1.997  -7.795  0.00  0.00     0.064 H 
ATOM     12  H   LIG d   1       2.820   2.107 -10.093  0.00  0.00     0.066 H 
ENDROOT
BRANCH   9  13
ATOM     13  C   LIG d   1       1.161  -2.158 -12.853  0.00  0.00     0.228 C 
ATOM     14  O   LIG d   1       1.905  -2.469 -13.764  0.00  0.00    -0.283 OA
BRANCH  13  15
ATOM     15  C   LIG d   1      -0.294  -2.390 -12.975  0.00  0.00     0.029 A 
ATOM     16  C   LIG d   1      -1.156  -1.319 -13.219  0.00  0.00    -0.009 A 
ATOM     17  C   LIG d   1      -2.517  -1.544 -13.338  0.00  0.00     0.121 A 
ATOM     18  H   LIG d   1      -0.761  -0.319 -13.320  0.00  0.00     0.066 H 
ATOM     19  C   LIG d   1      -3.022  -2.831 -13.203  0.00  0.00    -0.020 A 
ATOM     20  C   LIG d   1      -2.171  -3.892 -12.956  0.00  0.00    -0.058 A 
ATOM     21  H   LIG d   1      -4.085  -3.003 -13.292  0.00  0.00     0.065 H 
ATOM     22  C   LIG d   1      -0.812  -3.679 -12.842  0.00  0.00    -0.051 A 
ATOM     23  H   LIG d   1      -2.570  -4.889 -12.851  0.00  0.00     0.062 H 
ATOM     24  H   LIG d   1      -0.150  -4.511 -12.649  0.00  0.00     0.062 H 
BRANCH  17  25
ATOM     25  O   LIG d   1      -3.358  -0.505 -13.581  0.00  0.00    -0.495 OA
BRANCH  25  26
ATOM     26  C   LIG d   1      -2.822   0.811 -13.434  0.00  0.00     0.079 C 
ATOM     27  H   LIG d   1      -3.315   1.485 -14.135  0.00  0.00     0.066 H 
ATOM     28  H   LIG d   1      -2.987   1.160 -12.416  0.00  0.00     0.066 H 
ATOM     29  H   LIG d   1      -1.752   0.791 -13.643  0.00  0.00     0.066 H 
ENDBRANCH  25  26
ENDBRANCH  17  25
ENDBRANCH  13  15
ENDBRANCH   9  13
BRANCH   1  30
ATOM     30  C   LIG d   1       1.905  -3.717 -10.264  0.00  0.00    -0.035 C 
ATOM     31  H   LIG d   1       1.999  -3.925  -9.198  0.00  0.00     0.028 H 
ATOM     32  H   LIG d   1       0.932  -4.057 -10.617  0.00  0.00     0.028 H 
ATOM     33  H   LIG d   1       2.693  -4.241 -10.806  0.00  0.00     0.028 H 
ENDBRANCH   1  30
BRANCH   4  34
ATOM     34  N   LIG d   1       3.898  -0.172  -6.304  0.00  0.00    -0.281 N 
ATOM     35  C   LIG d   1       3.062   0.059  -5.272  0.00  0.00     0.251 C 
ATOM     36  O   LIG d   1       1.871   0.208  -5.477  0.00  0.00    -0.270 OA
ATOM     37  H   LIG d   1       4.832  -0.369  -6.137  0.00  0.00     0.155 HD
BRANCH  35  38
ATOM     38  C   LIG d   1       3.590   0.129  -3.895  0.00  0.00     0.072 A 
ATOM     39  C   LIG d   1       3.940  -1.041  -3.216  0.00  0.00     0.136 A 
ATOM     40  C   LIG d   1       4.435  -0.965  -1.927  0.00  0.00    -0.026 A 
ATOM     41  F   LIG d   1       3.798  -2.243  -3.817  0.00  0.00    -0.205 F 
ATOM     42  C   LIG d   1       4.582   0.264  -1.312  0.00  0.00    -0.059 A 
ATOM     43  H   LIG d   1       4.707  -1.867  -1.400  0.00  0.00     0.065 H 
ATOM     44  C   LIG d   1       4.236   1.426  -1.980  0.00  0.00    -0.061 A 
ATOM     45  H   LIG d   1       4.969   0.318  -0.305  0.00  0.00     0.062 H 
ATOM     46  C   LIG d   1       3.746   1.367  -3.267  0.00  0.00    -0.047 A 
ATOM     47  H   LIG d   1       4.353   2.383  -1.492  0.00  0.00     0.062 H 
ATOM     48  H   LIG d   1       3.481   2.275  -3.788  0.00  0.00     0.063 H 
ENDBRANCH  35  38
ENDBRANCH   4  34
TORSDOF 7
ENDMDL
MODEL 2
REMARK VINA RESULT:      -6.8      7.891     12.109
REMARK  7 active torsions:
REMARK  status: ('A' for Active; 'I' for Inactive)
REMARK    1  A    between atoms: C_1  and  C_2 
REMARK    2  A    between atoms: C_5  and  N_21 
REMARK    3  A    between atoms: C_10  and  C_11 
REMARK    4  A    between atoms: C_11  and  C_13 
REMARK    5  A    between atoms: C_17  and  O_19 
REMARK    6  A    between atoms: O_19  and  C_20 
REMARK       I    between atoms: N_21  and  C_22 
REMARK    7  A    between atoms: C_22  and  C_24 
ROOT
ATOM      1  C   LIG d   1      10.263   5.116  -3.874  0.00  0.00     0.006 A 
ATOM      2  C   LIG d   1       9.917   3.732  -4.191  0.00  0.00     0.025 A 
ATOM      3  C   LIG d   1       9.017   2.808  -3.655  0.00  0.00    -0.029 A 
ATOM      4  C   LIG d   1       8.935   1.541  -4.200  0.00  0.00     0.035 A 
ATOM      5  C   LIG d   1       9.739   1.191  -5.284  0.00  0.00    -0.037 A 
ATOM      6  C   LIG d   1      10.630   2.096  -5.819  0.00  0.00    -0.017 A 
ATOM      7  C   LIG d   1      10.732   3.374  -5.282  0.00  0.00     0.136 A 
ATOM      8  O   LIG d   1      11.493   4.443  -5.590  0.00  0.00    -0.451 OA
ATOM      9  C   LIG d   1      11.227   5.478  -4.766  0.00  0.00     0.179 A 
ATOM     10  H   LIG d   1       8.391   3.081  -2.817  0.00  0.00     0.064 H 
ATOM     11  H   LIG d   1       9.666   0.201  -5.706  0.00  0.00     0.064 H 
ATOM     12  H   LIG d   1      11.250   1.812  -6.656  0.00  0.00     0.066 H 
ENDROOT
BRANCH   9  13
ATOM     13  C   LIG d   1      11.876   6.792  -4.821  0.00  0.00     0.228 C 
ATOM     14  O   LIG d   1      13.042   6.910  -4.494  0.00  0.00    -0.283 OA
BRANCH  13  15
ATOM     15  C   LIG d   1      11.113   7.974  -5.276  0.00  0.00     0.029 A 
ATOM     16  C   LIG d   1      10.586   8.013  -6.568  0.00  0.00    -0.009 A 
ATOM     17  C   LIG d   1       9.868   9.121  -6.985  0.00  0.00     0.121 A 
ATOM     18  H   LIG d   1      10.734   7.179  -7.238  0.00  0.00     0.066 H 
ATOM     19  C   LIG d   1       9.683  10.194  -6.123  0.00  0.00    -0.020 A 
ATOM     20  C   LIG d   1      10.209  10.160  -4.845  0.00  0.00    -0.058 A 
ATOM     21  H   LIG d   1       9.127  11.059  -6.453  0.00  0.00     0.065 H 
ATOM     22  C   LIG d   1      10.921   9.058  -4.417  0.00  0.00    -0.051 A 
ATOM     23  H   LIG d   1      10.062  10.997  -4.180  0.00  0.00     0.062 H 
ATOM     24  H   LIG d   1      11.330   9.035  -3.417  0.00  0.00     0.062 H 
BRANCH  17  25
ATOM     25  O   LIG d   1       9.348   9.161  -8.241  0.00  0.00    -0.495 OA
BRANCH  25  26
ATOM     26  C   LIG d   1       9.376   7.945  -8.991  0.00  0.00     0.079 C 
ATOM     27  H   LIG d   1       8.438   7.833  -9.536  0.00  0.00     0.066 H 
ATOM     28  H   LIG d   1      10.206   7.971  -9.696  0.00  0.00     0.066 H 
ATOM     29  H   LIG d   1       9.503   7.102  -8.312  0.00  0.00     0.066 H 
ENDBRANCH  25  26
ENDBRANCH  17  25
ENDBRANCH  13  15
ENDBRANCH   9  13
BRANCH   1  30
ATOM     30  C   LIG d   1       9.674   5.970  -2.781  0.00  0.00    -0.035 C 
ATOM     31  H   LIG d   1       8.972   6.683  -3.215  0.00  0.00     0.028 H 
ATOM     32  H   LIG d   1       9.151   5.335  -2.067  0.00  0.00     0.028 H 
ATOM     33  H   LIG d   1      10.471   6.511  -2.272  0.00  0.00     0.028 H 
ENDBRANCH   1  30
BRANCH   4  34
ATOM     34  N   LIG d   1       8.039   0.607  -3.665  0.00  0.00    -0.281 N 
ATOM     35  C   LIG d   1       6.851   0.392  -4.265  0.00  0.00     0.251 C 
ATOM     36  O   LIG d   1       6.598   0.936  -5.324  0.00  0.00    -0.270 OA
ATOM     37  H   LIG d   1       8.273   0.114  -2.864  0.00  0.00     0.155 HD
BRANCH  35  38
ATOM     38  C   LIG d   1       5.857  -0.501  -3.638  0.00  0.00     0.072 A 
ATOM     39  C   LIG d   1       5.132  -0.074  -2.522  0.00  0.00     0.136 A 
ATOM     40  C   LIG d   1       4.202  -0.917  -1.942  0.00  0.00    -0.026 A 
ATOM     41  F   LIG d   1       5.338   1.161  -2.012  0.00  0.00    -0.205 F 
ATOM     42  C   LIG d   1       3.991  -2.180  -2.464  0.00  0.00    -0.059 A 
ATOM     43  H   LIG d   1       3.641  -0.590  -1.080  0.00  0.00     0.065 H 
ATOM     44  C   LIG d   1       4.706  -2.609  -3.569  0.00  0.00    -0.061 A 
ATOM     45  H   LIG d   1       3.264  -2.834  -2.008  0.00  0.00     0.062 H 
ATOM     46  C   LIG d   1       5.633  -1.777  -4.161  0.00  0.00    -0.047 A 
ATOM     47  H   LIG d   1       4.536  -3.596  -3.971  0.00  0.00     0.062 H 
ATOM     48  H   LIG d   1       6.186  -2.112  -5.026  0.00  0.00     0.063 H 
ENDBRANCH  35  38
ENDBRANCH   4  34
TORSDOF 7
ENDMDL
MODEL 3
REMARK VINA RESULT:      -6.8      7.825     11.912
REMARK  7 active torsions:
REMARK  status: ('A' for Active; 'I' for Inactive)
REMARK    1  A    between atoms: C_1  and  C_2 
REMARK    2  A    between atoms: C_5  and  N_21 
REMARK    3  A    between atoms: C_10  and  C_11 
REMARK    4  A    between atoms: C_11  and  C_13 
REMARK    5  A    between atoms: C_17  and  O_19 
REMARK    6  A    between atoms: O_19  and  C_20 
REMARK       I    between atoms: N_21  and  C_22 
REMARK    7  A    between atoms: C_22  and  C_24 
ROOT
ATOM      1  C   LIG d   1      10.063   5.006  -4.537  0.00  0.00     0.006 A 
ATOM      2  C   LIG d   1       9.787   3.575  -4.662  0.00  0.00     0.025 A 
ATOM      3  C   LIG d   1       8.878   2.705  -4.055  0.00  0.00    -0.029 A 
ATOM      4  C   LIG d   1       8.879   1.368  -4.404  0.00  0.00     0.035 A 
ATOM      5  C   LIG d   1       9.774   0.894  -5.362  0.00  0.00    -0.037 A 
ATOM      6  C   LIG d   1      10.674   1.746  -5.965  0.00  0.00    -0.017 A 
ATOM      7  C   LIG d   1      10.693   3.093  -5.625  0.00  0.00     0.136 A 
ATOM      8  O   LIG d   1      11.441   4.136  -6.038  0.00  0.00    -0.451 OA
ATOM      9  C   LIG d   1      11.079   5.270  -5.404  0.00  0.00     0.179 A 
ATOM     10  H   LIG d   1       8.182   3.073  -3.315  0.00  0.00     0.064 H 
ATOM     11  H   LIG d   1       9.766  -0.151  -5.631  0.00  0.00     0.064 H 
ATOM     12  H   LIG d   1      11.365   1.366  -6.703  0.00  0.00     0.066 H 
ENDROOT
BRANCH   9  13
ATOM     13  C   LIG d   1      11.688   6.588  -5.614  0.00  0.00     0.228 C 
ATOM     14  O   LIG d   1      12.790   6.830  -5.157  0.00  0.00    -0.283 OA
BRANCH  13  15
ATOM     15  C   LIG d   1      10.963   7.622  -6.383  0.00  0.00     0.029 A 
ATOM     16  C   LIG d   1      10.625   8.835  -5.778  0.00  0.00    -0.009 A 
ATOM     17  C   LIG d   1       9.950   9.801  -6.506  0.00  0.00     0.121 A 
ATOM     18  H   LIG d   1      10.892   9.020  -4.749  0.00  0.00     0.066 H 
ATOM     19  C   LIG d   1       9.603   9.559  -7.828  0.00  0.00    -0.020 A 
ATOM     20  C   LIG d   1       9.932   8.357  -8.427  0.00  0.00    -0.058 A 
ATOM     21  H   LIG d   1       9.073  10.313  -8.392  0.00  0.00     0.065 H 
ATOM     22  C   LIG d   1      10.609   7.389  -7.713  0.00  0.00    -0.051 A 
ATOM     23  H   LIG d   1       9.659   8.174  -9.455  0.00  0.00     0.062 H 
ATOM     24  H   LIG d   1      10.865   6.451  -8.184  0.00  0.00     0.062 H 
BRANCH  17  25
ATOM     25  O   LIG d   1       9.624  10.985  -5.923  0.00  0.00    -0.495 OA
BRANCH  25  26
ATOM     26  C   LIG d   1       9.213  10.942  -4.555  0.00  0.00     0.079 C 
ATOM     27  H   LIG d   1       8.131  11.062  -4.497  0.00  0.00     0.066 H 
ATOM     28  H   LIG d   1       9.496   9.984  -4.120  0.00  0.00     0.066 H 
ATOM     29  H   LIG d   1       9.698  11.748  -4.005  0.00  0.00     0.066 H 
ENDBRANCH  25  26
ENDBRANCH  17  25
ENDBRANCH  13  15
ENDBRANCH   9  13
BRANCH   1  30
ATOM     30  C   LIG d   1       9.365   5.988  -3.632  0.00  0.00    -0.035 C 
ATOM     31  H   LIG d   1       8.567   6.487  -4.184  0.00  0.00     0.028 H 
ATOM     32  H   LIG d   1       8.939   5.457  -2.780  0.00  0.00     0.028 H 
ATOM     33  H   LIG d   1      10.080   6.730  -3.279  0.00  0.00     0.028 H 
ENDBRANCH   1  30
BRANCH   4  34
ATOM     34  N   LIG d   1       7.975   0.486  -3.796  0.00  0.00    -0.281 N 
ATOM     35  C   LIG d   1       6.775   0.255  -4.364  0.00  0.00     0.251 C 
ATOM     36  O   LIG d   1       6.516   0.733  -5.453  0.00  0.00    -0.270 OA
ATOM     37  H   LIG d   1       8.213   0.042  -2.968  0.00  0.00     0.155 HD
BRANCH  35  38
ATOM     38  C   LIG d   1       5.776  -0.578  -3.666  0.00  0.00     0.072 A 
ATOM     39  C   LIG d   1       5.129  -0.093  -2.526  0.00  0.00     0.136 A 
ATOM     40  C   LIG d   1       4.193  -0.880  -1.879  0.00  0.00    -0.026 A 
ATOM     41  F   LIG d   1       5.416   1.142  -2.057  0.00  0.00    -0.205 F 
ATOM     42  C   LIG d   1       3.899  -2.142  -2.359  0.00  0.00    -0.059 A 
ATOM     43  H   LIG d   1       3.692  -0.508  -0.999  0.00  0.00     0.065 H 
ATOM     44  C   LIG d   1       4.536  -2.628  -3.488  0.00  0.00    -0.061 A 
ATOM     45  H   LIG d   1       3.167  -2.753  -1.851  0.00  0.00     0.062 H 
ATOM     46  C   LIG d   1       5.468  -1.853  -4.146  0.00  0.00    -0.047 A 
ATOM     47  H   LIG d   1       4.301  -3.616  -3.856  0.00  0.00     0.062 H 
ATOM     48  H   LIG d   1       5.961  -2.233  -5.029  0.00  0.00     0.063 H 
ENDBRANCH  35  38
ENDBRANCH   4  34
TORSDOF 7
ENDMDL
MODEL 4
REMARK VINA RESULT:      -6.8      6.805      8.697
REMARK  7 active torsions:
REMARK  status: ('A' for Active; 'I' for Inactive)
REMARK    1  A    between atoms: C_1  and  C_2 
REMARK    2  A    between atoms: C_5  and  N_21 
REMARK    3  A    between atoms: C_10  and  C_11 
REMARK    4  A    between atoms: C_11  and  C_13 
REMARK    5  A    between atoms: C_17  and  O_19 
REMARK    6  A    between atoms: O_19  and  C_20 
REMARK       I    between atoms: N_21  and  C_22 
REMARK    7  A    between atoms: C_22  and  C_24 
ROOT
ATOM      1  C   LIG d   1       5.208  -8.233  -5.813  0.00  0.00     0.006 A 
ATOM      2  C   LIG d   1       4.808  -6.854  -6.092  0.00  0.00     0.025 A 
ATOM      3  C   LIG d   1       4.720  -5.693  -5.320  0.00  0.00    -0.029 A 
ATOM      4  C   LIG d   1       4.288  -4.518  -5.905  0.00  0.00     0.035 A 
ATOM      5  C   LIG d   1       3.954  -4.490  -7.258  0.00  0.00    -0.037 A 
ATOM      6  C   LIG d   1       4.038  -5.631  -8.026  0.00  0.00    -0.017 A 
ATOM      7  C   LIG d   1       4.464  -6.825  -7.456  0.00  0.00     0.136 A 
ATOM      8  O   LIG d   1       4.642  -8.067  -7.948  0.00  0.00    -0.451 OA
ATOM      9  C   LIG d   1       5.080  -8.908  -6.989  0.00  0.00     0.179 A 
ATOM     10  H   LIG d   1       4.983  -5.715  -4.272  0.00  0.00     0.064 H 
ATOM     11  H   LIG d   1       3.621  -3.567  -7.708  0.00  0.00     0.064 H 
ATOM     12  H   LIG d   1       3.772  -5.597  -9.072  0.00  0.00     0.066 H 
ENDROOT
BRANCH   9  13
ATOM     13  C   LIG d   1       5.374 -10.332  -7.181  0.00  0.00     0.228 C 
ATOM     14  O   LIG d   1       6.508 -10.690  -7.441  0.00  0.00    -0.283 OA
BRANCH  13  15
ATOM     15  C   LIG d   1       4.293 -11.333  -7.058  0.00  0.00     0.029 A 
ATOM     16  C   LIG d   1       3.732 -11.901  -8.203  0.00  0.00    -0.009 A 
ATOM     17  C   LIG d   1       2.723 -12.842  -8.081  0.00  0.00     0.121 A 
ATOM     18  H   LIG d   1       4.086 -11.611  -9.181  0.00  0.00     0.066 H 
ATOM     19  C   LIG d   1       2.266 -13.210  -6.822  0.00  0.00    -0.020 A 
ATOM     20  C   LIG d   1       2.816 -12.645  -5.687  0.00  0.00    -0.058 A 
ATOM     21  H   LIG d   1       1.476 -13.941  -6.730  0.00  0.00     0.065 H 
ATOM     22  C   LIG d   1       3.826 -11.710  -5.798  0.00  0.00    -0.051 A 
ATOM     23  H   LIG d   1       2.456 -12.935  -4.712  0.00  0.00     0.062 H 
ATOM     24  H   LIG d   1       4.254 -11.271  -4.908  0.00  0.00     0.062 H 
BRANCH  17  25
ATOM     25  O   LIG d   1       2.178 -13.402  -9.193  0.00  0.00    -0.495 OA
BRANCH  25  26
ATOM     26  C   LIG d   1       0.763 -13.281  -9.351  0.00  0.00     0.079 C 
ATOM     27  H   LIG d   1       0.343 -14.252  -9.613  0.00  0.00     0.066 H 
ATOM     28  H   LIG d   1       0.320 -12.932  -8.419  0.00  0.00     0.066 H 
ATOM     29  H   LIG d   1       0.547 -12.567 -10.146  0.00  0.00     0.066 H 
ENDBRANCH  25  26
ENDBRANCH  17  25
ENDBRANCH  13  15
ENDBRANCH   9  13
BRANCH   1  30
ATOM     30  C   LIG d   1       5.668  -8.793  -4.492  0.00  0.00    -0.035 C 
ATOM     31  H   LIG d   1       6.757  -8.754  -4.440  0.00  0.00     0.028 H 
ATOM     32  H   LIG d   1       5.244  -8.202  -3.680  0.00  0.00     0.028 H 
ATOM     33  H   LIG d   1       5.338  -9.828  -4.401  0.00  0.00     0.028 H 
ENDBRANCH   1  30
BRANCH   4  34
ATOM     34  N   LIG d   1       4.191  -3.350  -5.137  0.00  0.00    -0.281 N 
ATOM     35  C   LIG d   1       5.304  -2.780  -4.635  0.00  0.00     0.251 C 
ATOM     36  O   LIG d   1       6.399  -3.221  -4.930  0.00  0.00    -0.270 OA
ATOM     37  H   LIG d   1       3.323  -2.952  -4.968  0.00  0.00     0.155 HD
BRANCH  35  38
ATOM     38  C   LIG d   1       5.195  -1.620  -3.729  0.00  0.00     0.072 A 
ATOM     39  C   LIG d   1       4.388  -1.692  -2.589  0.00  0.00     0.136 A 
ATOM     40  C   LIG d   1       4.293  -0.600  -1.744  0.00  0.00    -0.026 A 
ATOM     41  F   LIG d   1       3.705  -2.824  -2.312  0.00  0.00    -0.205 F 
ATOM     42  C   LIG d   1       4.993   0.558  -2.026  0.00  0.00    -0.059 A 
ATOM     43  H   LIG d   1       3.671  -0.653  -0.864  0.00  0.00     0.065 H 
ATOM     44  C   LIG d   1       5.793   0.635  -3.154  0.00  0.00    -0.061 A 
ATOM     45  H   LIG d   1       4.915   1.407  -1.364  0.00  0.00     0.062 H 
ATOM     46  C   LIG d   1       5.902  -0.447  -4.002  0.00  0.00    -0.047 A 
ATOM     47  H   LIG d   1       6.336   1.543  -3.368  0.00  0.00     0.062 H 
ATOM     48  H   LIG d   1       6.530  -0.386  -4.879  0.00  0.00     0.063 H 
ENDBRANCH  35  38
ENDBRANCH   4  34
TORSDOF 7
ENDMDL
MODEL 5
REMARK VINA RESULT:      -6.6      6.179     12.149
REMARK  7 active torsions:
REMARK  status: ('A' for Active; 'I' for Inactive)
REMARK    1  A    between atoms: C_1  and  C_2 
REMARK    2  A    between atoms: C_5  and  N_21 
REMARK    3  A    between atoms: C_10  and  C_11 
REMARK    4  A    between atoms: C_11  and  C_13 
REMARK    5  A    between atoms: C_17  and  O_19 
REMARK    6  A    between atoms: O_19  and  C_20 
REMARK       I    between atoms: N_21  and  C_22 
REMARK    7  A    between atoms: C_22  and  C_24 
ROOT
ATOM      1  C   LIG d   1       8.897   2.271  -5.108  0.00  0.00     0.006 A 
ATOM      2  C   LIG d   1       8.504   2.075  -6.503  0.00  0.00     0.025 A 
ATOM      3  C   LIG d   1       7.457   1.396  -7.131  0.00  0.00    -0.029 A 
ATOM      4  C   LIG d   1       7.371   1.402  -8.510  0.00  0.00     0.035 A 
ATOM      5  C   LIG d   1       8.316   2.091  -9.268  0.00  0.00    -0.037 A 
ATOM      6  C   LIG d   1       9.352   2.764  -8.657  0.00  0.00    -0.017 A 
ATOM      7  C   LIG d   1       9.460   2.765  -7.271  0.00  0.00     0.136 A 
ATOM      8  O   LIG d   1      10.343   3.322  -6.418  0.00  0.00    -0.451 OA
ATOM      9  C   LIG d   1      10.022   3.038  -5.139  0.00  0.00     0.179 A 
ATOM     10  H   LIG d   1       6.722   0.865  -6.543  0.00  0.00     0.064 H 
ATOM     11  H   LIG d   1       8.240   2.095 -10.345  0.00  0.00     0.064 H 
ATOM     12  H   LIG d   1      10.081   3.290  -9.255  0.00  0.00     0.066 H 
ENDROOT
BRANCH   9  13
ATOM     13  C   LIG d   1      10.770   3.485  -3.959  0.00  0.00     0.228 C 
ATOM     14  O   LIG d   1      11.732   2.848  -3.570  0.00  0.00    -0.283 OA
BRANCH  13  15
ATOM     15  C   LIG d   1      10.357   4.711  -3.243  0.00  0.00     0.029 A 
ATOM     16  C   LIG d   1      10.564   4.821  -1.866  0.00  0.00    -0.009 A 
ATOM     17  C   LIG d   1      10.179   5.974  -1.203  0.00  0.00     0.121 A 
ATOM     18  H   LIG d   1      11.027   4.011  -1.322  0.00  0.00     0.066 H 
ATOM     19  C   LIG d   1       9.580   7.012  -1.904  0.00  0.00    -0.020 A 
ATOM     20  C   LIG d   1       9.369   6.903  -3.266  0.00  0.00    -0.058 A 
ATOM     21  H   LIG d   1       9.277   7.908  -1.384  0.00  0.00     0.065 H 
ATOM     22  C   LIG d   1       9.754   5.760  -3.939  0.00  0.00    -0.051 A 
ATOM     23  H   LIG d   1       8.903   7.713  -3.806  0.00  0.00     0.062 H 
ATOM     24  H   LIG d   1       9.589   5.679  -5.003  0.00  0.00     0.062 H 
BRANCH  17  25
ATOM     25  O   LIG d   1      10.384   6.087   0.136  0.00  0.00    -0.495 OA
BRANCH  25  26
ATOM     26  C   LIG d   1      11.115   7.229   0.585  0.00  0.00     0.079 C 
ATOM     27  H   LIG d   1      10.483   7.831   1.238  0.00  0.00     0.066 H 
ATOM     28  H   LIG d   1      11.999   6.904   1.133  0.00  0.00     0.066 H 
ATOM     29  H   LIG d   1      11.420   7.826  -0.275  0.00  0.00     0.066 H 
ENDBRANCH  25  26
ENDBRANCH  17  25
ENDBRANCH  13  15
ENDBRANCH   9  13
BRANCH   1  30
ATOM     30  C   LIG d   1       8.200   1.733  -3.886  0.00  0.00    -0.035 C 
ATOM     31  H   LIG d   1       8.693   2.111  -2.990  0.00  0.00     0.028 H 
ATOM     32  H   LIG d   1       7.159   2.056  -3.891  0.00  0.00     0.028 H 
ATOM     33  H   LIG d   1       8.243   0.644  -3.892  0.00  0.00     0.028 H 
ENDBRANCH   1  30
BRANCH   4  34
ATOM     34  N   LIG d   1       6.328   0.719  -9.148  0.00  0.00    -0.281 N 
ATOM     35  C   LIG d   1       5.206   1.378  -9.500  0.00  0.00     0.251 C 
ATOM     36  O   LIG d   1       5.139   2.585  -9.353  0.00  0.00    -0.270 OA
ATOM     37  H   LIG d   1       6.413  -0.228  -9.337  0.00  0.00     0.155 HD
BRANCH  35  38
ATOM     38  C   LIG d   1       4.060   0.638 -10.063  0.00  0.00     0.072 A 
ATOM     39  C   LIG d   1       2.931   0.387  -9.277  0.00  0.00     0.136 A 
ATOM     40  C   LIG d   1       1.860  -0.306  -9.813  0.00  0.00    -0.026 A 
ATOM     41  F   LIG d   1       2.884   0.821  -7.998  0.00  0.00    -0.205 F 
ATOM     42  C   LIG d   1       1.907  -0.750 -11.122  0.00  0.00    -0.059 A 
ATOM     43  H   LIG d   1       0.988  -0.502  -9.209  0.00  0.00     0.065 H 
ATOM     44  C   LIG d   1       3.023  -0.504 -11.904  0.00  0.00    -0.061 A 
ATOM     45  H   LIG d   1       1.069  -1.290 -11.535  0.00  0.00     0.062 H 
ATOM     46  C   LIG d   1       4.095   0.190 -11.385  0.00  0.00    -0.047 A 
ATOM     47  H   LIG d   1       3.052  -0.854 -12.925  0.00  0.00     0.062 H 
ATOM     48  H   LIG d   1       4.962   0.384 -11.999  0.00  0.00     0.063 H 
ENDBRANCH  35  38
ENDBRANCH   4  34
TORSDOF 7
ENDMDL
MODEL 6
REMARK VINA RESULT:      -6.6      5.607     11.815
REMARK  7 active torsions:
REMARK  status: ('A' for Active; 'I' for Inactive)
REMARK    1  A    between atoms: C_1  and  C_2 
REMARK    2  A    between atoms: C_5  and  N_21 
REMARK    3  A    between atoms: C_10  and  C_11 
REMARK    4  A    between atoms: C_11  and  C_13 
REMARK    5  A    between atoms: C_17  and  O_19 
REMARK    6  A    between atoms: O_19  and  C_20 
REMARK       I    between atoms: N_21  and  C_22 
REMARK    7  A    between atoms: C_22  and  C_24 
ROOT
ATOM      1  C   LIG d   1       8.896   1.834  -5.221  0.00  0.00     0.006 A 
ATOM      2  C   LIG d   1       7.673   1.035  -5.267  0.00  0.00     0.025 A 
ATOM      3  C   LIG d   1       6.956   0.414  -6.292  0.00  0.00    -0.029 A 
ATOM      4  C   LIG d   1       5.801  -0.281  -5.991  0.00  0.00     0.035 A 
ATOM      5  C   LIG d   1       5.361  -0.371  -4.671  0.00  0.00    -0.037 A 
ATOM      6  C   LIG d   1       6.062   0.238  -3.654  0.00  0.00    -0.017 A 
ATOM      7  C   LIG d   1       7.223   0.948  -3.936  0.00  0.00     0.136 A 
ATOM      8  O   LIG d   1       8.095   1.629  -3.165  0.00  0.00    -0.451 OA
ATOM      9  C   LIG d   1       9.086   2.157  -3.912  0.00  0.00     0.179 A 
ATOM     10  H   LIG d   1       7.299   0.481  -7.315  0.00  0.00     0.064 H 
ATOM     11  H   LIG d   1       4.459  -0.920  -4.444  0.00  0.00     0.064 H 
ATOM     12  H   LIG d   1       5.708   0.165  -2.636  0.00  0.00     0.066 H 
ENDROOT
BRANCH   9  13
ATOM     13  C   LIG d   1      10.201   2.958  -3.393  0.00  0.00     0.228 C 
ATOM     14  O   LIG d   1      11.277   2.434  -3.173  0.00  0.00    -0.283 OA
BRANCH  13  15
ATOM     15  C   LIG d   1      10.017   4.403  -3.139  0.00  0.00     0.029 A 
ATOM     16  C   LIG d   1      10.247   4.925  -1.864  0.00  0.00    -0.009 A 
ATOM     17  C   LIG d   1      10.078   6.280  -1.635  0.00  0.00     0.121 A 
ATOM     18  H   LIG d   1      10.560   4.274  -1.062  0.00  0.00     0.066 H 
ATOM     19  C   LIG d   1       9.670   7.114  -2.668  0.00  0.00    -0.020 A 
ATOM     20  C   LIG d   1       9.436   6.599  -3.929  0.00  0.00    -0.058 A 
ATOM     21  H   LIG d   1       9.535   8.170  -2.485  0.00  0.00     0.065 H 
ATOM     22  C   LIG d   1       9.608   5.251  -4.170  0.00  0.00    -0.051 A 
ATOM     23  H   LIG d   1       9.119   7.252  -4.728  0.00  0.00     0.062 H 
ATOM     24  H   LIG d   1       9.424   4.852  -5.158  0.00  0.00     0.062 H 
BRANCH  17  25
ATOM     25  O   LIG d   1      10.306   6.792  -0.397  0.00  0.00    -0.495 OA
BRANCH  25  26
ATOM     26  C   LIG d   1      10.992   5.954   0.534  0.00  0.00     0.079 C 
ATOM     27  H   LIG d   1      11.789   5.415   0.020  0.00  0.00     0.066 H 
ATOM     28  H   LIG d   1      11.420   6.564   1.328  0.00  0.00     0.066 H 
ATOM     29  H   LIG d   1      10.291   5.239   0.964  0.00  0.00     0.066 H 
ENDBRANCH  25  26
ENDBRANCH  17  25
ENDBRANCH  13  15
ENDBRANCH   9  13
BRANCH   1  30
ATOM     30  C   LIG d   1       9.770   2.222  -6.386  0.00  0.00    -0.035 C 
ATOM     31  H   LIG d   1      10.152   3.232  -6.233  0.00  0.00     0.028 H 
ATOM     32  H   LIG d   1      10.604   1.525  -6.462  0.00  0.00     0.028 H 
ATOM     33  H   LIG d   1       9.185   2.192  -7.305  0.00  0.00     0.028 H 
ENDBRANCH   1  30
BRANCH   4  34
ATOM     34  N   LIG d   1       5.072  -0.903  -7.014  0.00  0.00    -0.281 N 
ATOM     35  C   LIG d   1       4.020  -0.272  -7.571  0.00  0.00     0.251 C 
ATOM     36  O   LIG d   1       3.762   0.875  -7.255  0.00  0.00    -0.270 OA
ATOM     37  H   LIG d   1       5.326  -1.786  -7.322  0.00  0.00     0.155 HD
BRANCH  35  38
ATOM     38  C   LIG d   1       3.179  -0.971  -8.563  0.00  0.00     0.072 A 
ATOM     39  C   LIG d   1       2.246  -0.257  -9.321  0.00  0.00     0.136 A 
ATOM     40  C   LIG d   1       1.464  -0.920 -10.250  0.00  0.00    -0.026 A 
ATOM     41  F   LIG d   1       2.110   1.076  -9.150  0.00  0.00    -0.205 F 
ATOM     42  C   LIG d   1       1.604  -2.284 -10.426  0.00  0.00    -0.059 A 
ATOM     43  H   LIG d   1       0.743  -0.372 -10.837  0.00  0.00     0.065 H 
ATOM     44  C   LIG d   1       2.526  -2.996  -9.678  0.00  0.00    -0.061 A 
ATOM     45  H   LIG d   1       0.991  -2.797 -11.152  0.00  0.00     0.062 H 
ATOM     46  C   LIG d   1       3.316  -2.348  -8.753  0.00  0.00    -0.047 A 
ATOM     47  H   LIG d   1       2.629  -4.061  -9.821  0.00  0.00     0.062 H 
ATOM     48  H   LIG d   1       4.038  -2.904  -8.173  0.00  0.00     0.063 H 
ENDBRANCH  35  38
ENDBRANCH   4  34
TORSDOF 7
ENDMDL
MODEL 7
REMARK VINA RESULT:      -6.6      8.108     11.785
REMARK  7 active torsions:
REMARK  status: ('A' for Active; 'I' for Inactive)
REMARK    1  A    between atoms: C_1  and  C_2 
REMARK    2  A    between atoms: C_5  and  N_21 
REMARK    3  A    between atoms: C_10  and  C_11 
REMARK    4  A    between atoms: C_11  and  C_13 
REMARK    5  A    between atoms: C_17  and  O_19 
REMARK    6  A    between atoms: O_19  and  C_20 
REMARK       I    between atoms: N_21  and  C_22 
REMARK    7  A    between atoms: C_22  and  C_24 
ROOT
ATOM      1  C   LIG d   1       9.858   4.388  -6.985  0.00  0.00     0.006 A 
ATOM      2  C   LIG d   1       9.570   3.484  -5.872  0.00  0.00     0.025 A 
ATOM      3  C   LIG d   1       8.685   2.418  -5.690  0.00  0.00    -0.029 A 
ATOM      4  C   LIG d   1       8.657   1.755  -4.478  0.00  0.00     0.035 A 
ATOM      5  C   LIG d   1       9.514   2.141  -3.449  0.00  0.00    -0.037 A 
ATOM      6  C   LIG d   1      10.389   3.192  -3.619  0.00  0.00    -0.017 A 
ATOM      7  C   LIG d   1      10.429   3.875  -4.828  0.00  0.00     0.136 A 
ATOM      8  O   LIG d   1      11.163   4.915  -5.274  0.00  0.00    -0.451 OA
ATOM      9  C   LIG d   1      10.836   5.227  -6.545  0.00  0.00     0.179 A 
ATOM     10  H   LIG d   1       8.024   2.117  -6.490  0.00  0.00     0.064 H 
ATOM     11  H   LIG d   1       9.488   1.616  -2.506  0.00  0.00     0.064 H 
ATOM     12  H   LIG d   1      11.045   3.484  -2.812  0.00  0.00     0.066 H 
ENDROOT
BRANCH   9  13
ATOM     13  C   LIG d   1      11.440   6.306  -7.333  0.00  0.00     0.228 C 
ATOM     14  O   LIG d   1      12.384   6.071  -8.065  0.00  0.00    -0.283 OA
BRANCH  13  15
ATOM     15  C   LIG d   1      10.901   7.680  -7.240  0.00  0.00     0.029 A 
ATOM     16  C   LIG d   1      11.271   8.642  -8.182  0.00  0.00    -0.009 A 
ATOM     17  C   LIG d   1      10.758   9.926  -8.092  0.00  0.00     0.121 A 
ATOM     18  H   LIG d   1      11.950   8.385  -8.981  0.00  0.00     0.066 H 
ATOM     19  C   LIG d   1       9.889  10.255  -7.061  0.00  0.00    -0.020 A 
ATOM     20  C   LIG d   1       9.526   9.306  -6.123  0.00  0.00    -0.058 A 
ATOM     21  H   LIG d   1       9.495  11.258  -6.990  0.00  0.00     0.065 H 
ATOM     22  C   LIG d   1      10.026   8.022  -6.207  0.00  0.00    -0.051 A 
ATOM     23  H   LIG d   1       8.850   9.569  -5.324  0.00  0.00     0.062 H 
ATOM     24  H   LIG d   1       9.740   7.283  -5.474  0.00  0.00     0.062 H 
BRANCH  17  25
ATOM     25  O   LIG d   1      11.111  10.863  -9.010  0.00  0.00    -0.495 OA
BRANCH  25  26
ATOM     26  C   LIG d   1      12.509  11.104  -9.186  0.00  0.00     0.079 C 
ATOM     27  H   LIG d   1      13.052  10.744  -8.312  0.00  0.00     0.066 H 
ATOM     28  H   LIG d   1      12.860  10.579 -10.074  0.00  0.00     0.066 H 
ATOM     29  H   LIG d   1      12.681  12.173  -9.305  0.00  0.00     0.066 H 
ENDBRANCH  25  26
ENDBRANCH  17  25
ENDBRANCH  13  15
ENDBRANCH   9  13
BRANCH   1  30
ATOM     30  C   LIG d   1       9.205   4.390  -8.343  0.00  0.00    -0.035 C 
ATOM     31  H   LIG d   1       8.309   5.011  -8.314  0.00  0.00     0.028 H 
ATOM     32  H   LIG d   1       9.901   4.791  -9.079  0.00  0.00     0.028 H 
ATOM     33  H   LIG d   1       8.931   3.371  -8.616  0.00  0.00     0.028 H 
ENDBRANCH   1  30
BRANCH   4  34
ATOM     34  N   LIG d   1       7.769   0.689  -4.285  0.00  0.00    -0.281 N 
ATOM     35  C   LIG d   1       6.619   0.883  -3.611  0.00  0.00     0.251 C 
ATOM     36  O   LIG d   1       6.305   2.004  -3.256  0.00  0.00    -0.270 OA
ATOM     37  H   LIG d   1       7.983  -0.189  -4.637  0.00  0.00     0.155 HD
BRANCH  35  38
ATOM     38  C   LIG d   1       5.740  -0.262  -3.303  0.00  0.00     0.072 A 
ATOM     39  C   LIG d   1       4.883  -0.214  -2.200  0.00  0.00     0.136 A 
ATOM     40  C   LIG d   1       4.062  -1.291  -1.919  0.00  0.00    -0.026 A 
ATOM     41  F   LIG d   1       4.854   0.883  -1.410  0.00  0.00    -0.205 F 
ATOM     42  C   LIG d   1       4.090  -2.413  -2.727  0.00  0.00    -0.059 A 
ATOM     43  H   LIG d   1       3.399  -1.257  -1.068  0.00  0.00     0.065 H 
ATOM     44  C   LIG d   1       4.937  -2.466  -3.821  0.00  0.00    -0.061 A 
ATOM     45  H   LIG d   1       3.447  -3.251  -2.504  0.00  0.00     0.062 H 
ATOM     46  C   LIG d   1       5.757  -1.398  -4.115  0.00  0.00    -0.047 A 
ATOM     47  H   LIG d   1       4.954  -3.346  -4.447  0.00  0.00     0.062 H 
ATOM     48  H   LIG d   1       6.414  -1.440  -4.972  0.00  0.00     0.063 H 
ENDBRANCH  35  38
ENDBRANCH   4  34
TORSDOF 7
ENDMDL
MODEL 8
REMARK VINA RESULT:      -6.5      1.815      2.301
REMARK  7 active torsions:
REMARK  status: ('A' for Active; 'I' for Inactive)
REMARK    1  A    between atoms: C_1  and  C_2 
REMARK    2  A    between atoms: C_5  and  N_21 
REMARK    3  A    between atoms: C_10  and  C_11 
REMARK    4  A    between atoms: C_11  and  C_13 
REMARK    5  A    between atoms: C_17  and  O_19 
REMARK    6  A    between atoms: O_19  and  C_20 
REMARK       I    between atoms: N_21  and  C_22 
REMARK    7  A    between atoms: C_22  and  C_24 
ROOT
ATOM      1  C   LIG d   1       3.540  -2.061 -11.098  0.00  0.00     0.006 A 
ATOM      2  C   LIG d   1       3.360  -1.143  -9.975  0.00  0.00     0.025 A 
ATOM      3  C   LIG d   1       3.371  -1.293  -8.586  0.00  0.00    -0.029 A 
ATOM      4  C   LIG d   1       3.156  -0.192  -7.780  0.00  0.00     0.035 A 
ATOM      5  C   LIG d   1       2.940   1.062  -8.350  0.00  0.00    -0.037 A 
ATOM      6  C   LIG d   1       2.926   1.219  -9.719  0.00  0.00    -0.017 A 
ATOM      7  C   LIG d   1       3.135   0.123 -10.548  0.00  0.00     0.136 A 
ATOM      8  O   LIG d   1       3.178  -0.023 -11.887  0.00  0.00    -0.451 OA
ATOM      9  C   LIG d   1       3.416  -1.307 -12.225  0.00  0.00     0.179 A 
ATOM     10  H   LIG d   1       3.543  -2.265  -8.145  0.00  0.00     0.064 H 
ATOM     11  H   LIG d   1       2.776   1.918  -7.713  0.00  0.00     0.064 H 
ATOM     12  H   LIG d   1       2.754   2.195 -10.148  0.00  0.00     0.066 H 
ENDROOT
BRANCH   9  13
ATOM     13  C   LIG d   1       3.524  -1.815 -13.597  0.00  0.00     0.228 C 
ATOM     14  O   LIG d   1       4.618  -2.051 -14.075  0.00  0.00    -0.283 OA
BRANCH  13  15
ATOM     15  C   LIG d   1       2.303  -2.040 -14.400  0.00  0.00     0.029 A 
ATOM     16  C   LIG d   1       1.100  -2.365 -13.770  0.00  0.00    -0.009 A 
ATOM     17  C   LIG d   1      -0.041  -2.569 -14.528  0.00  0.00     0.121 A 
ATOM     18  H   LIG d   1       1.059  -2.452 -12.694  0.00  0.00     0.066 H 
ATOM     19  C   LIG d   1       0.016  -2.462 -15.911  0.00  0.00    -0.020 A 
ATOM     20  C   LIG d   1       1.208  -2.146 -16.538  0.00  0.00    -0.058 A 
ATOM     21  H   LIG d   1      -0.874  -2.627 -16.500  0.00  0.00     0.065 H 
ATOM     22  C   LIG d   1       2.349  -1.934 -15.792  0.00  0.00    -0.051 A 
ATOM     23  H   LIG d   1       1.245  -2.064 -17.614  0.00  0.00     0.062 H 
ATOM     24  H   LIG d   1       3.278  -1.687 -16.285  0.00  0.00     0.062 H 
BRANCH  17  25
ATOM     25  O   LIG d   1      -1.215  -2.880 -13.918  0.00  0.00    -0.495 OA
BRANCH  25  26
ATOM     26  C   LIG d   1      -2.052  -1.789 -13.530  0.00  0.00     0.079 C 
ATOM     27  H   LIG d   1      -1.742  -0.888 -14.060  0.00  0.00     0.066 H 
ATOM     28  H   LIG d   1      -3.087  -2.019 -13.778  0.00  0.00     0.066 H 
ATOM     29  H   LIG d   1      -1.962  -1.627 -12.456  0.00  0.00     0.066 H 
ENDBRANCH  25  26
ENDBRANCH  17  25
ENDBRANCH  13  15
ENDBRANCH   9  13
BRANCH   1  30
ATOM     30  C   LIG d   1       3.809  -3.542 -11.024  0.00  0.00    -0.035 C 
ATOM     31  H   LIG d   1       4.673  -3.786 -11.643  0.00  0.00     0.028 H 
ATOM     32  H   LIG d   1       4.012  -3.823  -9.991  0.00  0.00     0.028 H 
ATOM     33  H   LIG d   1       2.938  -4.088 -11.386  0.00  0.00     0.028 H 
ENDBRANCH   1  30
BRANCH   4  34
ATOM     34  N   LIG d   1       3.160  -0.334  -6.386  0.00  0.00    -0.281 N 
ATOM     35  C   LIG d   1       4.313  -0.208  -5.700  0.00  0.00     0.251 C 
ATOM     36  O   LIG d   1       5.331   0.127  -6.277  0.00  0.00    -0.270 OA
ATOM     37  H   LIG d   1       2.333  -0.523  -5.916  0.00  0.00     0.155 HD
BRANCH  35  38
ATOM     38  C   LIG d   1       4.341  -0.475  -4.248  0.00  0.00     0.072 A 
ATOM     39  C   LIG d   1       4.261  -1.788  -3.774  0.00  0.00     0.136 A 
ATOM     40  C   LIG d   1       4.290  -2.029  -2.412  0.00  0.00    -0.026 A 
ATOM     41  F   LIG d   1       4.157  -2.818  -4.642  0.00  0.00    -0.205 F 
ATOM     42  C   LIG d   1       4.397  -0.975  -1.523  0.00  0.00    -0.059 A 
ATOM     43  H   LIG d   1       4.228  -3.041  -2.042  0.00  0.00     0.065 H 
ATOM     44  C   LIG d   1       4.476   0.326  -1.988  0.00  0.00    -0.061 A 
ATOM     45  H   LIG d   1       4.419  -1.169  -0.461  0.00  0.00     0.062 H 
ATOM     46  C   LIG d   1       4.454   0.582  -3.342  0.00  0.00    -0.047 A 
ATOM     47  H   LIG d   1       4.559   1.144  -1.287  0.00  0.00     0.062 H 
ATOM     48  H   LIG d   1       4.520   1.598  -3.702  0.00  0.00     0.063 H 
ENDBRANCH  35  38
ENDBRANCH   4  34
TORSDOF 7
ENDMDL
MODEL 9
REMARK VINA RESULT:      -6.5      8.553     11.796
REMARK  7 active torsions:
REMARK  status: ('A' for Active; 'I' for Inactive)
REMARK    1  A    between atoms: C_1  and  C_2 
REMARK    2  A    between atoms: C_5  and  N_21 
REMARK    3  A    between atoms: C_10  and  C_11 
REMARK    4  A    between atoms: C_11  and  C_13 
REMARK    5  A    between atoms: C_17  and  O_19 
REMARK    6  A    between atoms: O_19  and  C_20 
REMARK       I    between atoms: N_21  and  C_22 
REMARK    7  A    between atoms: C_22  and  C_24 
ROOT
ATOM      1  C   LIG d   1      10.374   5.628  -5.752  0.00  0.00     0.006 A 
ATOM      2  C   LIG d   1      10.207   4.231  -5.356  0.00  0.00     0.025 A 
ATOM      3  C   LIG d   1       9.257   3.544  -4.595  0.00  0.00    -0.029 A 
ATOM      4  C   LIG d   1       9.396   2.184  -4.400  0.00  0.00     0.035 A 
ATOM      5  C   LIG d   1      10.471   1.500  -4.966  0.00  0.00    -0.037 A 
ATOM      6  C   LIG d   1      11.413   2.170  -5.717  0.00  0.00    -0.017 A 
ATOM      7  C   LIG d   1      11.294   3.540  -5.921  0.00  0.00     0.136 A 
ATOM      8  O   LIG d   1      12.042   4.437  -6.594  0.00  0.00    -0.451 OA
ATOM      9  C   LIG d   1      11.510   5.673  -6.502  0.00  0.00     0.179 A 
ATOM     10  H   LIG d   1       8.422   4.074  -4.160  0.00  0.00     0.064 H 
ATOM     11  H   LIG d   1      10.570   0.436  -4.811  0.00  0.00     0.064 H 
ATOM     12  H   LIG d   1      12.243   1.630  -6.146  0.00  0.00     0.066 H 
ENDROOT
BRANCH   9  13
ATOM     13  C   LIG d   1      12.069   6.883  -7.115  0.00  0.00     0.228 C 
ATOM     14  O   LIG d   1      12.945   7.506  -6.543  0.00  0.00    -0.283 OA
BRANCH  13  15
ATOM     15  C   LIG d   1      11.570   7.345  -8.428  0.00  0.00     0.029 A 
ATOM     16  C   LIG d   1      11.738   8.677  -8.811  0.00  0.00    -0.009 A 
ATOM     17  C   LIG d   1      11.272   9.101 -10.045  0.00  0.00     0.121 A 
ATOM     18  H   LIG d   1      12.233   9.372  -8.151  0.00  0.00     0.066 H 
ATOM     19  C   LIG d   1      10.631   8.206 -10.891  0.00  0.00    -0.020 A 
ATOM     20  C   LIG d   1      10.459   6.888 -10.510  0.00  0.00    -0.058 A 
ATOM     21  H   LIG d   1      10.265   8.541 -11.850  0.00  0.00     0.065 H 
ATOM     22  C   LIG d   1      10.924   6.453  -9.286  0.00  0.00    -0.051 A 
ATOM     23  H   LIG d   1       9.959   6.197 -11.172  0.00  0.00     0.062 H 
ATOM     24  H   LIG d   1      10.788   5.422  -8.992  0.00  0.00     0.062 H 
BRANCH  17  25
ATOM     25  O   LIG d   1      11.439  10.395 -10.424  0.00  0.00    -0.495 OA
BRANCH  25  26
ATOM     26  C   LIG d   1      12.036  11.278  -9.472  0.00  0.00     0.079 C 
ATOM     27  H   LIG d   1      11.402  12.156  -9.343  0.00  0.00     0.066 H 
ATOM     28  H   LIG d   1      12.144  10.764  -8.517  0.00  0.00     0.066 H 
ATOM     29  H   LIG d   1      13.017  11.589  -9.831  0.00  0.00     0.066 H 
ENDBRANCH  25  26
ENDBRANCH  17  25
ENDBRANCH  13  15
ENDBRANCH   9  13
BRANCH   1  30
ATOM     30  C   LIG d   1       9.472   6.784  -5.403  0.00  0.00    -0.035 C 
ATOM     31  H   LIG d   1       8.432   6.458  -5.441  0.00  0.00     0.028 H 
ATOM     32  H   LIG d   1       9.706   7.135  -4.398  0.00  0.00     0.028 H 
ATOM     33  H   LIG d   1       9.625   7.593  -6.117  0.00  0.00     0.028 H 
ENDBRANCH   1  30
BRANCH   4  34
ATOM     34  N   LIG d   1       8.451   1.487  -3.634  0.00  0.00    -0.281 N 
ATOM     35  C   LIG d   1       7.306   1.062  -4.202  0.00  0.00     0.251 C 
ATOM     36  O   LIG d   1       7.135   1.194  -5.400  0.00  0.00    -0.270 OA
ATOM     37  H   LIG d   1       8.622   1.312  -2.696  0.00  0.00     0.155 HD
BRANCH  35  38
ATOM     38  C   LIG d   1       6.258   0.435  -3.372  0.00  0.00     0.072 A 
ATOM     39  C   LIG d   1       6.128  -0.956  -3.337  0.00  0.00     0.136 A 
ATOM     40  C   LIG d   1       5.144  -1.536  -2.555  0.00  0.00    -0.026 A 
ATOM     41  F   LIG d   1       6.961  -1.735  -4.063  0.00  0.00    -0.205 F 
ATOM     42  C   LIG d   1       4.292  -0.740  -1.811  0.00  0.00    -0.059 A 
ATOM     43  H   LIG d   1       5.041  -2.609  -2.527  0.00  0.00     0.065 H 
ATOM     44  C   LIG d   1       4.417   0.638  -1.842  0.00  0.00    -0.061 A 
ATOM     45  H   LIG d   1       3.527  -1.197  -1.203  0.00  0.00     0.062 H 
ATOM     46  C   LIG d   1       5.396   1.229  -2.612  0.00  0.00    -0.047 A 
ATOM     47  H   LIG d   1       3.748   1.253  -1.259  0.00  0.00     0.062 H 
ATOM     48  H   LIG d   1       5.494   2.305  -2.631  0.00  0.00     0.063 H 
ENDBRANCH  35  38
ENDBRANCH   4  34
TORSDOF 7
ENDMDL
