MODEL 1
REMARK VINA RESULT:      -7.1      0.000      0.000
REMARK  9 active torsions:
REMARK  status: ('A' for Active; 'I' for Inactive)
REMARK    1  A    between atoms: C_1  and  C_2 
REMARK    2  A    between atoms: C_3  and  C_23 
REMARK    3  A    between atoms: C_4  and  C_7 
REMARK    4  A    between atoms: C_10  and  O_14 
REMARK    5  A    between atoms: C_12  and  O_13 
REMARK    6  A    between atoms: O_14  and  C_15 
REMARK    7  A    between atoms: C_15  and  C_16 
REMARK    8  A    between atoms: C_26  and  O_29 
REMARK    9  A    between atoms: O_29  and  C_30 
ROOT
ATOM      1  C   LIG d   1       4.262  -3.949  -7.792  0.00  0.00     0.062 A 
ATOM      2  C   LIG d   1       5.350  -3.128  -8.102  0.00  0.00    -0.044 A 
ATOM      3  C   LIG d   1       6.267  -2.805  -7.127  0.00  0.00    -0.019 A 
ATOM      4  C   LIG d   1       6.115  -3.293  -5.834  0.00  0.00     0.124 A 
ATOM      5  C   LIG d   1       5.041  -4.112  -5.518  0.00  0.00     0.022 A 
ATOM      6  C   LIG d   1       4.110  -4.439  -6.488  0.00  0.00     0.131 A 
ATOM      7  H   LIG d   1       5.470  -2.747  -9.106  0.00  0.00     0.063 H 
ATOM      8  H   LIG d   1       7.108  -2.172  -7.368  0.00  0.00     0.065 H 
ATOM      9  H   LIG d   1       4.930  -4.491  -4.513  0.00  0.00     0.069 H 
ENDROOT
BRANCH   1  10
ATOM     10  C   LIG d   1       3.277  -4.296  -8.833  0.00  0.00     0.179 A 
ATOM     11  C   LIG d   1       2.696  -3.436  -9.761  0.00  0.00     0.052 A 
ATOM     12  C   LIG d   1       1.840  -4.288 -10.508  0.00  0.00     0.089 A 
ATOM     13  N   LIG d   1       1.967  -5.479  -9.999  0.00  0.00    -0.082 NA
ATOM     14  O   LIG d   1       2.749  -5.510  -9.079  0.00  0.00    -0.354 OA
BRANCH  11  15
ATOM     15  C   LIG d   1       2.920  -1.981  -9.930  0.00  0.00    -0.012 A 
ATOM     16  C   LIG d   1       2.304  -1.075  -9.068  0.00  0.00    -0.050 A 
ATOM     17  C   LIG d   1       2.514   0.279  -9.229  0.00  0.00    -0.019 A 
ATOM     18  H   LIG d   1       1.663  -1.432  -8.276  0.00  0.00     0.062 H 
ATOM     19  C   LIG d   1       3.338   0.739 -10.246  0.00  0.00     0.120 A 
ATOM     20  H   LIG d   1       2.037   0.981  -8.561  0.00  0.00     0.065 H 
ATOM     21  C   LIG d   1       3.953  -0.160 -11.107  0.00  0.00    -0.019 A 
ATOM     22  C   LIG d   1       3.751  -1.515 -10.948  0.00  0.00    -0.050 A 
ATOM     23  H   LIG d   1       4.594   0.201 -11.897  0.00  0.00     0.065 H 
ATOM     24  H   LIG d   1       4.234  -2.215 -11.615  0.00  0.00     0.062 H 
BRANCH  19  25
ATOM     25  O   LIG d   1       3.543   2.074 -10.401  0.00  0.00    -0.495 OA
BRANCH  25  26
ATOM     26  C   LIG d   1       4.149   2.769  -9.310  0.00  0.00     0.079 C 
ATOM     27  H   LIG d   1       3.998   2.203  -8.391  0.00  0.00     0.066 H 
ATOM     28  H   LIG d   1       5.217   2.878  -9.497  0.00  0.00     0.066 H 
ATOM     29  H   LIG d   1       3.694   3.755  -9.210  0.00  0.00     0.066 H 
ENDBRANCH  25  26
ENDBRANCH  19  25
ENDBRANCH  11  15
BRANCH  12  30
ATOM     30  C   LIG d   1       0.955  -3.890 -11.660  0.00  0.00    -0.018 C 
ATOM     31  H   LIG d   1       1.506  -3.231 -12.331  0.00  0.00     0.029 H 
ATOM     32  H   LIG d   1       0.644  -4.783 -12.204  0.00  0.00     0.029 H 
ATOM     33  H   LIG d   1       0.076  -3.370 -11.281  0.00  0.00     0.029 H 
ENDBRANCH  12  30
ENDBRANCH   1  10
BRANCH   6  34
ATOM     34  O   LIG d   1       3.055  -5.237  -6.178  0.00  0.00    -0.506 OA
ATOM     35  H   LIG d   1       3.220  -5.837  -5.437  0.00  0.00     0.292 HD
ENDBRANCH   6  34
BRANCH   4  36
ATOM     36  O   LIG d   1       7.023  -2.970  -4.878  0.00  0.00    -0.487 OA
BRANCH  36  37
ATOM     37  C   LIG d   1       7.038  -1.613  -4.429  0.00  0.00     0.115 C 
ATOM     38  H   LIG d   1       7.248  -0.954  -5.272  0.00  0.00     0.075 H 
ATOM     39  H   LIG d   1       7.811  -1.490  -3.670  0.00  0.00     0.075 H 
BRANCH  37  40
ATOM     40  C   LIG d   1       5.696  -1.264  -3.839  0.00  0.00    -0.009 A 
ATOM     41  C   LIG d   1       4.807  -0.488  -4.557  0.00  0.00    -0.037 A 
ATOM     42  C   LIG d   1       3.573  -0.170  -4.018  0.00  0.00     0.041 A 
ATOM     43  H   LIG d   1       5.074  -0.131  -5.541  0.00  0.00     0.064 H 
ATOM     44  C   LIG d   1       3.234  -0.623  -2.755  0.00  0.00    -0.043 A 
ATOM     45 CL   LIG d   1       2.453   0.800  -4.922  0.00  0.00    -0.084 Cl
ATOM     46  C   LIG d   1       4.127  -1.395  -2.035  0.00  0.00    -0.060 A 
ATOM     47  H   LIG d   1       2.273  -0.372  -2.332  0.00  0.00     0.063 H 
ATOM     48  C   LIG d   1       5.357  -1.716  -2.577  0.00  0.00    -0.055 A 
ATOM     49  H   LIG d   1       3.862  -1.748  -1.050  0.00  0.00     0.062 H 
ATOM     50  H   LIG d   1       6.053  -2.319  -2.014  0.00  0.00     0.062 H 
ENDBRANCH  37  40
ENDBRANCH  36  37
ENDBRANCH   4  36
TORSDOF 9
ENDMDL
MODEL 2
REMARK VINA RESULT:      -6.7      8.109     11.146
REMARK  9 active torsions:
REMARK  status: ('A' for Active; 'I' for Inactive)
REMARK    1  A    between atoms: C_1  and  C_2 
REMARK    2  A    between atoms: C_3  and  C_23 
REMARK    3  A    between atoms: C_4  and  C_7 
REMARK    4  A    between atoms: C_10  and  O_14 
REMARK    5  A    between atoms: C_12  and  O_13 
REMARK    6  A    between atoms: O_14  and  C_15 
REMARK    7  A    between atoms: C_15  and  C_16 
REMARK    8  A    between atoms: C_26  and  O_29 
REMARK    9  A    between atoms: O_29  and  C_30 
ROOT
ATOM      1  C   LIG d   1      11.057   3.642  -4.193  0.00  0.00     0.062 A 
ATOM      2  C   LIG d   1      10.446   3.794  -5.442  0.00  0.00    -0.044 A 
ATOM      3  C   LIG d   1       9.231   3.195  -5.689  0.00  0.00    -0.019 A 
ATOM      4  C   LIG d   1       8.609   2.439  -4.702  0.00  0.00     0.124 A 
ATOM      5  C   LIG d   1       9.205   2.287  -3.458  0.00  0.00     0.022 A 
ATOM      6  C   LIG d   1      10.428   2.879  -3.199  0.00  0.00     0.131 A 
ATOM      7  H   LIG d   1      10.927   4.380  -6.210  0.00  0.00     0.063 H 
ATOM      8  H   LIG d   1       8.759   3.314  -6.653  0.00  0.00     0.065 H 
ATOM      9  H   LIG d   1       8.715   1.702  -2.694  0.00  0.00     0.069 H 
ENDROOT
BRANCH   1  10
ATOM     10  C   LIG d   1      12.358   4.281  -3.925  0.00  0.00     0.179 A 
ATOM     11  C   LIG d   1      12.586   5.464  -3.229  0.00  0.00     0.052 A 
ATOM     12  C   LIG d   1      13.999   5.603  -3.270  0.00  0.00     0.089 A 
ATOM     13  N   LIG d   1      14.452   4.583  -3.937  0.00  0.00    -0.082 NA
ATOM     14  O   LIG d   1      13.573   3.842  -4.307  0.00  0.00    -0.354 OA
BRANCH  11  15
ATOM     15  C   LIG d   1      11.593   6.363  -2.595  0.00  0.00    -0.012 A 
ATOM     16  C   LIG d   1      11.007   7.389  -3.335  0.00  0.00    -0.050 A 
ATOM     17  C   LIG d   1      10.083   8.223  -2.742  0.00  0.00    -0.019 A 
ATOM     18  H   LIG d   1      11.276   7.531  -4.372  0.00  0.00     0.062 H 
ATOM     19  C   LIG d   1       9.736   8.042  -1.411  0.00  0.00     0.120 A 
ATOM     20  H   LIG d   1       9.628   9.019  -3.315  0.00  0.00     0.065 H 
ATOM     21  C   LIG d   1      10.317   7.022  -0.670  0.00  0.00    -0.019 A 
ATOM     22  C   LIG d   1      11.238   6.181  -1.259  0.00  0.00    -0.050 A 
ATOM     23  H   LIG d   1      10.045   6.884   0.365  0.00  0.00     0.065 H 
ATOM     24  H   LIG d   1      11.687   5.384  -0.684  0.00  0.00     0.062 H 
BRANCH  19  25
ATOM     25  O   LIG d   1       8.824   8.867  -0.829  0.00  0.00    -0.495 OA
BRANCH  25  26
ATOM     26  C   LIG d   1       9.311  10.100  -0.297  0.00  0.00     0.079 C 
ATOM     27  H   LIG d   1       9.852   9.907   0.629  0.00  0.00     0.066 H 
ATOM     28  H   LIG d   1       9.982  10.567  -1.018  0.00  0.00     0.066 H 
ATOM     29  H   LIG d   1       8.472  10.766  -0.097  0.00  0.00     0.066 H 
ENDBRANCH  25  26
ENDBRANCH  19  25
ENDBRANCH  11  15
BRANCH  12  30
ATOM     30  C   LIG d   1      14.813   6.717  -2.664  0.00  0.00    -0.018 C 
ATOM     31  H   LIG d   1      14.576   6.804  -1.603  0.00  0.00     0.029 H 
ATOM     32  H   LIG d   1      15.875   6.496  -2.782  0.00  0.00     0.029 H 
ATOM     33  H   LIG d   1      14.578   7.654  -3.167  0.00  0.00     0.029 H 
ENDBRANCH  12  30
ENDBRANCH   1  10
BRANCH   6  34
ATOM     34  O   LIG d   1      11.015   2.727  -1.984  0.00  0.00    -0.506 OA
ATOM     35  H   LIG d   1      11.513   3.501  -1.687  0.00  0.00     0.292 HD
ENDBRANCH   6  34
BRANCH   4  36
ATOM     36  O   LIG d   1       7.411   1.852  -4.953  0.00  0.00    -0.487 OA
BRANCH  36  37
ATOM     37  C   LIG d   1       7.288   0.465  -4.631  0.00  0.00     0.115 C 
ATOM     38  H   LIG d   1       8.216   0.114  -4.181  0.00  0.00     0.075 H 
ATOM     39  H   LIG d   1       7.087  -0.102  -5.540  0.00  0.00     0.075 H 
BRANCH  37  40
ATOM     40  C   LIG d   1       6.152   0.273  -3.659  0.00  0.00    -0.009 A 
ATOM     41  C   LIG d   1       5.576  -0.974  -3.508  0.00  0.00    -0.037 A 
ATOM     42  C   LIG d   1       4.536  -1.152  -2.612  0.00  0.00     0.041 A 
ATOM     43  H   LIG d   1       5.938  -1.810  -4.088  0.00  0.00     0.064 H 
ATOM     44  C   LIG d   1       4.069  -0.078  -1.875  0.00  0.00    -0.043 A 
ATOM     45 CL   LIG d   1       3.815  -2.719  -2.418  0.00  0.00    -0.084 Cl
ATOM     46  C   LIG d   1       4.643   1.170  -2.030  0.00  0.00    -0.060 A 
ATOM     47  H   LIG d   1       3.255  -0.215  -1.179  0.00  0.00     0.063 H 
ATOM     48  C   LIG d   1       5.685   1.345  -2.921  0.00  0.00    -0.055 A 
ATOM     49  H   LIG d   1       4.278   2.007  -1.455  0.00  0.00     0.062 H 
ATOM     50  H   LIG d   1       6.133   2.320  -3.042  0.00  0.00     0.062 H 
ENDBRANCH  37  40
ENDBRANCH  36  37
ENDBRANCH   4  36
TORSDOF 9
ENDMDL
MODEL 3
REMARK VINA RESULT:      -6.6      4.252      7.407
REMARK  9 active torsions:
REMARK  status: ('A' for Active; 'I' for Inactive)
REMARK    1  A    between atoms: C_1  and  C_2 
REMARK    2  A    between atoms: C_3  and  C_23 
REMARK    3  A    between atoms: C_4  and  C_7 
REMARK    4  A    between atoms: C_10  and  O_14 
REMARK    5  A    between atoms: C_12  and  O_13 
REMARK    6  A    between atoms: O_14  and  C_15 
REMARK    7  A    between atoms: C_15  and  C_16 
REMARK    8  A    between atoms: C_26  and  O_29 
REMARK    9  A    between atoms: O_29  and  C_30 
ROOT
ATOM      1  C   LIG d   1       5.687  -6.457  -6.134  0.00  0.00     0.062 A 
ATOM      2  C   LIG d   1       7.040  -6.309  -5.812  0.00  0.00    -0.044 A 
ATOM      3  C   LIG d   1       7.472  -5.171  -5.168  0.00  0.00    -0.019 A 
ATOM      4  C   LIG d   1       6.569  -4.167  -4.839  0.00  0.00     0.124 A 
ATOM      5  C   LIG d   1       5.224  -4.307  -5.150  0.00  0.00     0.022 A 
ATOM      6  C   LIG d   1       4.778  -5.443  -5.801  0.00  0.00     0.131 A 
ATOM      7  H   LIG d   1       7.743  -7.087  -6.067  0.00  0.00     0.063 H 
ATOM      8  H   LIG d   1       8.517  -5.058  -4.919  0.00  0.00     0.065 H 
ATOM      9  H   LIG d   1       4.526  -3.525  -4.888  0.00  0.00     0.069 H 
ENDROOT
BRANCH   1  10
ATOM     10  C   LIG d   1       5.221  -7.674  -6.823  0.00  0.00     0.179 A 
ATOM     11  C   LIG d   1       5.072  -8.945  -6.277  0.00  0.00     0.052 A 
ATOM     12  C   LIG d   1       4.597  -9.719  -7.368  0.00  0.00     0.089 A 
ATOM     13  N   LIG d   1       4.518  -8.914  -8.387  0.00  0.00    -0.082 NA
ATOM     14  O   LIG d   1       4.855  -7.786  -8.114  0.00  0.00    -0.354 OA
BRANCH  11  15
ATOM     15  C   LIG d   1       5.343  -9.385  -4.888  0.00  0.00    -0.012 A 
ATOM     16  C   LIG d   1       6.654  -9.443  -4.416  0.00  0.00    -0.050 A 
ATOM     17  C   LIG d   1       6.902  -9.852  -3.123  0.00  0.00    -0.019 A 
ATOM     18  H   LIG d   1       7.474  -9.167  -5.063  0.00  0.00     0.062 H 
ATOM     19  C   LIG d   1       5.850 -10.206  -2.291  0.00  0.00     0.120 A 
ATOM     20  H   LIG d   1       7.918  -9.897  -2.757  0.00  0.00     0.065 H 
ATOM     21  C   LIG d   1       4.543 -10.150  -2.756  0.00  0.00    -0.019 A 
ATOM     22  C   LIG d   1       4.287  -9.736  -4.047  0.00  0.00    -0.050 A 
ATOM     23  H   LIG d   1       3.726 -10.426  -2.107  0.00  0.00     0.065 H 
ATOM     24  H   LIG d   1       3.270  -9.688  -4.408  0.00  0.00     0.062 H 
BRANCH  19  25
ATOM     25  O   LIG d   1       6.098 -10.609  -1.016  0.00  0.00    -0.495 OA
BRANCH  25  26
ATOM     26  C   LIG d   1       7.193 -11.506  -0.821  0.00  0.00     0.079 C 
ATOM     27  H   LIG d   1       8.128 -10.992  -1.046  0.00  0.00     0.066 H 
ATOM     28  H   LIG d   1       7.206 -11.843   0.215  0.00  0.00     0.066 H 
ATOM     29  H   LIG d   1       7.082 -12.365  -1.482  0.00  0.00     0.066 H 
ENDBRANCH  25  26
ENDBRANCH  19  25
ENDBRANCH  11  15
BRANCH  12  30
ATOM     30  C   LIG d   1       4.257 -11.187  -7.351  0.00  0.00    -0.018 C 
ATOM     31  H   LIG d   1       4.920 -11.721  -8.033  0.00  0.00     0.029 H 
ATOM     32  H   LIG d   1       4.383 -11.578  -6.341  0.00  0.00     0.029 H 
ATOM     33  H   LIG d   1       3.223 -11.324  -7.669  0.00  0.00     0.029 H 
ENDBRANCH  12  30
ENDBRANCH   1  10
BRANCH   6  34
ATOM     34  O   LIG d   1       3.463  -5.579  -6.111  0.00  0.00    -0.506 OA
ATOM     35  H   LIG d   1       3.136  -4.921  -6.739  0.00  0.00     0.292 HD
ENDBRANCH   6  34
BRANCH   4  36
ATOM     36  O   LIG d   1       7.003  -3.048  -4.205  0.00  0.00    -0.487 OA
BRANCH  36  37
ATOM     37  C   LIG d   1       6.646  -1.792  -4.788  0.00  0.00     0.115 C 
ATOM     38  H   LIG d   1       6.367  -1.942  -5.831  0.00  0.00     0.075 H 
ATOM     39  H   LIG d   1       7.495  -1.111  -4.732  0.00  0.00     0.075 H 
BRANCH  37  40
ATOM     40  C   LIG d   1       5.480  -1.202  -4.036  0.00  0.00    -0.009 A 
ATOM     41  C   LIG d   1       4.539  -0.445  -4.707  0.00  0.00    -0.037 A 
ATOM     42  C   LIG d   1       3.466   0.093  -4.018  0.00  0.00     0.041 A 
ATOM     43  H   LIG d   1       4.638  -0.275  -5.768  0.00  0.00     0.064 H 
ATOM     44  C   LIG d   1       3.343  -0.119  -2.656  0.00  0.00    -0.043 A 
ATOM     45 CL   LIG d   1       2.279   1.040  -4.860  0.00  0.00    -0.084 Cl
ATOM     46  C   LIG d   1       4.288  -0.872  -1.986  0.00  0.00    -0.060 A 
ATOM     47  H   LIG d   1       2.508   0.304  -2.117  0.00  0.00     0.063 H 
ATOM     48  C   LIG d   1       5.356  -1.414  -2.676  0.00  0.00    -0.055 A 
ATOM     49  H   LIG d   1       4.192  -1.038  -0.923  0.00  0.00     0.062 H 
ATOM     50  H   LIG d   1       6.095  -2.002  -2.151  0.00  0.00     0.062 H 
ENDBRANCH  37  40
ENDBRANCH  36  37
ENDBRANCH   4  36
TORSDOF 9
ENDMDL
MODEL 4
REMARK VINA RESULT:      -6.5      6.465      9.466
REMARK  9 active torsions:
REMARK  status: ('A' for Active; 'I' for Inactive)
REMARK    1  A    between atoms: C_1  and  C_2 
REMARK    2  A    between atoms: C_3  and  C_23 
REMARK    3  A    between atoms: C_4  and  C_7 
REMARK    4  A    between atoms: C_10  and  O_14 
REMARK    5  A    between atoms: C_12  and  O_13 
REMARK    6  A    between atoms: O_14  and  C_15 
REMARK    7  A    between atoms: C_15  and  C_16 
REMARK    8  A    between atoms: C_26  and  O_29 
REMARK    9  A    between atoms: O_29  and  C_30 
ROOT
ATOM      1  C   LIG d   1       9.155   2.768  -5.543  0.00  0.00     0.062 A 
ATOM      2  C   LIG d   1       8.252   2.828  -4.478  0.00  0.00    -0.044 A 
ATOM      3  C   LIG d   1       7.779   1.665  -3.912  0.00  0.00    -0.019 A 
ATOM      4  C   LIG d   1       8.195   0.431  -4.397  0.00  0.00     0.124 A 
ATOM      5  C   LIG d   1       9.096   0.361  -5.450  0.00  0.00     0.022 A 
ATOM      6  C   LIG d   1       9.574   1.522  -6.031  0.00  0.00     0.131 A 
ATOM      7  H   LIG d   1       7.926   3.786  -4.101  0.00  0.00     0.063 H 
ATOM      8  H   LIG d   1       7.081   1.713  -3.089  0.00  0.00     0.065 H 
ATOM      9  H   LIG d   1       9.419  -0.601  -5.820  0.00  0.00     0.069 H 
ENDROOT
BRANCH   1  10
ATOM     10  C   LIG d   1       9.664   4.011  -6.152  0.00  0.00     0.179 A 
ATOM     11  C   LIG d   1      10.116   5.148  -5.490  0.00  0.00     0.052 A 
ATOM     12  C   LIG d   1      10.483   6.021  -6.547  0.00  0.00     0.089 A 
ATOM     13  N   LIG d   1      10.232   5.387  -7.655  0.00  0.00    -0.082 NA
ATOM     14  O   LIG d   1       9.782   4.282  -7.466  0.00  0.00    -0.354 OA
BRANCH  11  15
ATOM     15  C   LIG d   1      10.196   5.389  -4.030  0.00  0.00    -0.012 A 
ATOM     16  C   LIG d   1      11.086   4.654  -3.248  0.00  0.00    -0.050 A 
ATOM     17  C   LIG d   1      11.158   4.881  -1.890  0.00  0.00    -0.019 A 
ATOM     18  H   LIG d   1      11.718   3.907  -3.706  0.00  0.00     0.062 H 
ATOM     19  C   LIG d   1      10.347   5.840  -1.301  0.00  0.00     0.120 A 
ATOM     20  H   LIG d   1      11.848   4.311  -1.284  0.00  0.00     0.065 H 
ATOM     21  C   LIG d   1       9.460   6.575  -2.075  0.00  0.00    -0.019 A 
ATOM     22  C   LIG d   1       9.386   6.356  -3.435  0.00  0.00    -0.050 A 
ATOM     23  H   LIG d   1       8.830   7.320  -1.614  0.00  0.00     0.065 H 
ATOM     24  H   LIG d   1       8.698   6.931  -4.039  0.00  0.00     0.062 H 
BRANCH  19  25
ATOM     25  O   LIG d   1      10.421   6.062   0.039  0.00  0.00    -0.495 OA
BRANCH  25  26
ATOM     26  C   LIG d   1      11.250   7.141   0.474  0.00  0.00     0.079 C 
ATOM     27  H   LIG d   1      12.088   7.255  -0.213  0.00  0.00     0.066 H 
ATOM     28  H   LIG d   1      10.667   8.062   0.490  0.00  0.00     0.066 H 
ATOM     29  H   LIG d   1      11.625   6.931   1.475  0.00  0.00     0.066 H 
ENDBRANCH  25  26
ENDBRANCH  19  25
ENDBRANCH  11  15
BRANCH  12  30
ATOM     30  C   LIG d   1      11.048   7.412  -6.414  0.00  0.00    -0.018 C 
ATOM     31  H   LIG d   1      12.063   7.431  -6.812  0.00  0.00     0.029 H 
ATOM     32  H   LIG d   1      10.425   8.112  -6.972  0.00  0.00     0.029 H 
ATOM     33  H   LIG d   1      11.064   7.698  -5.363  0.00  0.00     0.029 H 
ENDBRANCH  12  30
ENDBRANCH   1  10
BRANCH   6  34
ATOM     34  O   LIG d   1      10.452   1.455  -7.065  0.00  0.00    -0.506 OA
ATOM     35  H   LIG d   1      10.532   2.277  -7.568  0.00  0.00     0.292 HD
ENDBRANCH   6  34
BRANCH   4  36
ATOM     36  O   LIG d   1       7.724  -0.711  -3.834  0.00  0.00    -0.487 OA
BRANCH  36  37
ATOM     37  C   LIG d   1       6.807  -1.486  -4.609  0.00  0.00     0.115 C 
ATOM     38  H   LIG d   1       7.095  -2.537  -4.568  0.00  0.00     0.075 H 
ATOM     39  H   LIG d   1       6.825  -1.144  -5.644  0.00  0.00     0.075 H 
BRANCH  37  40
ATOM     40  C   LIG d   1       5.416  -1.325  -4.052  0.00  0.00    -0.009 A 
ATOM     41  C   LIG d   1       4.515  -0.485  -4.678  0.00  0.00    -0.037 A 
ATOM     42  C   LIG d   1       3.236  -0.340  -4.170  0.00  0.00     0.041 A 
ATOM     43  H   LIG d   1       4.807   0.057  -5.565  0.00  0.00     0.064 H 
ATOM     44  C   LIG d   1       2.864  -1.029  -3.029  0.00  0.00    -0.043 A 
ATOM     45 CL   LIG d   1       2.101   0.712  -4.959  0.00  0.00    -0.084 Cl
ATOM     46  C   LIG d   1       3.768  -1.865  -2.401  0.00  0.00    -0.060 A 
ATOM     47  H   LIG d   1       1.867  -0.913  -2.629  0.00  0.00     0.063 H 
ATOM     48  C   LIG d   1       5.043  -2.014  -2.913  0.00  0.00    -0.055 A 
ATOM     49  H   LIG d   1       3.477  -2.403  -1.511  0.00  0.00     0.062 H 
ATOM     50  H   LIG d   1       5.749  -2.667  -2.422  0.00  0.00     0.062 H 
ENDBRANCH  37  40
ENDBRANCH  36  37
ENDBRANCH   4  36
TORSDOF 9
ENDMDL
MODEL 5
REMARK VINA RESULT:      -6.5      7.723     10.629
REMARK  9 active torsions:
REMARK  status: ('A' for Active; 'I' for Inactive)
REMARK    1  A    between atoms: C_1  and  C_2 
REMARK    2  A    between atoms: C_3  and  C_23 
REMARK    3  A    between atoms: C_4  and  C_7 
REMARK    4  A    between atoms: C_10  and  O_14 
REMARK    5  A    between atoms: C_12  and  O_13 
REMARK    6  A    between atoms: O_14  and  C_15 
REMARK    7  A    between atoms: C_15  and  C_16 
REMARK    8  A    between atoms: C_26  and  O_29 
REMARK    9  A    between atoms: O_29  and  C_30 
ROOT
ATOM      1  C   LIG d   1       9.856   4.927  -3.255  0.00  0.00     0.062 A 
ATOM      2  C   LIG d   1       9.112   4.682  -4.414  0.00  0.00    -0.044 A 
ATOM      3  C   LIG d   1       8.957   3.393  -4.871  0.00  0.00    -0.019 A 
ATOM      4  C   LIG d   1       9.540   2.332  -4.186  0.00  0.00     0.124 A 
ATOM      5  C   LIG d   1      10.275   2.564  -3.033  0.00  0.00     0.022 A 
ATOM      6  C   LIG d   1      10.442   3.856  -2.566  0.00  0.00     0.131 A 
ATOM      7  H   LIG d   1       8.659   5.504  -4.948  0.00  0.00     0.063 H 
ATOM      8  H   LIG d   1       8.381   3.205  -5.765  0.00  0.00     0.065 H 
ATOM      9  H   LIG d   1      10.722   1.736  -2.503  0.00  0.00     0.069 H 
ENDROOT
BRANCH   1  10
ATOM     10  C   LIG d   1      10.025   6.306  -2.762  0.00  0.00     0.179 A 
ATOM     11  C   LIG d   1      10.231   7.452  -3.525  0.00  0.00     0.052 A 
ATOM     12  C   LIG d   1      10.320   8.483  -2.552  0.00  0.00     0.089 A 
ATOM     13  N   LIG d   1      10.180   7.910  -1.392  0.00  0.00    -0.082 NA
ATOM     14  O   LIG d   1      10.017   6.717  -1.480  0.00  0.00    -0.354 OA
BRANCH  11  15
ATOM     15  C   LIG d   1      10.331   7.568  -4.999  0.00  0.00    -0.012 A 
ATOM     16  C   LIG d   1       9.243   8.031  -5.738  0.00  0.00    -0.050 A 
ATOM     17  C   LIG d   1       9.340   8.138  -7.110  0.00  0.00    -0.019 A 
ATOM     18  H   LIG d   1       8.326   8.305  -5.238  0.00  0.00     0.062 H 
ATOM     19  C   LIG d   1      10.518   7.787  -7.754  0.00  0.00     0.120 A 
ATOM     20  H   LIG d   1       8.498   8.497  -7.684  0.00  0.00     0.065 H 
ATOM     21  C   LIG d   1      11.603   7.326  -7.021  0.00  0.00    -0.019 A 
ATOM     22  C   LIG d   1      11.515   7.222  -5.648  0.00  0.00    -0.050 A 
ATOM     23  H   LIG d   1      12.519   7.054  -7.525  0.00  0.00     0.065 H 
ATOM     24  H   LIG d   1      12.361   6.867  -5.078  0.00  0.00     0.062 H 
BRANCH  19  25
ATOM     25  O   LIG d   1      10.610   7.895  -9.106  0.00  0.00    -0.495 OA
BRANCH  25  26
ATOM     26  C   LIG d   1       9.924   6.912  -9.883  0.00  0.00     0.079 C 
ATOM     27  H   LIG d   1       9.684   6.054  -9.255  0.00  0.00     0.066 H 
ATOM     28  H   LIG d   1       9.003   7.340 -10.279  0.00  0.00     0.066 H 
ATOM     29  H   LIG d   1      10.560   6.592 -10.708  0.00  0.00     0.066 H 
ENDBRANCH  25  26
ENDBRANCH  19  25
ENDBRANCH  11  15
BRANCH  12  30
ATOM     30  C   LIG d   1      10.539   9.950  -2.812  0.00  0.00    -0.018 C 
ATOM     31  H   LIG d   1      11.395  10.078  -3.475  0.00  0.00     0.029 H 
ATOM     32  H   LIG d   1       9.650  10.373  -3.281  0.00  0.00     0.029 H 
ATOM     33  H   LIG d   1      10.731  10.462  -1.869  0.00  0.00     0.029 H 
ENDBRANCH  12  30
ENDBRANCH   1  10
BRANCH   6  34
ATOM     34  O   LIG d   1      11.167   4.085  -1.440  0.00  0.00    -0.506 OA
ATOM     35  H   LIG d   1      12.000   3.595  -1.402  0.00  0.00     0.292 HD
ENDBRANCH   6  34
BRANCH   4  36
ATOM     36  O   LIG d   1       9.383   1.064  -4.644  0.00  0.00    -0.487 OA
BRANCH  36  37
ATOM     37  C   LIG d   1       8.160   0.765  -5.322  0.00  0.00     0.115 C 
ATOM     38  H   LIG d   1       8.370   0.137  -6.188  0.00  0.00     0.075 H 
ATOM     39  H   LIG d   1       7.691   1.692  -5.650  0.00  0.00     0.075 H 
BRANCH  37  40
ATOM     40  C   LIG d   1       7.231   0.036  -4.386  0.00  0.00    -0.009 A 
ATOM     41  C   LIG d   1       6.411   0.750  -3.533  0.00  0.00    -0.037 A 
ATOM     42  C   LIG d   1       5.554   0.082  -2.676  0.00  0.00     0.041 A 
ATOM     43  H   LIG d   1       6.437   1.830  -3.536  0.00  0.00     0.064 H 
ATOM     44  C   LIG d   1       5.526  -1.301  -2.668  0.00  0.00    -0.043 A 
ATOM     45 CL   LIG d   1       4.520   0.978  -1.607  0.00  0.00    -0.084 Cl
ATOM     46  C   LIG d   1       6.350  -2.014  -3.519  0.00  0.00    -0.060 A 
ATOM     47  H   LIG d   1       4.861  -1.824  -1.996  0.00  0.00     0.063 H 
ATOM     48  C   LIG d   1       7.202  -1.346  -4.378  0.00  0.00    -0.055 A 
ATOM     49  H   LIG d   1       6.328  -3.094  -3.512  0.00  0.00     0.062 H 
ATOM     50  H   LIG d   1       7.845  -1.903  -5.042  0.00  0.00     0.062 H 
ENDBRANCH  37  40
ENDBRANCH  36  37
ENDBRANCH   4  36
TORSDOF 9
ENDMDL
MODEL 6
REMARK VINA RESULT:      -6.2      5.432      9.001
REMARK  9 active torsions:
REMARK  status: ('A' for Active; 'I' for Inactive)
REMARK    1  A    between atoms: C_1  and  C_2 
REMARK    2  A    between atoms: C_3  and  C_23 
REMARK    3  A    between atoms: C_4  and  C_7 
REMARK    4  A    between atoms: C_10  and  O_14 
REMARK    5  A    between atoms: C_12  and  O_13 
REMARK    6  A    between atoms: O_14  and  C_15 
REMARK    7  A    between atoms: C_15  and  C_16 
REMARK    8  A    between atoms: C_26  and  O_29 
REMARK    9  A    between atoms: O_29  and  C_30 
ROOT
ATOM      1  C   LIG d   1       9.512  -5.959  -4.049  0.00  0.00     0.062 A 
ATOM      2  C   LIG d   1       8.492  -6.016  -5.004  0.00  0.00    -0.044 A 
ATOM      3  C   LIG d   1       7.631  -4.952  -5.154  0.00  0.00    -0.019 A 
ATOM      4  C   LIG d   1       7.770  -3.822  -4.357  0.00  0.00     0.124 A 
ATOM      5  C   LIG d   1       8.781  -3.753  -3.410  0.00  0.00     0.022 A 
ATOM      6  C   LIG d   1       9.650  -4.818  -3.247  0.00  0.00     0.131 A 
ATOM      7  H   LIG d   1       8.382  -6.894  -5.624  0.00  0.00     0.063 H 
ATOM      8  H   LIG d   1       6.845  -4.997  -5.893  0.00  0.00     0.065 H 
ATOM      9  H   LIG d   1       8.887  -2.871  -2.797  0.00  0.00     0.069 H 
ENDROOT
BRANCH   1  10
ATOM     10  C   LIG d   1      10.436  -7.096  -3.885  0.00  0.00     0.179 A 
ATOM     11  C   LIG d   1      10.110  -8.398  -3.518  0.00  0.00     0.052 A 
ATOM     12  C   LIG d   1      11.364  -9.064  -3.517  0.00  0.00     0.089 A 
ATOM     13  N   LIG d   1      12.255  -8.175  -3.847  0.00  0.00    -0.082 NA
ATOM     14  O   LIG d   1      11.772  -7.087  -4.054  0.00  0.00    -0.354 OA
BRANCH  11  15
ATOM     15  C   LIG d   1       8.774  -8.957  -3.205  0.00  0.00    -0.012 A 
ATOM     16  C   LIG d   1       8.339  -9.029  -1.882  0.00  0.00    -0.050 A 
ATOM     17  C   LIG d   1       7.094  -9.549  -1.595  0.00  0.00    -0.019 A 
ATOM     18  H   LIG d   1       8.975  -8.677  -1.084  0.00  0.00     0.062 H 
ATOM     19  C   LIG d   1       6.275 -10.000  -2.620  0.00  0.00     0.120 A 
ATOM     20  H   LIG d   1       6.757  -9.605  -0.570  0.00  0.00     0.065 H 
ATOM     21  C   LIG d   1       6.704  -9.931  -3.938  0.00  0.00    -0.019 A 
ATOM     22  C   LIG d   1       7.946  -9.406  -4.233  0.00  0.00    -0.050 A 
ATOM     23  H   LIG d   1       6.065 -10.283  -4.734  0.00  0.00     0.065 H 
ATOM     24  H   LIG d   1       8.278  -9.348  -5.260  0.00  0.00     0.062 H 
BRANCH  19  25
ATOM     25  O   LIG d   1       5.049 -10.513  -2.333  0.00  0.00    -0.495 OA
BRANCH  25  26
ATOM     26  C   LIG d   1       3.969 -10.127  -3.184  0.00  0.00     0.079 C 
ATOM     27  H   LIG d   1       3.594  -9.150  -2.876  0.00  0.00     0.066 H 
ATOM     28  H   LIG d   1       4.320 -10.071  -4.214  0.00  0.00     0.066 H 
ATOM     29  H   LIG d   1       3.168 -10.863  -3.112  0.00  0.00     0.066 H 
ENDBRANCH  25  26
ENDBRANCH  19  25
ENDBRANCH  11  15
BRANCH  12  30
ATOM     30  C   LIG d   1      11.615 -10.513  -3.193  0.00  0.00    -0.018 C 
ATOM     31  H   LIG d   1      12.689 -10.686  -3.109  0.00  0.00     0.029 H 
ATOM     32  H   LIG d   1      11.133 -10.763  -2.247  0.00  0.00     0.029 H 
ATOM     33  H   LIG d   1      11.208 -11.139  -3.986  0.00  0.00     0.029 H 
ENDBRANCH  12  30
ENDBRANCH   1  10
BRANCH   6  34
ATOM     34  O   LIG d   1      10.637  -4.754  -2.316  0.00  0.00    -0.506 OA
ATOM     35  H   LIG d   1      10.509  -4.062  -1.653  0.00  0.00     0.292 HD
ENDBRANCH   6  34
BRANCH   4  36
ATOM     36  O   LIG d   1       6.916  -2.777  -4.511  0.00  0.00    -0.487 OA
BRANCH  36  37
ATOM     37  C   LIG d   1       5.518  -3.068  -4.456  0.00  0.00     0.115 C 
ATOM     38  H   LIG d   1       5.359  -3.976  -3.874  0.00  0.00     0.075 H 
ATOM     39  H   LIG d   1       5.137  -3.213  -5.467  0.00  0.00     0.075 H 
BRANCH  37  40
ATOM     40  C   LIG d   1       4.790  -1.920  -3.805  0.00  0.00    -0.009 A 
ATOM     41  C   LIG d   1       4.004  -1.079  -4.569  0.00  0.00    -0.037 A 
ATOM     42  C   LIG d   1       3.332  -0.027  -3.971  0.00  0.00     0.041 A 
ATOM     43  H   LIG d   1       3.912  -1.243  -5.632  0.00  0.00     0.064 H 
ATOM     44  C   LIG d   1       3.456   0.186  -2.610  0.00  0.00    -0.043 A 
ATOM     45 CL   LIG d   1       2.340   1.027  -4.930  0.00  0.00    -0.084 Cl
ATOM     46  C   LIG d   1       4.246  -0.653  -1.847  0.00  0.00    -0.060 A 
ATOM     47  H   LIG d   1       2.935   1.010  -2.143  0.00  0.00     0.063 H 
ATOM     48  C   LIG d   1       4.913  -1.707  -2.445  0.00  0.00    -0.055 A 
ATOM     49  H   LIG d   1       4.343  -0.486  -0.785  0.00  0.00     0.062 H 
ATOM     50  H   LIG d   1       5.530  -2.361  -1.849  0.00  0.00     0.062 H 
ENDBRANCH  37  40
ENDBRANCH  36  37
ENDBRANCH   4  36
TORSDOF 9
ENDMDL
MODEL 7
REMARK VINA RESULT:      -6.2      4.191      6.227
REMARK  9 active torsions:
REMARK  status: ('A' for Active; 'I' for Inactive)
REMARK    1  A    between atoms: C_1  and  C_2 
REMARK    2  A    between atoms: C_3  and  C_23 
REMARK    3  A    between atoms: C_4  and  C_7 
REMARK    4  A    between atoms: C_10  and  O_14 
REMARK    5  A    between atoms: C_12  and  O_13 
REMARK    6  A    between atoms: O_14  and  C_15 
REMARK    7  A    between atoms: C_15  and  C_16 
REMARK    8  A    between atoms: C_26  and  O_29 
REMARK    9  A    between atoms: O_29  and  C_30 
ROOT
ATOM      1  C   LIG d   1       5.035  -3.959  -7.021  0.00  0.00     0.062 A 
ATOM      2  C   LIG d   1       6.433  -3.926  -7.015  0.00  0.00    -0.044 A 
ATOM      3  C   LIG d   1       7.141  -4.900  -6.348  0.00  0.00    -0.019 A 
ATOM      4  C   LIG d   1       6.471  -5.917  -5.678  0.00  0.00     0.124 A 
ATOM      5  C   LIG d   1       5.084  -5.962  -5.682  0.00  0.00     0.022 A 
ATOM      6  C   LIG d   1       4.362  -4.986  -6.344  0.00  0.00     0.131 A 
ATOM      7  H   LIG d   1       6.955  -3.136  -7.535  0.00  0.00     0.063 H 
ATOM      8  H   LIG d   1       8.220  -4.874  -6.346  0.00  0.00     0.065 H 
ATOM      9  H   LIG d   1       4.569  -6.756  -5.162  0.00  0.00     0.069 H 
ENDROOT
BRANCH   1  10
ATOM     10  C   LIG d   1       4.273  -2.918  -7.734  0.00  0.00     0.179 A 
ATOM     11  C   LIG d   1       4.027  -1.616  -7.308  0.00  0.00     0.052 A 
ATOM     12  C   LIG d   1       3.261  -1.062  -8.367  0.00  0.00     0.089 A 
ATOM     13  N   LIG d   1       3.120  -2.004  -9.254  0.00  0.00    -0.082 NA
ATOM     14  O   LIG d   1       3.666  -3.031  -8.931  0.00  0.00    -0.354 OA
BRANCH  11  15
ATOM     15  C   LIG d   1       4.462  -0.964  -6.050  0.00  0.00    -0.012 A 
ATOM     16  C   LIG d   1       3.537  -0.710  -5.039  0.00  0.00    -0.050 A 
ATOM     17  C   LIG d   1       3.946  -0.102  -3.870  0.00  0.00    -0.019 A 
ATOM     18  H   LIG d   1       2.502  -0.988  -5.170  0.00  0.00     0.062 H 
ATOM     19  C   LIG d   1       5.276   0.255  -3.700  0.00  0.00     0.120 A 
ATOM     20  H   LIG d   1       3.229   0.095  -3.085  0.00  0.00     0.065 H 
ATOM     21  C   LIG d   1       6.200   0.004  -4.704  0.00  0.00    -0.019 A 
ATOM     22  C   LIG d   1       5.799  -0.608  -5.874  0.00  0.00    -0.050 A 
ATOM     23  H   LIG d   1       7.234   0.283  -4.569  0.00  0.00     0.065 H 
ATOM     24  H   LIG d   1       6.519  -0.808  -6.654  0.00  0.00     0.062 H 
BRANCH  19  25
ATOM     25  O   LIG d   1       5.675   0.854  -2.546  0.00  0.00    -0.495 OA
BRANCH  25  26
ATOM     26  C   LIG d   1       4.699   0.984  -1.511  0.00  0.00     0.079 C 
ATOM     27  H   LIG d   1       5.194   0.958  -0.540  0.00  0.00     0.066 H 
ATOM     28  H   LIG d   1       4.174   1.932  -1.624  0.00  0.00     0.066 H 
ATOM     29  H   LIG d   1       3.986   0.162  -1.578  0.00  0.00     0.066 H 
ENDBRANCH  25  26
ENDBRANCH  19  25
ENDBRANCH  11  15
BRANCH  12  30
ATOM     30  C   LIG d   1       2.712   0.339  -8.446  0.00  0.00    -0.018 C 
ATOM     31  H   LIG d   1       1.781   0.333  -9.013  0.00  0.00     0.029 H 
ATOM     32  H   LIG d   1       2.522   0.712  -7.439  0.00  0.00     0.029 H 
ATOM     33  H   LIG d   1       3.436   0.985  -8.943  0.00  0.00     0.029 H 
ENDBRANCH  12  30
ENDBRANCH   1  10
BRANCH   6  34
ATOM     34  O   LIG d   1       3.004  -5.026  -6.344  0.00  0.00    -0.506 OA
ATOM     35  H   LIG d   1       2.610  -5.032  -7.227  0.00  0.00     0.292 HD
ENDBRANCH   6  34
BRANCH   4  36
ATOM     36  O   LIG d   1       7.176  -6.874  -5.021  0.00  0.00    -0.487 OA
BRANCH  36  37
ATOM     37  C   LIG d   1       7.004  -8.223  -5.461  0.00  0.00     0.115 C 
ATOM     38  H   LIG d   1       7.975  -8.650  -5.712  0.00  0.00     0.075 H 
ATOM     39  H   LIG d   1       6.361  -8.239  -6.341  0.00  0.00     0.075 H 
BRANCH  37  40
ATOM     40  C   LIG d   1       6.367  -9.033  -4.361  0.00  0.00    -0.009 A 
ATOM     41  C   LIG d   1       7.116  -9.419  -3.266  0.00  0.00    -0.037 A 
ATOM     42  C   LIG d   1       6.531 -10.159  -2.254  0.00  0.00     0.041 A 
ATOM     43  H   LIG d   1       8.158  -9.141  -3.199  0.00  0.00     0.064 H 
ATOM     44  C   LIG d   1       5.199 -10.520  -2.344  0.00  0.00    -0.043 A 
ATOM     45 CL   LIG d   1       7.470 -10.640  -0.875  0.00  0.00    -0.084 Cl
ATOM     46  C   LIG d   1       4.452 -10.137  -3.442  0.00  0.00    -0.060 A 
ATOM     47  H   LIG d   1       4.742 -11.101  -1.556  0.00  0.00     0.063 H 
ATOM     48  C   LIG d   1       5.035  -9.393  -4.450  0.00  0.00    -0.055 A 
ATOM     49  H   LIG d   1       3.412 -10.419  -3.512  0.00  0.00     0.062 H 
ATOM     50  H   LIG d   1       4.451  -9.095  -5.308  0.00  0.00     0.062 H 
ENDBRANCH  37  40
ENDBRANCH  36  37
ENDBRANCH   4  36
TORSDOF 9
ENDMDL
MODEL 8
REMARK VINA RESULT:      -6.1      8.061     10.943
REMARK  9 active torsions:
REMARK  status: ('A' for Active; 'I' for Inactive)
REMARK    1  A    between atoms: C_1  and  C_2 
REMARK    2  A    between atoms: C_3  and  C_23 
REMARK    3  A    between atoms: C_4  and  C_7 
REMARK    4  A    between atoms: C_10  and  O_14 
REMARK    5  A    between atoms: C_12  and  O_13 
REMARK    6  A    between atoms: O_14  and  C_15 
REMARK    7  A    between atoms: C_15  and  C_16 
REMARK    8  A    between atoms: C_26  and  O_29 
REMARK    9  A    between atoms: O_29  and  C_30 
ROOT
ATOM      1  C   LIG d   1      11.256   3.564  -4.272  0.00  0.00     0.062 A 
ATOM      2  C   LIG d   1      10.707   3.516  -5.557  0.00  0.00    -0.044 A 
ATOM      3  C   LIG d   1       9.445   2.997  -5.745  0.00  0.00    -0.019 A 
ATOM      4  C   LIG d   1       8.716   2.518  -4.663  0.00  0.00     0.124 A 
ATOM      5  C   LIG d   1       9.251   2.567  -3.384  0.00  0.00     0.022 A 
ATOM      6  C   LIG d   1      10.519   3.082  -3.182  0.00  0.00     0.131 A 
ATOM      7  H   LIG d   1      11.271   3.886  -6.400  0.00  0.00     0.063 H 
ATOM      8  H   LIG d   1       9.021   2.961  -6.738  0.00  0.00     0.065 H 
ATOM      9  H   LIG d   1       8.678   2.197  -2.546  0.00  0.00     0.069 H 
ENDROOT
BRANCH   1  10
ATOM     10  C   LIG d   1      12.606   4.119  -4.066  0.00  0.00     0.179 A 
ATOM     11  C   LIG d   1      12.947   5.456  -3.882  0.00  0.00     0.052 A 
ATOM     12  C   LIG d   1      14.358   5.419  -3.732  0.00  0.00     0.089 A 
ATOM     13  N   LIG d   1      14.709   4.171  -3.839  0.00  0.00    -0.082 NA
ATOM     14  O   LIG d   1      13.767   3.438  -4.023  0.00  0.00    -0.354 OA
BRANCH  11  15
ATOM     15  C   LIG d   1      12.051   6.636  -3.849  0.00  0.00    -0.012 A 
ATOM     16  C   LIG d   1      11.475   7.042  -2.646  0.00  0.00    -0.050 A 
ATOM     17  C   LIG d   1      10.641   8.140  -2.619  0.00  0.00    -0.019 A 
ATOM     18  H   LIG d   1      11.681   6.497  -1.736  0.00  0.00     0.062 H 
ATOM     19  C   LIG d   1      10.376   8.841  -3.786  0.00  0.00     0.120 A 
ATOM     20  H   LIG d   1      10.195   8.456  -1.686  0.00  0.00     0.065 H 
ATOM     21  C   LIG d   1      10.947   8.440  -4.986  0.00  0.00    -0.019 A 
ATOM     22  C   LIG d   1      11.785   7.346  -5.020  0.00  0.00    -0.050 A 
ATOM     23  H   LIG d   1      10.738   8.988  -5.893  0.00  0.00     0.065 H 
ATOM     24  H   LIG d   1      12.234   7.037  -5.953  0.00  0.00     0.062 H 
BRANCH  19  25
ATOM     25  O   LIG d   1       9.553   9.924  -3.756  0.00  0.00    -0.495 OA
BRANCH  25  26
ATOM     26  C   LIG d   1       9.468  10.708  -4.946  0.00  0.00     0.079 C 
ATOM     27  H   LIG d   1       9.254  11.744  -4.685  0.00  0.00     0.066 H 
ATOM     28  H   LIG d   1      10.417  10.659  -5.482  0.00  0.00     0.066 H 
ATOM     29  H   LIG d   1       8.672  10.320  -5.581  0.00  0.00     0.066 H 
ENDBRANCH  25  26
ENDBRANCH  19  25
ENDBRANCH  11  15
BRANCH  12  30
ATOM     30  C   LIG d   1      15.272   6.594  -3.500  0.00  0.00    -0.018 C 
ATOM     31  H   LIG d   1      16.288   6.237  -3.333  0.00  0.00     0.029 H 
ATOM     32  H   LIG d   1      15.255   7.246  -4.375  0.00  0.00     0.029 H 
ATOM     33  H   LIG d   1      14.934   7.150  -2.626  0.00  0.00     0.029 H 
ENDBRANCH  12  30
ENDBRANCH   1  10
BRANCH   6  34
ATOM     34  O   LIG d   1      11.046   3.124  -1.931  0.00  0.00    -0.506 OA
ATOM     35  H   LIG d   1      10.445   2.812  -1.240  0.00  0.00     0.292 HD
ENDBRANCH   6  34
BRANCH   4  36
ATOM     36  O   LIG d   1       7.473   2.008  -4.857  0.00  0.00    -0.487 OA
BRANCH  36  37
ATOM     37  C   LIG d   1       7.310   0.602  -4.652  0.00  0.00     0.115 C 
ATOM     38  H   LIG d   1       8.234   0.185  -4.250  0.00  0.00     0.075 H 
ATOM     39  H   LIG d   1       7.076   0.121  -5.601  0.00  0.00     0.075 H 
BRANCH  37  40
ATOM     40  C   LIG d   1       6.185   0.363  -3.678  0.00  0.00    -0.009 A 
ATOM     41  C   LIG d   1       5.628  -0.896  -3.563  0.00  0.00    -0.037 A 
ATOM     42  C   LIG d   1       4.597  -1.117  -2.665  0.00  0.00     0.041 A 
ATOM     43  H   LIG d   1       5.997  -1.708  -4.171  0.00  0.00     0.064 H 
ATOM     44  C   LIG d   1       4.120  -0.074  -1.892  0.00  0.00    -0.043 A 
ATOM     45 CL   LIG d   1       3.900  -2.700  -2.516  0.00  0.00    -0.084 Cl
ATOM     46  C   LIG d   1       4.675   1.186  -2.012  0.00  0.00    -0.060 A 
ATOM     47  H   LIG d   1       3.313  -0.245  -1.194  0.00  0.00     0.063 H 
ATOM     48  C   LIG d   1       5.708   1.405  -2.904  0.00  0.00    -0.055 A 
ATOM     49  H   LIG d   1       4.303   2.000  -1.407  0.00  0.00     0.062 H 
ATOM     50  H   LIG d   1       6.141   2.389  -2.997  0.00  0.00     0.062 H 
ENDBRANCH  37  40
ENDBRANCH  36  37
ENDBRANCH   4  36
TORSDOF 9
ENDMDL
MODEL 9
REMARK VINA RESULT:      -6.0      5.483      8.248
REMARK  9 active torsions:
REMARK  status: ('A' for Active; 'I' for Inactive)
REMARK    1  A    between atoms: C_1  and  C_2 
REMARK    2  A    between atoms: C_3  and  C_23 
REMARK    3  A    between atoms: C_4  and  C_7 
REMARK    4  A    between atoms: C_10  and  O_14 
REMARK    5  A    between atoms: C_12  and  O_13 
REMARK    6  A    between atoms: O_14  and  C_15 
REMARK    7  A    between atoms: C_15  and  C_16 
REMARK    8  A    between atoms: C_26  and  O_29 
REMARK    9  A    between atoms: O_29  and  C_30 
ROOT
ATOM      1  C   LIG d   1       9.791  -4.317  -3.804  0.00  0.00     0.062 A 
ATOM      2  C   LIG d   1       9.722  -4.282  -2.408  0.00  0.00    -0.044 A 
ATOM      3  C   LIG d   1       9.625  -5.456  -1.695  0.00  0.00    -0.019 A 
ATOM      4  C   LIG d   1       9.593  -6.677  -2.358  0.00  0.00     0.124 A 
ATOM      5  C   LIG d   1       9.666  -6.723  -3.743  0.00  0.00     0.022 A 
ATOM      6  C   LIG d   1       9.759  -5.550  -4.471  0.00  0.00     0.131 A 
ATOM      7  H   LIG d   1       9.746  -3.335  -1.890  0.00  0.00     0.063 H 
ATOM      8  H   LIG d   1       9.573  -5.427  -0.617  0.00  0.00     0.065 H 
ATOM      9  H   LIG d   1       9.645  -7.675  -4.253  0.00  0.00     0.069 H 
ENDROOT
BRANCH   1  10
ATOM     10  C   LIG d   1       9.895  -3.063  -4.571  0.00  0.00     0.179 A 
ATOM     11  C   LIG d   1       8.884  -2.136  -4.808  0.00  0.00     0.052 A 
ATOM     12  C   LIG d   1       9.528  -1.137  -5.585  0.00  0.00     0.089 A 
ATOM     13  N   LIG d   1      10.760  -1.526  -5.740  0.00  0.00    -0.082 NA
ATOM     14  O   LIG d   1      10.987  -2.579  -5.193  0.00  0.00    -0.354 OA
BRANCH  11  15
ATOM     15  C   LIG d   1       7.474  -2.180  -4.355  0.00  0.00    -0.012 A 
ATOM     16  C   LIG d   1       7.033  -1.310  -3.359  0.00  0.00    -0.050 A 
ATOM     17  C   LIG d   1       5.719  -1.354  -2.940  0.00  0.00    -0.019 A 
ATOM     18  H   LIG d   1       7.718  -0.603  -2.915  0.00  0.00     0.062 H 
ATOM     19  C   LIG d   1       4.837  -2.261  -3.509  0.00  0.00     0.120 A 
ATOM     20  H   LIG d   1       5.377  -0.680  -2.168  0.00  0.00     0.065 H 
ATOM     21  C   LIG d   1       5.272  -3.129  -4.501  0.00  0.00    -0.019 A 
ATOM     22  C   LIG d   1       6.583  -3.087  -4.928  0.00  0.00    -0.050 A 
ATOM     23  H   LIG d   1       4.584  -3.834  -4.942  0.00  0.00     0.065 H 
ATOM     24  H   LIG d   1       6.921  -3.760  -5.704  0.00  0.00     0.062 H 
BRANCH  19  25
ATOM     25  O   LIG d   1       3.543  -2.301  -3.094  0.00  0.00    -0.495 OA
BRANCH  25  26
ATOM     26  C   LIG d   1       2.841  -1.059  -3.036  0.00  0.00     0.079 C 
ATOM     27  H   LIG d   1       2.708  -0.764  -1.995  0.00  0.00     0.066 H 
ATOM     28  H   LIG d   1       3.415  -0.293  -3.558  0.00  0.00     0.066 H 
ATOM     29  H   LIG d   1       1.866  -1.169  -3.511  0.00  0.00     0.066 H 
ENDBRANCH  25  26
ENDBRANCH  19  25
ENDBRANCH  11  15
BRANCH  12  30
ATOM     30  C   LIG d   1       8.906   0.122  -6.130  0.00  0.00    -0.018 C 
ATOM     31  H   LIG d   1       8.288  -0.123  -6.994  0.00  0.00     0.029 H 
ATOM     32  H   LIG d   1       8.287   0.584  -5.360  0.00  0.00     0.029 H 
ATOM     33  H   LIG d   1       9.691   0.815  -6.430  0.00  0.00     0.029 H 
ENDBRANCH  12  30
ENDBRANCH   1  10
BRANCH   6  34
ATOM     34  O   LIG d   1       9.825  -5.593  -5.827  0.00  0.00    -0.506 OA
ATOM     35  H   LIG d   1       9.987  -6.477  -6.185  0.00  0.00     0.292 HD
ENDBRANCH   6  34
BRANCH   4  36
ATOM     36  O   LIG d   1       9.497  -7.831  -1.648  0.00  0.00    -0.487 OA
BRANCH  36  37
ATOM     37  C   LIG d   1       9.417  -9.047  -2.395  0.00  0.00     0.115 C 
ATOM     38  H   LIG d   1      10.122  -9.771  -1.985  0.00  0.00     0.075 H 
ATOM     39  H   LIG d   1       9.662  -8.850  -3.438  0.00  0.00     0.075 H 
BRANCH  37  40
ATOM     40  C   LIG d   1       8.018  -9.601  -2.305  0.00  0.00    -0.009 A 
ATOM     41  C   LIG d   1       7.124  -9.388  -3.336  0.00  0.00    -0.037 A 
ATOM     42  C   LIG d   1       5.840  -9.900  -3.256  0.00  0.00     0.041 A 
ATOM     43  H   LIG d   1       7.426  -8.824  -4.205  0.00  0.00     0.064 H 
ATOM     44  C   LIG d   1       5.452 -10.617  -2.139  0.00  0.00    -0.043 A 
ATOM     45 CL   LIG d   1       4.717  -9.637  -4.554  0.00  0.00    -0.084 Cl
ATOM     46  C   LIG d   1       6.346 -10.826  -1.105  0.00  0.00    -0.060 A 
ATOM     47  H   LIG d   1       4.449 -11.014  -2.073  0.00  0.00     0.063 H 
ATOM     48  C   LIG d   1       7.629 -10.319  -1.189  0.00  0.00    -0.055 A 
ATOM     49  H   LIG d   1       6.043 -11.386  -0.233  0.00  0.00     0.062 H 
ATOM     50  H   LIG d   1       8.327 -10.482  -0.381  0.00  0.00     0.062 H 
ENDBRANCH  37  40
ENDBRANCH  36  37
ENDBRANCH   4  36
TORSDOF 9
ENDMDL
