MODEL 1
REMARK VINA RESULT:      -6.0      0.000      0.000
REMARK  12 active torsions:
REMARK  status: ('A' for Active; 'I' for Inactive)
REMARK    1  A    between atoms: C_1  and  C_2 
REMARK    2  A    between atoms: C_2  and  O_3 
REMARK    3  A    between atoms: O_3  and  C_4 
REMARK    4  A    between atoms: C_12  and  C_13 
REMARK    5  A    between atoms: C_16  and  O_21 
REMARK    6  A    between atoms: C_17  and  O_19 
REMARK    7  A    between atoms: O_19  and  C_20 
REMARK    8  A    between atoms: O_21  and  C_22 
REMARK    9  A    between atoms: C_22  and  C_24 
REMARK   10  A    between atoms: C_22  and  C_25 
REMARK   11  A    between atoms: C_25  and  O_27 
REMARK   12  A    between atoms: O_27  and  C_28 
ROOT
ATOM      1  C   LIG d   1       9.860   3.831  -3.998  0.00  0.00    -0.018 A 
ATOM      2  C   LIG d   1      10.254   4.178  -2.700  0.00  0.00    -0.051 A 
ATOM      3  C   LIG d   1      10.222   5.495  -2.301  0.00  0.00    -0.016 A 
ATOM      4  C   LIG d   1       9.802   6.482  -3.182  0.00  0.00     0.163 A 
ATOM      5  C   LIG d   1       9.407   6.145  -4.477  0.00  0.00     0.162 A 
ATOM      6  C   LIG d   1       9.441   4.828  -4.888  0.00  0.00    -0.009 A 
ATOM      7  H   LIG d   1      10.581   3.412  -2.012  0.00  0.00     0.062 H 
ATOM      8  H   LIG d   1      10.526   5.762  -1.299  0.00  0.00     0.066 H 
ATOM      9  H   LIG d   1       9.141   4.566  -5.893  0.00  0.00     0.066 H 
ENDROOT
BRANCH   1  10
ATOM     10  C   LIG d   1       9.892   2.426  -4.427  0.00  0.00    -0.008 C 
ATOM     11  C   LIG d   1       8.825   1.621  -4.192  0.00  0.00     0.176 A 
ATOM     12  O   LIG d   1       7.715   1.948  -3.489  0.00  0.00    -0.451 OA
ATOM     13  C   LIG d   1       8.665   0.235  -4.654  0.00  0.00     0.232 A 
ATOM     14  C   LIG d   1       6.835   0.925  -3.435  0.00  0.00     0.143 A 
ATOM     15  C   LIG d   1       7.348  -0.179  -4.135  0.00  0.00     0.068 A 
ATOM     16  C   LIG d   1       5.588   0.817  -2.831  0.00  0.00     0.023 A 
ATOM     17  C   LIG d   1       6.618  -1.364  -4.222  0.00  0.00    -0.044 A 
ATOM     18  C   LIG d   1       5.392  -1.454  -3.624  0.00  0.00    -0.019 A 
ATOM     19  H   LIG d   1       7.019  -2.209  -4.761  0.00  0.00     0.063 H 
ATOM     20  C   LIG d   1       4.873  -0.366  -2.927  0.00  0.00     0.124 A 
ATOM     21  H   LIG d   1       4.826  -2.371  -3.691  0.00  0.00     0.065 H 
ATOM     22  H   LIG d   1       5.175   1.654  -2.290  0.00  0.00     0.069 H 
ATOM     23  O   LIG d   1       9.446  -0.425  -5.318  0.00  0.00    -0.283 OA
ATOM     24  H   LIG d   1      10.764   2.035  -4.930  0.00  0.00     0.066 H 
BRANCH  20  25
ATOM     25  O   LIG d   1       3.653  -0.464  -2.340  0.00  0.00    -0.492 OA
BRANCH  25  26
ATOM     26  C   LIG d   1       2.560  -0.850  -3.176  0.00  0.00     0.087 C 
ATOM     27  H   LIG d   1       2.748  -1.843  -3.583  0.00  0.00     0.069 H 
ATOM     28  H   LIG d   1       1.641  -0.865  -2.589  0.00  0.00     0.069 H 
BRANCH  26  29
ATOM     29  C   LIG d   1       2.416   0.152  -4.323  0.00  0.00    -0.031 C 
ATOM     30  H   LIG d   1       2.402   1.165  -3.922  0.00  0.00     0.026 H 
ATOM     31  H   LIG d   1       3.259   0.045  -5.007  0.00  0.00     0.026 H 
ATOM     32  H   LIG d   1       1.487  -0.039  -4.860  0.00  0.00     0.026 H 
ENDBRANCH  26  29
ENDBRANCH  25  26
ENDBRANCH  20  25
ENDBRANCH   1  10
BRANCH   5  33
ATOM     33  O   LIG d   1       8.996   7.115  -5.337  0.00  0.00    -0.491 OA
BRANCH  33  34
ATOM     34  C   LIG d   1       9.896   7.474  -6.387  0.00  0.00     0.079 C 
ATOM     35  H   LIG d   1      10.217   8.508  -6.253  0.00  0.00     0.066 H 
ATOM     36  H   LIG d   1      10.765   6.818  -6.361  0.00  0.00     0.066 H 
ATOM     37  H   LIG d   1       9.391   7.373  -7.348  0.00  0.00     0.066 H 
ENDBRANCH  33  34
ENDBRANCH   5  33
BRANCH   4  38
ATOM     38  O   LIG d   1       9.773   7.780  -2.783  0.00  0.00    -0.474 OA
BRANCH  38  39
ATOM     39  C   LIG d   1      10.610   8.138  -1.682  0.00  0.00     0.193 C 
ATOM     40  H   LIG d   1      11.062   7.239  -1.261  0.00  0.00     0.085 H 
BRANCH  39  41
ATOM     41  C   LIG d   1      11.711   9.085  -2.164  0.00  0.00    -0.017 C 
ATOM     42  H   LIG d   1      12.604   8.511  -2.408  0.00  0.00     0.027 H 
ATOM     43  H   LIG d   1      11.368   9.618  -3.051  0.00  0.00     0.027 H 
ATOM     44  H   LIG d   1      11.944   9.802  -1.377  0.00  0.00     0.027 H 
ENDBRANCH  39  41
BRANCH  39  45
ATOM     45  C   LIG d   1       9.784   8.826  -0.625  0.00  0.00     0.348 C 
ATOM     46  O   LIG d   1       8.584   8.687  -0.612  0.00  0.00    -0.247 OA
BRANCH  45  47
ATOM     47  O   LIG d   1      10.381   9.591   0.301  0.00  0.00    -0.465 OA
BRANCH  47  48
ATOM     48  C   LIG d   1       9.934  10.968   0.407  0.00  0.00     0.082 C 
ATOM     49  H   LIG d   1      10.271  11.529  -0.464  0.00  0.00     0.066 H 
ATOM     50  H   LIG d   1       8.846  10.995   0.458  0.00  0.00     0.066 H 
ATOM     51  H   LIG d   1      10.350  11.417   1.310  0.00  0.00     0.066 H 
ENDBRANCH  47  48
ENDBRANCH  45  47
ENDBRANCH  39  45
ENDBRANCH  38  39
ENDBRANCH   4  38
TORSDOF 12
ENDMDL
MODEL 2
REMARK VINA RESULT:      -5.9      1.163      2.129
REMARK  12 active torsions:
REMARK  status: ('A' for Active; 'I' for Inactive)
REMARK    1  A    between atoms: C_1  and  C_2 
REMARK    2  A    between atoms: C_2  and  O_3 
REMARK    3  A    between atoms: O_3  and  C_4 
REMARK    4  A    between atoms: C_12  and  C_13 
REMARK    5  A    between atoms: C_16  and  O_21 
REMARK    6  A    between atoms: C_17  and  O_19 
REMARK    7  A    between atoms: O_19  and  C_20 
REMARK    8  A    between atoms: O_21  and  C_22 
REMARK    9  A    between atoms: C_22  and  C_24 
REMARK   10  A    between atoms: C_22  and  C_25 
REMARK   11  A    between atoms: C_25  and  O_27 
REMARK   12  A    between atoms: O_27  and  C_28 
ROOT
ATOM      1  C   LIG d   1       9.903   4.157  -3.758  0.00  0.00    -0.018 A 
ATOM      2  C   LIG d   1       9.477   5.223  -4.561  0.00  0.00    -0.051 A 
ATOM      3  C   LIG d   1       9.400   6.493  -4.035  0.00  0.00    -0.016 A 
ATOM      4  C   LIG d   1       9.744   6.721  -2.709  0.00  0.00     0.163 A 
ATOM      5  C   LIG d   1      10.171   5.666  -1.902  0.00  0.00     0.162 A 
ATOM      6  C   LIG d   1      10.245   4.389  -2.419  0.00  0.00    -0.009 A 
ATOM      7  H   LIG d   1       9.209   5.047  -5.592  0.00  0.00     0.062 H 
ATOM      8  H   LIG d   1       9.071   7.314  -4.655  0.00  0.00     0.066 H 
ATOM      9  H   LIG d   1      10.570   3.570  -1.793  0.00  0.00     0.066 H 
ENDROOT
BRANCH   1  10
ATOM     10  C   LIG d   1       9.987   2.801  -4.315  0.00  0.00    -0.008 C 
ATOM     11  C   LIG d   1       8.949   1.941  -4.162  0.00  0.00     0.176 A 
ATOM     12  O   LIG d   1       7.826   2.161  -3.438  0.00  0.00    -0.451 OA
ATOM     13  C   LIG d   1       8.839   0.599  -4.752  0.00  0.00     0.232 A 
ATOM     14  C   LIG d   1       6.983   1.107  -3.485  0.00  0.00     0.143 A 
ATOM     15  C   LIG d   1       7.537   0.092  -4.281  0.00  0.00     0.068 A 
ATOM     16  C   LIG d   1       5.739   0.899  -2.901  0.00  0.00     0.023 A 
ATOM     17  C   LIG d   1       6.850  -1.105  -4.482  0.00  0.00    -0.044 A 
ATOM     18  C   LIG d   1       5.627  -1.294  -3.902  0.00  0.00    -0.019 A 
ATOM     19  H   LIG d   1       7.283  -1.882  -5.096  0.00  0.00     0.063 H 
ATOM     20  C   LIG d   1       5.067  -0.294  -3.111  0.00  0.00     0.124 A 
ATOM     21  H   LIG d   1       5.094  -2.220  -4.058  0.00  0.00     0.065 H 
ATOM     22  H   LIG d   1       5.295   1.667  -2.287  0.00  0.00     0.069 H 
ATOM     23  O   LIG d   1       9.645   0.031  -5.469  0.00  0.00    -0.283 OA
ATOM     24  H   LIG d   1      10.874   2.490  -4.847  0.00  0.00     0.066 H 
BRANCH  20  25
ATOM     25  O   LIG d   1       3.849  -0.490  -2.543  0.00  0.00    -0.492 OA
BRANCH  25  26
ATOM     26  C   LIG d   1       2.791  -0.908  -3.406  0.00  0.00     0.087 C 
ATOM     27  H   LIG d   1       3.101  -1.796  -3.957  0.00  0.00     0.069 H 
ATOM     28  H   LIG d   1       1.907  -1.140  -2.812  0.00  0.00     0.069 H 
BRANCH  26  29
ATOM     29  C   LIG d   1       2.462   0.214  -4.392  0.00  0.00    -0.031 C 
ATOM     30  H   LIG d   1       1.439   0.552  -4.232  0.00  0.00     0.026 H 
ATOM     31  H   LIG d   1       3.148   1.048  -4.236  0.00  0.00     0.026 H 
ATOM     32  H   LIG d   1       2.567  -0.155  -5.413  0.00  0.00     0.026 H 
ENDBRANCH  26  29
ENDBRANCH  25  26
ENDBRANCH  20  25
ENDBRANCH   1  10
BRANCH   5  33
ATOM     33  O   LIG d   1      10.507   5.896  -0.605  0.00  0.00    -0.491 OA
BRANCH  33  34
ATOM     34  C   LIG d   1      11.833   5.541  -0.205  0.00  0.00     0.079 C 
ATOM     35  H   LIG d   1      12.350   6.426   0.165  0.00  0.00     0.066 H 
ATOM     36  H   LIG d   1      11.785   4.791   0.583  0.00  0.00     0.066 H 
ATOM     37  H   LIG d   1      12.373   5.136  -1.061  0.00  0.00     0.066 H 
ENDBRANCH  33  34
ENDBRANCH   5  33
BRANCH   4  38
ATOM     38  O   LIG d   1       9.667   7.976  -2.196  0.00  0.00    -0.474 OA
BRANCH  38  39
ATOM     39  C   LIG d   1      10.754   8.861  -2.478  0.00  0.00     0.193 C 
ATOM     40  H   LIG d   1      11.483   8.351  -3.107  0.00  0.00     0.085 H 
BRANCH  39  41
ATOM     41  C   LIG d   1      10.227  10.098  -3.208  0.00  0.00    -0.017 C 
ATOM     42  H   LIG d   1       9.818   9.805  -4.174  0.00  0.00     0.027 H 
ATOM     43  H   LIG d   1       9.446  10.568  -2.610  0.00  0.00     0.027 H 
ATOM     44  H   LIG d   1      11.043  10.806  -3.359  0.00  0.00     0.027 H 
ENDBRANCH  39  41
BRANCH  39  45
ATOM     45  C   LIG d   1      11.409   9.280  -1.187  0.00  0.00     0.348 C 
ATOM     46  O   LIG d   1      12.547   9.686  -1.192  0.00  0.00    -0.247 OA
BRANCH  45  47
ATOM     47  O   LIG d   1      10.727   9.205  -0.033  0.00  0.00    -0.465 OA
BRANCH  47  48
ATOM     48  C   LIG d   1      11.503   9.020   1.180  0.00  0.00     0.082 C 
ATOM     49  H   LIG d   1      11.208   9.766   1.917  0.00  0.00     0.066 H 
ATOM     50  H   LIG d   1      11.321   8.022   1.579  0.00  0.00     0.066 H 
ATOM     51  H   LIG d   1      12.563   9.133   0.953  0.00  0.00     0.066 H 
ENDBRANCH  47  48
ENDBRANCH  45  47
ENDBRANCH  39  45
ENDBRANCH  38  39
ENDBRANCH   4  38
TORSDOF 12
ENDMDL
MODEL 3
REMARK VINA RESULT:      -5.9      1.564      2.599
REMARK  12 active torsions:
REMARK  status: ('A' for Active; 'I' for Inactive)
REMARK    1  A    between atoms: C_1  and  C_2 
REMARK    2  A    between atoms: C_2  and  O_3 
REMARK    3  A    between atoms: O_3  and  C_4 
REMARK    4  A    between atoms: C_12  and  C_13 
REMARK    5  A    between atoms: C_16  and  O_21 
REMARK    6  A    between atoms: C_17  and  O_19 
REMARK    7  A    between atoms: O_19  and  C_20 
REMARK    8  A    between atoms: O_21  and  C_22 
REMARK    9  A    between atoms: C_22  and  C_24 
REMARK   10  A    between atoms: C_22  and  C_25 
REMARK   11  A    between atoms: C_25  and  O_27 
REMARK   12  A    between atoms: O_27  and  C_28 
ROOT
ATOM      1  C   LIG d   1      10.325   4.745  -3.266  0.00  0.00    -0.018 A 
ATOM      2  C   LIG d   1       9.962   5.838  -4.063  0.00  0.00    -0.051 A 
ATOM      3  C   LIG d   1       9.703   7.058  -3.480  0.00  0.00    -0.016 A 
ATOM      4  C   LIG d   1       9.800   7.209  -2.103  0.00  0.00     0.163 A 
ATOM      5  C   LIG d   1      10.162   6.126  -1.302  0.00  0.00     0.162 A 
ATOM      6  C   LIG d   1      10.418   4.898  -1.876  0.00  0.00    -0.009 A 
ATOM      7  H   LIG d   1       9.885   5.723  -5.134  0.00  0.00     0.062 H 
ATOM      8  H   LIG d   1       9.422   7.901  -4.095  0.00  0.00     0.066 H 
ATOM      9  H   LIG d   1      10.693   4.057  -1.257  0.00  0.00     0.066 H 
ENDROOT
BRANCH   1  10
ATOM     10  C   LIG d   1      10.603   3.443  -3.884  0.00  0.00    -0.008 C 
ATOM     11  C   LIG d   1       9.616   2.516  -3.986  0.00  0.00     0.176 A 
ATOM     12  O   LIG d   1       8.367   2.619  -3.474  0.00  0.00    -0.451 OA
ATOM     13  C   LIG d   1       9.710   1.219  -4.671  0.00  0.00     0.232 A 
ATOM     14  C   LIG d   1       7.621   1.526  -3.747  0.00  0.00     0.143 A 
ATOM     15  C   LIG d   1       8.381   0.607  -4.488  0.00  0.00     0.068 A 
ATOM     16  C   LIG d   1       6.308   1.206  -3.424  0.00  0.00     0.023 A 
ATOM     17  C   LIG d   1       7.826  -0.608  -4.892  0.00  0.00    -0.044 A 
ATOM     18  C   LIG d   1       6.533  -0.907  -4.567  0.00  0.00    -0.019 A 
ATOM     19  H   LIG d   1       8.417  -1.310  -5.462  0.00  0.00     0.063 H 
ATOM     20  C   LIG d   1       5.770  -0.004  -3.832  0.00  0.00     0.124 A 
ATOM     21  H   LIG d   1       6.103  -1.847  -4.880  0.00  0.00     0.065 H 
ATOM     22  H   LIG d   1       5.707   1.899  -2.856  0.00  0.00     0.069 H 
ATOM     23  O   LIG d   1      10.671   0.754  -5.259  0.00  0.00    -0.283 OA
ATOM     24  H   LIG d   1      11.592   3.222  -4.258  0.00  0.00     0.066 H 
BRANCH  20  25
ATOM     25  O   LIG d   1       4.485  -0.309  -3.519  0.00  0.00    -0.492 OA
BRANCH  25  26
ATOM     26  C   LIG d   1       4.239  -0.811  -2.204  0.00  0.00     0.087 C 
ATOM     27  H   LIG d   1       5.152  -0.741  -1.612  0.00  0.00     0.069 H 
ATOM     28  H   LIG d   1       3.453  -0.222  -1.731  0.00  0.00     0.069 H 
BRANCH  26  29
ATOM     29  C   LIG d   1       3.800  -2.274  -2.290  0.00  0.00    -0.031 C 
ATOM     30  H   LIG d   1       4.573  -2.858  -2.787  0.00  0.00     0.026 H 
ATOM     31  H   LIG d   1       3.639  -2.665  -1.285  0.00  0.00     0.026 H 
ATOM     32  H   LIG d   1       2.871  -2.342  -2.858  0.00  0.00     0.026 H 
ENDBRANCH  26  29
ENDBRANCH  25  26
ENDBRANCH  20  25
ENDBRANCH   1  10
BRANCH   5  33
ATOM     33  O   LIG d   1      10.256   6.279   0.046  0.00  0.00    -0.491 OA
BRANCH  33  34
ATOM     34  C   LIG d   1      11.463   5.830   0.667  0.00  0.00     0.079 C 
ATOM     35  H   LIG d   1      11.289   4.864   1.142  0.00  0.00     0.066 H 
ATOM     36  H   LIG d   1      12.243   5.729  -0.087  0.00  0.00     0.066 H 
ATOM     37  H   LIG d   1      11.774   6.554   1.420  0.00  0.00     0.066 H 
ENDBRANCH  33  34
ENDBRANCH   5  33
BRANCH   4  38
ATOM     38  O   LIG d   1       9.543   8.415  -1.534  0.00  0.00    -0.474 OA
BRANCH  38  39
ATOM     39  C   LIG d   1      10.503   9.452  -1.750  0.00  0.00     0.193 C 
ATOM     40  H   LIG d   1      11.071   9.238  -2.656  0.00  0.00     0.085 H 
BRANCH  39  41
ATOM     41  C   LIG d   1       9.780  10.791  -1.905  0.00  0.00    -0.017 C 
ATOM     42  H   LIG d   1      10.512  11.585  -2.051  0.00  0.00     0.027 H 
ATOM     43  H   LIG d   1       9.115  10.748  -2.767  0.00  0.00     0.027 H 
ATOM     44  H   LIG d   1       9.197  10.996  -1.006  0.00  0.00     0.027 H 
ENDBRANCH  39  41
BRANCH  39  45
ATOM     45  C   LIG d   1      11.442   9.521  -0.572  0.00  0.00     0.348 C 
ATOM     46  O   LIG d   1      12.636   9.490  -0.750  0.00  0.00    -0.247 OA
BRANCH  45  47
ATOM     47  O   LIG d   1      10.950   9.619   0.673  0.00  0.00    -0.465 OA
BRANCH  47  48
ATOM     48  C   LIG d   1      11.878   9.400   1.767  0.00  0.00     0.082 C 
ATOM     49  H   LIG d   1      12.862   9.778   1.492  0.00  0.00     0.066 H 
ATOM     50  H   LIG d   1      11.523   9.921   2.656  0.00  0.00     0.066 H 
ATOM     51  H   LIG d   1      11.946   8.332   1.976  0.00  0.00     0.066 H 
ENDBRANCH  47  48
ENDBRANCH  45  47
ENDBRANCH  39  45
ENDBRANCH  38  39
ENDBRANCH   4  38
TORSDOF 12
ENDMDL
MODEL 4
REMARK VINA RESULT:      -5.5      6.403      8.943
REMARK  12 active torsions:
REMARK  status: ('A' for Active; 'I' for Inactive)
REMARK    1  A    between atoms: C_1  and  C_2 
REMARK    2  A    between atoms: C_2  and  O_3 
REMARK    3  A    between atoms: O_3  and  C_4 
REMARK    4  A    between atoms: C_12  and  C_13 
REMARK    5  A    between atoms: C_16  and  O_21 
REMARK    6  A    between atoms: C_17  and  O_19 
REMARK    7  A    between atoms: O_19  and  C_20 
REMARK    8  A    between atoms: O_21  and  C_22 
REMARK    9  A    between atoms: C_22  and  C_24 
REMARK   10  A    between atoms: C_22  and  C_25 
REMARK   11  A    between atoms: C_25  and  O_27 
REMARK   12  A    between atoms: O_27  and  C_28 
ROOT
ATOM      1  C   LIG d   1       7.748  -2.668  -5.138  0.00  0.00    -0.018 A 
ATOM      2  C   LIG d   1       7.346  -2.575  -3.799  0.00  0.00    -0.051 A 
ATOM      3  C   LIG d   1       6.592  -1.502  -3.382  0.00  0.00    -0.016 A 
ATOM      4  C   LIG d   1       6.228  -0.510  -4.283  0.00  0.00     0.163 A 
ATOM      5  C   LIG d   1       6.623  -0.596  -5.618  0.00  0.00     0.162 A 
ATOM      6  C   LIG d   1       7.385  -1.665  -6.046  0.00  0.00    -0.009 A 
ATOM      7  H   LIG d   1       7.628  -3.344  -3.096  0.00  0.00     0.062 H 
ATOM      8  H   LIG d   1       6.282  -1.430  -2.349  0.00  0.00     0.066 H 
ATOM      9  H   LIG d   1       7.696  -1.729  -7.078  0.00  0.00     0.066 H 
ENDROOT
BRANCH   1  10
ATOM     10  C   LIG d   1       8.553  -3.812  -5.588  0.00  0.00    -0.008 C 
ATOM     11  C   LIG d   1       7.984  -5.038  -5.701  0.00  0.00     0.176 A 
ATOM     12  O   LIG d   1       6.722  -5.372  -5.341  0.00  0.00    -0.451 OA
ATOM     13  C   LIG d   1       8.625  -6.247  -6.238  0.00  0.00     0.232 A 
ATOM     14  C   LIG d   1       6.458  -6.675  -5.581  0.00  0.00     0.143 A 
ATOM     15  C   LIG d   1       7.589  -7.292  -6.139  0.00  0.00     0.068 A 
ATOM     16  C   LIG d   1       5.314  -7.434  -5.371  0.00  0.00     0.023 A 
ATOM     17  C   LIG d   1       7.564  -8.645  -6.476  0.00  0.00    -0.044 A 
ATOM     18  C   LIG d   1       6.430  -9.378  -6.264  0.00  0.00    -0.019 A 
ATOM     19  H   LIG d   1       8.438  -9.113  -6.904  0.00  0.00     0.063 H 
ATOM     20  C   LIG d   1       5.303  -8.777  -5.711  0.00  0.00     0.124 A 
ATOM     21  H   LIG d   1       6.410 -10.425  -6.525  0.00  0.00     0.065 H 
ATOM     22  H   LIG d   1       4.433  -6.978  -4.945  0.00  0.00     0.069 H 
ATOM     23  O   LIG d   1       9.760  -6.361  -6.668  0.00  0.00    -0.283 OA
ATOM     24  H   LIG d   1       9.597  -3.676  -5.828  0.00  0.00     0.066 H 
BRANCH  20  25
ATOM     25  O   LIG d   1       4.179  -9.513  -5.510  0.00  0.00    -0.492 OA
BRANCH  25  26
ATOM     26  C   LIG d   1       4.286 -10.630  -4.625  0.00  0.00     0.087 C 
ATOM     27  H   LIG d   1       3.888 -11.519  -5.114  0.00  0.00     0.069 H 
ATOM     28  H   LIG d   1       5.333 -10.794  -4.371  0.00  0.00     0.069 H 
BRANCH  26  29
ATOM     29  C   LIG d   1       3.488 -10.350  -3.350  0.00  0.00    -0.031 C 
ATOM     30  H   LIG d   1       3.155 -11.291  -2.915  0.00  0.00     0.026 H 
ATOM     31  H   LIG d   1       4.120  -9.823  -2.635  0.00  0.00     0.026 H 
ATOM     32  H   LIG d   1       2.621  -9.734  -3.591  0.00  0.00     0.026 H 
ENDBRANCH  26  29
ENDBRANCH  25  26
ENDBRANCH  20  25
ENDBRANCH   1  10
BRANCH   5  33
ATOM     33  O   LIG d   1       6.264   0.377  -6.497  0.00  0.00    -0.491 OA
BRANCH  33  34
ATOM     34  C   LIG d   1       6.154   0.002  -7.872  0.00  0.00     0.079 C 
ATOM     35  H   LIG d   1       6.883   0.560  -8.460  0.00  0.00     0.066 H 
ATOM     36  H   LIG d   1       6.347  -1.066  -7.973  0.00  0.00     0.066 H 
ATOM     37  H   LIG d   1       5.150   0.227  -8.231  0.00  0.00     0.066 H 
ENDBRANCH  33  34
ENDBRANCH   5  33
BRANCH   4  38
ATOM     38  O   LIG d   1       5.484   0.546  -3.865  0.00  0.00    -0.474 OA
BRANCH  38  39
ATOM     39  C   LIG d   1       4.323   0.252  -3.084  0.00  0.00     0.193 C 
ATOM     40  H   LIG d   1       4.454  -0.708  -2.585  0.00  0.00     0.085 H 
BRANCH  39  41
ATOM     41  C   LIG d   1       4.124   1.349  -2.035  0.00  0.00    -0.017 C 
ATOM     42  H   LIG d   1       3.254   1.114  -1.424  0.00  0.00     0.027 H 
ATOM     43  H   LIG d   1       5.009   1.411  -1.401  0.00  0.00     0.027 H 
ATOM     44  H   LIG d   1       3.969   2.306  -2.535  0.00  0.00     0.027 H 
ENDBRANCH  39  41
BRANCH  39  45
ATOM     45  C   LIG d   1       3.114   0.192  -3.982  0.00  0.00     0.348 C 
ATOM     46  O   LIG d   1       2.196  -0.544  -3.709  0.00  0.00    -0.247 OA
BRANCH  45  47
ATOM     47  O   LIG d   1       3.058   0.956  -5.084  0.00  0.00    -0.465 OA
BRANCH  47  48
ATOM     48  C   LIG d   1       2.797   0.280  -6.342  0.00  0.00     0.082 C 
ATOM     49  H   LIG d   1       2.432  -0.728  -6.145  0.00  0.00     0.066 H 
ATOM     50  H   LIG d   1       2.046   0.835  -6.905  0.00  0.00     0.066 H 
ATOM     51  H   LIG d   1       3.718   0.225  -6.923  0.00  0.00     0.066 H 
ENDBRANCH  47  48
ENDBRANCH  45  47
ENDBRANCH  39  45
ENDBRANCH  38  39
ENDBRANCH   4  38
TORSDOF 12
ENDMDL
MODEL 5
REMARK VINA RESULT:      -5.4      6.895     13.577
REMARK  12 active torsions:
REMARK  status: ('A' for Active; 'I' for Inactive)
REMARK    1  A    between atoms: C_1  and  C_2 
REMARK    2  A    between atoms: C_2  and  O_3 
REMARK    3  A    between atoms: O_3  and  C_4 
REMARK    4  A    between atoms: C_12  and  C_13 
REMARK    5  A    between atoms: C_16  and  O_21 
REMARK    6  A    between atoms: C_17  and  O_19 
REMARK    7  A    between atoms: O_19  and  C_20 
REMARK    8  A    between atoms: O_21  and  C_22 
REMARK    9  A    between atoms: C_22  and  C_24 
REMARK   10  A    between atoms: C_22  and  C_25 
REMARK   11  A    between atoms: C_25  and  O_27 
REMARK   12  A    between atoms: O_27  and  C_28 
ROOT
ATOM      1  C   LIG d   1       6.538  -6.398  -6.041  0.00  0.00    -0.018 A 
ATOM      2  C   LIG d   1       6.800  -7.415  -5.113  0.00  0.00    -0.051 A 
ATOM      3  C   LIG d   1       5.999  -8.533  -5.075  0.00  0.00    -0.016 A 
ATOM      4  C   LIG d   1       4.930  -8.657  -5.952  0.00  0.00     0.163 A 
ATOM      5  C   LIG d   1       4.662  -7.650  -6.880  0.00  0.00     0.162 A 
ATOM      6  C   LIG d   1       5.456  -6.522  -6.922  0.00  0.00    -0.009 A 
ATOM      7  H   LIG d   1       7.631  -7.320  -4.430  0.00  0.00     0.062 H 
ATOM      8  H   LIG d   1       6.201  -9.317  -4.359  0.00  0.00     0.066 H 
ATOM      9  H   LIG d   1       5.247  -5.739  -7.636  0.00  0.00     0.066 H 
ENDROOT
BRANCH   1  10
ATOM     10  C   LIG d   1       7.391  -5.204  -6.086  0.00  0.00    -0.008 C 
ATOM     11  C   LIG d   1       7.048  -4.098  -5.377  0.00  0.00     0.176 A 
ATOM     12  O   LIG d   1       5.905  -3.923  -4.672  0.00  0.00    -0.451 OA
ATOM     13  C   LIG d   1       7.849  -2.874  -5.235  0.00  0.00     0.232 A 
ATOM     14  C   LIG d   1       5.863  -2.710  -4.078  0.00  0.00     0.143 A 
ATOM     15  C   LIG d   1       7.033  -1.995  -4.377  0.00  0.00     0.068 A 
ATOM     16  C   LIG d   1       4.899  -2.115  -3.273  0.00  0.00     0.023 A 
ATOM     17  C   LIG d   1       7.225  -0.708  -3.875  0.00  0.00    -0.044 A 
ATOM     18  C   LIG d   1       6.268  -0.137  -3.083  0.00  0.00    -0.019 A 
ATOM     19  H   LIG d   1       8.127  -0.163  -4.110  0.00  0.00     0.063 H 
ATOM     20  C   LIG d   1       5.103  -0.837  -2.780  0.00  0.00     0.124 A 
ATOM     21  H   LIG d   1       6.415   0.859  -2.694  0.00  0.00     0.065 H 
ATOM     22  H   LIG d   1       3.993  -2.649  -3.029  0.00  0.00     0.069 H 
ATOM     23  O   LIG d   1       8.942  -2.638  -5.719  0.00  0.00    -0.283 OA
ATOM     24  H   LIG d   1       8.291  -5.205  -6.682  0.00  0.00     0.066 H 
BRANCH  20  25
ATOM     25  O   LIG d   1       4.161  -0.262  -1.989  0.00  0.00    -0.492 OA
BRANCH  25  26
ATOM     26  C   LIG d   1       3.638   0.998  -2.412  0.00  0.00     0.087 C 
ATOM     27  H   LIG d   1       2.889   1.339  -1.698  0.00  0.00     0.069 H 
ATOM     28  H   LIG d   1       4.447   1.727  -2.467  0.00  0.00     0.069 H 
BRANCH  26  29
ATOM     29  C   LIG d   1       2.994   0.847  -3.791  0.00  0.00    -0.031 C 
ATOM     30  H   LIG d   1       1.933   1.085  -3.726  0.00  0.00     0.026 H 
ATOM     31  H   LIG d   1       3.477   1.526  -4.494  0.00  0.00     0.026 H 
ATOM     32  H   LIG d   1       3.115  -0.180  -4.139  0.00  0.00     0.026 H 
ENDBRANCH  26  29
ENDBRANCH  25  26
ENDBRANCH  20  25
ENDBRANCH   1  10
BRANCH   5  33
ATOM     33  O   LIG d   1       3.614  -7.777  -7.737  0.00  0.00    -0.491 OA
BRANCH  33  34
ATOM     34  C   LIG d   1       3.919  -8.146  -9.084  0.00  0.00     0.079 C 
ATOM     35  H   LIG d   1       3.103  -7.838  -9.738  0.00  0.00     0.066 H 
ATOM     36  H   LIG d   1       4.840  -7.655  -9.395  0.00  0.00     0.066 H 
ATOM     37  H   LIG d   1       4.044  -9.227  -9.144  0.00  0.00     0.066 H 
ENDBRANCH  33  34
ENDBRANCH   5  33
BRANCH   4  38
ATOM     38  O   LIG d   1       4.142  -9.763  -5.909  0.00  0.00    -0.474 OA
BRANCH  38  39
ATOM     39  C   LIG d   1       4.562 -10.824  -5.049  0.00  0.00     0.193 C 
ATOM     40  H   LIG d   1       5.545 -10.593  -4.638  0.00  0.00     0.085 H 
BRANCH  39  41
ATOM     41  C   LIG d   1       3.556 -10.983  -3.906  0.00  0.00    -0.017 C 
ATOM     42  H   LIG d   1       3.251  -9.999  -3.552  0.00  0.00     0.027 H 
ATOM     43  H   LIG d   1       2.683 -11.527  -4.265  0.00  0.00     0.027 H 
ATOM     44  H   LIG d   1       4.019 -11.536  -3.089  0.00  0.00     0.027 H 
ENDBRANCH  39  41
BRANCH  39  45
ATOM     45  C   LIG d   1       4.635 -12.109  -5.834  0.00  0.00     0.348 C 
ATOM     46  O   LIG d   1       5.378 -12.992  -5.478  0.00  0.00    -0.247 OA
BRANCH  45  47
ATOM     47  O   LIG d   1       3.874 -12.271  -6.928  0.00  0.00    -0.465 OA
BRANCH  47  48
ATOM     48  C   LIG d   1       2.715 -13.136  -6.802  0.00  0.00     0.082 C 
ATOM     49  H   LIG d   1       1.862 -12.554  -6.456  0.00  0.00     0.066 H 
ATOM     50  H   LIG d   1       2.484 -13.579  -7.771  0.00  0.00     0.066 H 
ATOM     51  H   LIG d   1       2.930 -13.928  -6.084  0.00  0.00     0.066 H 
ENDBRANCH  47  48
ENDBRANCH  45  47
ENDBRANCH  39  45
ENDBRANCH  38  39
ENDBRANCH   4  38
TORSDOF 12
ENDMDL
MODEL 6
REMARK VINA RESULT:      -5.3      2.017      2.254
REMARK  12 active torsions:
REMARK  status: ('A' for Active; 'I' for Inactive)
REMARK    1  A    between atoms: C_1  and  C_2 
REMARK    2  A    between atoms: C_2  and  O_3 
REMARK    3  A    between atoms: O_3  and  C_4 
REMARK    4  A    between atoms: C_12  and  C_13 
REMARK    5  A    between atoms: C_16  and  O_21 
REMARK    6  A    between atoms: C_17  and  O_19 
REMARK    7  A    between atoms: O_19  and  C_20 
REMARK    8  A    between atoms: O_21  and  C_22 
REMARK    9  A    between atoms: C_22  and  C_24 
REMARK   10  A    between atoms: C_22  and  C_25 
REMARK   11  A    between atoms: C_25  and  O_27 
REMARK   12  A    between atoms: O_27  and  C_28 
ROOT
ATOM      1  C   LIG d   1      10.085   3.974  -4.943  0.00  0.00    -0.018 A 
ATOM      2  C   LIG d   1      11.129   3.495  -4.141  0.00  0.00    -0.051 A 
ATOM      3  C   LIG d   1      11.660   4.293  -3.154  0.00  0.00    -0.016 A 
ATOM      4  C   LIG d   1      11.164   5.575  -2.950  0.00  0.00     0.163 A 
ATOM      5  C   LIG d   1      10.125   6.060  -3.743  0.00  0.00     0.162 A 
ATOM      6  C   LIG d   1       9.590   5.269  -4.740  0.00  0.00    -0.009 A 
ATOM      7  H   LIG d   1      11.516   2.499  -4.298  0.00  0.00     0.062 H 
ATOM      8  H   LIG d   1      12.465   3.923  -2.536  0.00  0.00     0.066 H 
ATOM      9  H   LIG d   1       8.789   5.646  -5.359  0.00  0.00     0.066 H 
ENDROOT
BRANCH   1  10
ATOM     10  C   LIG d   1       9.516   3.125  -5.998  0.00  0.00    -0.008 C 
ATOM     11  C   LIG d   1       8.661   2.123  -5.673  0.00  0.00     0.176 A 
ATOM     12  O   LIG d   1       8.324   1.732  -4.421  0.00  0.00    -0.451 OA
ATOM     13  C   LIG d   1       7.930   1.266  -6.617  0.00  0.00     0.232 A 
ATOM     14  C   LIG d   1       7.448   0.704  -4.435  0.00  0.00     0.143 A 
ATOM     15  C   LIG d   1       7.150   0.353  -5.761  0.00  0.00     0.068 A 
ATOM     16  C   LIG d   1       6.844  -0.001  -3.401  0.00  0.00     0.023 A 
ATOM     17  C   LIG d   1       6.263  -0.688  -6.036  0.00  0.00    -0.044 A 
ATOM     18  C   LIG d   1       5.676  -1.372  -5.008  0.00  0.00    -0.019 A 
ATOM     19  H   LIG d   1       6.039  -0.953  -7.059  0.00  0.00     0.063 H 
ATOM     20  C   LIG d   1       5.964  -1.032  -3.689  0.00  0.00     0.124 A 
ATOM     21  H   LIG d   1       4.989  -2.177  -5.220  0.00  0.00     0.065 H 
ATOM     22  H   LIG d   1       7.058   0.254  -2.375  0.00  0.00     0.069 H 
ATOM     23  O   LIG d   1       7.962   1.301  -7.835  0.00  0.00    -0.283 OA
ATOM     24  H   LIG d   1       9.779   3.298  -7.031  0.00  0.00     0.066 H 
BRANCH  20  25
ATOM     25  O   LIG d   1       5.373  -1.715  -2.675  0.00  0.00    -0.492 OA
BRANCH  25  26
ATOM     26  C   LIG d   1       4.340  -1.040  -1.954  0.00  0.00     0.087 C 
ATOM     27  H   LIG d   1       4.220  -1.501  -0.974  0.00  0.00     0.069 H 
ATOM     28  H   LIG d   1       4.608   0.010  -1.832  0.00  0.00     0.069 H 
BRANCH  26  29
ATOM     29  C   LIG d   1       3.025  -1.143  -2.729  0.00  0.00    -0.031 C 
ATOM     30  H   LIG d   1       2.310  -0.425  -2.331  0.00  0.00     0.026 H 
ATOM     31  H   LIG d   1       3.207  -0.928  -3.783  0.00  0.00     0.026 H 
ATOM     32  H   LIG d   1       2.622  -2.151  -2.630  0.00  0.00     0.026 H 
ENDBRANCH  26  29
ENDBRANCH  25  26
ENDBRANCH  20  25
ENDBRANCH   1  10
BRANCH   5  33
ATOM     33  O   LIG d   1       9.643   7.315  -3.540  0.00  0.00    -0.491 OA
BRANCH  33  34
ATOM     34  C   LIG d   1      10.067   8.329  -4.455  0.00  0.00     0.079 C 
ATOM     35  H   LIG d   1       9.338   8.418  -5.261  0.00  0.00     0.066 H 
ATOM     36  H   LIG d   1      10.147   9.280  -3.930  0.00  0.00     0.066 H 
ATOM     37  H   LIG d   1      11.037   8.058  -4.871  0.00  0.00     0.066 H 
ENDBRANCH  33  34
ENDBRANCH   5  33
BRANCH   4  38
ATOM     38  O   LIG d   1      11.692   6.358  -1.974  0.00  0.00    -0.474 OA
BRANCH  38  39
ATOM     39  C   LIG d   1      12.178   5.697  -0.804  0.00  0.00     0.193 C 
ATOM     40  H   LIG d   1      11.930   4.636  -0.856  0.00  0.00     0.085 H 
BRANCH  39  41
ATOM     41  C   LIG d   1      13.697   5.862  -0.718  0.00  0.00    -0.017 C 
ATOM     42  H   LIG d   1      13.996   6.757  -1.261  0.00  0.00     0.027 H 
ATOM     43  H   LIG d   1      13.994   5.954   0.327  0.00  0.00     0.027 H 
ATOM     44  H   LIG d   1      14.182   4.991  -1.158  0.00  0.00     0.027 H 
ENDBRANCH  39  41
BRANCH  39  45
ATOM     45  C   LIG d   1      11.538   6.303   0.419  0.00  0.00     0.348 C 
ATOM     46  O   LIG d   1      10.444   5.933   0.774  0.00  0.00    -0.247 OA
BRANCH  45  47
ATOM     47  O   LIG d   1      12.183   7.254   1.112  0.00  0.00    -0.465 OA
BRANCH  47  48
ATOM     48  C   LIG d   1      11.638   8.598   1.053  0.00  0.00     0.082 C 
ATOM     49  H   LIG d   1      12.452   9.321   1.036  0.00  0.00     0.066 H 
ATOM     50  H   LIG d   1      11.035   8.708   0.151  0.00  0.00     0.066 H 
ATOM     51  H   LIG d   1      11.014   8.776   1.930  0.00  0.00     0.066 H 
ENDBRANCH  47  48
ENDBRANCH  45  47
ENDBRANCH  39  45
ENDBRANCH  38  39
ENDBRANCH   4  38
TORSDOF 12
ENDMDL
MODEL 7
REMARK VINA RESULT:      -5.3      6.845     10.625
REMARK  12 active torsions:
REMARK  status: ('A' for Active; 'I' for Inactive)
REMARK    1  A    between atoms: C_1  and  C_2 
REMARK    2  A    between atoms: C_2  and  O_3 
REMARK    3  A    between atoms: O_3  and  C_4 
REMARK    4  A    between atoms: C_12  and  C_13 
REMARK    5  A    between atoms: C_16  and  O_21 
REMARK    6  A    between atoms: C_17  and  O_19 
REMARK    7  A    between atoms: O_19  and  C_20 
REMARK    8  A    between atoms: O_21  and  C_22 
REMARK    9  A    between atoms: C_22  and  C_24 
REMARK   10  A    between atoms: C_22  and  C_25 
REMARK   11  A    between atoms: C_25  and  O_27 
REMARK   12  A    between atoms: O_27  and  C_28 
ROOT
ATOM      1  C   LIG d   1       3.274  -0.795  -9.088  0.00  0.00    -0.018 A 
ATOM      2  C   LIG d   1       2.550   0.167  -8.372  0.00  0.00    -0.051 A 
ATOM      3  C   LIG d   1       2.826   0.385  -7.041  0.00  0.00    -0.016 A 
ATOM      4  C   LIG d   1       3.820  -0.347  -6.405  0.00  0.00     0.163 A 
ATOM      5  C   LIG d   1       4.546  -1.306  -7.110  0.00  0.00     0.162 A 
ATOM      6  C   LIG d   1       4.274  -1.536  -8.443  0.00  0.00    -0.009 A 
ATOM      7  H   LIG d   1       1.777   0.737  -8.865  0.00  0.00     0.062 H 
ATOM      8  H   LIG d   1       2.266   1.126  -6.489  0.00  0.00     0.066 H 
ATOM      9  H   LIG d   1       4.832  -2.282  -8.990  0.00  0.00     0.066 H 
ENDROOT
BRANCH   1  10
ATOM     10  C   LIG d   1       2.984  -1.030 -10.508  0.00  0.00    -0.008 C 
ATOM     11  C   LIG d   1       2.055  -1.953 -10.866  0.00  0.00     0.176 A 
ATOM     12  O   LIG d   1       1.399  -2.793 -10.032  0.00  0.00    -0.451 OA
ATOM     13  C   LIG d   1       1.580  -2.222 -12.231  0.00  0.00     0.232 A 
ATOM     14  C   LIG d   1       0.537  -3.592 -10.699  0.00  0.00     0.143 A 
ATOM     15  C   LIG d   1       0.588  -3.301 -12.072  0.00  0.00     0.068 A 
ATOM     16  C   LIG d   1      -0.326  -4.585 -10.254  0.00  0.00     0.023 A 
ATOM     17  C   LIG d   1      -0.215  -3.999 -12.974  0.00  0.00    -0.044 A 
ATOM     18  C   LIG d   1      -1.061  -4.972 -12.520  0.00  0.00    -0.019 A 
ATOM     19  H   LIG d   1      -0.171  -3.770 -14.029  0.00  0.00     0.063 H 
ATOM     20  C   LIG d   1      -1.119  -5.269 -11.161  0.00  0.00     0.124 A 
ATOM     21  H   LIG d   1      -1.683  -5.513 -13.218  0.00  0.00     0.065 H 
ATOM     22  H   LIG d   1      -0.381  -4.823  -9.203  0.00  0.00     0.069 H 
ATOM     23  O   LIG d   1       1.928  -1.675 -13.263  0.00  0.00    -0.283 OA
ATOM     24  H   LIG d   1       3.509  -0.469 -11.267  0.00  0.00     0.066 H 
BRANCH  20  25
ATOM     25  O   LIG d   1      -1.966  -6.235 -10.720  0.00  0.00    -0.492 OA
BRANCH  25  26
ATOM     26  C   LIG d   1      -1.437  -7.556 -10.598  0.00  0.00     0.087 C 
ATOM     27  H   LIG d   1      -1.233  -7.959 -11.590  0.00  0.00     0.069 H 
ATOM     28  H   LIG d   1      -0.512  -7.525 -10.021  0.00  0.00     0.069 H 
BRANCH  26  29
ATOM     29  C   LIG d   1      -2.453  -8.450  -9.885  0.00  0.00    -0.031 C 
ATOM     30  H   LIG d   1      -3.387  -8.459 -10.447  0.00  0.00     0.026 H 
ATOM     31  H   LIG d   1      -2.060  -9.465  -9.816  0.00  0.00     0.026 H 
ATOM     32  H   LIG d   1      -2.637  -8.064  -8.882  0.00  0.00     0.026 H 
ENDBRANCH  26  29
ENDBRANCH  25  26
ENDBRANCH  20  25
ENDBRANCH   1  10
BRANCH   5  33
ATOM     33  O   LIG d   1       5.519  -2.019  -6.482  0.00  0.00    -0.491 OA
BRANCH  33  34
ATOM     34  C   LIG d   1       6.873  -1.672  -6.780  0.00  0.00     0.079 C 
ATOM     35  H   LIG d   1       7.475  -1.744  -5.873  0.00  0.00     0.066 H 
ATOM     36  H   LIG d   1       7.266  -2.355  -7.532  0.00  0.00     0.066 H 
ATOM     37  H   LIG d   1       6.910  -0.650  -7.160  0.00  0.00     0.066 H 
ENDBRANCH  33  34
ENDBRANCH   5  33
BRANCH   4  38
ATOM     38  O   LIG d   1       4.087  -0.128  -5.091  0.00  0.00    -0.474 OA
BRANCH  38  39
ATOM     39  C   LIG d   1       2.966   0.052  -4.223  0.00  0.00     0.193 C 
ATOM     40  H   LIG d   1       2.069   0.228  -4.818  0.00  0.00     0.085 H 
BRANCH  39  41
ATOM     41  C   LIG d   1       2.775  -1.205  -3.371  0.00  0.00    -0.017 C 
ATOM     42  H   LIG d   1       3.474  -1.974  -3.695  0.00  0.00     0.027 H 
ATOM     43  H   LIG d   1       2.957  -0.964  -2.323  0.00  0.00     0.027 H 
ATOM     44  H   LIG d   1       1.754  -1.570  -3.487  0.00  0.00     0.027 H 
ENDBRANCH  39  41
BRANCH  39  45
ATOM     45  C   LIG d   1       3.212   1.236  -3.323  0.00  0.00     0.348 C 
ATOM     46  O   LIG d   1       3.246   2.350  -3.787  0.00  0.00    -0.247 OA
BRANCH  45  47
ATOM     47  O   LIG d   1       3.390   1.051  -2.005  0.00  0.00    -0.465 OA
BRANCH  47  48
ATOM     48  C   LIG d   1       4.759   0.952  -1.533  0.00  0.00     0.082 C 
ATOM     49  H   LIG d   1       4.958   1.752  -0.821  0.00  0.00     0.066 H 
ATOM     50  H   LIG d   1       4.908  -0.012  -1.048  0.00  0.00     0.066 H 
ATOM     51  H   LIG d   1       5.442   1.042  -2.379  0.00  0.00     0.066 H 
ENDBRANCH  47  48
ENDBRANCH  45  47
ENDBRANCH  39  45
ENDBRANCH  38  39
ENDBRANCH   4  38
TORSDOF 12
ENDMDL
MODEL 8
REMARK VINA RESULT:      -5.1      7.338     13.694
REMARK  12 active torsions:
REMARK  status: ('A' for Active; 'I' for Inactive)
REMARK    1  A    between atoms: C_1  and  C_2 
REMARK    2  A    between atoms: C_2  and  O_3 
REMARK    3  A    between atoms: O_3  and  C_4 
REMARK    4  A    between atoms: C_12  and  C_13 
REMARK    5  A    between atoms: C_16  and  O_21 
REMARK    6  A    between atoms: C_17  and  O_19 
REMARK    7  A    between atoms: O_19  and  C_20 
REMARK    8  A    between atoms: O_21  and  C_22 
REMARK    9  A    between atoms: C_22  and  C_24 
REMARK   10  A    between atoms: C_22  and  C_25 
REMARK   11  A    between atoms: C_25  and  O_27 
REMARK   12  A    between atoms: O_27  and  C_28 
ROOT
ATOM      1  C   LIG d   1       6.477  -7.186  -5.577  0.00  0.00    -0.018 A 
ATOM      2  C   LIG d   1       7.544  -7.509  -4.729  0.00  0.00    -0.051 A 
ATOM      3  C   LIG d   1       7.473  -8.628  -3.930  0.00  0.00    -0.016 A 
ATOM      4  C   LIG d   1       6.346  -9.438  -3.962  0.00  0.00     0.163 A 
ATOM      5  C   LIG d   1       5.279  -9.124  -4.804  0.00  0.00     0.162 A 
ATOM      6  C   LIG d   1       5.338  -8.002  -5.604  0.00  0.00    -0.009 A 
ATOM      7  H   LIG d   1       8.421  -6.880  -4.702  0.00  0.00     0.062 H 
ATOM      8  H   LIG d   1       8.296  -8.876  -3.276  0.00  0.00     0.066 H 
ATOM      9  H   LIG d   1       4.510  -7.754  -6.253  0.00  0.00     0.066 H 
ENDROOT
BRANCH   1  10
ATOM     10  C   LIG d   1       6.549  -5.993  -6.431  0.00  0.00    -0.008 C 
ATOM     11  C   LIG d   1       6.027  -4.817  -5.998  0.00  0.00     0.176 A 
ATOM     12  O   LIG d   1       5.328  -4.624  -4.855  0.00  0.00    -0.451 OA
ATOM     13  C   LIG d   1       6.118  -3.522  -6.686  0.00  0.00     0.232 A 
ATOM     14  C   LIG d   1       4.945  -3.337  -4.711  0.00  0.00     0.143 A 
ATOM     15  C   LIG d   1       5.396  -2.584  -5.807  0.00  0.00     0.068 A 
ATOM     16  C   LIG d   1       4.223  -2.699  -3.710  0.00  0.00     0.023 A 
ATOM     17  C   LIG d   1       5.123  -1.218  -5.889  0.00  0.00    -0.044 A 
ATOM     18  C   LIG d   1       4.412  -0.606  -4.894  0.00  0.00    -0.019 A 
ATOM     19  H   LIG d   1       5.472  -0.645  -6.735  0.00  0.00     0.063 H 
ATOM     20  C   LIG d   1       3.960  -1.342  -3.803  0.00  0.00     0.124 A 
ATOM     21  H   LIG d   1       4.201   0.451  -4.957  0.00  0.00     0.065 H 
ATOM     22  H   LIG d   1       3.869  -3.260  -2.858  0.00  0.00     0.069 H 
ATOM     23  O   LIG d   1       6.668  -3.277  -7.747  0.00  0.00    -0.283 OA
ATOM     24  H   LIG d   1       7.017  -6.052  -7.402  0.00  0.00     0.066 H 
BRANCH  20  25
ATOM     25  O   LIG d   1       3.259  -0.724  -2.819  0.00  0.00    -0.492 OA
BRANCH  25  26
ATOM     26  C   LIG d   1       3.444   0.686  -2.678  0.00  0.00     0.087 C 
ATOM     27  H   LIG d   1       3.742   1.110  -3.637  0.00  0.00     0.069 H 
ATOM     28  H   LIG d   1       2.510   1.144  -2.352  0.00  0.00     0.069 H 
BRANCH  26  29
ATOM     29  C   LIG d   1       4.535   0.957  -1.640  0.00  0.00    -0.031 C 
ATOM     30  H   LIG d   1       4.229   1.782  -0.998  0.00  0.00     0.026 H 
ATOM     31  H   LIG d   1       4.691   0.063  -1.035  0.00  0.00     0.026 H 
ATOM     32  H   LIG d   1       5.464   1.217  -2.148  0.00  0.00     0.026 H 
ENDBRANCH  26  29
ENDBRANCH  25  26
ENDBRANCH  20  25
ENDBRANCH   1  10
BRANCH   5  33
ATOM     33  O   LIG d   1       4.177  -9.921  -4.832  0.00  0.00    -0.491 OA
BRANCH  33  34
ATOM     34  C   LIG d   1       4.173 -10.989  -5.782  0.00  0.00     0.079 C 
ATOM     35  H   LIG d   1       4.598 -11.883  -5.325  0.00  0.00     0.066 H 
ATOM     36  H   LIG d   1       3.150 -11.192  -6.095  0.00  0.00     0.066 H 
ATOM     37  H   LIG d   1       4.770 -10.706  -6.649  0.00  0.00     0.066 H 
ENDBRANCH  33  34
ENDBRANCH   5  33
BRANCH   4  38
ATOM     38  O   LIG d   1       6.281 -10.541  -3.172  0.00  0.00    -0.474 OA
BRANCH  38  39
ATOM     39  C   LIG d   1       7.488 -10.942  -2.520  0.00  0.00     0.193 C 
ATOM     40  H   LIG d   1       8.306 -10.295  -2.837  0.00  0.00     0.085 H 
BRANCH  39  41
ATOM     41  C   LIG d   1       7.309 -10.834  -1.004  0.00  0.00    -0.017 C 
ATOM     42  H   LIG d   1       8.268 -10.996  -0.512  0.00  0.00     0.027 H 
ATOM     43  H   LIG d   1       6.935  -9.841  -0.753  0.00  0.00     0.027 H 
ATOM     44  H   LIG d   1       6.596 -11.587  -0.667  0.00  0.00     0.027 H 
ENDBRANCH  39  41
BRANCH  39  45
ATOM     45  C   LIG d   1       7.806 -12.370  -2.886  0.00  0.00     0.348 C 
ATOM     46  O   LIG d   1       7.287 -12.874  -3.853  0.00  0.00    -0.247 OA
BRANCH  45  47
ATOM     47  O   LIG d   1       8.667 -13.079  -2.139  0.00  0.00    -0.465 OA
BRANCH  47  48
ATOM     48  C   LIG d   1       8.192 -14.343  -1.608  0.00  0.00     0.082 C 
ATOM     49  H   LIG d   1       8.342 -14.364  -0.529  0.00  0.00     0.066 H 
ATOM     50  H   LIG d   1       7.131 -14.456  -1.830  0.00  0.00     0.066 H 
ATOM     51  H   LIG d   1       8.748 -15.162  -2.066  0.00  0.00     0.066 H 
ENDBRANCH  47  48
ENDBRANCH  45  47
ENDBRANCH  39  45
ENDBRANCH  38  39
ENDBRANCH   4  38
TORSDOF 12
ENDMDL
MODEL 9
REMARK VINA RESULT:      -5.0      2.035      2.697
REMARK  12 active torsions:
REMARK  status: ('A' for Active; 'I' for Inactive)
REMARK    1  A    between atoms: C_1  and  C_2 
REMARK    2  A    between atoms: C_2  and  O_3 
REMARK    3  A    between atoms: O_3  and  C_4 
REMARK    4  A    between atoms: C_12  and  C_13 
REMARK    5  A    between atoms: C_16  and  O_21 
REMARK    6  A    between atoms: C_17  and  O_19 
REMARK    7  A    between atoms: O_19  and  C_20 
REMARK    8  A    between atoms: O_21  and  C_22 
REMARK    9  A    between atoms: C_22  and  C_24 
REMARK   10  A    between atoms: C_22  and  C_25 
REMARK   11  A    between atoms: C_25  and  O_27 
REMARK   12  A    between atoms: O_27  and  C_28 
ROOT
ATOM      1  C   LIG d   1      10.160   4.875  -5.226  0.00  0.00    -0.018 A 
ATOM      2  C   LIG d   1       9.359   5.982  -4.919  0.00  0.00    -0.051 A 
ATOM      3  C   LIG d   1       9.679   6.788  -3.850  0.00  0.00    -0.016 A 
ATOM      4  C   LIG d   1      10.795   6.506  -3.073  0.00  0.00     0.163 A 
ATOM      5  C   LIG d   1      11.599   5.406  -3.372  0.00  0.00     0.162 A 
ATOM      6  C   LIG d   1      11.283   4.589  -4.438  0.00  0.00    -0.009 A 
ATOM      7  H   LIG d   1       8.490   6.203  -5.522  0.00  0.00     0.062 H 
ATOM      8  H   LIG d   1       9.061   7.642  -3.614  0.00  0.00     0.066 H 
ATOM      9  H   LIG d   1      11.902   3.734  -4.667  0.00  0.00     0.066 H 
ENDROOT
BRANCH   1  10
ATOM     10  C   LIG d   1       9.822   4.013  -6.366  0.00  0.00    -0.008 C 
ATOM     11  C   LIG d   1       9.056   2.909  -6.176  0.00  0.00     0.176 A 
ATOM     12  O   LIG d   1       8.624   2.429  -4.987  0.00  0.00    -0.451 OA
ATOM     13  C   LIG d   1       8.547   2.015  -7.227  0.00  0.00     0.232 A 
ATOM     14  C   LIG d   1       7.881   1.310  -5.136  0.00  0.00     0.143 A 
ATOM     15  C   LIG d   1       7.784   0.985  -6.499  0.00  0.00     0.068 A 
ATOM     16  C   LIG d   1       7.246   0.498  -4.204  0.00  0.00     0.023 A 
ATOM     17  C   LIG d   1       7.062  -0.136  -6.909  0.00  0.00    -0.044 A 
ATOM     18  C   LIG d   1       6.443  -0.925  -5.980  0.00  0.00    -0.019 A 
ATOM     19  H   LIG d   1       6.993  -0.381  -7.959  0.00  0.00     0.063 H 
ATOM     20  C   LIG d   1       6.533  -0.612  -4.627  0.00  0.00     0.124 A 
ATOM     21  H   LIG d   1       5.885  -1.793  -6.297  0.00  0.00     0.065 H 
ATOM     22  H   LIG d   1       7.308   0.732  -3.152  0.00  0.00     0.069 H 
ATOM     23  O   LIG d   1       8.717   2.106  -8.430  0.00  0.00    -0.283 OA
ATOM     24  H   LIG d   1      10.182   4.259  -7.354  0.00  0.00     0.066 H 
BRANCH  20  25
ATOM     25  O   LIG d   1       5.910  -1.399  -3.712  0.00  0.00    -0.492 OA
BRANCH  25  26
ATOM     26  C   LIG d   1       5.103  -0.743  -2.733  0.00  0.00     0.087 C 
ATOM     27  H   LIG d   1       5.743  -0.318  -1.960  0.00  0.00     0.069 H 
ATOM     28  H   LIG d   1       4.531   0.054  -3.209  0.00  0.00     0.069 H 
BRANCH  26  29
ATOM     29  C   LIG d   1       4.144  -1.753  -2.102  0.00  0.00    -0.031 C 
ATOM     30  H   LIG d   1       3.880  -2.514  -2.836  0.00  0.00     0.026 H 
ATOM     31  H   LIG d   1       4.626  -2.226  -1.245  0.00  0.00     0.026 H 
ATOM     32  H   LIG d   1       3.240  -1.240  -1.771  0.00  0.00     0.026 H 
ENDBRANCH  26  29
ENDBRANCH  25  26
ENDBRANCH  20  25
ENDBRANCH   1  10
BRANCH   5  33
ATOM     33  O   LIG d   1      12.691   5.135  -2.608  0.00  0.00    -0.491 OA
BRANCH  33  34
ATOM     34  C   LIG d   1      13.910   4.850  -3.297  0.00  0.00     0.079 C 
ATOM     35  H   LIG d   1      14.089   3.774  -3.289  0.00  0.00     0.066 H 
ATOM     36  H   LIG d   1      13.835   5.198  -4.327  0.00  0.00     0.066 H 
ATOM     37  H   LIG d   1      14.736   5.359  -2.800  0.00  0.00     0.066 H 
ENDBRANCH  33  34
ENDBRANCH   5  33
BRANCH   4  38
ATOM     38  O   LIG d   1      11.106   7.305  -2.019  0.00  0.00    -0.474 OA
BRANCH  38  39
ATOM     39  C   LIG d   1      10.292   7.182  -0.851  0.00  0.00     0.193 C 
ATOM     40  H   LIG d   1       9.656   6.302  -0.941  0.00  0.00     0.085 H 
BRANCH  39  41
ATOM     41  C   LIG d   1      11.188   7.041   0.382  0.00  0.00    -0.017 C 
ATOM     42  H   LIG d   1      12.213   7.298   0.118  0.00  0.00     0.027 H 
ATOM     43  H   LIG d   1      10.835   7.713   1.165  0.00  0.00     0.027 H 
ATOM     44  H   LIG d   1      11.151   6.013   0.742  0.00  0.00     0.027 H 
ENDBRANCH  39  41
BRANCH  39  45
ATOM     45  C   LIG d   1       9.431   8.411  -0.707  0.00  0.00     0.348 C 
ATOM     46  O   LIG d   1       8.228   8.312  -0.741  0.00  0.00    -0.247 OA
BRANCH  45  47
ATOM     47  O   LIG d   1      10.002   9.615  -0.541  0.00  0.00    -0.465 OA
BRANCH  47  48
ATOM     48  C   LIG d   1       9.804  10.590  -1.598  0.00  0.00     0.082 C 
ATOM     49  H   LIG d   1      10.696  11.209  -1.693  0.00  0.00     0.066 H 
ATOM     50  H   LIG d   1       9.617  10.074  -2.539  0.00  0.00     0.066 H 
ATOM     51  H   LIG d   1       8.950  11.222  -1.354  0.00  0.00     0.066 H 
ENDBRANCH  47  48
ENDBRANCH  45  47
ENDBRANCH  39  45
ENDBRANCH  38  39
ENDBRANCH   4  38
TORSDOF 12
ENDMDL
MODEL 10
REMARK VINA RESULT:      -5.0      6.562     12.829
REMARK  12 active torsions:
REMARK  status: ('A' for Active; 'I' for Inactive)
REMARK    1  A    between atoms: C_1  and  C_2 
REMARK    2  A    between atoms: C_2  and  O_3 
REMARK    3  A    between atoms: O_3  and  C_4 
REMARK    4  A    between atoms: C_12  and  C_13 
REMARK    5  A    between atoms: C_16  and  O_21 
REMARK    6  A    between atoms: C_17  and  O_19 
REMARK    7  A    between atoms: O_19  and  C_20 
REMARK    8  A    between atoms: O_21  and  C_22 
REMARK    9  A    between atoms: C_22  and  C_24 
REMARK   10  A    between atoms: C_22  and  C_25 
REMARK   11  A    between atoms: C_25  and  O_27 
REMARK   12  A    between atoms: O_27  and  C_28 
ROOT
ATOM      1  C   LIG d   1       8.451  -6.595  -4.618  0.00  0.00    -0.018 A 
ATOM      2  C   LIG d   1       8.919  -7.432  -3.598  0.00  0.00    -0.051 A 
ATOM      3  C   LIG d   1       8.269  -8.615  -3.327  0.00  0.00    -0.016 A 
ATOM      4  C   LIG d   1       7.149  -8.981  -4.062  0.00  0.00     0.163 A 
ATOM      5  C   LIG d   1       6.676  -8.152  -5.080  0.00  0.00     0.162 A 
ATOM      6  C   LIG d   1       7.318  -6.962  -5.356  0.00  0.00    -0.009 A 
ATOM      7  H   LIG d   1       9.790  -7.150  -3.025  0.00  0.00     0.062 H 
ATOM      8  H   LIG d   1       8.630  -9.261  -2.540  0.00  0.00     0.066 H 
ATOM      9  H   LIG d   1       6.950  -6.317  -6.140  0.00  0.00     0.066 H 
ENDROOT
BRANCH   1  10
ATOM     10  C   LIG d   1       9.142  -5.332  -4.910  0.00  0.00    -0.008 C 
ATOM     11  C   LIG d   1       8.489  -4.152  -4.762  0.00  0.00     0.176 A 
ATOM     12  O   LIG d   1       7.181  -3.994  -4.451  0.00  0.00    -0.451 OA
ATOM     13  C   LIG d   1       9.075  -2.811  -4.909  0.00  0.00     0.232 A 
ATOM     14  C   LIG d   1       6.836  -2.690  -4.378  0.00  0.00     0.143 A 
ATOM     15  C   LIG d   1       7.956  -1.888  -4.648  0.00  0.00     0.068 A 
ATOM     16  C   LIG d   1       5.622  -2.076  -4.093  0.00  0.00     0.023 A 
ATOM     17  C   LIG d   1       7.850  -0.497  -4.633  0.00  0.00    -0.044 A 
ATOM     18  C   LIG d   1       6.650   0.092  -4.349  0.00  0.00    -0.019 A 
ATOM     19  H   LIG d   1       8.716   0.114  -4.843  0.00  0.00     0.063 H 
ATOM     20  C   LIG d   1       5.533  -0.694  -4.080  0.00  0.00     0.124 A 
ATOM     21  H   LIG d   1       6.568   1.168  -4.337  0.00  0.00     0.065 H 
ATOM     22  H   LIG d   1       4.750  -2.675  -3.880  0.00  0.00     0.069 H 
ATOM     23  O   LIG d   1      10.228  -2.527  -5.185  0.00  0.00    -0.283 OA
ATOM     24  H   LIG d   1      10.170  -5.344  -5.243  0.00  0.00     0.066 H 
BRANCH  20  25
ATOM     25  O   LIG d   1       4.345  -0.099  -3.795  0.00  0.00    -0.492 OA
BRANCH  25  26
ATOM     26  C   LIG d   1       3.883  -0.187  -2.446  0.00  0.00     0.087 C 
ATOM     27  H   LIG d   1       2.796  -0.110  -2.429  0.00  0.00     0.069 H 
ATOM     28  H   LIG d   1       4.186  -1.143  -2.019  0.00  0.00     0.069 H 
BRANCH  26  29
ATOM     29  C   LIG d   1       4.487   0.953  -1.624  0.00  0.00    -0.031 C 
ATOM     30  H   LIG d   1       4.159   0.869  -0.589  0.00  0.00     0.026 H 
ATOM     31  H   LIG d   1       5.575   0.894  -1.666  0.00  0.00     0.026 H 
ATOM     32  H   LIG d   1       4.160   1.910  -2.032  0.00  0.00     0.026 H 
ENDBRANCH  26  29
ENDBRANCH  25  26
ENDBRANCH  20  25
ENDBRANCH   1  10
BRANCH   5  33
ATOM     33  O   LIG d   1       5.579  -8.515  -5.797  0.00  0.00    -0.491 OA
BRANCH  33  34
ATOM     34  C   LIG d   1       4.857  -7.469  -6.451  0.00  0.00     0.079 C 
ATOM     35  H   LIG d   1       4.458  -6.781  -5.705  0.00  0.00     0.066 H 
ATOM     36  H   LIG d   1       5.526  -6.930  -7.121  0.00  0.00     0.066 H 
ATOM     37  H   LIG d   1       4.036  -7.899  -7.024  0.00  0.00     0.066 H 
ENDBRANCH  33  34
ENDBRANCH   5  33
BRANCH   4  38
ATOM     38  O   LIG d   1       6.511 -10.149  -3.790  0.00  0.00    -0.474 OA
BRANCH  38  39
ATOM     39  C   LIG d   1       5.682 -10.178  -2.626  0.00  0.00     0.193 C 
ATOM     40  H   LIG d   1       5.680  -9.195  -2.156  0.00  0.00     0.085 H 
BRANCH  39  41
ATOM     41  C   LIG d   1       4.255 -10.557  -3.026  0.00  0.00    -0.017 C 
ATOM     42  H   LIG d   1       3.549  -9.893  -2.528  0.00  0.00     0.027 H 
ATOM     43  H   LIG d   1       4.143 -10.461  -4.106  0.00  0.00     0.027 H 
ATOM     44  H   LIG d   1       4.055 -11.587  -2.730  0.00  0.00     0.027 H 
ENDBRANCH  39  41
BRANCH  39  45
ATOM     45  C   LIG d   1       6.218 -11.199  -1.654  0.00  0.00     0.348 C 
ATOM     46  O   LIG d   1       6.092 -11.024  -0.465  0.00  0.00    -0.247 OA
BRANCH  45  47
ATOM     47  O   LIG d   1       6.833 -12.301  -2.109  0.00  0.00    -0.465 OA
BRANCH  47  48
ATOM     48  C   LIG d   1       8.003 -12.753  -1.379  0.00  0.00     0.082 C 
ATOM     49  H   LIG d   1       7.779 -12.781  -0.313  0.00  0.00     0.066 H 
ATOM     50  H   LIG d   1       8.282 -13.751  -1.719  0.00  0.00     0.066 H 
ATOM     51  H   LIG d   1       8.830 -12.065  -1.558  0.00  0.00     0.066 H 
ENDBRANCH  47  48
ENDBRANCH  45  47
ENDBRANCH  39  45
ENDBRANCH  38  39
ENDBRANCH   4  38
TORSDOF 12
ENDMDL
