MODEL 1
REMARK VINA RESULT:      -7.1      0.000      0.000
REMARK  10 active torsions:
REMARK  status: ('A' for Active; 'I' for Inactive)
REMARK    1  A    between atoms: C_1  and  O_2 
REMARK    2  A    between atoms: O_2  and  C_3 
REMARK    3  A    between atoms: C_8  and  O_9 
REMARK    4  A    between atoms: O_9  and  C_10 
REMARK       I    between atoms: N_12  and  C_15 
REMARK    5  A    between atoms: C_15  and  C_17 
REMARK    6  A    between atoms: C_17  and  C_18 
REMARK    7  A    between atoms: C_24  and  C_26 
REMARK    8  A    between atoms: C_26  and  C_27 
REMARK    9  A    between atoms: C_29  and  C_32 
REMARK   10  A    between atoms: C_32  and  N_33 
ROOT
ATOM      1  C   LIG d   1       5.687   0.979  -3.617  0.00  0.00    -0.020 C 
ATOM      2  H   LIG d   1       5.420   1.825  -4.268  0.00  0.00     0.031 H 
ATOM      3  C   LIG d   1       5.101   1.198  -2.220  0.00  0.00    -0.009 C 
ATOM      4  C   LIG d   1       3.575   1.239  -2.313  0.00  0.00    -0.033 C 
ATOM      5  N   LIG d   1       3.082  -0.025  -2.876  0.00  0.00     0.227 N 
ATOM      6  C   LIG d   1       3.594  -0.233  -4.237  0.00  0.00    -0.030 C 
ATOM      7  C   LIG d   1       5.122  -0.319  -4.201  0.00  0.00     0.008 C 
ATOM      8  H   LIG d   1       5.506  -0.463  -5.222  0.00  0.00     0.036 H 
ATOM      9  H   LIG d   1       5.409   0.372  -1.560  0.00  0.00     0.032 H 
ATOM     10  H   LIG d   1       5.471   2.150  -1.813  0.00  0.00     0.032 H 
ATOM     11  H   LIG d   1       3.149   1.382  -1.308  0.00  0.00     0.081 H 
ATOM     12  H   LIG d   1       3.268   2.073  -2.961  0.00  0.00     0.081 H 
ATOM     13  H   LIG d   1       3.414  -0.862  -2.245  0.00  0.00     0.201 HD
ATOM     14  H   LIG d   1       3.184  -1.170  -4.643  0.00  0.00     0.082 H 
ATOM     15  H   LIG d   1       3.289   0.607  -4.877  0.00  0.00     0.082 H 
ATOM     16  H   LIG d   1       1.983  -0.007  -2.913  0.00  0.00     0.201 HD
ENDROOT
BRANCH   1  17
ATOM     17  C   LIG d   1       7.211   0.875  -3.524  0.00  0.00     0.028 C 
ATOM     18  H   LIG d   1       7.500  -0.177  -3.389  0.00  0.00     0.036 H 
ATOM     19  H   LIG d   1       7.566   1.467  -2.667  0.00  0.00     0.036 H 
BRANCH  17  20
ATOM     20  C   LIG d   1       7.828   1.407  -4.792  0.00  0.00     0.216 C 
ATOM     21  N   LIG d   1       8.934   2.177  -4.732  0.00  0.00    -0.297 N 
ATOM     22  C   LIG d   1       9.555   2.520  -3.449  0.00  0.00     0.040 C 
ATOM     23  C   LIG d   1       9.561   2.712  -5.951  0.00  0.00     0.019 C 
ATOM     24  C   LIG d   1       9.917   3.979  -3.429  0.00  0.00    -0.023 A 
ATOM     25  H   LIG d   1      10.464   1.915  -3.313  0.00  0.00     0.051 H 
ATOM     26  H   LIG d   1       8.848   2.307  -2.634  0.00  0.00     0.051 H 
ATOM     27  C   LIG d   1       9.875   4.764  -4.561  0.00  0.00    -0.037 A 
ATOM     28  C   LIG d   1      10.306   4.533  -2.216  0.00  0.00    -0.011 A 
ATOM     29  C   LIG d   1      10.234   6.105  -4.481  0.00  0.00    -0.013 A 
ATOM     30  C   LIG d   1       9.451   4.235  -5.906  0.00  0.00    -0.011 C 
ATOM     31  C   LIG d   1      10.626   6.659  -3.277  0.00  0.00     0.162 A 
ATOM     32  H   LIG d   1      10.206   6.719  -5.369  0.00  0.00     0.066 H 
ATOM     33  C   LIG d   1      10.661   5.867  -2.133  0.00  0.00     0.162 A 
ATOM     34  H   LIG d   1       8.407   4.521  -6.099  0.00  0.00     0.033 H 
ATOM     35  H   LIG d   1      10.098   4.660  -6.688  0.00  0.00     0.033 H 
ATOM     36  H   LIG d   1      10.331   3.916  -1.330  0.00  0.00     0.066 H 
ATOM     37  H   LIG d   1      10.618   2.407  -5.984  0.00  0.00     0.047 H 
ATOM     38  H   LIG d   1       9.039   2.318  -6.836  0.00  0.00     0.047 H 
ATOM     39  O   LIG d   1       7.330   1.144  -5.866  0.00  0.00    -0.276 OA
BRANCH  31  40
ATOM     40  O   LIG d   1      10.976   7.971  -3.211  0.00  0.00    -0.491 OA
BRANCH  40  41
ATOM     41  C   LIG d   1      10.145   8.900  -3.910  0.00  0.00     0.079 C 
ATOM     42  H   LIG d   1      10.426   8.914  -4.973  0.00  0.00     0.066 H 
ATOM     43  H   LIG d   1      10.277   9.905  -3.483  0.00  0.00     0.066 H 
ATOM     44  H   LIG d   1       9.092   8.595  -3.814  0.00  0.00     0.066 H 
ENDBRANCH  40  41
ENDBRANCH  31  40
BRANCH  33  45
ATOM     45  O   LIG d   1      11.040   6.402  -0.942  0.00  0.00    -0.491 OA
BRANCH  45  46
ATOM     46  C   LIG d   1      11.721   5.537  -0.031  0.00  0.00     0.079 C 
ATOM     47  H   LIG d   1      11.786   6.022   0.955  0.00  0.00     0.066 H 
ATOM     48  H   LIG d   1      12.735   5.333  -0.406  0.00  0.00     0.066 H 
ATOM     49  H   LIG d   1      11.167   4.592   0.062  0.00  0.00     0.066 H 
ENDBRANCH  45  46
ENDBRANCH  33  45
ENDBRANCH  17  20
ENDBRANCH   1  17
BRANCH   7  50
ATOM     50  C   LIG d   1       5.548  -1.500  -3.328  0.00  0.00     0.001 C 
ATOM     51  H   LIG d   1       6.604  -1.383  -3.042  0.00  0.00     0.033 H 
ATOM     52  H   LIG d   1       4.925  -1.531  -2.423  0.00  0.00     0.033 H 
BRANCH  50  53
ATOM     53  C   LIG d   1       5.377  -2.783  -4.100  0.00  0.00     0.084 A 
ATOM     54  N   LIG d   1       4.298  -3.509  -4.177  0.00  0.00    -0.083 NA
ATOM     55  O   LIG d   1       4.465  -4.482  -4.875  0.00  0.00    -0.358 OA
ATOM     56  C   LIG d   1       5.715  -4.534  -5.357  0.00  0.00     0.151 A 
ATOM     57  C   LIG d   1       6.356  -3.442  -4.878  0.00  0.00     0.005 A 
ATOM     58  H   LIG d   1       7.380  -3.142  -5.051  0.00  0.00     0.067 H 
BRANCH  56  59
ATOM     59  C   LIG d   1       6.292  -5.597  -6.256  0.00  0.00     0.060 C 
ATOM     60  H   LIG d   1       6.421  -5.191  -7.270  0.00  0.00     0.051 H 
ATOM     61  H   LIG d   1       7.267  -5.920  -5.863  0.00  0.00     0.051 H 
BRANCH  59  62
ATOM     62  N   LIG d   1       5.378  -6.747  -6.302  0.00  0.00    -0.291 N 
ATOM     63  C   LIG d   1       5.287  -7.292  -7.664  0.00  0.00     0.023 C 
ATOM     64  C   LIG d   1       4.281  -8.447  -7.678  0.00  0.00     0.060 C 
ATOM     65  H   LIG d   1       4.951  -6.503  -8.354  0.00  0.00     0.045 H 
ATOM     66  H   LIG d   1       6.274  -7.660  -7.979  0.00  0.00     0.045 H 
ATOM     67  O   LIG d   1       4.683  -9.435  -6.725  0.00  0.00    -0.377 OA
ATOM     68  H   LIG d   1       4.251  -8.897  -8.682  0.00  0.00     0.057 H 
ATOM     69  H   LIG d   1       3.282  -8.070  -7.416  0.00  0.00     0.057 H 
ATOM     70  C   LIG d   1       4.782  -8.938  -5.388  0.00  0.00     0.060 C 
ATOM     71  C   LIG d   1       5.792  -7.788  -5.350  0.00  0.00     0.023 C 
ATOM     72  H   LIG d   1       5.119  -9.744  -4.719  0.00  0.00     0.057 H 
ATOM     73  H   LIG d   1       3.799  -8.573  -5.057  0.00  0.00     0.057 H 
ATOM     74  H   LIG d   1       6.788  -8.163  -5.628  0.00  0.00     0.045 H 
ATOM     75  H   LIG d   1       5.830  -7.364  -4.336  0.00  0.00     0.045 H 
ENDBRANCH  59  62
ENDBRANCH  56  59
ENDBRANCH  50  53
ENDBRANCH   7  50
TORSDOF 10
ENDMDL
MODEL 2
REMARK VINA RESULT:      -7.0      5.895     10.015
REMARK  10 active torsions:
REMARK  status: ('A' for Active; 'I' for Inactive)
REMARK    1  A    between atoms: C_1  and  O_2 
REMARK    2  A    between atoms: O_2  and  C_3 
REMARK    3  A    between atoms: C_8  and  O_9 
REMARK    4  A    between atoms: O_9  and  C_10 
REMARK       I    between atoms: N_12  and  C_15 
REMARK    5  A    between atoms: C_15  and  C_17 
REMARK    6  A    between atoms: C_17  and  C_18 
REMARK    7  A    between atoms: C_24  and  C_26 
REMARK    8  A    between atoms: C_26  and  C_27 
REMARK    9  A    between atoms: C_29  and  C_32 
REMARK   10  A    between atoms: C_32  and  N_33 
ROOT
ATOM      1  C   LIG d   1       3.684   0.602  -8.222  0.00  0.00    -0.020 C 
ATOM      2  H   LIG d   1       4.767   0.572  -8.031  0.00  0.00     0.031 H 
ATOM      3  C   LIG d   1       3.209   2.057  -8.264  0.00  0.00    -0.009 C 
ATOM      4  C   LIG d   1       3.898   2.780  -9.423  0.00  0.00    -0.033 C 
ATOM      5  N   LIG d   1       3.574   2.105 -10.686  0.00  0.00     0.227 N 
ATOM      6  C   LIG d   1       4.063   0.720 -10.687  0.00  0.00    -0.030 C 
ATOM      7  C   LIG d   1       3.379  -0.065  -9.566  0.00  0.00     0.008 C 
ATOM      8  H   LIG d   1       3.754  -1.100  -9.559  0.00  0.00     0.036 H 
ATOM      9  H   LIG d   1       2.118   2.082  -8.409  0.00  0.00     0.032 H 
ATOM     10  H   LIG d   1       3.464   2.553  -7.316  0.00  0.00     0.032 H 
ATOM     11  H   LIG d   1       3.547   3.823  -9.465  0.00  0.00     0.081 H 
ATOM     12  H   LIG d   1       4.987   2.766  -9.269  0.00  0.00     0.081 H 
ATOM     13  H   LIG d   1       2.483   2.091 -10.825  0.00  0.00     0.201 HD
ATOM     14  H   LIG d   1       3.833   0.251 -11.656  0.00  0.00     0.082 H 
ATOM     15  H   LIG d   1       5.151   0.715 -10.527  0.00  0.00     0.082 H 
ATOM     16  H   LIG d   1       4.043   2.644 -11.521  0.00  0.00     0.201 HD
ENDROOT
BRANCH   1  17
ATOM     17  C   LIG d   1       2.954  -0.144  -7.104  0.00  0.00     0.028 C 
ATOM     18  H   LIG d   1       2.481  -1.048  -7.513  0.00  0.00     0.036 H 
ATOM     19  H   LIG d   1       2.183   0.510  -6.670  0.00  0.00     0.036 H 
BRANCH  17  20
ATOM     20  C   LIG d   1       3.941  -0.534  -6.033  0.00  0.00     0.216 C 
ATOM     21  N   LIG d   1       4.674  -1.657  -6.169  0.00  0.00    -0.297 N 
ATOM     22  C   LIG d   1       4.529  -2.524  -7.344  0.00  0.00     0.040 C 
ATOM     23  C   LIG d   1       5.645  -2.067  -5.143  0.00  0.00     0.019 C 
ATOM     24  C   LIG d   1       4.482  -3.964  -6.914  0.00  0.00    -0.023 A 
ATOM     25  H   LIG d   1       5.387  -2.370  -8.016  0.00  0.00     0.051 H 
ATOM     26  H   LIG d   1       3.599  -2.268  -7.872  0.00  0.00     0.051 H 
ATOM     27  C   LIG d   1       4.782  -4.361  -5.629  0.00  0.00    -0.037 A 
ATOM     28  C   LIG d   1       4.121  -4.911  -7.865  0.00  0.00    -0.011 A 
ATOM     29  C   LIG d   1       4.732  -5.709  -5.296  0.00  0.00    -0.013 A 
ATOM     30  C   LIG d   1       5.167  -3.389  -4.545  0.00  0.00    -0.011 C 
ATOM     31  C   LIG d   1       4.378  -6.656  -6.239  0.00  0.00     0.162 A 
ATOM     32  H   LIG d   1       4.972  -6.020  -4.290  0.00  0.00     0.066 H 
ATOM     33  C   LIG d   1       4.067  -6.253  -7.535  0.00  0.00     0.162 A 
ATOM     34  H   LIG d   1       4.297  -3.193  -3.902  0.00  0.00     0.033 H 
ATOM     35  H   LIG d   1       5.980  -3.818  -3.939  0.00  0.00     0.033 H 
ATOM     36  H   LIG d   1       3.879  -4.596  -8.868  0.00  0.00     0.066 H 
ATOM     37  H   LIG d   1       6.636  -2.193  -5.605  0.00  0.00     0.047 H 
ATOM     38  H   LIG d   1       5.702  -1.293  -4.362  0.00  0.00     0.047 H 
ATOM     39  O   LIG d   1       4.075   0.162  -5.049  0.00  0.00    -0.276 OA
BRANCH  31  40
ATOM     40  O   LIG d   1       4.333  -7.972  -5.904  0.00  0.00    -0.491 OA
BRANCH  40  41
ATOM     41  C   LIG d   1       5.384  -8.464  -5.070  0.00  0.00     0.079 C 
ATOM     42  H   LIG d   1       6.331  -7.979  -5.349  0.00  0.00     0.066 H 
ATOM     43  H   LIG d   1       5.477  -9.553  -5.200  0.00  0.00     0.066 H 
ATOM     44  H   LIG d   1       5.153  -8.239  -4.017  0.00  0.00     0.066 H 
ENDBRANCH  40  41
ENDBRANCH  31  40
BRANCH  33  45
ATOM     45  O   LIG d   1       3.713  -7.174  -8.471  0.00  0.00    -0.491 OA
BRANCH  45  46
ATOM     46  C   LIG d   1       3.240  -6.676  -9.724  0.00  0.00     0.079 C 
ATOM     47  H   LIG d   1       3.209  -7.496 -10.456  0.00  0.00     0.066 H 
ATOM     48  H   LIG d   1       3.917  -5.888 -10.085  0.00  0.00     0.066 H 
ATOM     49  H   LIG d   1       2.229  -6.262  -9.596  0.00  0.00     0.066 H 
ENDBRANCH  45  46
ENDBRANCH  33  45
ENDBRANCH  17  20
ENDBRANCH   1  17
BRANCH   7  50
ATOM     50  C   LIG d   1       1.867  -0.077  -9.798  0.00  0.00     0.001 C 
ATOM     51  H   LIG d   1       1.347  -0.127  -8.830  0.00  0.00     0.033 H 
ATOM     52  H   LIG d   1       1.570   0.841 -10.326  0.00  0.00     0.033 H 
BRANCH  50  53
ATOM     53  C   LIG d   1       1.495  -1.277 -10.630  0.00  0.00     0.084 A 
ATOM     54  N   LIG d   1       1.350  -1.316 -11.923  0.00  0.00    -0.083 NA
ATOM     55  O   LIG d   1       1.052  -2.423 -12.306  0.00  0.00    -0.358 OA
ATOM     56  C   LIG d   1       0.947  -3.285 -11.284  0.00  0.00     0.151 A 
ATOM     57  C   LIG d   1       1.228  -2.584 -10.161  0.00  0.00     0.005 A 
ATOM     58  H   LIG d   1       1.245  -2.940  -9.141  0.00  0.00     0.067 H 
BRANCH  56  59
ATOM     59  C   LIG d   1       0.588  -4.746 -11.371  0.00  0.00     0.060 C 
ATOM     60  H   LIG d   1       0.350  -5.004 -12.413  0.00  0.00     0.051 H 
ATOM     61  H   LIG d   1       1.438  -5.353 -11.026  0.00  0.00     0.051 H 
BRANCH  59  62
ATOM     62  N   LIG d   1      -0.581  -5.014 -10.521  0.00  0.00    -0.291 N 
ATOM     63  C   LIG d   1      -1.831  -4.738 -11.244  0.00  0.00     0.023 C 
ATOM     64  C   LIG d   1      -3.018  -4.972 -10.306  0.00  0.00     0.060 C 
ATOM     65  H   LIG d   1      -1.833  -3.692 -11.588  0.00  0.00     0.045 H 
ATOM     66  H   LIG d   1      -1.909  -5.409 -12.112  0.00  0.00     0.045 H 
ATOM     67  O   LIG d   1      -2.967  -6.310  -9.804  0.00  0.00    -0.377 OA
ATOM     68  H   LIG d   1      -3.959  -4.822 -10.857  0.00  0.00     0.057 H 
ATOM     69  H   LIG d   1      -2.970  -4.263  -9.466  0.00  0.00     0.057 H 
ATOM     70  C   LIG d   1      -1.762  -6.613  -9.095  0.00  0.00     0.060 C 
ATOM     71  C   LIG d   1      -0.563  -6.395 -10.020  0.00  0.00     0.023 C 
ATOM     72  H   LIG d   1      -1.784  -7.661  -8.763  0.00  0.00     0.057 H 
ATOM     73  H   LIG d   1      -1.675  -5.952  -8.220  0.00  0.00     0.057 H 
ATOM     74  H   LIG d   1      -0.620  -7.093 -10.868  0.00  0.00     0.045 H 
ATOM     75  H   LIG d   1       0.369  -6.571  -9.463  0.00  0.00     0.045 H 
ENDBRANCH  59  62
ENDBRANCH  56  59
ENDBRANCH  50  53
ENDBRANCH   7  50
TORSDOF 10
ENDMDL
MODEL 3
REMARK VINA RESULT:      -7.0      2.837      9.230
REMARK  10 active torsions:
REMARK  status: ('A' for Active; 'I' for Inactive)
REMARK    1  A    between atoms: C_1  and  O_2 
REMARK    2  A    between atoms: O_2  and  C_3 
REMARK    3  A    between atoms: C_8  and  O_9 
REMARK    4  A    between atoms: O_9  and  C_10 
REMARK       I    between atoms: N_12  and  C_15 
REMARK    5  A    between atoms: C_15  and  C_17 
REMARK    6  A    between atoms: C_17  and  C_18 
REMARK    7  A    between atoms: C_24  and  C_26 
REMARK    8  A    between atoms: C_26  and  C_27 
REMARK    9  A    between atoms: C_29  and  C_32 
REMARK   10  A    between atoms: C_32  and  N_33 
ROOT
ATOM      1  C   LIG d   1       5.043  -1.334  -2.878  0.00  0.00    -0.020 C 
ATOM      2  H   LIG d   1       4.813  -1.720  -1.874  0.00  0.00     0.031 H 
ATOM      3  C   LIG d   1       3.748  -1.182  -3.681  0.00  0.00    -0.009 C 
ATOM      4  C   LIG d   1       2.845  -0.156  -2.994  0.00  0.00    -0.033 C 
ATOM      5  N   LIG d   1       3.543   1.134  -2.908  0.00  0.00     0.227 N 
ATOM      6  C   LIG d   1       4.765   1.022  -2.101  0.00  0.00    -0.030 C 
ATOM      7  C   LIG d   1       5.726   0.031  -2.762  0.00  0.00     0.008 C 
ATOM      8  H   LIG d   1       6.637  -0.061  -2.151  0.00  0.00     0.036 H 
ATOM      9  H   LIG d   1       3.987  -0.840  -4.699  0.00  0.00     0.032 H 
ATOM     10  H   LIG d   1       3.233  -2.152  -3.731  0.00  0.00     0.032 H 
ATOM     11  H   LIG d   1       1.920  -0.033  -3.576  0.00  0.00     0.081 H 
ATOM     12  H   LIG d   1       2.596  -0.506  -1.981  0.00  0.00     0.081 H 
ATOM     13  H   LIG d   1       3.819   1.469  -3.918  0.00  0.00     0.201 HD
ATOM     14  H   LIG d   1       5.247   2.008  -2.030  0.00  0.00     0.082 H 
ATOM     15  H   LIG d   1       4.508   0.666  -1.093  0.00  0.00     0.082 H 
ATOM     16  H   LIG d   1       2.881   1.878  -2.443  0.00  0.00     0.201 HD
ENDROOT
BRANCH   1  17
ATOM     17  C   LIG d   1       5.977  -2.313  -3.592  0.00  0.00     0.028 C 
ATOM     18  H   LIG d   1       6.392  -3.023  -2.862  0.00  0.00     0.036 H 
ATOM     19  H   LIG d   1       6.797  -1.756  -4.069  0.00  0.00     0.036 H 
BRANCH  17  20
ATOM     20  C   LIG d   1       5.204  -3.068  -4.644  0.00  0.00     0.216 C 
ATOM     21  N   LIG d   1       5.459  -2.855  -5.950  0.00  0.00    -0.297 N 
ATOM     22  C   LIG d   1       6.477  -1.891  -6.381  0.00  0.00     0.040 C 
ATOM     23  C   LIG d   1       4.723  -3.575  -7.001  0.00  0.00     0.019 C 
ATOM     24  C   LIG d   1       5.947  -1.059  -7.516  0.00  0.00    -0.023 A 
ATOM     25  H   LIG d   1       7.374  -2.435  -6.714  0.00  0.00     0.051 H 
ATOM     26  H   LIG d   1       6.738  -1.236  -5.537  0.00  0.00     0.051 H 
ATOM     27  C   LIG d   1       4.774  -1.367  -8.170  0.00  0.00    -0.037 A 
ATOM     28  C   LIG d   1       6.684   0.054  -7.901  0.00  0.00    -0.011 A 
ATOM     29  C   LIG d   1       4.342  -0.565  -9.220  0.00  0.00    -0.013 A 
ATOM     30  C   LIG d   1       3.918  -2.548  -7.798  0.00  0.00    -0.011 C 
ATOM     31  C   LIG d   1       5.074   0.540  -9.611  0.00  0.00     0.162 A 
ATOM     32  H   LIG d   1       3.425  -0.809  -9.736  0.00  0.00     0.066 H 
ATOM     33  C   LIG d   1       6.255   0.855  -8.944  0.00  0.00     0.162 A 
ATOM     34  H   LIG d   1       3.071  -2.209  -7.183  0.00  0.00     0.033 H 
ATOM     35  H   LIG d   1       3.538  -3.029  -8.712  0.00  0.00     0.033 H 
ATOM     36  H   LIG d   1       7.599   0.295  -7.381  0.00  0.00     0.066 H 
ATOM     37  H   LIG d   1       5.436  -4.093  -7.659  0.00  0.00     0.047 H 
ATOM     38  H   LIG d   1       4.049  -4.312  -6.538  0.00  0.00     0.047 H 
ATOM     39  O   LIG d   1       4.353  -3.866  -4.314  0.00  0.00    -0.276 OA
BRANCH  31  40
ATOM     40  O   LIG d   1       4.643   1.317 -10.640  0.00  0.00    -0.491 OA
BRANCH  40  41
ATOM     41  C   LIG d   1       3.918   0.665 -11.684  0.00  0.00     0.079 C 
ATOM     42  H   LIG d   1       3.541  -0.302 -11.319  0.00  0.00     0.066 H 
ATOM     43  H   LIG d   1       4.583   0.497 -12.544  0.00  0.00     0.066 H 
ATOM     44  H   LIG d   1       3.071   1.296 -11.993  0.00  0.00     0.066 H 
ENDBRANCH  40  41
ENDBRANCH  31  40
BRANCH  33  45
ATOM     45  O   LIG d   1       6.982   1.942  -9.315  0.00  0.00    -0.491 OA
BRANCH  45  46
ATOM     46  C   LIG d   1       8.077   2.308  -8.474  0.00  0.00     0.079 C 
ATOM     47  H   LIG d   1       7.694   2.786  -7.560  0.00  0.00     0.066 H 
ATOM     48  H   LIG d   1       8.731   3.013  -9.009  0.00  0.00     0.066 H 
ATOM     49  H   LIG d   1       8.649   1.408  -8.205  0.00  0.00     0.066 H 
ENDBRANCH  45  46
ENDBRANCH  33  45
ENDBRANCH  17  20
ENDBRANCH   1  17
BRANCH   7  50
ATOM     50  C   LIG d   1       6.101   0.535  -4.157  0.00  0.00     0.001 C 
ATOM     51  H   LIG d   1       5.987  -0.281  -4.885  0.00  0.00     0.033 H 
ATOM     52  H   LIG d   1       5.440   1.369  -4.436  0.00  0.00     0.033 H 
BRANCH  50  53
ATOM     53  C   LIG d   1       7.532   1.007  -4.153  0.00  0.00     0.084 A 
ATOM     54  N   LIG d   1       8.546   0.425  -4.727  0.00  0.00    -0.083 NA
ATOM     55  O   LIG d   1       9.570   1.043  -4.553  0.00  0.00    -0.358 OA
ATOM     56  C   LIG d   1       9.364   2.141  -3.812  0.00  0.00     0.151 A 
ATOM     57  C   LIG d   1       8.042   2.165  -3.522  0.00  0.00     0.005 A 
ATOM     58  H   LIG d   1       7.501   2.899  -2.944  0.00  0.00     0.067 H 
BRANCH  56  59
ATOM     59  C   LIG d   1      10.399   3.150  -3.386  0.00  0.00     0.060 C 
ATOM     60  H   LIG d   1      10.772   2.892  -2.383  0.00  0.00     0.051 H 
ATOM     61  H   LIG d   1      11.234   3.142  -4.101  0.00  0.00     0.051 H 
BRANCH  59  62
ATOM     62  N   LIG d   1       9.794   4.489  -3.354  0.00  0.00    -0.291 N 
ATOM     63  C   LIG d   1      10.293   5.265  -2.210  0.00  0.00     0.023 C 
ATOM     64  C   LIG d   1       9.594   6.626  -2.181  0.00  0.00     0.060 C 
ATOM     65  H   LIG d   1      10.081   4.722  -1.277  0.00  0.00     0.045 H 
ATOM     66  H   LIG d   1      11.379   5.410  -2.310  0.00  0.00     0.045 H 
ATOM     67  O   LIG d   1       9.812   7.296  -3.426  0.00  0.00    -0.377 OA
ATOM     68  H   LIG d   1      10.005   7.234  -1.361  0.00  0.00     0.057 H 
ATOM     69  H   LIG d   1       8.514   6.484  -2.025  0.00  0.00     0.057 H 
ATOM     70  C   LIG d   1       9.338   6.568  -4.562  0.00  0.00     0.060 C 
ATOM     71  C   LIG d   1      10.034   5.205  -4.614  0.00  0.00     0.023 C 
ATOM     72  H   LIG d   1       9.563   7.130  -5.480  0.00  0.00     0.057 H 
ATOM     73  H   LIG d   1       8.252   6.421  -4.477  0.00  0.00     0.057 H 
ATOM     74  H   LIG d   1      11.116   5.349  -4.754  0.00  0.00     0.045 H 
ATOM     75  H   LIG d   1       9.631   4.618  -5.453  0.00  0.00     0.045 H 
ENDBRANCH  59  62
ENDBRANCH  56  59
ENDBRANCH  50  53
ENDBRANCH   7  50
TORSDOF 10
ENDMDL
MODEL 4
REMARK VINA RESULT:      -6.9      3.931      7.409
REMARK  10 active torsions:
REMARK  status: ('A' for Active; 'I' for Inactive)
REMARK    1  A    between atoms: C_1  and  O_2 
REMARK    2  A    between atoms: O_2  and  C_3 
REMARK    3  A    between atoms: C_8  and  O_9 
REMARK    4  A    between atoms: O_9  and  C_10 
REMARK       I    between atoms: N_12  and  C_15 
REMARK    5  A    between atoms: C_15  and  C_17 
REMARK    6  A    between atoms: C_17  and  C_18 
REMARK    7  A    between atoms: C_24  and  C_26 
REMARK    8  A    between atoms: C_26  and  C_27 
REMARK    9  A    between atoms: C_29  and  C_32 
REMARK   10  A    between atoms: C_32  and  N_33 
ROOT
ATOM      1  C   LIG d   1      11.184   5.030  -3.471  0.00  0.00    -0.020 C 
ATOM      2  H   LIG d   1      12.145   4.836  -2.971  0.00  0.00     0.031 H 
ATOM      3  C   LIG d   1      11.293   6.299  -4.320  0.00  0.00    -0.009 C 
ATOM      4  C   LIG d   1      12.342   6.088  -5.413  0.00  0.00    -0.033 C 
ATOM      5  N   LIG d   1      11.953   4.947  -6.253  0.00  0.00     0.227 N 
ATOM      6  C   LIG d   1      11.889   3.708  -5.468  0.00  0.00    -0.030 C 
ATOM      7  C   LIG d   1      10.826   3.849  -4.376  0.00  0.00     0.008 C 
ATOM      8  H   LIG d   1      10.786   2.925  -3.780  0.00  0.00     0.036 H 
ATOM      9  H   LIG d   1      10.317   6.516  -4.781  0.00  0.00     0.032 H 
ATOM     10  H   LIG d   1      11.591   7.143  -3.681  0.00  0.00     0.032 H 
ATOM     11  H   LIG d   1      12.412   6.993  -6.035  0.00  0.00     0.081 H 
ATOM     12  H   LIG d   1      13.319   5.885  -4.950  0.00  0.00     0.081 H 
ATOM     13  H   LIG d   1      10.963   5.136  -6.692  0.00  0.00     0.201 HD
ATOM     14  H   LIG d   1      11.627   2.869  -6.129  0.00  0.00     0.082 H 
ATOM     15  H   LIG d   1      12.868   3.516  -5.004  0.00  0.00     0.082 H 
ATOM     16  H   LIG d   1      12.691   4.816  -7.058  0.00  0.00     0.201 HD
ENDROOT
BRANCH   1  17
ATOM     17  C   LIG d   1      10.093   5.213  -2.413  0.00  0.00     0.028 C 
ATOM     18  H   LIG d   1       9.523   4.278  -2.309  0.00  0.00     0.036 H 
ATOM     19  H   LIG d   1       9.417   6.023  -2.721  0.00  0.00     0.036 H 
BRANCH  17  20
ATOM     20  C   LIG d   1      10.729   5.563  -1.092  0.00  0.00     0.216 C 
ATOM     21  N   LIG d   1      10.439   6.737  -0.495  0.00  0.00    -0.297 N 
ATOM     22  C   LIG d   1       9.516   7.697  -1.109  0.00  0.00     0.040 C 
ATOM     23  C   LIG d   1      11.043   7.109   0.794  0.00  0.00     0.019 C 
ATOM     24  C   LIG d   1      10.082   9.086  -1.012  0.00  0.00    -0.023 A 
ATOM     25  H   LIG d   1       8.550   7.657  -0.583  0.00  0.00     0.051 H 
ATOM     26  H   LIG d   1       9.368   7.434  -2.167  0.00  0.00     0.051 H 
ATOM     27  C   LIG d   1      11.183   9.381  -0.237  0.00  0.00    -0.037 A 
ATOM     28  C   LIG d   1       9.456  10.091  -1.737  0.00  0.00    -0.011 A 
ATOM     29  C   LIG d   1      11.652  10.688  -0.179  0.00  0.00    -0.013 A 
ATOM     30  C   LIG d   1      11.919   8.340   0.565  0.00  0.00    -0.011 C 
ATOM     31  C   LIG d   1      11.029  11.693  -0.895  0.00  0.00     0.162 A 
ATOM     32  H   LIG d   1      12.511  10.920   0.432  0.00  0.00     0.066 H 
ATOM     33  C   LIG d   1       9.923  11.392  -1.684  0.00  0.00     0.162 A 
ATOM     34  H   LIG d   1      12.825   8.033   0.023  0.00  0.00     0.033 H 
ATOM     35  H   LIG d   1      12.201   8.761   1.541  0.00  0.00     0.033 H 
ATOM     36  H   LIG d   1       8.598   9.855  -2.349  0.00  0.00     0.066 H 
ATOM     37  H   LIG d   1      10.247   7.338   1.519  0.00  0.00     0.047 H 
ATOM     38  H   LIG d   1      11.651   6.273   1.170  0.00  0.00     0.047 H 
ATOM     39  O   LIG d   1      11.501   4.790  -0.567  0.00  0.00    -0.276 OA
BRANCH  31  40
ATOM     40  O   LIG d   1      11.496  12.968  -0.830  0.00  0.00    -0.491 OA
BRANCH  40  41
ATOM     41  C   LIG d   1      11.150  13.727   0.330  0.00  0.00     0.079 C 
ATOM     42  H   LIG d   1      11.708  14.674   0.329  0.00  0.00     0.066 H 
ATOM     43  H   LIG d   1      11.405  13.153   1.234  0.00  0.00     0.066 H 
ATOM     44  H   LIG d   1      10.070  13.938   0.323  0.00  0.00     0.066 H 
ENDBRANCH  40  41
ENDBRANCH  31  40
BRANCH  33  45
ATOM     45  O   LIG d   1       9.304  12.371  -2.397  0.00  0.00    -0.491 OA
BRANCH  45  46
ATOM     46  C   LIG d   1       8.418  11.954  -3.437  0.00  0.00     0.079 C 
ATOM     47  H   LIG d   1       8.908  12.091  -4.413  0.00  0.00     0.066 H 
ATOM     48  H   LIG d   1       7.500  12.559  -3.401  0.00  0.00     0.066 H 
ATOM     49  H   LIG d   1       8.165  10.893  -3.300  0.00  0.00     0.066 H 
ENDBRANCH  45  46
ENDBRANCH  33  45
ENDBRANCH  17  20
ENDBRANCH   1  17
BRANCH   7  50
ATOM     50  C   LIG d   1       9.460   4.095  -5.021  0.00  0.00     0.001 C 
ATOM     51  H   LIG d   1       8.938   4.896  -4.478  0.00  0.00     0.033 H 
ATOM     52  H   LIG d   1       9.598   4.393  -6.070  0.00  0.00     0.033 H 
BRANCH  50  53
ATOM     53  C   LIG d   1       8.641   2.832  -4.960  0.00  0.00     0.084 A 
ATOM     54  N   LIG d   1       8.043   2.241  -5.956  0.00  0.00    -0.083 NA
ATOM     55  O   LIG d   1       7.465   1.242  -5.599  0.00  0.00    -0.358 OA
ATOM     56  C   LIG d   1       7.598   1.041  -4.280  0.00  0.00     0.151 A 
ATOM     57  C   LIG d   1       8.361   2.056  -3.812  0.00  0.00     0.005 A 
ATOM     58  H   LIG d   1       8.683   2.233  -2.796  0.00  0.00     0.067 H 
BRANCH  56  59
ATOM     59  C   LIG d   1       7.014  -0.093  -3.477  0.00  0.00     0.060 C 
ATOM     60  H   LIG d   1       7.331  -1.053  -3.913  0.00  0.00     0.051 H 
ATOM     61  H   LIG d   1       7.368  -0.028  -2.438  0.00  0.00     0.051 H 
BRANCH  59  62
ATOM     62  N   LIG d   1       5.547  -0.005  -3.501  0.00  0.00    -0.291 N 
ATOM     63  C   LIG d   1       4.937  -1.303  -3.177  0.00  0.00     0.023 C 
ATOM     64  C   LIG d   1       3.414  -1.181  -3.272  0.00  0.00     0.060 C 
ATOM     65  H   LIG d   1       5.291  -2.063  -3.889  0.00  0.00     0.045 H 
ATOM     66  H   LIG d   1       5.221  -1.597  -2.156  0.00  0.00     0.045 H 
ATOM     67  O   LIG d   1       2.968  -0.140  -2.398  0.00  0.00    -0.377 OA
ATOM     68  H   LIG d   1       2.949  -2.133  -2.975  0.00  0.00     0.057 H 
ATOM     69  H   LIG d   1       3.126  -0.941  -4.306  0.00  0.00     0.057 H 
ATOM     70  C   LIG d   1       3.543   1.137  -2.685  0.00  0.00     0.060 C 
ATOM     71  C   LIG d   1       5.068   1.039  -2.585  0.00  0.00     0.023 C 
ATOM     72  H   LIG d   1       3.175   1.879  -1.961  0.00  0.00     0.057 H 
ATOM     73  H   LIG d   1       3.262   1.447  -3.702  0.00  0.00     0.057 H 
ATOM     74  H   LIG d   1       5.353   0.783  -1.555  0.00  0.00     0.045 H 
ATOM     75  H   LIG d   1       5.517   2.004  -2.862  0.00  0.00     0.045 H 
ENDBRANCH  59  62
ENDBRANCH  56  59
ENDBRANCH  50  53
ENDBRANCH   7  50
TORSDOF 10
ENDMDL
MODEL 5
REMARK VINA RESULT:      -6.9      5.088     10.496
REMARK  10 active torsions:
REMARK  status: ('A' for Active; 'I' for Inactive)
REMARK    1  A    between atoms: C_1  and  O_2 
REMARK    2  A    between atoms: O_2  and  C_3 
REMARK    3  A    between atoms: C_8  and  O_9 
REMARK    4  A    between atoms: O_9  and  C_10 
REMARK       I    between atoms: N_12  and  C_15 
REMARK    5  A    between atoms: C_15  and  C_17 
REMARK    6  A    between atoms: C_17  and  C_18 
REMARK    7  A    between atoms: C_24  and  C_26 
REMARK    8  A    between atoms: C_26  and  C_27 
REMARK    9  A    between atoms: C_29  and  C_32 
REMARK   10  A    between atoms: C_32  and  N_33 
ROOT
ATOM      1  C   LIG d   1       5.287  -2.047  -3.766  0.00  0.00    -0.020 C 
ATOM      2  H   LIG d   1       6.315  -2.127  -3.383  0.00  0.00     0.031 H 
ATOM      3  C   LIG d   1       4.293  -2.291  -2.627  0.00  0.00    -0.009 C 
ATOM      4  C   LIG d   1       4.470  -1.207  -1.561  0.00  0.00    -0.033 C 
ATOM      5  N   LIG d   1       4.240   0.114  -2.161  0.00  0.00     0.227 N 
ATOM      6  C   LIG d   1       5.213   0.389  -3.225  0.00  0.00    -0.030 C 
ATOM      7  C   LIG d   1       5.058  -0.647  -4.341  0.00  0.00     0.008 C 
ATOM      8  H   LIG d   1       5.795  -0.447  -5.133  0.00  0.00     0.036 H 
ATOM      9  H   LIG d   1       3.267  -2.255  -3.022  0.00  0.00     0.032 H 
ATOM     10  H   LIG d   1       4.481  -3.279  -2.182  0.00  0.00     0.032 H 
ATOM     11  H   LIG d   1       3.747  -1.370  -0.748  0.00  0.00     0.081 H 
ATOM     12  H   LIG d   1       5.492  -1.253  -1.157  0.00  0.00     0.081 H 
ATOM     13  H   LIG d   1       3.229   0.149  -2.592  0.00  0.00     0.201 HD
ATOM     14  H   LIG d   1       5.035   1.396  -3.632  0.00  0.00     0.082 H 
ATOM     15  H   LIG d   1       6.232   0.336  -2.815  0.00  0.00     0.082 H 
ATOM     16  H   LIG d   1       4.336   0.889  -1.387  0.00  0.00     0.201 HD
ENDROOT
BRANCH   1  17
ATOM     17  C   LIG d   1       5.074  -3.091  -4.864  0.00  0.00     0.028 C 
ATOM     18  H   LIG d   1       4.550  -2.630  -5.713  0.00  0.00     0.036 H 
ATOM     19  H   LIG d   1       4.471  -3.922  -4.468  0.00  0.00     0.036 H 
BRANCH  17  20
ATOM     20  C   LIG d   1       6.411  -3.616  -5.323  0.00  0.00     0.216 C 
ATOM     21  N   LIG d   1       6.513  -4.869  -5.808  0.00  0.00    -0.297 N 
ATOM     22  C   LIG d   1       5.343  -5.751  -5.894  0.00  0.00     0.040 C 
ATOM     23  C   LIG d   1       7.802  -5.411  -6.264  0.00  0.00     0.019 C 
ATOM     24  C   LIG d   1       5.701  -7.126  -5.405  0.00  0.00    -0.023 A 
ATOM     25  H   LIG d   1       5.010  -5.809  -6.941  0.00  0.00     0.051 H 
ATOM     26  H   LIG d   1       4.532  -5.341  -5.274  0.00  0.00     0.051 H 
ATOM     27  C   LIG d   1       7.004  -7.506  -5.160  0.00  0.00    -0.037 A 
ATOM     28  C   LIG d   1       4.666  -8.029  -5.200  0.00  0.00    -0.011 A 
ATOM     29  C   LIG d   1       7.272  -8.796  -4.721  0.00  0.00    -0.013 A 
ATOM     30  C   LIG d   1       8.173  -6.576  -5.347  0.00  0.00    -0.011 C 
ATOM     31  C   LIG d   1       6.246  -9.701  -4.520  0.00  0.00     0.162 A 
ATOM     32  H   LIG d   1       8.292  -9.096  -4.534  0.00  0.00     0.066 H 
ATOM     33  C   LIG d   1       4.930  -9.314  -4.760  0.00  0.00     0.162 A 
ATOM     34  H   LIG d   1       8.481  -6.173  -4.371  0.00  0.00     0.033 H 
ATOM     35  H   LIG d   1       9.012  -7.127  -5.797  0.00  0.00     0.033 H 
ATOM     36  H   LIG d   1       3.647  -7.726  -5.386  0.00  0.00     0.066 H 
ATOM     37  H   LIG d   1       7.706  -5.760  -7.304  0.00  0.00     0.047 H 
ATOM     38  H   LIG d   1       8.570  -4.625  -6.212  0.00  0.00     0.047 H 
ATOM     39  O   LIG d   1       7.395  -2.909  -5.256  0.00  0.00    -0.276 OA
BRANCH  31  40
ATOM     40  O   LIG d   1       6.519 -10.961  -4.090  0.00  0.00    -0.491 OA
BRANCH  40  41
ATOM     41  C   LIG d   1       6.870 -11.115  -2.714  0.00  0.00     0.079 C 
ATOM     42  H   LIG d   1       6.410 -10.306  -2.126  0.00  0.00     0.066 H 
ATOM     43  H   LIG d   1       7.964 -11.069  -2.605  0.00  0.00     0.066 H 
ATOM     44  H   LIG d   1       6.505 -12.086  -2.348  0.00  0.00     0.066 H 
ENDBRANCH  40  41
ENDBRANCH  31  40
BRANCH  33  45
ATOM     45  O   LIG d   1       3.912 -10.192  -4.562  0.00  0.00    -0.491 OA
BRANCH  45  46
ATOM     46  C   LIG d   1       3.311 -10.207  -3.266  0.00  0.00     0.079 C 
ATOM     47  H   LIG d   1       3.651  -9.331  -2.694  0.00  0.00     0.066 H 
ATOM     48  H   LIG d   1       3.604 -11.126  -2.736  0.00  0.00     0.066 H 
ATOM     49  H   LIG d   1       2.217 -10.175  -3.368  0.00  0.00     0.066 H 
ENDBRANCH  45  46
ENDBRANCH  33  45
ENDBRANCH  17  20
ENDBRANCH   1  17
BRANCH   7  50
ATOM     50  C   LIG d   1       3.648  -0.559  -4.928  0.00  0.00     0.001 C 
ATOM     51  H   LIG d   1       3.169  -1.548  -4.880  0.00  0.00     0.033 H 
ATOM     52  H   LIG d   1       3.054   0.163  -4.349  0.00  0.00     0.033 H 
BRANCH  50  53
ATOM     53  C   LIG d   1       3.728  -0.109  -6.364  0.00  0.00     0.084 A 
ATOM     54  N   LIG d   1       4.793   0.291  -6.998  0.00  0.00    -0.083 NA
ATOM     55  O   LIG d   1       4.545   0.585  -8.143  0.00  0.00    -0.358 OA
ATOM     56  C   LIG d   1       3.244   0.423  -8.423  0.00  0.00     0.151 A 
ATOM     57  C   LIG d   1       2.662  -0.031  -7.289  0.00  0.00     0.005 A 
ATOM     58  H   LIG d   1       1.623  -0.278  -7.127  0.00  0.00     0.067 H 
BRANCH  56  59
ATOM     59  C   LIG d   1       2.564   0.692  -9.741  0.00  0.00     0.060 C 
ATOM     60  H   LIG d   1       1.483   0.517  -9.639  0.00  0.00     0.051 H 
ATOM     61  H   LIG d   1       2.741   1.735 -10.039  0.00  0.00     0.051 H 
BRANCH  59  62
ATOM     62  N   LIG d   1       3.111  -0.209 -10.766  0.00  0.00    -0.291 N 
ATOM     63  C   LIG d   1       2.032  -0.836 -11.544  0.00  0.00     0.023 C 
ATOM     64  C   LIG d   1       2.642  -1.809 -12.557  0.00  0.00     0.060 C 
ATOM     65  H   LIG d   1       1.361  -1.384 -10.866  0.00  0.00     0.045 H 
ATOM     66  H   LIG d   1       1.463  -0.059 -12.075  0.00  0.00     0.045 H 
ATOM     67  O   LIG d   1       3.570  -1.106 -13.387  0.00  0.00    -0.377 OA
ATOM     68  H   LIG d   1       1.844  -2.239 -13.181  0.00  0.00     0.057 H 
ATOM     69  H   LIG d   1       3.165  -2.617 -12.024  0.00  0.00     0.057 H 
ATOM     70  C   LIG d   1       4.633  -0.482 -12.662  0.00  0.00     0.060 C 
ATOM     71  C   LIG d   1       4.044   0.503 -11.650  0.00  0.00     0.023 C 
ATOM     72  H   LIG d   1       5.289   0.058 -13.360  0.00  0.00     0.057 H 
ATOM     73  H   LIG d   1       5.215  -1.249 -12.130  0.00  0.00     0.057 H 
ATOM     74  H   LIG d   1       3.508   1.302 -12.183  0.00  0.00     0.045 H 
ATOM     75  H   LIG d   1       4.854   0.943 -11.049  0.00  0.00     0.045 H 
ENDBRANCH  59  62
ENDBRANCH  56  59
ENDBRANCH  50  53
ENDBRANCH   7  50
TORSDOF 10
ENDMDL
MODEL 6
REMARK VINA RESULT:      -6.8      4.989      8.735
REMARK  10 active torsions:
REMARK  status: ('A' for Active; 'I' for Inactive)
REMARK    1  A    between atoms: C_1  and  O_2 
REMARK    2  A    between atoms: O_2  and  C_3 
REMARK    3  A    between atoms: C_8  and  O_9 
REMARK    4  A    between atoms: O_9  and  C_10 
REMARK       I    between atoms: N_12  and  C_15 
REMARK    5  A    between atoms: C_15  and  C_17 
REMARK    6  A    between atoms: C_17  and  C_18 
REMARK    7  A    between atoms: C_24  and  C_26 
REMARK    8  A    between atoms: C_26  and  C_27 
REMARK    9  A    between atoms: C_29  and  C_32 
REMARK   10  A    between atoms: C_32  and  N_33 
ROOT
ATOM      1  C   LIG d   1       4.909  -1.072  -5.301  0.00  0.00    -0.020 C 
ATOM      2  H   LIG d   1       4.065  -0.366  -5.312  0.00  0.00     0.031 H 
ATOM      3  C   LIG d   1       6.057  -0.491  -4.472  0.00  0.00    -0.009 C 
ATOM      4  C   LIG d   1       5.593  -0.310  -3.025  0.00  0.00    -0.033 C 
ATOM      5  N   LIG d   1       5.178  -1.607  -2.476  0.00  0.00     0.227 N 
ATOM      6  C   LIG d   1       4.045  -2.162  -3.228  0.00  0.00    -0.030 C 
ATOM      7  C   LIG d   1       4.463  -2.399  -4.681  0.00  0.00     0.008 C 
ATOM      8  H   LIG d   1       3.610  -2.804  -5.248  0.00  0.00     0.036 H 
ATOM      9  H   LIG d   1       6.915  -1.179  -4.501  0.00  0.00     0.032 H 
ATOM     10  H   LIG d   1       6.353   0.483  -4.889  0.00  0.00     0.032 H 
ATOM     11  H   LIG d   1       6.421   0.094  -2.422  0.00  0.00     0.081 H 
ATOM     12  H   LIG d   1       4.744   0.389  -2.996  0.00  0.00     0.081 H 
ATOM     13  H   LIG d   1       6.018  -2.315  -2.534  0.00  0.00     0.201 HD
ATOM     14  H   LIG d   1       3.738  -3.117  -2.775  0.00  0.00     0.082 H 
ATOM     15  H   LIG d   1       3.203  -1.455  -3.199  0.00  0.00     0.082 H 
ATOM     16  H   LIG d   1       4.876  -1.482  -1.427  0.00  0.00     0.201 HD
ENDROOT
BRANCH   1  17
ATOM     17  C   LIG d   1       5.384  -1.313  -6.736  0.00  0.00     0.028 C 
ATOM     18  H   LIG d   1       4.846  -2.172  -7.161  0.00  0.00     0.036 H 
ATOM     19  H   LIG d   1       6.464  -1.520  -6.735  0.00  0.00     0.036 H 
BRANCH  17  20
ATOM     20  C   LIG d   1       5.109  -0.086  -7.568  0.00  0.00     0.216 C 
ATOM     21  N   LIG d   1       3.999  -0.024  -8.331  0.00  0.00    -0.297 N 
ATOM     22  C   LIG d   1       3.043  -1.135  -8.378  0.00  0.00     0.040 C 
ATOM     23  C   LIG d   1       3.702   1.159  -9.154  0.00  0.00     0.019 C 
ATOM     24  C   LIG d   1       2.632  -1.397  -9.800  0.00  0.00    -0.023 A 
ATOM     25  H   LIG d   1       2.155  -0.875  -7.782  0.00  0.00     0.051 H 
ATOM     26  H   LIG d   1       3.513  -2.037  -7.960  0.00  0.00     0.051 H 
ATOM     27  C   LIG d   1       2.946  -0.534 -10.829  0.00  0.00    -0.037 A 
ATOM     28  C   LIG d   1       1.911  -2.554 -10.062  0.00  0.00    -0.011 A 
ATOM     29  C   LIG d   1       2.527  -0.826 -12.121  0.00  0.00    -0.013 A 
ATOM     30  C   LIG d   1       3.736   0.730 -10.621  0.00  0.00    -0.011 C 
ATOM     31  C   LIG d   1       1.804  -1.974 -12.387  0.00  0.00     0.162 A 
ATOM     32  H   LIG d   1       2.768  -0.148 -12.926  0.00  0.00     0.066 H 
ATOM     33  C   LIG d   1       1.495  -2.848 -11.348  0.00  0.00     0.162 A 
ATOM     34  H   LIG d   1       4.782   0.563 -10.916  0.00  0.00     0.033 H 
ATOM     35  H   LIG d   1       3.307   1.536 -11.235  0.00  0.00     0.033 H 
ATOM     36  H   LIG d   1       1.673  -3.230  -9.255  0.00  0.00     0.066 H 
ATOM     37  H   LIG d   1       2.705   1.547  -8.893  0.00  0.00     0.047 H 
ATOM     38  H   LIG d   1       4.457   1.937  -8.966  0.00  0.00     0.047 H 
ATOM     39  O   LIG d   1       5.887   0.844  -7.552  0.00  0.00    -0.276 OA
BRANCH  31  40
ATOM     40  O   LIG d   1       1.399  -2.249 -13.654  0.00  0.00    -0.491 OA
BRANCH  40  41
ATOM     41  C   LIG d   1       2.370  -2.102 -14.692  0.00  0.00     0.079 C 
ATOM     42  H   LIG d   1       3.343  -2.473 -14.338  0.00  0.00     0.066 H 
ATOM     43  H   LIG d   1       2.460  -1.039 -14.963  0.00  0.00     0.066 H 
ATOM     44  H   LIG d   1       2.056  -2.680 -15.574  0.00  0.00     0.066 H 
ENDBRANCH  40  41
ENDBRANCH  31  40
BRANCH  33  45
ATOM     45  O   LIG d   1       0.789  -3.983 -11.597  0.00  0.00    -0.491 OA
BRANCH  45  46
ATOM     46  C   LIG d   1      -0.053  -4.466 -10.548  0.00  0.00     0.079 C 
ATOM     47  H   LIG d   1      -1.023  -3.947 -10.588  0.00  0.00     0.066 H 
ATOM     48  H   LIG d   1       0.425  -4.273  -9.576  0.00  0.00     0.066 H 
ATOM     49  H   LIG d   1      -0.210  -5.547 -10.672  0.00  0.00     0.066 H 
ENDBRANCH  45  46
ENDBRANCH  33  45
ENDBRANCH  17  20
ENDBRANCH   1  17
BRANCH   7  50
ATOM     50  C   LIG d   1       5.620  -3.398  -4.725  0.00  0.00     0.001 C 
ATOM     51  H   LIG d   1       6.436  -2.988  -5.338  0.00  0.00     0.033 H 
ATOM     52  H   LIG d   1       5.986  -3.581  -3.704  0.00  0.00     0.033 H 
BRANCH  50  53
ATOM     53  C   LIG d   1       5.143  -4.694  -5.328  0.00  0.00     0.084 A 
ATOM     54  N   LIG d   1       3.909  -5.038  -5.563  0.00  0.00    -0.083 NA
ATOM     55  O   LIG d   1       3.840  -6.138  -6.058  0.00  0.00    -0.358 OA
ATOM     56  C   LIG d   1       5.053  -6.688  -6.210  0.00  0.00     0.151 A 
ATOM     57  C   LIG d   1       5.945  -5.781  -5.746  0.00  0.00     0.005 A 
ATOM     58  H   LIG d   1       7.021  -5.867  -5.706  0.00  0.00     0.067 H 
BRANCH  56  59
ATOM     59  C   LIG d   1       5.363  -8.046  -6.784  0.00  0.00     0.060 C 
ATOM     60  H   LIG d   1       5.070  -8.072  -7.844  0.00  0.00     0.051 H 
ATOM     61  H   LIG d   1       6.441  -8.244  -6.696  0.00  0.00     0.051 H 
BRANCH  59  62
ATOM     62  N   LIG d   1       4.615  -9.072  -6.044  0.00  0.00    -0.291 N 
ATOM     63  C   LIG d   1       4.828 -10.403  -6.631  0.00  0.00     0.023 C 
ATOM     64  C   LIG d   1       3.985 -11.430  -5.869  0.00  0.00     0.060 C 
ATOM     65  H   LIG d   1       4.525 -10.391  -7.689  0.00  0.00     0.045 H 
ATOM     66  H   LIG d   1       5.892 -10.672  -6.556  0.00  0.00     0.045 H 
ATOM     67  O   LIG d   1       4.330 -11.388  -4.481  0.00  0.00    -0.377 OA
ATOM     68  H   LIG d   1       4.183 -12.437  -6.266  0.00  0.00     0.057 H 
ATOM     69  H   LIG d   1       2.918 -11.194  -5.988  0.00  0.00     0.057 H 
ATOM     70  C   LIG d   1       4.135 -10.106  -3.879  0.00  0.00     0.060 C 
ATOM     71  C   LIG d   1       4.979  -9.066  -4.621  0.00  0.00     0.023 C 
ATOM     72  H   LIG d   1       4.444 -10.144  -2.824  0.00  0.00     0.057 H 
ATOM     73  H   LIG d   1       3.073  -9.828  -3.941  0.00  0.00     0.057 H 
ATOM     74  H   LIG d   1       6.045  -9.312  -4.514  0.00  0.00     0.045 H 
ATOM     75  H   LIG d   1       4.788  -8.068  -4.198  0.00  0.00     0.045 H 
ENDBRANCH  59  62
ENDBRANCH  56  59
ENDBRANCH  50  53
ENDBRANCH   7  50
TORSDOF 10
ENDMDL
MODEL 7
REMARK VINA RESULT:      -6.7      5.844     11.705
REMARK  10 active torsions:
REMARK  status: ('A' for Active; 'I' for Inactive)
REMARK    1  A    between atoms: C_1  and  O_2 
REMARK    2  A    between atoms: O_2  and  C_3 
REMARK    3  A    between atoms: C_8  and  O_9 
REMARK    4  A    between atoms: O_9  and  C_10 
REMARK       I    between atoms: N_12  and  C_15 
REMARK    5  A    between atoms: C_15  and  C_17 
REMARK    6  A    between atoms: C_17  and  C_18 
REMARK    7  A    between atoms: C_24  and  C_26 
REMARK    8  A    between atoms: C_26  and  C_27 
REMARK    9  A    between atoms: C_29  and  C_32 
REMARK   10  A    between atoms: C_32  and  N_33 
ROOT
ATOM      1  C   LIG d   1       4.661  -9.409  -8.285  0.00  0.00    -0.020 C 
ATOM      2  H   LIG d   1       3.837 -10.136  -8.341  0.00  0.00     0.031 H 
ATOM      3  C   LIG d   1       5.442  -9.413  -9.602  0.00  0.00    -0.009 C 
ATOM      4  C   LIG d   1       4.518  -8.969 -10.738  0.00  0.00    -0.033 C 
ATOM      5  N   LIG d   1       4.006  -7.622 -10.457  0.00  0.00     0.227 N 
ATOM      6  C   LIG d   1       3.213  -7.604  -9.221  0.00  0.00    -0.030 C 
ATOM      7  C   LIG d   1       4.098  -8.007  -8.039  0.00  0.00     0.008 C 
ATOM      8  H   LIG d   1       3.501  -8.005  -7.115  0.00  0.00     0.036 H 
ATOM      9  H   LIG d   1       6.293  -8.720  -9.525  0.00  0.00     0.032 H 
ATOM     10  H   LIG d   1       5.813 -10.429  -9.805  0.00  0.00     0.032 H 
ATOM     11  H   LIG d   1       5.080  -8.957 -11.684  0.00  0.00     0.081 H 
ATOM     12  H   LIG d   1       3.676  -9.671 -10.822  0.00  0.00     0.081 H 
ATOM     13  H   LIG d   1       4.850  -6.926 -10.342  0.00  0.00     0.201 HD
ATOM     14  H   LIG d   1       2.818  -6.591  -9.054  0.00  0.00     0.082 H 
ATOM     15  H   LIG d   1       2.376  -8.313  -9.311  0.00  0.00     0.082 H 
ATOM     16  H   LIG d   1       3.368  -7.291 -11.289  0.00  0.00     0.201 HD
ENDROOT
BRANCH   1  17
ATOM     17  C   LIG d   1       5.594  -9.794  -7.135  0.00  0.00     0.028 C 
ATOM     18  H   LIG d   1       6.266  -8.953  -6.911  0.00  0.00     0.036 H 
ATOM     19  H   LIG d   1       6.190 -10.672  -7.424  0.00  0.00     0.036 H 
BRANCH  17  20
ATOM     20  C   LIG d   1       4.775 -10.122  -5.913  0.00  0.00     0.216 C 
ATOM     21  N   LIG d   1       5.123  -9.617  -4.712  0.00  0.00    -0.297 N 
ATOM     22  C   LIG d   1       6.297  -8.750  -4.561  0.00  0.00     0.040 C 
ATOM     23  C   LIG d   1       4.346  -9.919  -3.500  0.00  0.00     0.019 C 
ATOM     24  C   LIG d   1       7.083  -9.160  -3.347  0.00  0.00    -0.023 A 
ATOM     25  H   LIG d   1       5.965  -7.707  -4.448  0.00  0.00     0.051 H 
ATOM     26  H   LIG d   1       6.931  -8.838  -5.455  0.00  0.00     0.051 H 
ATOM     27  C   LIG d   1       6.594 -10.056  -2.420  0.00  0.00    -0.037 A 
ATOM     28  C   LIG d   1       8.343  -8.602  -3.174  0.00  0.00    -0.011 A 
ATOM     29  C   LIG d   1       7.364 -10.385  -1.311  0.00  0.00    -0.013 A 
ATOM     30  C   LIG d   1       5.244 -10.709  -2.550  0.00  0.00    -0.011 C 
ATOM     31  C   LIG d   1       8.617  -9.829  -1.131  0.00  0.00     0.162 A 
ATOM     32  H   LIG d   1       6.980 -11.083  -0.582  0.00  0.00     0.066 H 
ATOM     33  C   LIG d   1       9.113  -8.931  -2.072  0.00  0.00     0.162 A 
ATOM     34  H   LIG d   1       5.367 -11.729  -2.945  0.00  0.00     0.033 H 
ATOM     35  H   LIG d   1       4.762 -10.755  -1.562  0.00  0.00     0.033 H 
ATOM     36  H   LIG d   1       8.725  -7.906  -3.905  0.00  0.00     0.066 H 
ATOM     37  H   LIG d   1       4.024  -8.978  -3.027  0.00  0.00     0.047 H 
ATOM     38  H   LIG d   1       3.460 -10.513  -3.771  0.00  0.00     0.047 H 
ATOM     39  O   LIG d   1       3.804 -10.842  -6.009  0.00  0.00    -0.276 OA
BRANCH  31  40
ATOM     40  O   LIG d   1       9.362 -10.158  -0.043  0.00  0.00    -0.491 OA
BRANCH  40  41
ATOM     41  C   LIG d   1       9.566 -11.550   0.206  0.00  0.00     0.079 C 
ATOM     42  H   LIG d   1       8.702 -11.954   0.756  0.00  0.00     0.066 H 
ATOM     43  H   LIG d   1      10.478 -11.686   0.806  0.00  0.00     0.066 H 
ATOM     44  H   LIG d   1       9.673 -12.082  -0.751  0.00  0.00     0.066 H 
ENDBRANCH  40  41
ENDBRANCH  31  40
BRANCH  33  45
ATOM     45  O   LIG d   1      10.345  -8.380  -1.910  0.00  0.00    -0.491 OA
BRANCH  45  46
ATOM     46  C   LIG d   1      10.395  -7.013  -1.499  0.00  0.00     0.079 C 
ATOM     47  H   LIG d   1      11.245  -6.866  -0.816  0.00  0.00     0.066 H 
ATOM     48  H   LIG d   1       9.460  -6.750  -0.982  0.00  0.00     0.066 H 
ATOM     49  H   LIG d   1      10.520  -6.369  -2.381  0.00  0.00     0.066 H 
ENDBRANCH  45  46
ENDBRANCH  33  45
ENDBRANCH  17  20
ENDBRANCH   1  17
BRANCH   7  50
ATOM     50  C   LIG d   1       5.250  -7.011  -7.900  0.00  0.00     0.001 C 
ATOM     51  H   LIG d   1       6.184  -7.556  -7.699  0.00  0.00     0.033 H 
ATOM     52  H   LIG d   1       5.354  -6.437  -8.832  0.00  0.00     0.033 H 
BRANCH  50  53
ATOM     53  C   LIG d   1       4.965  -6.069  -6.759  0.00  0.00     0.084 A 
ATOM     54  N   LIG d   1       3.946  -6.111  -5.948  0.00  0.00    -0.083 NA
ATOM     55  O   LIG d   1       3.991  -5.223  -5.129  0.00  0.00    -0.358 OA
ATOM     56  C   LIG d   1       5.072  -4.448  -5.302  0.00  0.00     0.151 A 
ATOM     57  C   LIG d   1       5.745  -4.959  -6.359  0.00  0.00     0.005 A 
ATOM     58  H   LIG d   1       6.666  -4.603  -6.796  0.00  0.00     0.067 H 
BRANCH  56  59
ATOM     59  C   LIG d   1       5.460  -3.246  -4.480  0.00  0.00     0.060 C 
ATOM     60  H   LIG d   1       5.688  -3.563  -3.452  0.00  0.00     0.051 H 
ATOM     61  H   LIG d   1       6.346  -2.770  -4.923  0.00  0.00     0.051 H 
BRANCH  59  62
ATOM     62  N   LIG d   1       4.347  -2.286  -4.462  0.00  0.00    -0.291 N 
ATOM     63  C   LIG d   1       3.995  -1.916  -3.083  0.00  0.00     0.023 C 
ATOM     64  C   LIG d   1       2.795  -0.964  -3.108  0.00  0.00     0.060 C 
ATOM     65  H   LIG d   1       3.734  -2.822  -2.515  0.00  0.00     0.045 H 
ATOM     66  H   LIG d   1       4.851  -1.418  -2.606  0.00  0.00     0.045 H 
ATOM     67  O   LIG d   1       3.115   0.176  -3.910  0.00  0.00    -0.377 OA
ATOM     68  H   LIG d   1       2.562  -0.638  -2.083  0.00  0.00     0.057 H 
ATOM     69  H   LIG d   1       1.923  -1.480  -3.535  0.00  0.00     0.057 H 
ATOM     70  C   LIG d   1       3.463  -0.148  -5.258  0.00  0.00     0.060 C 
ATOM     71  C   LIG d   1       4.668  -1.092  -5.256  0.00  0.00     0.023 C 
ATOM     72  H   LIG d   1       3.719   0.772  -5.804  0.00  0.00     0.057 H 
ATOM     73  H   LIG d   1       2.612  -0.642  -5.749  0.00  0.00     0.057 H 
ATOM     74  H   LIG d   1       5.536  -0.580  -4.814  0.00  0.00     0.045 H 
ATOM     75  H   LIG d   1       4.904  -1.390  -6.287  0.00  0.00     0.045 H 
ENDBRANCH  59  62
ENDBRANCH  56  59
ENDBRANCH  50  53
ENDBRANCH   7  50
TORSDOF 10
ENDMDL
MODEL 8
REMARK VINA RESULT:      -6.7      7.756     12.415
REMARK  10 active torsions:
REMARK  status: ('A' for Active; 'I' for Inactive)
REMARK    1  A    between atoms: C_1  and  O_2 
REMARK    2  A    between atoms: O_2  and  C_3 
REMARK    3  A    between atoms: C_8  and  O_9 
REMARK    4  A    between atoms: O_9  and  C_10 
REMARK       I    between atoms: N_12  and  C_15 
REMARK    5  A    between atoms: C_15  and  C_17 
REMARK    6  A    between atoms: C_17  and  C_18 
REMARK    7  A    between atoms: C_24  and  C_26 
REMARK    8  A    between atoms: C_26  and  C_27 
REMARK    9  A    between atoms: C_29  and  C_32 
REMARK   10  A    between atoms: C_32  and  N_33 
ROOT
ATOM      1  C   LIG d   1      10.346   5.347  -3.862  0.00  0.00    -0.020 C 
ATOM      2  H   LIG d   1      11.221   5.192  -4.510  0.00  0.00     0.031 H 
ATOM      3  C   LIG d   1       9.720   3.995  -3.509  0.00  0.00    -0.009 C 
ATOM      4  C   LIG d   1      10.731   3.162  -2.720  0.00  0.00    -0.033 C 
ATOM      5  N   LIG d   1      11.111   3.879  -1.496  0.00  0.00     0.227 N 
ATOM      6  C   LIG d   1      11.758   5.159  -1.811  0.00  0.00    -0.030 C 
ATOM      7  C   LIG d   1      10.777   6.053  -2.573  0.00  0.00     0.008 C 
ATOM      8  H   LIG d   1      11.265   7.008  -2.820  0.00  0.00     0.036 H 
ATOM      9  H   LIG d   1       8.819   4.158  -2.899  0.00  0.00     0.032 H 
ATOM     10  H   LIG d   1       9.447   3.466  -4.433  0.00  0.00     0.032 H 
ATOM     11  H   LIG d   1      10.279   2.194  -2.451  0.00  0.00     0.081 H 
ATOM     12  H   LIG d   1      11.626   2.989  -3.336  0.00  0.00     0.081 H 
ATOM     13  H   LIG d   1      10.213   4.079  -0.894  0.00  0.00     0.201 HD
ATOM     14  H   LIG d   1      12.058   5.657  -0.877  0.00  0.00     0.082 H 
ATOM     15  H   LIG d   1      12.647   4.978  -2.432  0.00  0.00     0.082 H 
ATOM     16  H   LIG d   1      11.813   3.265  -0.913  0.00  0.00     0.201 HD
ENDROOT
BRANCH   1  17
ATOM     17  C   LIG d   1       9.320   6.211  -4.598  0.00  0.00     0.028 C 
ATOM     18  H   LIG d   1       9.142   7.135  -4.030  0.00  0.00     0.036 H 
ATOM     19  H   LIG d   1       8.376   5.654  -4.698  0.00  0.00     0.036 H 
BRANCH  17  20
ATOM     20  C   LIG d   1       9.845   6.556  -5.969  0.00  0.00     0.216 C 
ATOM     21  N   LIG d   1      10.448   7.743  -6.180  0.00  0.00    -0.297 N 
ATOM     22  C   LIG d   1      10.602   8.723  -5.099  0.00  0.00     0.040 C 
ATOM     23  C   LIG d   1      10.972   8.111  -7.505  0.00  0.00     0.019 C 
ATOM     24  C   LIG d   1      10.250  10.096  -5.600  0.00  0.00    -0.023 A 
ATOM     25  H   LIG d   1      11.645   8.717  -4.750  0.00  0.00     0.051 H 
ATOM     26  H   LIG d   1       9.935   8.454  -4.267  0.00  0.00     0.051 H 
ATOM     27  C   LIG d   1      10.061  10.367  -6.938  0.00  0.00    -0.037 A 
ATOM     28  C   LIG d   1      10.118  11.112  -4.662  0.00  0.00    -0.011 A 
ATOM     29  C   LIG d   1       9.749  11.660  -7.340  0.00  0.00    -0.013 A 
ATOM     30  C   LIG d   1      10.174   9.314  -8.008  0.00  0.00    -0.011 C 
ATOM     31  C   LIG d   1       9.621  12.676  -6.411  0.00  0.00     0.162 A 
ATOM     32  H   LIG d   1       9.605  11.874  -8.389  0.00  0.00     0.066 H 
ATOM     33  C   LIG d   1       9.805  12.400  -5.059  0.00  0.00     0.162 A 
ATOM     34  H   LIG d   1       9.169   8.975  -8.298  0.00  0.00     0.033 H 
ATOM     35  H   LIG d   1      10.686   9.735  -8.886  0.00  0.00     0.033 H 
ATOM     36  H   LIG d   1      10.260  10.895  -3.615  0.00  0.00     0.066 H 
ATOM     37  H   LIG d   1      12.038   8.369  -7.419  0.00  0.00     0.047 H 
ATOM     38  H   LIG d   1      10.855   7.261  -8.194  0.00  0.00     0.047 H 
ATOM     39  O   LIG d   1       9.725   5.766  -6.881  0.00  0.00    -0.276 OA
BRANCH  31  40
ATOM     40  O   LIG d   1       9.317  13.938  -6.815  0.00  0.00    -0.491 OA
BRANCH  40  41
ATOM     41  C   LIG d   1       9.943  14.404  -8.012  0.00  0.00     0.079 C 
ATOM     42  H   LIG d   1       9.655  15.450  -8.193  0.00  0.00     0.066 H 
ATOM     43  H   LIG d   1       9.620  13.783  -8.861  0.00  0.00     0.066 H 
ATOM     44  H   LIG d   1      11.036  14.338  -7.904  0.00  0.00     0.066 H 
ENDBRANCH  40  41
ENDBRANCH  31  40
BRANCH  33  45
ATOM     45  O   LIG d   1       9.677  13.389  -4.135  0.00  0.00    -0.491 OA
BRANCH  45  46
ATOM     46  C   LIG d   1       8.588  13.281  -3.216  0.00  0.00     0.079 C 
ATOM     47  H   LIG d   1       8.451  14.242  -2.697  0.00  0.00     0.066 H 
ATOM     48  H   LIG d   1       8.806  12.494  -2.479  0.00  0.00     0.066 H 
ATOM     49  H   LIG d   1       7.670  13.027  -3.765  0.00  0.00     0.066 H 
ENDBRANCH  45  46
ENDBRANCH  33  45
ENDBRANCH  17  20
ENDBRANCH   1  17
BRANCH   7  50
ATOM     50  C   LIG d   1       9.548   6.323  -1.703  0.00  0.00     0.001 C 
ATOM     51  H   LIG d   1       8.639   6.052  -2.259  0.00  0.00     0.033 H 
ATOM     52  H   LIG d   1       9.609   5.721  -0.785  0.00  0.00     0.033 H 
BRANCH  50  53
ATOM     53  C   LIG d   1       9.498   7.785  -1.343  0.00  0.00     0.084 A 
ATOM     54  N   LIG d   1       8.489   8.428  -0.828  0.00  0.00    -0.083 NA
ATOM     55  O   LIG d   1       8.750   9.594  -0.645  0.00  0.00    -0.358 OA
ATOM     56  C   LIG d   1       9.998   9.887  -1.037  0.00  0.00     0.151 A 
ATOM     57  C   LIG d   1      10.534   8.735  -1.503  0.00  0.00     0.005 A 
ATOM     58  H   LIG d   1      11.524   8.576  -1.905  0.00  0.00     0.067 H 
BRANCH  56  59
ATOM     59  C   LIG d   1      10.672  11.233  -0.969  0.00  0.00     0.060 C 
ATOM     60  H   LIG d   1      11.020  11.520  -1.973  0.00  0.00     0.051 H 
ATOM     61  H   LIG d   1       9.958  11.983  -0.600  0.00  0.00     0.051 H 
BRANCH  59  62
ATOM     62  N   LIG d   1      11.821  11.160  -0.055  0.00  0.00    -0.291 N 
ATOM     63  C   LIG d   1      12.744  12.282  -0.280  0.00  0.00     0.023 C 
ATOM     64  C   LIG d   1      13.952  12.134   0.649  0.00  0.00     0.060 C 
ATOM     65  H   LIG d   1      13.081  12.276  -1.327  0.00  0.00     0.045 H 
ATOM     66  H   LIG d   1      12.228  13.230  -0.066  0.00  0.00     0.045 H 
ATOM     67  O   LIG d   1      13.500  12.068   2.004  0.00  0.00    -0.377 OA
ATOM     68  H   LIG d   1      14.619  13.001   0.527  0.00  0.00     0.057 H 
ATOM     69  H   LIG d   1      14.499  11.214   0.399  0.00  0.00     0.057 H 
ATOM     70  C   LIG d   1      12.599  10.986   2.258  0.00  0.00     0.060 C 
ATOM     71  C   LIG d   1      11.378  11.122   1.345  0.00  0.00     0.023 C 
ATOM     72  H   LIG d   1      12.276  11.014   3.309  0.00  0.00     0.057 H 
ATOM     73  H   LIG d   1      13.104  10.031   2.054  0.00  0.00     0.057 H 
ATOM     74  H   LIG d   1      10.840  12.051   1.585  0.00  0.00     0.045 H 
ATOM     75  H   LIG d   1      10.709  10.262   1.495  0.00  0.00     0.045 H 
ENDBRANCH  59  62
ENDBRANCH  56  59
ENDBRANCH  50  53
ENDBRANCH   7  50
TORSDOF 10
ENDMDL
MODEL 9
REMARK VINA RESULT:      -6.6      3.678      7.048
REMARK  10 active torsions:
REMARK  status: ('A' for Active; 'I' for Inactive)
REMARK    1  A    between atoms: C_1  and  O_2 
REMARK    2  A    between atoms: O_2  and  C_3 
REMARK    3  A    between atoms: C_8  and  O_9 
REMARK    4  A    between atoms: O_9  and  C_10 
REMARK       I    between atoms: N_12  and  C_15 
REMARK    5  A    between atoms: C_15  and  C_17 
REMARK    6  A    between atoms: C_17  and  C_18 
REMARK    7  A    between atoms: C_24  and  C_26 
REMARK    8  A    between atoms: C_26  and  C_27 
REMARK    9  A    between atoms: C_29  and  C_32 
REMARK   10  A    between atoms: C_32  and  N_33 
ROOT
ATOM      1  C   LIG d   1       9.283  -4.679  -4.626  0.00  0.00    -0.020 C 
ATOM      2  H   LIG d   1       8.740  -3.761  -4.357  0.00  0.00     0.031 H 
ATOM      3  C   LIG d   1      10.722  -4.332  -5.017  0.00  0.00    -0.009 C 
ATOM      4  C   LIG d   1      11.437  -3.715  -3.814  0.00  0.00    -0.033 C 
ATOM      5  N   LIG d   1      11.432  -4.668  -2.696  0.00  0.00     0.227 N 
ATOM      6  C   LIG d   1      10.060  -4.980  -2.273  0.00  0.00    -0.030 C 
ATOM      7  C   LIG d   1       9.304  -5.635  -3.431  0.00  0.00     0.008 C 
ATOM      8  H   LIG d   1       8.273  -5.858  -3.117  0.00  0.00     0.036 H 
ATOM      9  H   LIG d   1      11.248  -5.247  -5.330  0.00  0.00     0.032 H 
ATOM     10  H   LIG d   1      10.712  -3.612  -5.849  0.00  0.00     0.032 H 
ATOM     11  H   LIG d   1      12.477  -3.477  -4.086  0.00  0.00     0.081 H 
ATOM     12  H   LIG d   1      10.919  -2.793  -3.511  0.00  0.00     0.081 H 
ATOM     13  H   LIG d   1      11.923  -5.601  -3.009  0.00  0.00     0.201 HD
ATOM     14  H   LIG d   1      10.090  -5.670  -1.417  0.00  0.00     0.082 H 
ATOM     15  H   LIG d   1       9.547  -4.053  -1.978  0.00  0.00     0.082 H 
ATOM     16  H   LIG d   1      11.973  -4.236  -1.843  0.00  0.00     0.201 HD
ENDROOT
BRANCH   1  17
ATOM     17  C   LIG d   1       8.580  -5.353  -5.807  0.00  0.00     0.028 C 
ATOM     18  H   LIG d   1       8.871  -6.412  -5.851  0.00  0.00     0.036 H 
ATOM     19  H   LIG d   1       8.872  -4.853  -6.742  0.00  0.00     0.036 H 
BRANCH  17  20
ATOM     20  C   LIG d   1       7.087  -5.248  -5.627  0.00  0.00     0.216 C 
ATOM     21  N   LIG d   1       6.485  -4.043  -5.671  0.00  0.00    -0.297 N 
ATOM     22  C   LIG d   1       7.256  -2.813  -5.885  0.00  0.00     0.040 C 
ATOM     23  C   LIG d   1       5.030  -3.907  -5.500  0.00  0.00     0.019 C 
ATOM     24  C   LIG d   1       6.792  -1.746  -4.934  0.00  0.00    -0.023 A 
ATOM     25  H   LIG d   1       7.111  -2.470  -6.921  0.00  0.00     0.051 H 
ATOM     26  H   LIG d   1       8.323  -3.019  -5.714  0.00  0.00     0.051 H 
ATOM     27  C   LIG d   1       5.650  -1.882  -4.174  0.00  0.00    -0.037 A 
ATOM     28  C   LIG d   1       7.557  -0.591  -4.835  0.00  0.00    -0.011 A 
ATOM     29  C   LIG d   1       5.266  -0.854  -3.321  0.00  0.00    -0.013 A 
ATOM     30  C   LIG d   1       4.781  -3.110  -4.220  0.00  0.00    -0.011 C 
ATOM     31  C   LIG d   1       6.021   0.300  -3.223  0.00  0.00     0.162 A 
ATOM     32  H   LIG d   1       4.369  -0.958  -2.729  0.00  0.00     0.066 H 
ATOM     33  C   LIG d   1       7.179   0.432  -3.985  0.00  0.00     0.162 A 
ATOM     34  H   LIG d   1       5.006  -3.751  -3.355  0.00  0.00     0.033 H 
ATOM     35  H   LIG d   1       3.722  -2.812  -4.189  0.00  0.00     0.033 H 
ATOM     36  H   LIG d   1       8.454  -0.491  -5.427  0.00  0.00     0.066 H 
ATOM     37  H   LIG d   1       4.607  -3.377  -6.367  0.00  0.00     0.047 H 
ATOM     38  H   LIG d   1       4.575  -4.905  -5.423  0.00  0.00     0.047 H 
ATOM     39  O   LIG d   1       6.427  -6.249  -5.443  0.00  0.00    -0.276 OA
BRANCH  31  40
ATOM     40  O   LIG d   1       5.637   1.300  -2.386  0.00  0.00    -0.491 OA
BRANCH  40  41
ATOM     41  C   LIG d   1       4.416   1.110  -1.668  0.00  0.00     0.079 C 
ATOM     42  H   LIG d   1       4.187   2.016  -1.088  0.00  0.00     0.066 H 
ATOM     43  H   LIG d   1       4.521   0.255  -0.984  0.00  0.00     0.066 H 
ATOM     44  H   LIG d   1       3.599   0.914  -2.378  0.00  0.00     0.066 H 
ENDBRANCH  40  41
ENDBRANCH  31  40
BRANCH  33  45
ATOM     45  O   LIG d   1       7.933   1.560  -3.894  0.00  0.00    -0.491 OA
BRANCH  45  46
ATOM     46  C   LIG d   1       9.073   1.649  -4.749  0.00  0.00     0.079 C 
ATOM     47  H   LIG d   1       9.732   2.458  -4.400  0.00  0.00     0.066 H 
ATOM     48  H   LIG d   1       8.745   1.862  -5.778  0.00  0.00     0.066 H 
ATOM     49  H   LIG d   1       9.622   0.696  -4.729  0.00  0.00     0.066 H 
ENDBRANCH  45  46
ENDBRANCH  33  45
ENDBRANCH  17  20
ENDBRANCH   1  17
BRANCH   7  50
ATOM     50  C   LIG d   1      10.004  -6.936  -3.829  0.00  0.00     0.001 C 
ATOM     51  H   LIG d   1       9.970  -7.051  -4.922  0.00  0.00     0.033 H 
ATOM     52  H   LIG d   1      11.052  -6.904  -3.497  0.00  0.00     0.033 H 
BRANCH  50  53
ATOM     53  C   LIG d   1       9.306  -8.102  -3.179  0.00  0.00     0.084 A 
ATOM     54  N   LIG d   1       9.394  -8.469  -1.933  0.00  0.00    -0.083 NA
ATOM     55  O   LIG d   1       8.714  -9.442  -1.705  0.00  0.00    -0.358 OA
ATOM     56  C   LIG d   1       8.075  -9.865  -2.806  0.00  0.00     0.151 A 
ATOM     57  C   LIG d   1       8.430  -9.020  -3.803  0.00  0.00     0.005 A 
ATOM     58  H   LIG d   1       8.116  -9.042  -4.836  0.00  0.00     0.067 H 
BRANCH  56  59
ATOM     59  C   LIG d   1       7.147 -11.047  -2.912  0.00  0.00     0.060 C 
ATOM     60  H   LIG d   1       7.627 -11.840  -3.504  0.00  0.00     0.051 H 
ATOM     61  H   LIG d   1       6.920 -11.426  -1.905  0.00  0.00     0.051 H 
BRANCH  59  62
ATOM     62  N   LIG d   1       5.900 -10.632  -3.571  0.00  0.00    -0.291 N 
ATOM     63  C   LIG d   1       5.608 -11.488  -4.730  0.00  0.00     0.023 C 
ATOM     64  C   LIG d   1       4.337 -10.984  -5.420  0.00  0.00     0.060 C 
ATOM     65  H   LIG d   1       6.450 -11.450  -5.436  0.00  0.00     0.045 H 
ATOM     66  H   LIG d   1       5.458 -12.524  -4.392  0.00  0.00     0.045 H 
ATOM     67  O   LIG d   1       3.263 -10.966  -4.476  0.00  0.00    -0.377 OA
ATOM     68  H   LIG d   1       4.080 -11.655  -6.254  0.00  0.00     0.057 H 
ATOM     69  H   LIG d   1       4.504  -9.968  -5.806  0.00  0.00     0.057 H 
ATOM     70  C   LIG d   1       3.514 -10.142  -3.334  0.00  0.00     0.060 C 
ATOM     71  C   LIG d   1       4.777 -10.636  -2.623  0.00  0.00     0.023 C 
ATOM     72  H   LIG d   1       2.660 -10.197  -2.644  0.00  0.00     0.057 H 
ATOM     73  H   LIG d   1       3.659  -9.101  -3.657  0.00  0.00     0.057 H 
ATOM     74  H   LIG d   1       4.614 -11.658  -2.252  0.00  0.00     0.045 H 
ATOM     75  H   LIG d   1       5.008  -9.971  -1.778  0.00  0.00     0.045 H 
ENDBRANCH  59  62
ENDBRANCH  56  59
ENDBRANCH  50  53
ENDBRANCH   7  50
TORSDOF 10
ENDMDL
