MODEL 1
REMARK VINA RESULT:      -6.1      0.000      0.000
REMARK  5 active torsions:
REMARK  status: ('A' for Active; 'I' for Inactive)
REMARK    1  A    between atoms: C_1  and  C_2 
REMARK    2  A    between atoms: C_2  and  O_4 
REMARK    3  A    between atoms: O_4  and  C_5 
REMARK    4  A    between atoms: C_7  and  C_14 
REMARK    5  A    between atoms: C_10  and  C_11 
ROOT
ATOM      1  C   LIG d   1       4.412  -0.644  -5.995  0.00  0.00     0.141 A 
ATOM      2  C   LIG d   1       4.776  -1.157  -4.760  0.00  0.00    -0.007 A 
ATOM      3  C   LIG d   1       3.959  -0.964  -3.662  0.00  0.00     0.058 A 
ATOM      4  C   LIG d   1       2.774  -0.259  -3.785  0.00  0.00    -0.049 A 
ATOM      5  C   LIG d   1       2.395   0.259  -5.004  0.00  0.00    -0.049 A 
ATOM      6  C   LIG d   1       3.215   0.076  -6.123  0.00  0.00     0.040 A 
ATOM      7  H   LIG d   1       5.698  -1.708  -4.655  0.00  0.00     0.066 H 
ATOM      8  H   LIG d   1       2.142  -0.114  -2.921  0.00  0.00     0.062 H 
ATOM      9  H   LIG d   1       1.470   0.808  -5.095  0.00  0.00     0.062 H 
ENDROOT
BRANCH   1  10
ATOM     10  O   LIG d   1       5.212  -0.832  -7.074  0.00  0.00    -0.425 OA
BRANCH  10  11
ATOM     11  C   LIG d   1       6.404  -0.214  -7.091  0.00  0.00     0.309 C 
ATOM     12  O   LIG d   1       6.457   0.993  -7.129  0.00  0.00    -0.251 OA
BRANCH  11  13
ATOM     13  C   LIG d   1       7.674  -1.024  -7.065  0.00  0.00     0.034 C 
ATOM     14  H   LIG d   1       7.527  -1.908  -6.443  0.00  0.00     0.034 H 
ATOM     15  H   LIG d   1       7.931  -1.331  -8.078  0.00  0.00     0.034 H 
ATOM     16  H   LIG d   1       8.481  -0.421  -6.652  0.00  0.00     0.034 H 
ENDBRANCH  11  13
ENDBRANCH  10  11
ENDBRANCH   1  10
BRANCH   6  17
ATOM     17  C   LIG d   1       2.820   0.632  -7.428  0.00  0.00     0.075 C 
ATOM     18  O   LIG d   1       3.062   1.801  -7.693  0.00  0.00    -0.544 OA
ATOM     19  O   LIG d   1       2.249  -0.075  -8.247  0.00  0.00    -0.544 OA
ENDBRANCH   6  17
BRANCH   3  20
ATOM     20  C   LIG d   1       4.362  -1.526  -2.322  0.00  0.00     0.417 C 
ATOM     21  F   LIG d   1       4.256  -0.528  -1.347  0.00  0.00    -0.166 F 
ATOM     22  F   LIG d   1       3.518  -2.592  -1.993  0.00  0.00    -0.166 F 
ATOM     23  F   LIG d   1       5.684  -1.979  -2.384  0.00  0.00    -0.166 F 
ENDBRANCH   3  20
TORSDOF 5
ENDMDL
MODEL 2
REMARK VINA RESULT:      -5.5      2.577      3.645
REMARK  5 active torsions:
REMARK  status: ('A' for Active; 'I' for Inactive)
REMARK    1  A    between atoms: C_1  and  C_2 
REMARK    2  A    between atoms: C_2  and  O_4 
REMARK    3  A    between atoms: O_4  and  C_5 
REMARK    4  A    between atoms: C_7  and  C_14 
REMARK    5  A    between atoms: C_10  and  C_11 
ROOT
ATOM      1  C   LIG d   1       5.128  -1.476  -4.958  0.00  0.00     0.141 A 
ATOM      2  C   LIG d   1       4.979  -0.279  -4.276  0.00  0.00    -0.007 A 
ATOM      3  C   LIG d   1       4.488  -0.274  -2.984  0.00  0.00     0.058 A 
ATOM      4  C   LIG d   1       4.142  -1.462  -2.362  0.00  0.00    -0.049 A 
ATOM      5  C   LIG d   1       4.283  -2.662  -3.024  0.00  0.00    -0.049 A 
ATOM      6  C   LIG d   1       4.774  -2.681  -4.334  0.00  0.00     0.040 A 
ATOM      7  H   LIG d   1       5.246   0.652  -4.754  0.00  0.00     0.066 H 
ATOM      8  H   LIG d   1       3.759  -1.448  -1.352  0.00  0.00     0.062 H 
ATOM      9  H   LIG d   1       4.012  -3.585  -2.534  0.00  0.00     0.062 H 
ENDROOT
BRANCH   1  10
ATOM     10  O   LIG d   1       5.611  -1.482  -6.226  0.00  0.00    -0.425 OA
BRANCH  10  11
ATOM     11  C   LIG d   1       6.871  -1.061  -6.423  0.00  0.00     0.309 C 
ATOM     12  O   LIG d   1       7.797  -1.706  -5.991  0.00  0.00    -0.251 OA
BRANCH  11  13
ATOM     13  C   LIG d   1       7.129   0.215  -7.181  0.00  0.00     0.034 C 
ATOM     14  H   LIG d   1       8.090   0.631  -6.876  0.00  0.00     0.034 H 
ATOM     15  H   LIG d   1       7.146   0.007  -8.250  0.00  0.00     0.034 H 
ATOM     16  H   LIG d   1       6.339   0.933  -6.963  0.00  0.00     0.034 H 
ENDBRANCH  11  13
ENDBRANCH  10  11
ENDBRANCH   1  10
BRANCH   6  17
ATOM     17  C   LIG d   1       4.921  -3.958  -5.050  0.00  0.00     0.075 C 
ATOM     18  O   LIG d   1       3.931  -4.552  -5.453  0.00  0.00    -0.544 OA
ATOM     19  O   LIG d   1       6.035  -4.428  -5.241  0.00  0.00    -0.544 OA
ENDBRANCH   6  17
BRANCH   3  20
ATOM     20  C   LIG d   1       4.329   1.032  -2.249  0.00  0.00     0.417 C 
ATOM     21  F   LIG d   1       4.791   0.887  -0.936  0.00  0.00    -0.166 F 
ATOM     22  F   LIG d   1       5.072   2.024  -2.898  0.00  0.00    -0.166 F 
ATOM     23  F   LIG d   1       2.979   1.397  -2.231  0.00  0.00    -0.166 F 
ENDBRANCH   3  20
TORSDOF 5
ENDMDL
MODEL 3
REMARK VINA RESULT:      -5.5      3.726      4.739
REMARK  5 active torsions:
REMARK  status: ('A' for Active; 'I' for Inactive)
REMARK    1  A    between atoms: C_1  and  C_2 
REMARK    2  A    between atoms: C_2  and  O_4 
REMARK    3  A    between atoms: O_4  and  C_5 
REMARK    4  A    between atoms: C_7  and  C_14 
REMARK    5  A    between atoms: C_10  and  C_11 
ROOT
ATOM      1  C   LIG d   1       4.614  -1.091  -4.839  0.00  0.00     0.141 A 
ATOM      2  C   LIG d   1       4.406  -0.557  -6.101  0.00  0.00    -0.007 A 
ATOM      3  C   LIG d   1       3.265   0.178  -6.363  0.00  0.00     0.058 A 
ATOM      4  C   LIG d   1       2.322   0.387  -5.370  0.00  0.00    -0.049 A 
ATOM      5  C   LIG d   1       2.512  -0.137  -4.109  0.00  0.00    -0.049 A 
ATOM      6  C   LIG d   1       3.659  -0.887  -3.832  0.00  0.00     0.040 A 
ATOM      7  H   LIG d   1       5.136  -0.715  -6.881  0.00  0.00     0.066 H 
ATOM      8  H   LIG d   1       1.434   0.963  -5.584  0.00  0.00     0.062 H 
ATOM      9  H   LIG d   1       1.774   0.029  -3.338  0.00  0.00     0.062 H 
ENDROOT
BRANCH   1  10
ATOM     10  O   LIG d   1       5.734  -1.812  -4.580  0.00  0.00    -0.425 OA
BRANCH  10  11
ATOM     11  C   LIG d   1       6.916  -1.176  -4.620  0.00  0.00     0.309 C 
ATOM     12  O   LIG d   1       7.776  -1.548  -5.382  0.00  0.00    -0.251 OA
BRANCH  11  13
ATOM     13  C   LIG d   1       7.170  -0.001  -3.711  0.00  0.00     0.034 C 
ATOM     14  H   LIG d   1       6.278   0.195  -3.113  0.00  0.00     0.034 H 
ATOM     15  H   LIG d   1       8.007  -0.225  -3.051  0.00  0.00     0.034 H 
ATOM     16  H   LIG d   1       7.404   0.878  -4.311  0.00  0.00     0.034 H 
ENDBRANCH  11  13
ENDBRANCH  10  11
ENDBRANCH   1  10
BRANCH   6  17
ATOM     17  C   LIG d   1       3.865  -1.455  -2.489  0.00  0.00     0.075 C 
ATOM     18  O   LIG d   1       3.550  -2.614  -2.260  0.00  0.00    -0.544 OA
ATOM     19  O   LIG d   1       4.351  -0.766  -1.602  0.00  0.00    -0.544 OA
ENDBRANCH   6  17
BRANCH   3  20
ATOM     20  C   LIG d   1       3.047   0.756  -7.737  0.00  0.00     0.417 C 
ATOM     21  F   LIG d   1       4.237   0.678  -8.470  0.00  0.00    -0.166 F 
ATOM     22  F   LIG d   1       2.047   0.031  -8.394  0.00  0.00    -0.166 F 
ATOM     23  F   LIG d   1       2.655   2.094  -7.624  0.00  0.00    -0.166 F 
ENDBRANCH   3  20
TORSDOF 5
ENDMDL
MODEL 4
REMARK VINA RESULT:      -5.4      1.451      3.372
REMARK  5 active torsions:
REMARK  status: ('A' for Active; 'I' for Inactive)
REMARK    1  A    between atoms: C_1  and  C_2 
REMARK    2  A    between atoms: C_2  and  O_4 
REMARK    3  A    between atoms: O_4  and  C_5 
REMARK    4  A    between atoms: C_7  and  C_14 
REMARK    5  A    between atoms: C_10  and  C_11 
ROOT
ATOM      1  C   LIG d   1       5.110  -0.653  -5.864  0.00  0.00     0.141 A 
ATOM      2  C   LIG d   1       4.328  -0.645  -4.719  0.00  0.00    -0.007 A 
ATOM      3  C   LIG d   1       4.548  -1.579  -3.725  0.00  0.00     0.058 A 
ATOM      4  C   LIG d   1       5.548  -2.527  -3.861  0.00  0.00    -0.049 A 
ATOM      5  C   LIG d   1       6.335  -2.550  -4.992  0.00  0.00    -0.049 A 
ATOM      6  C   LIG d   1       6.120  -1.615  -6.009  0.00  0.00     0.040 A 
ATOM      7  H   LIG d   1       3.546   0.091  -4.605  0.00  0.00     0.066 H 
ATOM      8  H   LIG d   1       5.712  -3.252  -3.078  0.00  0.00     0.062 H 
ATOM      9  H   LIG d   1       7.113  -3.291  -5.094  0.00  0.00     0.062 H 
ENDROOT
BRANCH   1  10
ATOM     10  O   LIG d   1       4.896   0.264  -6.842  0.00  0.00    -0.425 OA
BRANCH  10  11
ATOM     11  C   LIG d   1       3.681   0.304  -7.413  0.00  0.00     0.309 C 
ATOM     12  O   LIG d   1       3.001   1.299  -7.317  0.00  0.00    -0.251 OA
BRANCH  11  13
ATOM     13  C   LIG d   1       3.165  -0.892  -8.170  0.00  0.00     0.034 C 
ATOM     14  H   LIG d   1       3.744  -1.020  -9.085  0.00  0.00     0.034 H 
ATOM     15  H   LIG d   1       3.261  -1.784  -7.552  0.00  0.00     0.034 H 
ATOM     16  H   LIG d   1       2.117  -0.737  -8.424  0.00  0.00     0.034 H 
ENDBRANCH  11  13
ENDBRANCH  10  11
ENDBRANCH   1  10
BRANCH   6  17
ATOM     17  C   LIG d   1       6.953  -1.638  -7.223  0.00  0.00     0.075 C 
ATOM     18  O   LIG d   1       8.009  -1.021  -7.252  0.00  0.00    -0.544 OA
ATOM     19  O   LIG d   1       6.588  -2.273  -8.203  0.00  0.00    -0.544 OA
ENDBRANCH   6  17
BRANCH   3  20
ATOM     20  C   LIG d   1       3.693  -1.563  -2.483  0.00  0.00     0.417 C 
ATOM     21  F   LIG d   1       3.519  -2.873  -2.021  0.00  0.00    -0.166 F 
ATOM     22  F   LIG d   1       4.324  -0.800  -1.494  0.00  0.00    -0.166 F 
ATOM     23  F   LIG d   1       2.446  -1.003  -2.780  0.00  0.00    -0.166 F 
ENDBRANCH   3  20
TORSDOF 5
ENDMDL
MODEL 5
REMARK VINA RESULT:      -5.4      3.307      4.650
REMARK  5 active torsions:
REMARK  status: ('A' for Active; 'I' for Inactive)
REMARK    1  A    between atoms: C_1  and  C_2 
REMARK    2  A    between atoms: C_2  and  O_4 
REMARK    3  A    between atoms: O_4  and  C_5 
REMARK    4  A    between atoms: C_7  and  C_14 
REMARK    5  A    between atoms: C_10  and  C_11 
ROOT
ATOM      1  C   LIG d   1       5.489  -3.292  -5.329  0.00  0.00     0.141 A 
ATOM      2  C   LIG d   1       4.545  -2.891  -4.396  0.00  0.00    -0.007 A 
ATOM      3  C   LIG d   1       4.924  -2.112  -3.319  0.00  0.00     0.058 A 
ATOM      4  C   LIG d   1       6.244  -1.727  -3.162  0.00  0.00    -0.049 A 
ATOM      5  C   LIG d   1       7.196  -2.117  -4.078  0.00  0.00    -0.049 A 
ATOM      6  C   LIG d   1       6.829  -2.909  -5.171  0.00  0.00     0.040 A 
ATOM      7  H   LIG d   1       3.513  -3.187  -4.511  0.00  0.00     0.066 H 
ATOM      8  H   LIG d   1       6.530  -1.118  -2.316  0.00  0.00     0.062 H 
ATOM      9  H   LIG d   1       8.225  -1.814  -3.952  0.00  0.00     0.062 H 
ENDROOT
BRANCH   1  10
ATOM     10  O   LIG d   1       5.119  -4.056  -6.388  0.00  0.00    -0.425 OA
BRANCH  10  11
ATOM     11  C   LIG d   1       4.530  -5.237  -6.137  0.00  0.00     0.309 C 
ATOM     12  O   LIG d   1       3.347  -5.376  -6.341  0.00  0.00    -0.251 OA
BRANCH  11  13
ATOM     13  C   LIG d   1       5.344  -6.386  -5.601  0.00  0.00     0.034 C 
ATOM     14  H   LIG d   1       5.627  -7.045  -6.423  0.00  0.00     0.034 H 
ATOM     15  H   LIG d   1       6.241  -6.002  -5.117  0.00  0.00     0.034 H 
ATOM     16  H   LIG d   1       4.750  -6.944  -4.877  0.00  0.00     0.034 H 
ENDBRANCH  11  13
ENDBRANCH  10  11
ENDBRANCH   1  10
BRANCH   6  17
ATOM     17  C   LIG d   1       7.842  -3.334  -6.150  0.00  0.00     0.075 C 
ATOM     18  O   LIG d   1       8.079  -2.638  -7.127  0.00  0.00    -0.544 OA
ATOM     19  O   LIG d   1       8.447  -4.386  -5.988  0.00  0.00    -0.544 OA
ENDBRANCH   6  17
BRANCH   3  20
ATOM     20  C   LIG d   1       3.891  -1.679  -2.310  0.00  0.00     0.417 C 
ATOM     21  F   LIG d   1       2.882  -0.958  -2.956  0.00  0.00    -0.166 F 
ATOM     22  F   LIG d   1       3.338  -2.809  -1.697  0.00  0.00    -0.166 F 
ATOM     23  F   LIG d   1       4.495  -0.871  -1.341  0.00  0.00    -0.166 F 
ENDBRANCH   3  20
TORSDOF 5
ENDMDL
MODEL 6
REMARK VINA RESULT:      -5.2      3.257      4.305
REMARK  5 active torsions:
REMARK  status: ('A' for Active; 'I' for Inactive)
REMARK    1  A    between atoms: C_1  and  C_2 
REMARK    2  A    between atoms: C_2  and  O_4 
REMARK    3  A    between atoms: O_4  and  C_5 
REMARK    4  A    between atoms: C_7  and  C_14 
REMARK    5  A    between atoms: C_10  and  C_11 
ROOT
ATOM      1  C   LIG d   1       7.130  -0.508  -3.999  0.00  0.00     0.141 A 
ATOM      2  C   LIG d   1       6.259   0.417  -3.444  0.00  0.00    -0.007 A 
ATOM      3  C   LIG d   1       5.098  -0.007  -2.827  0.00  0.00     0.058 A 
ATOM      4  C   LIG d   1       4.794  -1.357  -2.758  0.00  0.00    -0.049 A 
ATOM      5  C   LIG d   1       5.647  -2.291  -3.303  0.00  0.00    -0.049 A 
ATOM      6  C   LIG d   1       6.823  -1.875  -3.935  0.00  0.00     0.040 A 
ATOM      7  H   LIG d   1       6.489   1.471  -3.494  0.00  0.00     0.066 H 
ATOM      8  H   LIG d   1       3.883  -1.678  -2.273  0.00  0.00     0.062 H 
ATOM      9  H   LIG d   1       5.405  -3.342  -3.246  0.00  0.00     0.062 H 
ENDROOT
BRANCH   1  10
ATOM     10  O   LIG d   1       8.271  -0.093  -4.604  0.00  0.00    -0.425 OA
BRANCH  10  11
ATOM     11  C   LIG d   1       8.159   0.654  -5.714  0.00  0.00     0.309 C 
ATOM     12  O   LIG d   1       7.693   0.174  -6.721  0.00  0.00    -0.251 OA
BRANCH  11  13
ATOM     13  C   LIG d   1       8.618   2.089  -5.706  0.00  0.00     0.034 C 
ATOM     14  H   LIG d   1       8.590   2.473  -4.685  0.00  0.00     0.034 H 
ATOM     15  H   LIG d   1       9.636   2.149  -6.089  0.00  0.00     0.034 H 
ATOM     16  H   LIG d   1       7.957   2.685  -6.335  0.00  0.00     0.034 H 
ENDBRANCH  11  13
ENDBRANCH  10  11
ENDBRANCH   1  10
BRANCH   6  17
ATOM     17  C   LIG d   1       7.736  -2.868  -4.526  0.00  0.00     0.075 C 
ATOM     18  O   LIG d   1       8.580  -3.414  -3.830  0.00  0.00    -0.544 OA
ATOM     19  O   LIG d   1       7.650  -3.146  -5.715  0.00  0.00    -0.544 OA
ENDBRANCH   6  17
BRANCH   3  20
ATOM     20  C   LIG d   1       4.157   1.006  -2.226  0.00  0.00     0.417 C 
ATOM     21  F   LIG d   1       2.863   0.474  -2.186  0.00  0.00    -0.166 F 
ATOM     22  F   LIG d   1       4.575   1.314  -0.927  0.00  0.00    -0.166 F 
ATOM     23  F   LIG d   1       4.160   2.167  -3.006  0.00  0.00    -0.166 F 
ENDBRANCH   3  20
TORSDOF 5
ENDMDL
MODEL 7
REMARK VINA RESULT:      -5.2      1.502      3.283
REMARK  5 active torsions:
REMARK  status: ('A' for Active; 'I' for Inactive)
REMARK    1  A    between atoms: C_1  and  C_2 
REMARK    2  A    between atoms: C_2  and  O_4 
REMARK    3  A    between atoms: O_4  and  C_5 
REMARK    4  A    between atoms: C_7  and  C_14 
REMARK    5  A    between atoms: C_10  and  C_11 
ROOT
ATOM      1  C   LIG d   1       4.551  -0.653  -6.135  0.00  0.00     0.141 A 
ATOM      2  C   LIG d   1       4.034  -0.289  -4.901  0.00  0.00    -0.007 A 
ATOM      3  C   LIG d   1       4.070  -1.180  -3.845  0.00  0.00     0.058 A 
ATOM      4  C   LIG d   1       4.621  -2.439  -4.008  0.00  0.00    -0.049 A 
ATOM      5  C   LIG d   1       5.140  -2.819  -5.227  0.00  0.00    -0.049 A 
ATOM      6  C   LIG d   1       5.105  -1.930  -6.306  0.00  0.00     0.040 A 
ATOM      7  H   LIG d   1       3.603   0.691  -4.765  0.00  0.00     0.066 H 
ATOM      8  H   LIG d   1       4.645  -3.128  -3.176  0.00  0.00     0.062 H 
ATOM      9  H   LIG d   1       5.569  -3.803  -5.349  0.00  0.00     0.062 H 
ENDROOT
BRANCH   1  10
ATOM     10  O   LIG d   1       4.517   0.220  -7.172  0.00  0.00    -0.425 OA
BRANCH  10  11
ATOM     11  C   LIG d   1       3.316   0.619  -7.621  0.00  0.00     0.309 C 
ATOM     12  O   LIG d   1       2.991   1.779  -7.528  0.00  0.00    -0.251 OA
BRANCH  11  13
ATOM     13  C   LIG d   1       2.373  -0.382  -8.239  0.00  0.00     0.034 C 
ATOM     14  H   LIG d   1       2.590  -0.475  -9.304  0.00  0.00     0.034 H 
ATOM     15  H   LIG d   1       2.501  -1.350  -7.756  0.00  0.00     0.034 H 
ATOM     16  H   LIG d   1       1.346  -0.042  -8.107  0.00  0.00     0.034 H 
ENDBRANCH  11  13
ENDBRANCH  10  11
ENDBRANCH   1  10
BRANCH   6  17
ATOM     17  C   LIG d   1       5.652  -2.332  -7.612  0.00  0.00     0.075 C 
ATOM     18  O   LIG d   1       4.939  -2.907  -8.423  0.00  0.00    -0.544 OA
ATOM     19  O   LIG d   1       6.820  -2.091  -7.887  0.00  0.00    -0.544 OA
ENDBRANCH   6  17
BRANCH   3  20
ATOM     20  C   LIG d   1       3.506  -0.775  -2.506  0.00  0.00     0.417 C 
ATOM     21  F   LIG d   1       4.175  -1.468  -1.491  0.00  0.00    -0.166 F 
ATOM     22  F   LIG d   1       3.680   0.601  -2.325  0.00  0.00    -0.166 F 
ATOM     23  F   LIG d   1       2.142  -1.084  -2.461  0.00  0.00    -0.166 F 
ENDBRANCH   3  20
TORSDOF 5
ENDMDL
MODEL 8
REMARK VINA RESULT:      -5.2      4.092      5.650
REMARK  5 active torsions:
REMARK  status: ('A' for Active; 'I' for Inactive)
REMARK    1  A    between atoms: C_1  and  C_2 
REMARK    2  A    between atoms: C_2  and  O_4 
REMARK    3  A    between atoms: O_4  and  C_5 
REMARK    4  A    between atoms: C_7  and  C_14 
REMARK    5  A    between atoms: C_10  and  C_11 
ROOT
ATOM      1  C   LIG d   1       4.081  -0.571  -6.196  0.00  0.00     0.141 A 
ATOM      2  C   LIG d   1       3.428   0.155  -7.181  0.00  0.00    -0.007 A 
ATOM      3  C   LIG d   1       3.115  -0.441  -8.387  0.00  0.00     0.058 A 
ATOM      4  C   LIG d   1       3.450  -1.764  -8.623  0.00  0.00    -0.049 A 
ATOM      5  C   LIG d   1       4.100  -2.501  -7.657  0.00  0.00    -0.049 A 
ATOM      6  C   LIG d   1       4.427  -1.909  -6.433  0.00  0.00     0.040 A 
ATOM      7  H   LIG d   1       3.163   1.186  -7.004  0.00  0.00     0.066 H 
ATOM      8  H   LIG d   1       3.201  -2.221  -9.570  0.00  0.00     0.062 H 
ATOM      9  H   LIG d   1       4.359  -3.532  -7.846  0.00  0.00     0.062 H 
ENDROOT
BRANCH   1  10
ATOM     10  O   LIG d   1       4.389   0.013  -5.010  0.00  0.00    -0.425 OA
BRANCH  10  11
ATOM     11  C   LIG d   1       3.376   0.393  -4.214  0.00  0.00     0.309 C 
ATOM     12  O   LIG d   1       3.130   1.567  -4.069  0.00  0.00    -0.251 OA
BRANCH  11  13
ATOM     13  C   LIG d   1       2.550  -0.645  -3.499  0.00  0.00     0.034 C 
ATOM     14  H   LIG d   1       1.574  -0.725  -3.980  0.00  0.00     0.034 H 
ATOM     15  H   LIG d   1       3.057  -1.608  -3.544  0.00  0.00     0.034 H 
ATOM     16  H   LIG d   1       2.418  -0.351  -2.459  0.00  0.00     0.034 H 
ENDBRANCH  11  13
ENDBRANCH  10  11
ENDBRANCH   1  10
BRANCH   6  17
ATOM     17  C   LIG d   1       5.128  -2.688  -5.399  0.00  0.00     0.075 C 
ATOM     18  O   LIG d   1       4.490  -3.380  -4.618  0.00  0.00    -0.544 OA
ATOM     19  O   LIG d   1       6.348  -2.642  -5.320  0.00  0.00    -0.544 OA
ENDBRANCH   6  17
BRANCH   3  20
ATOM     20  C   LIG d   1       2.403   0.354  -9.452  0.00  0.00     0.417 C 
ATOM     21  F   LIG d   1       1.178  -0.254  -9.746  0.00  0.00    -0.166 F 
ATOM     22  F   LIG d   1       2.180   1.655  -8.989  0.00  0.00    -0.166 F 
ATOM     23  F   LIG d   1       3.192   0.398 -10.607  0.00  0.00    -0.166 F 
ENDBRANCH   3  20
TORSDOF 5
ENDMDL
MODEL 9
REMARK VINA RESULT:      -5.0      1.697      2.333
REMARK  5 active torsions:
REMARK  status: ('A' for Active; 'I' for Inactive)
REMARK    1  A    between atoms: C_1  and  C_2 
REMARK    2  A    between atoms: C_2  and  O_4 
REMARK    3  A    between atoms: O_4  and  C_5 
REMARK    4  A    between atoms: C_7  and  C_14 
REMARK    5  A    between atoms: C_10  and  C_11 
ROOT
ATOM      1  C   LIG d   1       4.892  -0.781  -5.787  0.00  0.00     0.141 A 
ATOM      2  C   LIG d   1       5.038  -0.498  -4.437  0.00  0.00    -0.007 A 
ATOM      3  C   LIG d   1       4.049   0.192  -3.763  0.00  0.00     0.058 A 
ATOM      4  C   LIG d   1       2.906   0.606  -4.426  0.00  0.00    -0.049 A 
ATOM      5  C   LIG d   1       2.743   0.335  -5.767  0.00  0.00    -0.049 A 
ATOM      6  C   LIG d   1       3.739  -0.358  -6.464  0.00  0.00     0.040 A 
ATOM      7  H   LIG d   1       5.926  -0.818  -3.912  0.00  0.00     0.066 H 
ATOM      8  H   LIG d   1       2.138   1.145  -3.890  0.00  0.00     0.062 H 
ATOM      9  H   LIG d   1       1.850   0.660  -6.281  0.00  0.00     0.062 H 
ENDROOT
BRANCH   1  10
ATOM     10  O   LIG d   1       5.862  -1.459  -6.450  0.00  0.00    -0.425 OA
BRANCH  10  11
ATOM     11  C   LIG d   1       6.077  -2.741  -6.113  0.00  0.00     0.309 C 
ATOM     12  O   LIG d   1       5.211  -3.565  -6.288  0.00  0.00    -0.251 OA
BRANCH  11  13
ATOM     13  C   LIG d   1       7.398  -3.150  -5.514  0.00  0.00     0.034 C 
ATOM     14  H   LIG d   1       7.929  -2.263  -5.166  0.00  0.00     0.034 H 
ATOM     15  H   LIG d   1       7.225  -3.823  -4.675  0.00  0.00     0.034 H 
ATOM     16  H   LIG d   1       7.997  -3.658  -6.270  0.00  0.00     0.034 H 
ENDBRANCH  11  13
ENDBRANCH  10  11
ENDBRANCH   1  10
BRANCH   6  17
ATOM     17  C   LIG d   1       3.574  -0.645  -7.898  0.00  0.00     0.075 C 
ATOM     18  O   LIG d   1       3.857   0.206  -8.729  0.00  0.00    -0.544 OA
ATOM     19  O   LIG d   1       3.154  -1.736  -8.259  0.00  0.00    -0.544 OA
ENDBRANCH   6  17
BRANCH   3  20
ATOM     20  C   LIG d   1       4.215   0.494  -2.295  0.00  0.00     0.417 C 
ATOM     21  F   LIG d   1       4.057  -0.684  -1.557  0.00  0.00    -0.166 F 
ATOM     22  F   LIG d   1       5.492   1.019  -2.070  0.00  0.00    -0.166 F 
ATOM     23  F   LIG d   1       3.251   1.427  -1.898  0.00  0.00    -0.166 F 
ENDBRANCH   3  20
TORSDOF 5
ENDMDL
MODEL 10
REMARK VINA RESULT:      -5.0      2.688      3.908
REMARK  5 active torsions:
REMARK  status: ('A' for Active; 'I' for Inactive)
REMARK    1  A    between atoms: C_1  and  C_2 
REMARK    2  A    between atoms: C_2  and  O_4 
REMARK    3  A    between atoms: O_4  and  C_5 
REMARK    4  A    between atoms: C_7  and  C_14 
REMARK    5  A    between atoms: C_10  and  C_11 
ROOT
ATOM      1  C   LIG d   1       7.250   0.459  -4.305  0.00  0.00     0.141 A 
ATOM      2  C   LIG d   1       6.463   0.537  -3.165  0.00  0.00    -0.007 A 
ATOM      3  C   LIG d   1       5.150   0.109  -3.199  0.00  0.00     0.058 A 
ATOM      4  C   LIG d   1       4.609  -0.400  -4.368  0.00  0.00    -0.049 A 
ATOM      5  C   LIG d   1       5.375  -0.485  -5.510  0.00  0.00    -0.049 A 
ATOM      6  C   LIG d   1       6.704  -0.051  -5.492  0.00  0.00     0.040 A 
ATOM      7  H   LIG d   1       6.878   0.933  -2.250  0.00  0.00     0.066 H 
ATOM      8  H   LIG d   1       3.581  -0.733  -4.384  0.00  0.00     0.062 H 
ATOM      9  H   LIG d   1       4.948  -0.883  -6.419  0.00  0.00     0.062 H 
ENDROOT
BRANCH   1  10
ATOM     10  O   LIG d   1       8.540   0.879  -4.273  0.00  0.00    -0.425 OA
BRANCH  10  11
ATOM     11  C   LIG d   1       8.771   2.195  -4.136  0.00  0.00     0.309 C 
ATOM     12  O   LIG d   1       9.057   2.648  -3.052  0.00  0.00    -0.251 OA
BRANCH  11  13
ATOM     13  C   LIG d   1       8.673   3.105  -5.332  0.00  0.00     0.034 C 
ATOM     14  H   LIG d   1       9.648   3.555  -5.527  0.00  0.00     0.034 H 
ATOM     15  H   LIG d   1       8.358   2.530  -6.202  0.00  0.00     0.034 H 
ATOM     16  H   LIG d   1       7.945   3.891  -5.132  0.00  0.00     0.034 H 
ENDBRANCH  11  13
ENDBRANCH  10  11
ENDBRANCH   1  10
BRANCH   6  17
ATOM     17  C   LIG d   1       7.526  -0.132  -6.710  0.00  0.00     0.075 C 
ATOM     18  O   LIG d   1       8.286  -1.076  -6.873  0.00  0.00    -0.544 OA
ATOM     19  O   LIG d   1       7.449   0.745  -7.560  0.00  0.00    -0.544 OA
ENDBRANCH   6  17
BRANCH   3  20
ATOM     20  C   LIG d   1       4.303   0.197  -1.956  0.00  0.00     0.417 C 
ATOM     21  F   LIG d   1       4.339  -1.028  -1.281  0.00  0.00    -0.166 F 
ATOM     22  F   LIG d   1       4.802   1.203  -1.123  0.00  0.00    -0.166 F 
ATOM     23  F   LIG d   1       2.983   0.496  -2.310  0.00  0.00    -0.166 F 
ENDBRANCH   3  20
TORSDOF 5
ENDMDL
