MODEL 1
REMARK VINA RESULT:      -7.9      0.000      0.000
REMARK  4 active torsions:
REMARK  status: ('A' for Active; 'I' for Inactive)
REMARK    1  A    between atoms: C_1  and  N_2 
REMARK    2  A    between atoms: C_11  and  C_12 
REMARK    3  A    between atoms: C_14  and  C_18 
REMARK    4  A    between atoms: C_23  and  O_24 
ROOT
ATOM      1  N   LIG d   1       5.388  -0.231 -10.657  0.00  0.00    -0.356 N 
ATOM      2  C   LIG d   1       4.463  -0.683 -11.576  0.00  0.00     0.052 A 
ATOM      3  C   LIG d   1       4.852  -1.012 -12.871  0.00  0.00    -0.037 A 
ATOM      4  C   LIG d   1       3.916  -1.463 -13.777  0.00  0.00    -0.060 A 
ATOM      5  C   LIG d   1       2.584  -1.592 -13.411  0.00  0.00    -0.061 A 
ATOM      6  C   LIG d   1       2.178  -1.272 -12.136  0.00  0.00    -0.049 A 
ATOM      7  C   LIG d   1       3.114  -0.815 -11.208  0.00  0.00     0.046 A 
ATOM      8  C   LIG d   1       2.714  -0.463  -9.833  0.00  0.00     0.198 A 
ATOM      9  O   LIG d   1       1.554  -0.563  -9.470  0.00  0.00    -0.286 OA
ATOM     10  C   LIG d   1       3.724  -0.004  -8.945  0.00  0.00     0.056 A 
ATOM     11  C   LIG d   1       5.037   0.091  -9.390  0.00  0.00    -0.023 A 
ATOM     12  O   LIG d   1       5.987   0.523  -8.536  0.00  0.00    -0.861 OA
ATOM     13  H   LIG d   1       5.886  -0.915 -13.166  0.00  0.00     0.064 H 
ATOM     14  H   LIG d   1       4.222  -1.716 -14.780  0.00  0.00     0.062 H 
ATOM     15  H   LIG d   1       1.861  -1.946 -14.132  0.00  0.00     0.062 H 
ATOM     16  H   LIG d   1       1.140  -1.374 -11.854  0.00  0.00     0.062 H 
ENDROOT
BRANCH  10  17
ATOM     17  C   LIG d   1       3.382   0.360  -7.562  0.00  0.00     0.096 C 
ATOM     18  N   LIG d   1       2.884   1.491  -7.177  0.00  0.00    -0.088 NA
ATOM     19  O   LIG d   1       2.665   1.547  -5.781  0.00  0.00    -0.385 OA
ATOM     20  C   LIG d   1       2.689   0.195  -5.279  0.00  0.00     0.162 C 
ATOM     21  C   LIG d   1       3.560  -0.521  -6.340  0.00  0.00     0.037 C 
ATOM     22  H   LIG d   1       1.685  -0.228  -5.251  0.00  0.00     0.082 H 
ATOM     23  H   LIG d   1       3.187  -1.527  -6.532  0.00  0.00     0.037 H 
ATOM     24  H   LIG d   1       4.604  -0.546  -6.030  0.00  0.00     0.037 H 
BRANCH  20  25
ATOM     25  C   LIG d   1       3.336   0.134  -3.920  0.00  0.00     0.037 A 
ATOM     26  C   LIG d   1       3.644  -1.094  -3.352  0.00  0.00     0.124 A 
ATOM     27  C   LIG d   1       4.244  -1.147  -2.103  0.00  0.00    -0.020 A 
ATOM     28  C   LIG d   1       4.525   0.023  -1.423  0.00  0.00    -0.058 A 
ATOM     29  H   LIG d   1       4.489  -2.101  -1.660  0.00  0.00     0.065 H 
ATOM     30  C   LIG d   1       4.213   1.245  -1.989  0.00  0.00    -0.061 A 
ATOM     31  H   LIG d   1       4.989  -0.017  -0.449  0.00  0.00     0.062 H 
ATOM     32  C   LIG d   1       3.618   1.301  -3.236  0.00  0.00    -0.051 A 
ATOM     33  H   LIG d   1       4.433   2.159  -1.456  0.00  0.00     0.062 H 
ATOM     34  H   LIG d   1       3.375   2.257  -3.677  0.00  0.00     0.062 H 
BRANCH  26  35
ATOM     35  O   LIG d   1       3.361  -2.243  -4.021  0.00  0.00    -0.506 OA
ATOM     36  H   LIG d   1       3.518  -3.045  -3.506  0.00  0.00     0.292 HD
ENDBRANCH  26  35
ENDBRANCH  20  25
ENDBRANCH  10  17
BRANCH   1  37
ATOM     37  C   LIG d   1       6.790  -0.101 -11.063  0.00  0.00     0.011 C 
ATOM     38  H   LIG d   1       6.844   0.410 -12.024  0.00  0.00     0.045 H 
ATOM     39  H   LIG d   1       7.333   0.475 -10.314  0.00  0.00     0.045 H 
ATOM     40  H   LIG d   1       7.235  -1.092 -11.152  0.00  0.00     0.045 H 
ENDBRANCH   1  37
TORSDOF 4
ENDMDL
MODEL 2
REMARK VINA RESULT:      -7.6      5.477      8.257
REMARK  4 active torsions:
REMARK  status: ('A' for Active; 'I' for Inactive)
REMARK    1  A    between atoms: C_1  and  N_2 
REMARK    2  A    between atoms: C_11  and  C_12 
REMARK    3  A    between atoms: C_14  and  C_18 
REMARK    4  A    between atoms: C_23  and  O_24 
ROOT
ATOM      1  N   LIG d   1       6.176  -0.904  -5.217  0.00  0.00    -0.356 N 
ATOM      2  C   LIG d   1       5.658  -0.445  -4.023  0.00  0.00     0.052 A 
ATOM      3  C   LIG d   1       5.924   0.848  -3.584  0.00  0.00    -0.037 A 
ATOM      4  C   LIG d   1       5.398   1.291  -2.389  0.00  0.00    -0.060 A 
ATOM      5  C   LIG d   1       4.605   0.458  -1.614  0.00  0.00    -0.061 A 
ATOM      6  C   LIG d   1       4.330  -0.826  -2.029  0.00  0.00    -0.049 A 
ATOM      7  C   LIG d   1       4.854  -1.287  -3.237  0.00  0.00     0.046 A 
ATOM      8  C   LIG d   1       4.580  -2.656  -3.712  0.00  0.00     0.198 A 
ATOM      9  O   LIG d   1       3.887  -3.421  -3.062  0.00  0.00    -0.286 OA
ATOM     10  C   LIG d   1       5.149  -3.055  -4.951  0.00  0.00     0.056 A 
ATOM     11  C   LIG d   1       5.928  -2.156  -5.669  0.00  0.00    -0.023 A 
ATOM     12  O   LIG d   1       6.459  -2.544  -6.847  0.00  0.00    -0.861 OA
ATOM     13  H   LIG d   1       6.540   1.505  -4.179  0.00  0.00     0.064 H 
ATOM     14  H   LIG d   1       5.608   2.295  -2.053  0.00  0.00     0.062 H 
ATOM     15  H   LIG d   1       4.201   0.818  -0.680  0.00  0.00     0.062 H 
ATOM     16  H   LIG d   1       3.712  -1.472  -1.424  0.00  0.00     0.062 H 
ENDROOT
BRANCH  10  17
ATOM     17  C   LIG d   1       4.909  -4.408  -5.474  0.00  0.00     0.096 C 
ATOM     18  N   LIG d   1       3.846  -4.803  -6.097  0.00  0.00    -0.088 NA
ATOM     19  O   LIG d   1       3.906  -6.164  -6.476  0.00  0.00    -0.385 OA
ATOM     20  C   LIG d   1       5.285  -6.578  -6.407  0.00  0.00     0.162 C 
ATOM     21  C   LIG d   1       5.862  -5.583  -5.370  0.00  0.00     0.037 C 
ATOM     22  H   LIG d   1       5.776  -6.460  -7.373  0.00  0.00     0.082 H 
ATOM     23  H   LIG d   1       6.875  -5.286  -5.641  0.00  0.00     0.037 H 
ATOM     24  H   LIG d   1       5.838  -6.013  -4.368  0.00  0.00     0.037 H 
BRANCH  20  25
ATOM     25  C   LIG d   1       5.400  -7.997  -5.915  0.00  0.00     0.037 A 
ATOM     26  C   LIG d   1       4.702  -9.011  -6.555  0.00  0.00     0.124 A 
ATOM     27  C   LIG d   1       4.814 -10.319  -6.103  0.00  0.00    -0.020 A 
ATOM     28  C   LIG d   1       5.612 -10.604  -5.012  0.00  0.00    -0.058 A 
ATOM     29  H   LIG d   1       4.276 -11.111  -6.601  0.00  0.00     0.065 H 
ATOM     30  C   LIG d   1       6.303  -9.591  -4.374  0.00  0.00    -0.061 A 
ATOM     31  H   LIG d   1       5.698 -11.622  -4.658  0.00  0.00     0.062 H 
ATOM     32  C   LIG d   1       6.197  -8.289  -4.824  0.00  0.00    -0.051 A 
ATOM     33  H   LIG d   1       6.927  -9.817  -3.521  0.00  0.00     0.062 H 
ATOM     34  H   LIG d   1       6.737  -7.498  -4.325  0.00  0.00     0.062 H 
BRANCH  26  35
ATOM     35  O   LIG d   1       3.913  -8.726  -7.624  0.00  0.00    -0.506 OA
ATOM     36  H   LIG d   1       3.838  -7.782  -7.815  0.00  0.00     0.292 HD
ENDBRANCH  26  35
ENDBRANCH  20  25
ENDBRANCH  10  17
BRANCH   1  37
ATOM     37  C   LIG d   1       7.012  -0.008  -6.021  0.00  0.00     0.011 C 
ATOM     38  H   LIG d   1       7.312   0.848  -5.417  0.00  0.00     0.045 H 
ATOM     39  H   LIG d   1       7.899  -0.544  -6.357  0.00  0.00     0.045 H 
ATOM     40  H   LIG d   1       6.446   0.337  -6.886  0.00  0.00     0.045 H 
ENDBRANCH   1  37
TORSDOF 4
ENDMDL
MODEL 3
REMARK VINA RESULT:      -7.4      1.150      2.683
REMARK  4 active torsions:
REMARK  status: ('A' for Active; 'I' for Inactive)
REMARK    1  A    between atoms: C_1  and  N_2 
REMARK    2  A    between atoms: C_11  and  C_12 
REMARK    3  A    between atoms: C_14  and  C_18 
REMARK    4  A    between atoms: C_23  and  O_24 
ROOT
ATOM      1  N   LIG d   1       2.771  -0.864 -11.218  0.00  0.00    -0.356 N 
ATOM      2  C   LIG d   1       4.037  -0.894 -11.766  0.00  0.00     0.052 A 
ATOM      3  C   LIG d   1       4.228  -1.272 -13.091  0.00  0.00    -0.037 A 
ATOM      4  C   LIG d   1       5.500  -1.296 -13.623  0.00  0.00    -0.060 A 
ATOM      5  C   LIG d   1       6.597  -0.948 -12.848  0.00  0.00    -0.061 A 
ATOM      6  C   LIG d   1       6.430  -0.572 -11.534  0.00  0.00    -0.049 A 
ATOM      7  C   LIG d   1       5.149  -0.542 -10.982  0.00  0.00     0.046 A 
ATOM      8  C   LIG d   1       4.934  -0.144  -9.579  0.00  0.00     0.198 A 
ATOM      9  O   LIG d   1       5.870   0.170  -8.864  0.00  0.00    -0.286 OA
ATOM     10  C   LIG d   1       3.601  -0.138  -9.088  0.00  0.00     0.056 A 
ATOM     11  C   LIG d   1       2.557  -0.495  -9.933  0.00  0.00    -0.023 A 
ATOM     12  O   LIG d   1       1.295  -0.481  -9.456  0.00  0.00    -0.861 OA
ATOM     13  H   LIG d   1       3.382  -1.544 -13.703  0.00  0.00     0.064 H 
ATOM     14  H   LIG d   1       5.643  -1.590 -14.652  0.00  0.00     0.062 H 
ATOM     15  H   LIG d   1       7.588  -0.972 -13.278  0.00  0.00     0.062 H 
ATOM     16  H   LIG d   1       7.286  -0.302 -10.934  0.00  0.00     0.062 H 
ENDROOT
BRANCH  10  17
ATOM     17  C   LIG d   1       3.327   0.250  -7.697  0.00  0.00     0.096 C 
ATOM     18  N   LIG d   1       3.004   1.435  -7.289  0.00  0.00    -0.088 NA
ATOM     19  O   LIG d   1       2.807   1.499  -5.890  0.00  0.00    -0.385 OA
ATOM     20  C   LIG d   1       2.634   0.151  -5.410  0.00  0.00     0.162 C 
ATOM     21  C   LIG d   1       3.382  -0.668  -6.490  0.00  0.00     0.037 C 
ATOM     22  H   LIG d   1       1.579  -0.120  -5.378  0.00  0.00     0.082 H 
ATOM     23  H   LIG d   1       2.863  -1.605  -6.693  0.00  0.00     0.037 H 
ATOM     24  H   LIG d   1       4.414  -0.852  -6.190  0.00  0.00     0.037 H 
BRANCH  20  25
ATOM     25  C   LIG d   1       3.275  -0.028  -4.058  0.00  0.00     0.037 A 
ATOM     26  C   LIG d   1       3.562   1.081  -3.274  0.00  0.00     0.124 A 
ATOM     27  C   LIG d   1       4.147   0.913  -2.027  0.00  0.00    -0.020 A 
ATOM     28  C   LIG d   1       4.451  -0.356  -1.575  0.00  0.00    -0.058 A 
ATOM     29  H   LIG d   1       4.368   1.773  -1.414  0.00  0.00     0.065 H 
ATOM     30  C   LIG d   1       4.169  -1.459  -2.359  0.00  0.00    -0.061 A 
ATOM     31  H   LIG d   1       4.910  -0.487  -0.605  0.00  0.00     0.062 H 
ATOM     32  C   LIG d   1       3.582  -1.295  -3.600  0.00  0.00    -0.051 A 
ATOM     33  H   LIG d   1       4.407  -2.450  -2.003  0.00  0.00     0.062 H 
ATOM     34  H   LIG d   1       3.361  -2.157  -4.212  0.00  0.00     0.062 H 
BRANCH  26  35
ATOM     35  O   LIG d   1       3.267   2.328  -3.726  0.00  0.00    -0.506 OA
ATOM     36  H   LIG d   1       2.873   2.905  -3.057  0.00  0.00     0.292 HD
ENDBRANCH  26  35
ENDBRANCH  20  25
ENDBRANCH  10  17
BRANCH   1  37
ATOM     37  C   LIG d   1       1.625  -1.235 -12.053  0.00  0.00     0.011 C 
ATOM     38  H   LIG d   1       1.982  -1.669 -12.987  0.00  0.00     0.045 H 
ATOM     39  H   LIG d   1       1.012  -1.964 -11.524  0.00  0.00     0.045 H 
ATOM     40  H   LIG d   1       1.030  -0.347 -12.268  0.00  0.00     0.045 H 
ENDBRANCH   1  37
TORSDOF 4
ENDMDL
MODEL 4
REMARK VINA RESULT:      -7.3      5.814      8.345
REMARK  4 active torsions:
REMARK  status: ('A' for Active; 'I' for Inactive)
REMARK    1  A    between atoms: C_1  and  N_2 
REMARK    2  A    between atoms: C_11  and  C_12 
REMARK    3  A    between atoms: C_14  and  C_18 
REMARK    4  A    between atoms: C_23  and  O_24 
ROOT
ATOM      1  N   LIG d   1       7.045  -1.629  -4.668  0.00  0.00    -0.356 N 
ATOM      2  C   LIG d   1       5.907  -1.595  -3.888  0.00  0.00     0.052 A 
ATOM      3  C   LIG d   1       5.094  -2.718  -3.771  0.00  0.00    -0.037 A 
ATOM      4  C   LIG d   1       3.960  -2.668  -2.987  0.00  0.00    -0.060 A 
ATOM      5  C   LIG d   1       3.620  -1.506  -2.311  0.00  0.00    -0.061 A 
ATOM      6  C   LIG d   1       4.410  -0.384  -2.414  0.00  0.00    -0.049 A 
ATOM      7  C   LIG d   1       5.560  -0.419  -3.203  0.00  0.00     0.046 A 
ATOM      8  C   LIG d   1       6.429   0.764  -3.335  0.00  0.00     0.198 A 
ATOM      9  O   LIG d   1       6.166   1.806  -2.757  0.00  0.00    -0.286 OA
ATOM     10  C   LIG d   1       7.583   0.652  -4.157  0.00  0.00     0.056 A 
ATOM     11  C   LIG d   1       7.856  -0.552  -4.795  0.00  0.00    -0.023 A 
ATOM     12  O   LIG d   1       8.957  -0.648  -5.568  0.00  0.00    -0.861 OA
ATOM     13  H   LIG d   1       5.349  -3.628  -4.293  0.00  0.00     0.064 H 
ATOM     14  H   LIG d   1       3.333  -3.542  -2.900  0.00  0.00     0.062 H 
ATOM     15  H   LIG d   1       2.728  -1.482  -1.701  0.00  0.00     0.062 H 
ATOM     16  H   LIG d   1       4.141   0.520  -1.886  0.00  0.00     0.062 H 
ENDROOT
BRANCH  10  17
ATOM     17  C   LIG d   1       8.485   1.800  -4.325  0.00  0.00     0.096 C 
ATOM     18  N   LIG d   1       9.411   2.165  -3.497  0.00  0.00    -0.088 NA
ATOM     19  O   LIG d   1      10.114   3.312  -3.932  0.00  0.00    -0.385 OA
ATOM     20  C   LIG d   1       9.853   3.479  -5.340  0.00  0.00     0.162 C 
ATOM     21  C   LIG d   1       8.488   2.765  -5.495  0.00  0.00     0.037 C 
ATOM     22  H   LIG d   1      10.620   2.987  -5.939  0.00  0.00     0.082 H 
ATOM     23  H   LIG d   1       8.439   2.226  -6.441  0.00  0.00     0.037 H 
ATOM     24  H   LIG d   1       7.668   3.478  -5.411  0.00  0.00     0.037 H 
BRANCH  20  25
ATOM     25  C   LIG d   1       9.744   4.937  -5.701  0.00  0.00     0.037 A 
ATOM     26  C   LIG d   1      10.050   5.359  -6.987  0.00  0.00     0.124 A 
ATOM     27  C   LIG d   1       9.942   6.702  -7.318  0.00  0.00    -0.020 A 
ATOM     28  C   LIG d   1       9.541   7.617  -6.363  0.00  0.00    -0.058 A 
ATOM     29  H   LIG d   1      10.176   7.033  -8.318  0.00  0.00     0.065 H 
ATOM     30  C   LIG d   1       9.241   7.195  -5.081  0.00  0.00    -0.061 A 
ATOM     31  H   LIG d   1       9.461   8.663  -6.619  0.00  0.00     0.062 H 
ATOM     32  C   LIG d   1       9.343   5.857  -4.750  0.00  0.00    -0.051 A 
ATOM     33  H   LIG d   1       8.927   7.912  -4.336  0.00  0.00     0.062 H 
ATOM     34  H   LIG d   1       9.109   5.528  -3.748  0.00  0.00     0.062 H 
BRANCH  26  35
ATOM     35  O   LIG d   1      10.450   4.458  -7.922  0.00  0.00    -0.506 OA
ATOM     36  H   LIG d   1       9.723   3.980  -8.343  0.00  0.00     0.292 HD
ENDBRANCH  26  35
ENDBRANCH  20  25
ENDBRANCH  10  17
BRANCH   1  37
ATOM     37  C   LIG d   1       7.388  -2.866  -5.374  0.00  0.00     0.011 C 
ATOM     38  H   LIG d   1       7.977  -3.507  -4.717  0.00  0.00     0.045 H 
ATOM     39  H   LIG d   1       6.474  -3.385  -5.664  0.00  0.00     0.045 H 
ATOM     40  H   LIG d   1       7.969  -2.627  -6.265  0.00  0.00     0.045 H 
ENDBRANCH   1  37
TORSDOF 4
ENDMDL
MODEL 5
REMARK VINA RESULT:      -7.1      6.035      8.414
REMARK  4 active torsions:
REMARK  status: ('A' for Active; 'I' for Inactive)
REMARK    1  A    between atoms: C_1  and  N_2 
REMARK    2  A    between atoms: C_11  and  C_12 
REMARK    3  A    between atoms: C_14  and  C_18 
REMARK    4  A    between atoms: C_23  and  O_24 
ROOT
ATOM      1  N   LIG d   1       7.094  -1.491  -4.774  0.00  0.00    -0.356 N 
ATOM      2  C   LIG d   1       5.960  -1.600  -3.996  0.00  0.00     0.052 A 
ATOM      3  C   LIG d   1       5.233  -2.786  -3.963  0.00  0.00    -0.037 A 
ATOM      4  C   LIG d   1       4.102  -2.878  -3.179  0.00  0.00    -0.060 A 
ATOM      5  C   LIG d   1       3.678  -1.797  -2.420  0.00  0.00    -0.061 A 
ATOM      6  C   LIG d   1       4.382  -0.614  -2.439  0.00  0.00    -0.049 A 
ATOM      7  C   LIG d   1       5.529  -0.506  -3.227  0.00  0.00     0.046 A 
ATOM      8  C   LIG d   1       6.307   0.745  -3.271  0.00  0.00     0.198 A 
ATOM      9  O   LIG d   1       5.970   1.719  -2.618  0.00  0.00    -0.286 OA
ATOM     10  C   LIG d   1       7.463   0.780  -4.096  0.00  0.00     0.056 A 
ATOM     11  C   LIG d   1       7.822  -0.351  -4.820  0.00  0.00    -0.023 A 
ATOM     12  O   LIG d   1       8.924  -0.308  -5.596  0.00  0.00    -0.861 OA
ATOM     13  H   LIG d   1       5.554  -3.633  -4.549  0.00  0.00     0.064 H 
ATOM     14  H   LIG d   1       3.542  -3.800  -3.157  0.00  0.00     0.062 H 
ATOM     15  H   LIG d   1       2.790  -1.884  -1.812  0.00  0.00     0.062 H 
ATOM     16  H   LIG d   1       4.049   0.226  -1.847  0.00  0.00     0.062 H 
ENDROOT
BRANCH  10  17
ATOM     17  C   LIG d   1       8.277   2.001  -4.178  0.00  0.00     0.096 C 
ATOM     18  N   LIG d   1       8.104   2.973  -5.015  0.00  0.00    -0.088 NA
ATOM     19  O   LIG d   1       9.050   4.012  -4.852  0.00  0.00    -0.385 OA
ATOM     20  C   LIG d   1       9.657   3.852  -3.554  0.00  0.00     0.162 C 
ATOM     21  C   LIG d   1       9.468   2.336  -3.301  0.00  0.00     0.037 C 
ATOM     22  H   LIG d   1       9.130   4.440  -2.802  0.00  0.00     0.082 H 
ATOM     23  H   LIG d   1       9.243   2.144  -2.252  0.00  0.00     0.037 H 
ATOM     24  H   LIG d   1      10.350   1.779  -3.617  0.00  0.00     0.037 H 
BRANCH  20  25
ATOM     25  C   LIG d   1      11.119   4.215  -3.592  0.00  0.00     0.037 A 
ATOM     26  C   LIG d   1      11.807   4.446  -2.410  0.00  0.00     0.124 A 
ATOM     27  C   LIG d   1      13.155   4.775  -2.448  0.00  0.00    -0.020 A 
ATOM     28  C   LIG d   1      13.804   4.880  -3.663  0.00  0.00    -0.058 A 
ATOM     29  H   LIG d   1      13.695   4.951  -1.530  0.00  0.00     0.065 H 
ATOM     30  C   LIG d   1      13.114   4.654  -4.840  0.00  0.00    -0.061 A 
ATOM     31  H   LIG d   1      14.852   5.139  -3.694  0.00  0.00     0.062 H 
ATOM     32  C   LIG d   1      11.773   4.322  -4.804  0.00  0.00    -0.051 A 
ATOM     33  H   LIG d   1      13.624   4.737  -5.789  0.00  0.00     0.062 H 
ATOM     34  H   LIG d   1      11.235   4.145  -5.724  0.00  0.00     0.062 H 
BRANCH  26  35
ATOM     35  O   LIG d   1      11.165   4.347  -1.217  0.00  0.00    -0.506 OA
ATOM     36  H   LIG d   1      10.890   5.197  -0.847  0.00  0.00     0.292 HD
ENDBRANCH  26  35
ENDBRANCH  20  25
ENDBRANCH  10  17
BRANCH   1  37
ATOM     37  C   LIG d   1       7.526  -2.645  -5.568  0.00  0.00     0.011 C 
ATOM     38  H   LIG d   1       8.333  -2.344  -6.236  0.00  0.00     0.045 H 
ATOM     39  H   LIG d   1       7.880  -3.432  -4.903  0.00  0.00     0.045 H 
ATOM     40  H   LIG d   1       6.686  -3.015  -6.156  0.00  0.00     0.045 H 
ENDBRANCH   1  37
TORSDOF 4
ENDMDL
MODEL 6
REMARK VINA RESULT:      -6.9      2.037      7.748
REMARK  4 active torsions:
REMARK  status: ('A' for Active; 'I' for Inactive)
REMARK    1  A    between atoms: C_1  and  N_2 
REMARK    2  A    between atoms: C_11  and  C_12 
REMARK    3  A    between atoms: C_14  and  C_18 
REMARK    4  A    between atoms: C_23  and  O_24 
ROOT
ATOM      1  N   LIG d   1       5.553  -1.784  -4.715  0.00  0.00    -0.356 N 
ATOM      2  C   LIG d   1       4.890  -0.879  -3.912  0.00  0.00     0.052 A 
ATOM      3  C   LIG d   1       5.155  -0.813  -2.547  0.00  0.00    -0.037 A 
ATOM      4  C   LIG d   1       4.484   0.098  -1.759  0.00  0.00    -0.060 A 
ATOM      5  C   LIG d   1       3.543   0.954  -2.313  0.00  0.00    -0.061 A 
ATOM      6  C   LIG d   1       3.265   0.905  -3.660  0.00  0.00    -0.049 A 
ATOM      7  C   LIG d   1       3.936  -0.011  -4.471  0.00  0.00     0.046 A 
ATOM      8  C   LIG d   1       3.664  -0.091  -5.917  0.00  0.00     0.198 A 
ATOM      9  O   LIG d   1       2.845   0.644  -6.444  0.00  0.00    -0.286 OA
ATOM     10  C   LIG d   1       4.386  -1.049  -6.677  0.00  0.00     0.056 A 
ATOM     11  C   LIG d   1       5.317  -1.865  -6.046  0.00  0.00    -0.023 A 
ATOM     12  O   LIG d   1       6.000  -2.768  -6.779  0.00  0.00    -0.861 OA
ATOM     13  H   LIG d   1       5.885  -1.474  -2.106  0.00  0.00     0.064 H 
ATOM     14  H   LIG d   1       4.693   0.145  -0.701  0.00  0.00     0.062 H 
ATOM     15  H   LIG d   1       3.025   1.662  -1.682  0.00  0.00     0.062 H 
ATOM     16  H   LIG d   1       2.532   1.572  -4.088  0.00  0.00     0.062 H 
ENDROOT
BRANCH  10  17
ATOM     17  C   LIG d   1       4.155  -1.172  -8.124  0.00  0.00     0.096 C 
ATOM     18  N   LIG d   1       4.728  -0.468  -9.046  0.00  0.00    -0.088 NA
ATOM     19  O   LIG d   1       4.298  -0.815 -10.348  0.00  0.00    -0.385 OA
ATOM     20  C   LIG d   1       3.661  -2.106 -10.269  0.00  0.00     0.162 C 
ATOM     21  C   LIG d   1       3.199  -2.142  -8.792  0.00  0.00     0.037 C 
ATOM     22  H   LIG d   1       4.374  -2.906 -10.473  0.00  0.00     0.082 H 
ATOM     23  H   LIG d   1       3.309  -3.143  -8.376  0.00  0.00     0.037 H 
ATOM     24  H   LIG d   1       2.169  -1.794  -8.701  0.00  0.00     0.037 H 
BRANCH  20  25
ATOM     25  C   LIG d   1       2.483  -2.186 -11.206  0.00  0.00     0.037 A 
ATOM     26  C   LIG d   1       1.548  -1.162 -11.234  0.00  0.00     0.124 A 
ATOM     27  C   LIG d   1       0.468  -1.236 -12.101  0.00  0.00    -0.020 A 
ATOM     28  C   LIG d   1       0.321  -2.333 -12.926  0.00  0.00    -0.058 A 
ATOM     29  H   LIG d   1      -0.260  -0.438 -12.128  0.00  0.00     0.065 H 
ATOM     30  C   LIG d   1       1.251  -3.355 -12.893  0.00  0.00    -0.061 A 
ATOM     31  H   LIG d   1      -0.522  -2.393 -13.599  0.00  0.00     0.062 H 
ATOM     32  C   LIG d   1       2.331  -3.282 -12.034  0.00  0.00    -0.051 A 
ATOM     33  H   LIG d   1       1.135  -4.213 -13.540  0.00  0.00     0.062 H 
ATOM     34  H   LIG d   1       3.058  -4.081 -12.009  0.00  0.00     0.062 H 
BRANCH  26  35
ATOM     35  O   LIG d   1       1.692  -0.086 -10.416  0.00  0.00    -0.506 OA
ATOM     36  H   LIG d   1       1.893   0.737 -10.881  0.00  0.00     0.292 HD
ENDBRANCH  26  35
ENDBRANCH  20  25
ENDBRANCH  10  17
BRANCH   1  37
ATOM     37  C   LIG d   1       6.543  -2.679  -4.111  0.00  0.00     0.011 C 
ATOM     38  H   LIG d   1       6.992  -2.192  -3.245  0.00  0.00     0.045 H 
ATOM     39  H   LIG d   1       6.056  -3.602  -3.797  0.00  0.00     0.045 H 
ATOM     40  H   LIG d   1       7.319  -2.908  -4.842  0.00  0.00     0.045 H 
ENDBRANCH   1  37
TORSDOF 4
ENDMDL
MODEL 7
REMARK VINA RESULT:      -6.9      5.632      6.981
REMARK  4 active torsions:
REMARK  status: ('A' for Active; 'I' for Inactive)
REMARK    1  A    between atoms: C_1  and  N_2 
REMARK    2  A    between atoms: C_11  and  C_12 
REMARK    3  A    between atoms: C_14  and  C_18 
REMARK    4  A    between atoms: C_23  and  O_24 
ROOT
ATOM      1  N   LIG d   1       7.785  -6.704  -5.226  0.00  0.00    -0.356 N 
ATOM      2  C   LIG d   1       6.972  -7.794  -5.457  0.00  0.00     0.052 A 
ATOM      3  C   LIG d   1       7.503  -9.080  -5.494  0.00  0.00    -0.037 A 
ATOM      4  C   LIG d   1       6.676 -10.159  -5.726  0.00  0.00    -0.060 A 
ATOM      5  C   LIG d   1       5.315  -9.977  -5.924  0.00  0.00    -0.061 A 
ATOM      6  C   LIG d   1       4.770  -8.713  -5.893  0.00  0.00    -0.049 A 
ATOM      7  C   LIG d   1       5.593  -7.612  -5.659  0.00  0.00     0.046 A 
ATOM      8  C   LIG d   1       5.044  -6.244  -5.618  0.00  0.00     0.198 A 
ATOM      9  O   LIG d   1       3.853  -6.040  -5.787  0.00  0.00    -0.286 OA
ATOM     10  C   LIG d   1       5.944  -5.173  -5.375  0.00  0.00     0.056 A 
ATOM     11  C   LIG d   1       7.294  -5.443  -5.180  0.00  0.00    -0.023 A 
ATOM     12  O   LIG d   1       8.138  -4.418  -4.945  0.00  0.00    -0.861 OA
ATOM     13  H   LIG d   1       8.560  -9.233  -5.341  0.00  0.00     0.064 H 
ATOM     14  H   LIG d   1       7.092 -11.154  -5.754  0.00  0.00     0.062 H 
ATOM     15  H   LIG d   1       4.680 -10.832  -6.106  0.00  0.00     0.062 H 
ATOM     16  H   LIG d   1       3.710  -8.575  -6.048  0.00  0.00     0.062 H 
ENDROOT
BRANCH  10  17
ATOM     17  C   LIG d   1       5.451  -3.790  -5.323  0.00  0.00     0.096 C 
ATOM     18  N   LIG d   1       5.621  -2.889  -6.237  0.00  0.00    -0.088 NA
ATOM     19  O   LIG d   1       5.033  -1.648  -5.900  0.00  0.00    -0.385 OA
ATOM     20  C   LIG d   1       4.089  -1.885  -4.836  0.00  0.00     0.162 C 
ATOM     21  C   LIG d   1       4.661  -3.169  -4.187  0.00  0.00     0.037 C 
ATOM     22  H   LIG d   1       3.090  -2.062  -5.233  0.00  0.00     0.082 H 
ATOM     23  H   LIG d   1       3.856  -3.832  -3.868  0.00  0.00     0.037 H 
ATOM     24  H   LIG d   1       5.315  -2.921  -3.351  0.00  0.00     0.037 H 
BRANCH  20  25
ATOM     25  C   LIG d   1       4.083  -0.742  -3.855  0.00  0.00     0.037 A 
ATOM     26  C   LIG d   1       3.190   0.308  -4.018  0.00  0.00     0.124 A 
ATOM     27  C   LIG d   1       3.183   1.357  -3.110  0.00  0.00    -0.020 A 
ATOM     28  C   LIG d   1       4.071   1.358  -2.052  0.00  0.00    -0.058 A 
ATOM     29  H   LIG d   1       2.487   2.173  -3.232  0.00  0.00     0.065 H 
ATOM     30  C   LIG d   1       4.962   0.313  -1.894  0.00  0.00    -0.061 A 
ATOM     31  H   LIG d   1       4.068   2.176  -1.346  0.00  0.00     0.062 H 
ATOM     32  C   LIG d   1       4.969  -0.735  -2.794  0.00  0.00    -0.051 A 
ATOM     33  H   LIG d   1       5.656   0.316  -1.065  0.00  0.00     0.062 H 
ATOM     34  H   LIG d   1       5.666  -1.550  -2.670  0.00  0.00     0.062 H 
BRANCH  26  35
ATOM     35  O   LIG d   1       2.322   0.307  -5.064  0.00  0.00    -0.506 OA
ATOM     36  H   LIG d   1       1.490   0.764  -4.884  0.00  0.00     0.292 HD
ENDBRANCH  26  35
ENDBRANCH  20  25
ENDBRANCH  10  17
BRANCH   1  37
ATOM     37  C   LIG d   1       9.220  -6.917  -5.018  0.00  0.00     0.011 C 
ATOM     38  H   LIG d   1       9.673  -7.265  -5.946  0.00  0.00     0.045 H 
ATOM     39  H   LIG d   1       9.686  -5.980  -4.715  0.00  0.00     0.045 H 
ATOM     40  H   LIG d   1       9.366  -7.665  -4.238  0.00  0.00     0.045 H 
ENDBRANCH   1  37
TORSDOF 4
ENDMDL
MODEL 8
REMARK VINA RESULT:      -6.8      1.938      7.900
REMARK  4 active torsions:
REMARK  status: ('A' for Active; 'I' for Inactive)
REMARK    1  A    between atoms: C_1  and  N_2 
REMARK    2  A    between atoms: C_11  and  C_12 
REMARK    3  A    between atoms: C_14  and  C_18 
REMARK    4  A    between atoms: C_23  and  O_24 
ROOT
ATOM      1  N   LIG d   1       4.904  -2.254  -4.948  0.00  0.00    -0.356 N 
ATOM      2  C   LIG d   1       4.511  -1.269  -4.066  0.00  0.00     0.052 A 
ATOM      3  C   LIG d   1       4.812  -1.368  -2.711  0.00  0.00    -0.037 A 
ATOM      4  C   LIG d   1       4.412  -0.374  -1.843  0.00  0.00    -0.060 A 
ATOM      5  C   LIG d   1       3.710   0.729  -2.307  0.00  0.00    -0.061 A 
ATOM      6  C   LIG d   1       3.401   0.846  -3.643  0.00  0.00    -0.049 A 
ATOM      7  C   LIG d   1       3.800  -0.151  -4.534  0.00  0.00     0.046 A 
ATOM      8  C   LIG d   1       3.487  -0.058  -5.971  0.00  0.00     0.198 A 
ATOM      9  O   LIG d   1       2.872   0.895  -6.421  0.00  0.00    -0.286 OA
ATOM     10  C   LIG d   1       3.925  -1.112  -6.816  0.00  0.00     0.056 A 
ATOM     11  C   LIG d   1       4.629  -2.180  -6.272  0.00  0.00    -0.023 A 
ATOM     12  O   LIG d   1       5.044  -3.173  -7.085  0.00  0.00    -0.861 OA
ATOM     13  H   LIG d   1       5.357  -2.222  -2.339  0.00  0.00     0.064 H 
ATOM     14  H   LIG d   1       4.647  -0.456  -0.793  0.00  0.00     0.062 H 
ATOM     15  H   LIG d   1       3.403   1.499  -1.615  0.00  0.00     0.062 H 
ATOM     16  H   LIG d   1       2.854   1.706  -4.001  0.00  0.00     0.062 H 
ENDROOT
BRANCH  10  17
ATOM     17  C   LIG d   1       3.641  -1.071  -8.258  0.00  0.00     0.096 C 
ATOM     18  N   LIG d   1       2.576  -1.527  -8.834  0.00  0.00    -0.088 NA
ATOM     19  O   LIG d   1       2.591  -1.347 -10.237  0.00  0.00    -0.385 OA
ATOM     20  C   LIG d   1       3.597  -0.359 -10.541  0.00  0.00     0.162 C 
ATOM     21  C   LIG d   1       4.549  -0.494  -9.327  0.00  0.00     0.037 C 
ATOM     22  H   LIG d   1       3.162   0.640 -10.585  0.00  0.00     0.082 H 
ATOM     23  H   LIG d   1       4.931   0.481  -9.025  0.00  0.00     0.037 H 
ATOM     24  H   LIG d   1       5.367  -1.179  -9.552  0.00  0.00     0.037 H 
BRANCH  20  25
ATOM     25  C   LIG d   1       4.311  -0.691 -11.825  0.00  0.00     0.037 A 
ATOM     26  C   LIG d   1       3.586  -1.098 -12.936  0.00  0.00     0.124 A 
ATOM     27  C   LIG d   1       4.245  -1.398 -14.120  0.00  0.00    -0.020 A 
ATOM     28  C   LIG d   1       5.622  -1.301 -14.185  0.00  0.00    -0.058 A 
ATOM     29  H   LIG d   1       3.684  -1.711 -14.988  0.00  0.00     0.065 H 
ATOM     30  C   LIG d   1       6.342  -0.900 -13.075  0.00  0.00    -0.061 A 
ATOM     31  H   LIG d   1       6.137  -1.537 -15.105  0.00  0.00     0.062 H 
ATOM     32  C   LIG d   1       5.688  -0.596 -11.896  0.00  0.00    -0.051 A 
ATOM     33  H   LIG d   1       7.418  -0.824 -13.129  0.00  0.00     0.062 H 
ATOM     34  H   LIG d   1       6.251  -0.283 -11.030  0.00  0.00     0.062 H 
BRANCH  26  35
ATOM     35  O   LIG d   1       2.233  -1.198 -12.867  0.00  0.00    -0.506 OA
ATOM     36  H   LIG d   1       1.856  -0.865 -12.042  0.00  0.00     0.292 HD
ENDBRANCH  26  35
ENDBRANCH  20  25
ENDBRANCH  10  17
BRANCH   1  37
ATOM     37  C   LIG d   1       5.645  -3.411  -4.439  0.00  0.00     0.011 C 
ATOM     38  H   LIG d   1       6.052  -3.177  -3.455  0.00  0.00     0.045 H 
ATOM     39  H   LIG d   1       4.975  -4.267  -4.361  0.00  0.00     0.045 H 
ATOM     40  H   LIG d   1       6.461  -3.649  -5.122  0.00  0.00     0.045 H 
ENDBRANCH   1  37
TORSDOF 4
ENDMDL
MODEL 9
REMARK VINA RESULT:      -6.7      6.288      8.753
REMARK  4 active torsions:
REMARK  status: ('A' for Active; 'I' for Inactive)
REMARK    1  A    between atoms: C_1  and  N_2 
REMARK    2  A    between atoms: C_11  and  C_12 
REMARK    3  A    between atoms: C_14  and  C_18 
REMARK    4  A    between atoms: C_23  and  O_24 
ROOT
ATOM      1  N   LIG d   1      12.321   1.518  -4.635  0.00  0.00    -0.356 N 
ATOM      2  C   LIG d   1      12.574   2.633  -3.862  0.00  0.00     0.052 A 
ATOM      3  C   LIG d   1      13.881   3.044  -3.616  0.00  0.00    -0.037 A 
ATOM      4  C   LIG d   1      14.116   4.160  -2.842  0.00  0.00    -0.060 A 
ATOM      5  C   LIG d   1      13.062   4.882  -2.302  0.00  0.00    -0.061 A 
ATOM      6  C   LIG d   1      11.762   4.493  -2.533  0.00  0.00    -0.049 A 
ATOM      7  C   LIG d   1      11.507   3.365  -3.315  0.00  0.00     0.046 A 
ATOM      8  C   LIG d   1      10.127   2.920  -3.582  0.00  0.00     0.198 A 
ATOM      9  O   LIG d   1       9.171   3.526  -3.128  0.00  0.00    -0.286 OA
ATOM     10  C   LIG d   1       9.948   1.763  -4.387  0.00  0.00     0.056 A 
ATOM     11  C   LIG d   1      11.059   1.101  -4.894  0.00  0.00    -0.023 A 
ATOM     12  O   LIG d   1      10.875   0.006  -5.661  0.00  0.00    -0.861 OA
ATOM     13  H   LIG d   1      14.709   2.490  -4.031  0.00  0.00     0.064 H 
ATOM     14  H   LIG d   1      15.132   4.475  -2.654  0.00  0.00     0.062 H 
ATOM     15  H   LIG d   1      13.262   5.754  -1.697  0.00  0.00     0.062 H 
ATOM     16  H   LIG d   1      10.943   5.056  -2.111  0.00  0.00     0.062 H 
ENDROOT
BRANCH  10  17
ATOM     17  C   LIG d   1       8.594   1.274  -4.686  0.00  0.00     0.096 C 
ATOM     18  N   LIG d   1       7.896   1.568  -5.735  0.00  0.00    -0.088 NA
ATOM     19  O   LIG d   1       6.626   0.945  -5.741  0.00  0.00    -0.385 OA
ATOM     20  C   LIG d   1       6.662  -0.132  -4.784  0.00  0.00     0.162 C 
ATOM     21  C   LIG d   1       7.772   0.342  -3.815  0.00  0.00     0.037 C 
ATOM     22  H   LIG d   1       6.939  -1.071  -5.264  0.00  0.00     0.082 H 
ATOM     23  H   LIG d   1       8.374  -0.500  -3.475  0.00  0.00     0.037 H 
ATOM     24  H   LIG d   1       7.344   0.881  -2.970  0.00  0.00     0.037 H 
BRANCH  20  25
ATOM     25  C   LIG d   1       5.342  -0.264  -4.069  0.00  0.00     0.037 A 
ATOM     26  C   LIG d   1       4.157  -0.243  -4.789  0.00  0.00     0.124 A 
ATOM     27  C   LIG d   1       2.943  -0.370  -4.129  0.00  0.00    -0.020 A 
ATOM     28  C   LIG d   1       2.919  -0.506  -2.754  0.00  0.00    -0.058 A 
ATOM     29  H   LIG d   1       2.020  -0.359  -4.687  0.00  0.00     0.065 H 
ATOM     30  C   LIG d   1       4.101  -0.521  -2.037  0.00  0.00    -0.061 A 
ATOM     31  H   LIG d   1       1.974  -0.602  -2.238  0.00  0.00     0.062 H 
ATOM     32  C   LIG d   1       5.311  -0.400  -2.694  0.00  0.00    -0.051 A 
ATOM     33  H   LIG d   1       4.079  -0.628  -0.963  0.00  0.00     0.062 H 
ATOM     34  H   LIG d   1       6.234  -0.411  -2.133  0.00  0.00     0.062 H 
BRANCH  26  35
ATOM     35  O   LIG d   1       4.184  -0.103  -6.141  0.00  0.00    -0.506 OA
ATOM     36  H   LIG d   1       4.285   0.810  -6.439  0.00  0.00     0.292 HD
ENDBRANCH  26  35
ENDBRANCH  20  25
ENDBRANCH  10  17
BRANCH   1  37
ATOM     37  C   LIG d   1      13.448   0.770  -5.196  0.00  0.00     0.011 C 
ATOM     38  H   LIG d   1      14.171   0.558  -4.408  0.00  0.00     0.045 H 
ATOM     39  H   LIG d   1      13.087  -0.167  -5.620  0.00  0.00     0.045 H 
ATOM     40  H   LIG d   1      13.925   1.363  -5.977  0.00  0.00     0.045 H 
ENDBRANCH   1  37
TORSDOF 4
ENDMDL
