MODEL 1
REMARK VINA RESULT:      -6.5      0.000      0.000
REMARK  9 active torsions:
REMARK  status: ('A' for Active; 'I' for Inactive)
REMARK    1  A    between atoms: C_1  and  O_2 
REMARK    2  A    between atoms: O_2  and  C_3 
REMARK    3  A    between atoms: C_3  and  C_4 
REMARK    4  A    between atoms: C_4  and  O_5 
REMARK    5  A    between atoms: O_5  and  C_6 
REMARK    6  A    between atoms: C_10  and  C_12 
REMARK    7  A    between atoms: C_14  and  C_17 
REMARK    8  A    between atoms: N_22  and  C_23 
REMARK    9  A    between atoms: C_23  and  C_24 
ROOT
ATOM      1  C   LIG d   1       6.581   0.638  -4.396  0.00  0.00     0.267 A 
ATOM      2  N   LIG d   1       7.157   0.469  -5.600  0.00  0.00    -0.181 NA
ATOM      3  C   LIG d   1       7.898   1.501  -5.888  0.00  0.00     0.276 A 
ATOM      4  O   LIG d   1       7.824   2.374  -4.876  0.00  0.00    -0.332 OA
ATOM      5  N   LIG d   1       6.956   1.797  -3.912  0.00  0.00    -0.050 NA
ENDROOT
BRANCH   3   6
ATOM      6  C   LIG d   1       8.703   1.682  -7.149  0.00  0.00     0.060 C 
ATOM      7  H   LIG d   1       9.172   0.742  -7.442  0.00  0.00     0.095 H 
ATOM      8  N   LIG d   1       7.849   2.206  -8.246  0.00  0.00     0.247 N 
ATOM      9  C   LIG d   1       8.777   2.852  -9.203  0.00  0.00    -0.031 C 
ATOM     10  H   LIG d   1       7.196   2.885  -7.884  0.00  0.00     0.204 HD
ATOM     11  C   LIG d   1      10.032   3.264  -8.412  0.00  0.00    -0.007 C 
ATOM     12  H   LIG d   1       8.307   3.732  -9.641  0.00  0.00     0.082 H 
ATOM     13  H   LIG d   1       9.048   2.144  -9.987  0.00  0.00     0.082 H 
ATOM     14  C   LIG d   1       9.769   2.790  -6.964  0.00  0.00     0.004 C 
ATOM     15  H   LIG d   1      10.157   4.346  -8.439  0.00  0.00     0.032 H 
ATOM     16  H   LIG d   1      10.914   2.770  -8.818  0.00  0.00     0.032 H 
ATOM     17  H   LIG d   1       9.377   3.606  -6.356  0.00  0.00     0.033 H 
ATOM     18  H   LIG d   1      10.678   2.381  -6.521  0.00  0.00     0.033 H 
BRANCH   8  19
ATOM     19  C   LIG d   1       7.127   1.105  -8.898  0.00  0.00    -0.004 C 
ATOM     20  H   LIG d   1       7.417   1.052  -9.947  0.00  0.00     0.087 H 
ATOM     21  H   LIG d   1       7.376   0.165  -8.404  0.00  0.00     0.087 H 
BRANCH  19  22
ATOM     22  C   LIG d   1       5.644   1.348  -8.798  0.00  0.00     0.015 A 
ATOM     23  C   LIG d   1       4.818   0.401  -8.224  0.00  0.00     0.036 A 
ATOM     24  N   LIG d   1       3.519   0.609  -8.128  0.00  0.00    -0.263 NA
ATOM     25  H   LIG d   1       5.241  -0.519  -7.847  0.00  0.00     0.083 H 
ATOM     26  C   LIG d   1       2.958   1.714  -8.579  0.00  0.00     0.028 A 
ATOM     27  C   LIG d   1       3.721   2.703  -9.171  0.00  0.00    -0.043 A 
ATOM     28  H   LIG d   1       1.890   1.846  -8.486  0.00  0.00     0.083 H 
ATOM     29  C   LIG d   1       5.091   2.523  -9.285  0.00  0.00    -0.051 A 
ATOM     30  H   LIG d   1       3.255   3.606  -9.538  0.00  0.00     0.063 H 
ATOM     31  H   LIG d   1       5.712   3.279  -9.741  0.00  0.00     0.062 H 
ENDBRANCH  19  22
ENDBRANCH   8  19
ENDBRANCH   3   6
BRANCH   1  32
ATOM     32  C   LIG d   1       5.668  -0.324  -3.730  0.00  0.00     0.257 A 
ATOM     33  N   LIG d   1       5.146  -0.024  -2.547  0.00  0.00    -0.208 N 
ATOM     34  C   LIG d   1       4.331  -0.847  -1.919  0.00  0.00     0.174 A 
ATOM     35  H   LIG d   1       5.369   0.825  -2.135  0.00  0.00     0.453 HD
ATOM     36  C   LIG d   1       3.987  -2.065  -2.472  0.00  0.00     0.044 A 
ATOM     37  H   LIG d   1       3.926  -0.566  -0.959  0.00  0.00     0.138 H 
ATOM     38  C   LIG d   1       4.512  -2.423  -3.712  0.00  0.00     0.133 A 
ATOM     39  H   LIG d   1       3.318  -2.733  -1.950  0.00  0.00     0.071 H 
ATOM     40  C   LIG d   1       5.374  -1.535  -4.347  0.00  0.00     0.055 A 
ATOM     41  H   LIG d   1       5.804  -1.779  -5.307  0.00  0.00     0.072 H 
BRANCH  38  42
ATOM     42  O   LIG d   1       4.195  -3.613  -4.284  0.00  0.00    -0.489 OA
BRANCH  42  43
ATOM     43  C   LIG d   1       5.231  -4.281  -5.007  0.00  0.00     0.113 C 
ATOM     44  H   LIG d   1       6.060  -4.502  -4.334  0.00  0.00     0.072 H 
ATOM     45  H   LIG d   1       5.581  -3.640  -5.816  0.00  0.00     0.072 H 
BRANCH  43  46
ATOM     46  C   LIG d   1       4.687  -5.587  -5.589  0.00  0.00     0.081 C 
ATOM     47  H   LIG d   1       4.506  -6.297  -4.782  0.00  0.00     0.059 H 
ATOM     48  H   LIG d   1       5.413  -6.006  -6.285  0.00  0.00     0.059 H 
BRANCH  46  49
ATOM     49  O   LIG d   1       3.462  -5.327  -6.278  0.00  0.00    -0.380 OA
BRANCH  49  50
ATOM     50  C   LIG d   1       3.600  -5.248  -7.699  0.00  0.00     0.037 C 
ATOM     51  H   LIG d   1       2.899  -4.512  -8.092  0.00  0.00     0.052 H 
ATOM     52  H   LIG d   1       4.618  -4.949  -7.948  0.00  0.00     0.052 H 
ATOM     53  H   LIG d   1       3.389  -6.223  -8.138  0.00  0.00     0.052 H 
ENDBRANCH  49  50
ENDBRANCH  46  49
ENDBRANCH  43  46
ENDBRANCH  42  43
ENDBRANCH  38  42
ENDBRANCH   1  32
TORSDOF 9
ENDMDL
MODEL 2
REMARK VINA RESULT:      -6.4      3.544      7.916
REMARK  9 active torsions:
REMARK  status: ('A' for Active; 'I' for Inactive)
REMARK    1  A    between atoms: C_1  and  O_2 
REMARK    2  A    between atoms: O_2  and  C_3 
REMARK    3  A    between atoms: C_3  and  C_4 
REMARK    4  A    between atoms: C_4  and  O_5 
REMARK    5  A    between atoms: O_5  and  C_6 
REMARK    6  A    between atoms: C_10  and  C_12 
REMARK    7  A    between atoms: C_14  and  C_17 
REMARK    8  A    between atoms: N_22  and  C_23 
REMARK    9  A    between atoms: C_23  and  C_24 
ROOT
ATOM      1  C   LIG d   1       8.273   0.879  -4.843  0.00  0.00     0.267 A 
ATOM      2  N   LIG d   1       8.103  -0.451  -4.735  0.00  0.00    -0.181 NA
ATOM      3  C   LIG d   1       7.056  -0.824  -5.415  0.00  0.00     0.276 A 
ATOM      4  O   LIG d   1       6.513   0.258  -5.987  0.00  0.00    -0.332 OA
ATOM      5  N   LIG d   1       7.318   1.362  -5.599  0.00  0.00    -0.050 NA
ENDROOT
BRANCH   3   6
ATOM      6  C   LIG d   1       6.543  -2.236  -5.537  0.00  0.00     0.060 C 
ATOM      7  H   LIG d   1       7.055  -2.892  -4.834  0.00  0.00     0.095 H 
ATOM      8  N   LIG d   1       5.074  -2.280  -5.323  0.00  0.00     0.247 N 
ATOM      9  C   LIG d   1       4.609  -3.520  -5.986  0.00  0.00    -0.031 C 
ATOM     10  H   LIG d   1       4.636  -1.475  -5.746  0.00  0.00     0.204 HD
ATOM     11  C   LIG d   1       5.631  -3.857  -7.087  0.00  0.00    -0.007 C 
ATOM     12  H   LIG d   1       3.625  -3.360  -6.427  0.00  0.00     0.082 H 
ATOM     13  H   LIG d   1       4.565  -4.331  -5.259  0.00  0.00     0.082 H 
ATOM     14  C   LIG d   1       6.709  -2.754  -6.988  0.00  0.00     0.004 C 
ATOM     15  H   LIG d   1       5.152  -3.832  -8.066  0.00  0.00     0.032 H 
ATOM     16  H   LIG d   1       6.073  -4.836  -6.906  0.00  0.00     0.032 H 
ATOM     17  H   LIG d   1       6.514  -1.958  -7.707  0.00  0.00     0.033 H 
ATOM     18  H   LIG d   1       7.705  -3.173  -7.136  0.00  0.00     0.033 H 
BRANCH   8  19
ATOM     19  C   LIG d   1       4.773  -2.326  -3.885  0.00  0.00    -0.004 C 
ATOM     20  H   LIG d   1       3.947  -3.014  -3.709  0.00  0.00     0.087 H 
ATOM     21  H   LIG d   1       5.654  -2.667  -3.341  0.00  0.00     0.087 H 
BRANCH  19  22
ATOM     22  C   LIG d   1       4.390  -0.949  -3.408  0.00  0.00     0.015 A 
ATOM     23  C   LIG d   1       3.628  -0.118  -4.208  0.00  0.00     0.036 A 
ATOM     24  N   LIG d   1       3.284   1.085  -3.795  0.00  0.00    -0.263 NA
ATOM     25  H   LIG d   1       3.308  -0.461  -5.182  0.00  0.00     0.083 H 
ATOM     26  C   LIG d   1       3.657   1.548  -2.618  0.00  0.00     0.028 A 
ATOM     27  C   LIG d   1       4.425   0.776  -1.766  0.00  0.00    -0.043 A 
ATOM     28  H   LIG d   1       3.360   2.542  -2.316  0.00  0.00     0.083 H 
ATOM     29  C   LIG d   1       4.801  -0.498  -2.163  0.00  0.00    -0.051 A 
ATOM     30  H   LIG d   1       4.727   1.160  -0.803  0.00  0.00     0.063 H 
ATOM     31  H   LIG d   1       5.400  -1.124  -1.518  0.00  0.00     0.062 H 
ENDBRANCH  19  22
ENDBRANCH   8  19
ENDBRANCH   3   6
BRANCH   1  32
ATOM     32  C   LIG d   1       9.358   1.668  -4.208  0.00  0.00     0.257 A 
ATOM     33  N   LIG d   1      10.594   1.187  -4.186  0.00  0.00    -0.208 N 
ATOM     34  C   LIG d   1      11.588   1.853  -3.633  0.00  0.00     0.174 A 
ATOM     35  H   LIG d   1      10.772   0.324  -4.590  0.00  0.00     0.453 HD
ATOM     36  C   LIG d   1      11.378   3.087  -3.049  0.00  0.00     0.044 A 
ATOM     37  H   LIG d   1      12.581   1.429  -3.637  0.00  0.00     0.138 H 
ATOM     38  C   LIG d   1      10.096   3.631  -3.048  0.00  0.00     0.133 A 
ATOM     39  H   LIG d   1      12.199   3.625  -2.599  0.00  0.00     0.071 H 
ATOM     40  C   LIG d   1       9.066   2.901  -3.634  0.00  0.00     0.055 A 
ATOM     41  H   LIG d   1       8.059   3.288  -3.648  0.00  0.00     0.072 H 
BRANCH  38  42
ATOM     42  O   LIG d   1       9.854   4.841  -2.482  0.00  0.00    -0.489 OA
BRANCH  42  43
ATOM     43  C   LIG d   1      10.969   5.518  -1.899  0.00  0.00     0.113 C 
ATOM     44  H   LIG d   1      11.290   6.324  -2.558  0.00  0.00     0.072 H 
ATOM     45  H   LIG d   1      11.789   4.814  -1.759  0.00  0.00     0.072 H 
BRANCH  43  46
ATOM     46  C   LIG d   1      10.560   6.102  -0.544  0.00  0.00     0.081 C 
ATOM     47  H   LIG d   1      11.414   6.609  -0.095  0.00  0.00     0.059 H 
ATOM     48  H   LIG d   1      10.228   5.298   0.113  0.00  0.00     0.059 H 
BRANCH  46  49
ATOM     49  O   LIG d   1       9.495   7.036  -0.730  0.00  0.00    -0.380 OA
BRANCH  49  50
ATOM     50  C   LIG d   1       9.898   8.262  -1.343  0.00  0.00     0.037 C 
ATOM     51  H   LIG d   1      10.910   8.511  -1.028  0.00  0.00     0.052 H 
ATOM     52  H   LIG d   1       9.872   8.151  -2.427  0.00  0.00     0.052 H 
ATOM     53  H   LIG d   1       9.217   9.059  -1.043  0.00  0.00     0.052 H 
ENDBRANCH  49  50
ENDBRANCH  46  49
ENDBRANCH  43  46
ENDBRANCH  42  43
ENDBRANCH  38  42
ENDBRANCH   1  32
TORSDOF 9
ENDMDL
MODEL 3
REMARK VINA RESULT:      -6.3      3.839      6.326
REMARK  9 active torsions:
REMARK  status: ('A' for Active; 'I' for Inactive)
REMARK    1  A    between atoms: C_1  and  O_2 
REMARK    2  A    between atoms: O_2  and  C_3 
REMARK    3  A    between atoms: C_3  and  C_4 
REMARK    4  A    between atoms: C_4  and  O_5 
REMARK    5  A    between atoms: O_5  and  C_6 
REMARK    6  A    between atoms: C_10  and  C_12 
REMARK    7  A    between atoms: C_14  and  C_17 
REMARK    8  A    between atoms: N_22  and  C_23 
REMARK    9  A    between atoms: C_23  and  C_24 
ROOT
ATOM      1  C   LIG d   1       5.426  -4.896  -5.530  0.00  0.00     0.267 A 
ATOM      2  N   LIG d   1       4.580  -3.925  -5.142  0.00  0.00    -0.181 NA
ATOM      3  C   LIG d   1       5.243  -2.957  -4.576  0.00  0.00     0.276 A 
ATOM      4  O   LIG d   1       6.544  -3.273  -4.580  0.00  0.00    -0.332 OA
ATOM      5  N   LIG d   1       6.645  -4.545  -5.203  0.00  0.00    -0.050 NA
ENDROOT
BRANCH   3   6
ATOM      6  C   LIG d   1       4.645  -1.694  -4.012  0.00  0.00     0.060 C 
ATOM      7  H   LIG d   1       5.420  -0.946  -3.841  0.00  0.00     0.095 H 
ATOM      8  N   LIG d   1       3.593  -1.163  -4.915  0.00  0.00     0.247 N 
ATOM      9  C   LIG d   1       2.727  -0.313  -4.067  0.00  0.00    -0.031 C 
ATOM     10  H   LIG d   1       3.056  -1.921  -5.309  0.00  0.00     0.204 HD
ATOM     11  C   LIG d   1       2.863  -0.825  -2.622  0.00  0.00    -0.007 C 
ATOM     12  H   LIG d   1       1.690  -0.393  -4.395  0.00  0.00     0.082 H 
ATOM     13  H   LIG d   1       3.057   0.725  -4.127  0.00  0.00     0.082 H 
ATOM     14  C   LIG d   1       3.874  -1.992  -2.701  0.00  0.00     0.004 C 
ATOM     15  H   LIG d   1       1.901  -1.182  -2.255  0.00  0.00     0.032 H 
ATOM     16  H   LIG d   1       3.245  -0.035  -1.976  0.00  0.00     0.032 H 
ATOM     17  H   LIG d   1       3.356  -2.948  -2.766  0.00  0.00     0.033 H 
ATOM     18  H   LIG d   1       4.549  -1.975  -1.844  0.00  0.00     0.033 H 
BRANCH   8  19
ATOM     19  C   LIG d   1       4.202  -0.362  -5.987  0.00  0.00    -0.004 C 
ATOM     20  H   LIG d   1       4.032   0.696  -5.791  0.00  0.00     0.087 H 
ATOM     21  H   LIG d   1       5.274  -0.559  -6.022  0.00  0.00     0.087 H 
BRANCH  19  22
ATOM     22  C   LIG d   1       3.580  -0.735  -7.308  0.00  0.00     0.015 A 
ATOM     23  C   LIG d   1       3.951  -1.899  -7.952  0.00  0.00     0.036 A 
ATOM     24  N   LIG d   1       3.406  -2.235  -9.105  0.00  0.00    -0.263 NA
ATOM     25  H   LIG d   1       4.693  -2.544  -7.504  0.00  0.00     0.083 H 
ATOM     26  C   LIG d   1       2.501  -1.476  -9.692  0.00  0.00     0.028 A 
ATOM     27  C   LIG d   1       2.085  -0.294  -9.109  0.00  0.00    -0.043 A 
ATOM     28  H   LIG d   1       2.081  -1.782 -10.639  0.00  0.00     0.083 H 
ATOM     29  C   LIG d   1       2.631   0.089  -7.894  0.00  0.00    -0.051 A 
ATOM     30  H   LIG d   1       1.343   0.323  -9.594  0.00  0.00     0.063 H 
ATOM     31  H   LIG d   1       2.324   1.007  -7.415  0.00  0.00     0.062 H 
ENDBRANCH  19  22
ENDBRANCH   8  19
ENDBRANCH   3   6
BRANCH   1  32
ATOM     32  C   LIG d   1       5.042  -6.159  -6.211  0.00  0.00     0.257 A 
ATOM     33  N   LIG d   1       4.769  -6.148  -7.509  0.00  0.00    -0.208 N 
ATOM     34  C   LIG d   1       4.424  -7.245  -8.154  0.00  0.00     0.174 A 
ATOM     35  H   LIG d   1       4.826  -5.312  -7.996  0.00  0.00     0.453 HD
ATOM     36  C   LIG d   1       4.332  -8.456  -7.498  0.00  0.00     0.044 A 
ATOM     37  H   LIG d   1       4.210  -7.196  -9.211  0.00  0.00     0.138 H 
ATOM     38  C   LIG d   1       4.610  -8.515  -6.134  0.00  0.00     0.133 A 
ATOM     39  H   LIG d   1       4.049  -9.349  -8.035  0.00  0.00     0.071 H 
ATOM     40  C   LIG d   1       4.965  -7.339  -5.479  0.00  0.00     0.055 A 
ATOM     41  H   LIG d   1       5.183  -7.344  -4.422  0.00  0.00     0.072 H 
BRANCH  38  42
ATOM     42  O   LIG d   1       4.529  -9.689  -5.457  0.00  0.00    -0.489 OA
BRANCH  42  43
ATOM     43  C   LIG d   1       4.244  -9.613  -4.059  0.00  0.00     0.113 C 
ATOM     44  H   LIG d   1       3.364  -8.990  -3.900  0.00  0.00     0.072 H 
ATOM     45  H   LIG d   1       5.097  -9.178  -3.537  0.00  0.00     0.072 H 
BRANCH  43  46
ATOM     46  C   LIG d   1       3.977 -11.019  -3.515  0.00  0.00     0.081 C 
ATOM     47  H   LIG d   1       3.820 -11.705  -4.347  0.00  0.00     0.059 H 
ATOM     48  H   LIG d   1       3.089 -11.002  -2.885  0.00  0.00     0.059 H 
BRANCH  46  49
ATOM     49  O   LIG d   1       5.100 -11.452  -2.744  0.00  0.00    -0.380 OA
BRANCH  49  50
ATOM     50  C   LIG d   1       5.773 -10.397  -2.054  0.00  0.00     0.037 C 
ATOM     51  H   LIG d   1       6.311  -9.779  -2.772  0.00  0.00     0.052 H 
ATOM     52  H   LIG d   1       5.042  -9.785  -1.525  0.00  0.00     0.052 H 
ATOM     53  H   LIG d   1       6.477 -10.822  -1.340  0.00  0.00     0.052 H 
ENDBRANCH  49  50
ENDBRANCH  46  49
ENDBRANCH  43  46
ENDBRANCH  42  43
ENDBRANCH  38  42
ENDBRANCH   1  32
TORSDOF 9
ENDMDL
MODEL 4
REMARK VINA RESULT:      -6.2      3.646      7.814
REMARK  9 active torsions:
REMARK  status: ('A' for Active; 'I' for Inactive)
REMARK    1  A    between atoms: C_1  and  O_2 
REMARK    2  A    between atoms: O_2  and  C_3 
REMARK    3  A    between atoms: C_3  and  C_4 
REMARK    4  A    between atoms: C_4  and  O_5 
REMARK    5  A    between atoms: O_5  and  C_6 
REMARK    6  A    between atoms: C_10  and  C_12 
REMARK    7  A    between atoms: C_14  and  C_17 
REMARK    8  A    between atoms: N_22  and  C_23 
REMARK    9  A    between atoms: C_23  and  C_24 
ROOT
ATOM      1  C   LIG d   1       8.030   1.647  -4.194  0.00  0.00     0.267 A 
ATOM      2  N   LIG d   1       7.078   1.269  -3.322  0.00  0.00    -0.181 NA
ATOM      3  C   LIG d   1       6.098   0.689  -3.955  0.00  0.00     0.276 A 
ATOM      4  O   LIG d   1       6.386   0.674  -5.263  0.00  0.00    -0.332 OA
ATOM      5  N   LIG d   1       7.649   1.308  -5.402  0.00  0.00    -0.050 NA
ENDROOT
BRANCH   3   6
ATOM      6  C   LIG d   1       4.851   0.129  -3.322  0.00  0.00     0.060 C 
ATOM      7  H   LIG d   1       4.258   0.926  -2.873  0.00  0.00     0.095 H 
ATOM      8  N   LIG d   1       4.048  -0.623  -4.320  0.00  0.00     0.247 N 
ATOM      9  C   LIG d   1       3.205  -1.554  -3.538  0.00  0.00    -0.031 C 
ATOM     10  H   LIG d   1       4.656  -1.140  -4.937  0.00  0.00     0.204 HD
ATOM     11  C   LIG d   1       3.927  -1.809  -2.202  0.00  0.00    -0.007 C 
ATOM     12  H   LIG d   1       3.083  -2.493  -4.080  0.00  0.00     0.082 H 
ATOM     13  H   LIG d   1       2.230  -1.102  -3.353  0.00  0.00     0.082 H 
ATOM     14  C   LIG d   1       5.209  -0.947  -2.267  0.00  0.00     0.004 C 
ATOM     15  H   LIG d   1       4.184  -2.864  -2.107  0.00  0.00     0.032 H 
ATOM     16  H   LIG d   1       3.301  -1.494  -1.368  0.00  0.00     0.032 H 
ATOM     17  H   LIG d   1       6.059  -1.544  -2.597  0.00  0.00     0.033 H 
ATOM     18  H   LIG d   1       5.413  -0.486  -1.299  0.00  0.00     0.033 H 
BRANCH   8  19
ATOM     19  C   LIG d   1       3.207   0.301  -5.094  0.00  0.00    -0.004 C 
ATOM     20  H   LIG d   1       2.165   0.176  -4.800  0.00  0.00     0.087 H 
ATOM     21  H   LIG d   1       3.520   1.327  -4.898  0.00  0.00     0.087 H 
BRANCH  19  22
ATOM     22  C   LIG d   1       3.353   0.003  -6.563  0.00  0.00     0.015 A 
ATOM     23  C   LIG d   1       4.006  -1.140  -6.983  0.00  0.00     0.036 A 
ATOM     24  N   LIG d   1       4.133  -1.410  -8.268  0.00  0.00    -0.263 NA
ATOM     25  H   LIG d   1       4.414  -1.821  -6.251  0.00  0.00     0.083 H 
ATOM     26  C   LIG d   1       3.657  -0.605  -9.197  0.00  0.00     0.028 A 
ATOM     27  C   LIG d   1       2.997   0.560  -8.852  0.00  0.00    -0.043 A 
ATOM     28  H   LIG d   1       3.784  -0.858 -10.239  0.00  0.00     0.083 H 
ATOM     29  C   LIG d   1       2.839   0.875  -7.511  0.00  0.00    -0.051 A 
ATOM     30  H   LIG d   1       2.608   1.215  -9.617  0.00  0.00     0.063 H 
ATOM     31  H   LIG d   1       2.326   1.777  -7.212  0.00  0.00     0.062 H 
ENDBRANCH  19  22
ENDBRANCH   8  19
ENDBRANCH   3   6
BRANCH   1  32
ATOM     32  C   LIG d   1       9.297   2.339  -3.848  0.00  0.00     0.257 A 
ATOM     33  N   LIG d   1      10.419   1.639  -3.740  0.00  0.00    -0.208 N 
ATOM     34  C   LIG d   1      11.567   2.211  -3.435  0.00  0.00     0.174 A 
ATOM     35  H   LIG d   1      10.394   0.682  -3.891  0.00  0.00     0.453 HD
ATOM     36  C   LIG d   1      11.646   3.571  -3.213  0.00  0.00     0.044 A 
ATOM     37  H   LIG d   1      12.459   1.607  -3.357  0.00  0.00     0.138 H 
ATOM     38  C   LIG d   1      10.492   4.346  -3.315  0.00  0.00     0.133 A 
ATOM     39  H   LIG d   1      12.590   4.031  -2.963  0.00  0.00     0.071 H 
ATOM     40  C   LIG d   1       9.295   3.713  -3.633  0.00  0.00     0.055 A 
ATOM     41  H   LIG d   1       8.380   4.279  -3.716  0.00  0.00     0.072 H 
BRANCH  38  42
ATOM     42  O   LIG d   1      10.533   5.686  -3.103  0.00  0.00    -0.489 OA
BRANCH  42  43
ATOM     43  C   LIG d   1       9.921   6.173  -1.906  0.00  0.00     0.113 C 
ATOM     44  H   LIG d   1       9.183   5.452  -1.557  0.00  0.00     0.072 H 
ATOM     45  H   LIG d   1       9.432   7.125  -2.110  0.00  0.00     0.072 H 
BRANCH  43  46
ATOM     46  C   LIG d   1      10.991   6.369  -0.829  0.00  0.00     0.081 C 
ATOM     47  H   LIG d   1      11.555   7.278  -1.039  0.00  0.00     0.059 H 
ATOM     48  H   LIG d   1      11.666   5.514  -0.828  0.00  0.00     0.059 H 
BRANCH  46  49
ATOM     49  O   LIG d   1      10.363   6.482   0.450  0.00  0.00    -0.380 OA
BRANCH  49  50
ATOM     50  C   LIG d   1      11.037   5.774   1.492  0.00  0.00     0.037 C 
ATOM     51  H   LIG d   1      11.805   5.134   1.059  0.00  0.00     0.052 H 
ATOM     52  H   LIG d   1      11.501   6.487   2.174  0.00  0.00     0.052 H 
ATOM     53  H   LIG d   1      10.319   5.162   2.039  0.00  0.00     0.052 H 
ENDBRANCH  49  50
ENDBRANCH  46  49
ENDBRANCH  43  46
ENDBRANCH  42  43
ENDBRANCH  38  42
ENDBRANCH   1  32
TORSDOF 9
ENDMDL
MODEL 5
REMARK VINA RESULT:      -6.2      3.001      7.050
REMARK  9 active torsions:
REMARK  status: ('A' for Active; 'I' for Inactive)
REMARK    1  A    between atoms: C_1  and  O_2 
REMARK    2  A    between atoms: O_2  and  C_3 
REMARK    3  A    between atoms: C_3  and  C_4 
REMARK    4  A    between atoms: C_4  and  O_5 
REMARK    5  A    between atoms: O_5  and  C_6 
REMARK    6  A    between atoms: C_10  and  C_12 
REMARK    7  A    between atoms: C_14  and  C_17 
REMARK    8  A    between atoms: N_22  and  C_23 
REMARK    9  A    between atoms: C_23  and  C_24 
ROOT
ATOM      1  C   LIG d   1       4.256  -3.215  -7.595  0.00  0.00     0.267 A 
ATOM      2  N   LIG d   1       5.452  -2.785  -7.155  0.00  0.00    -0.181 NA
ATOM      3  C   LIG d   1       5.965  -3.656  -6.333  0.00  0.00     0.276 A 
ATOM      4  O   LIG d   1       5.112  -4.682  -6.216  0.00  0.00    -0.332 OA
ATOM      5  N   LIG d   1       4.000  -4.375  -7.043  0.00  0.00    -0.050 NA
ENDROOT
BRANCH   3   6
ATOM      6  C   LIG d   1       7.294  -3.531  -5.634  0.00  0.00     0.060 C 
ATOM      7  H   LIG d   1       8.009  -3.000  -6.262  0.00  0.00     0.095 H 
ATOM      8  N   LIG d   1       7.135  -2.846  -4.326  0.00  0.00     0.247 N 
ATOM      9  C   LIG d   1       8.303  -3.255  -3.514  0.00  0.00    -0.031 C 
ATOM     10  H   LIG d   1       6.281  -3.143  -3.878  0.00  0.00     0.204 HD
ATOM     11  C   LIG d   1       8.785  -4.611  -4.062  0.00  0.00    -0.007 C 
ATOM     12  H   LIG d   1       8.013  -3.358  -2.468  0.00  0.00     0.082 H 
ATOM     13  H   LIG d   1       9.096  -2.513  -3.610  0.00  0.00     0.082 H 
ATOM     14  C   LIG d   1       7.839  -4.928  -5.243  0.00  0.00     0.004 C 
ATOM     15  H   LIG d   1       8.702  -5.380  -3.294  0.00  0.00     0.032 H 
ATOM     16  H   LIG d   1       9.814  -4.533  -4.411  0.00  0.00     0.032 H 
ATOM     17  H   LIG d   1       7.029  -5.583  -4.924  0.00  0.00     0.033 H 
ATOM     18  H   LIG d   1       8.393  -5.371  -6.072  0.00  0.00     0.033 H 
BRANCH   8  19
ATOM     19  C   LIG d   1       7.129  -1.389  -4.513  0.00  0.00    -0.004 C 
ATOM     20  H   LIG d   1       8.134  -0.998  -4.357  0.00  0.00     0.087 H 
ATOM     21  H   LIG d   1       6.801  -1.155  -5.527  0.00  0.00     0.087 H 
BRANCH  19  22
ATOM     22  C   LIG d   1       6.185  -0.758  -3.523  0.00  0.00     0.015 A 
ATOM     23  C   LIG d   1       6.251   0.596  -3.258  0.00  0.00     0.036 A 
ATOM     24  N   LIG d   1       5.424   1.156  -2.397  0.00  0.00    -0.263 NA
ATOM     25  H   LIG d   1       6.985   1.204  -3.766  0.00  0.00     0.083 H 
ATOM     26  C   LIG d   1       4.515   0.452  -1.749  0.00  0.00     0.028 A 
ATOM     27  C   LIG d   1       4.395  -0.909  -1.958  0.00  0.00    -0.043 A 
ATOM     28  H   LIG d   1       3.859   0.946  -1.047  0.00  0.00     0.083 H 
ATOM     29  C   LIG d   1       5.242  -1.532  -2.861  0.00  0.00    -0.051 A 
ATOM     30  H   LIG d   1       3.648  -1.479  -1.425  0.00  0.00     0.063 H 
ATOM     31  H   LIG d   1       5.170  -2.593  -3.045  0.00  0.00     0.062 H 
ENDBRANCH  19  22
ENDBRANCH   8  19
ENDBRANCH   3   6
BRANCH   1  32
ATOM     32  C   LIG d   1       3.371  -2.492  -8.544  0.00  0.00     0.257 A 
ATOM     33  N   LIG d   1       2.534  -3.177  -9.312  0.00  0.00    -0.208 N 
ATOM     34  C   LIG d   1       1.730  -2.578 -10.168  0.00  0.00     0.174 A 
ATOM     35  H   LIG d   1       2.512  -4.144  -9.241  0.00  0.00     0.453 HD
ATOM     36  C   LIG d   1       1.730  -1.204 -10.300  0.00  0.00     0.044 A 
ATOM     37  H   LIG d   1       1.063  -3.170 -10.775  0.00  0.00     0.138 H 
ATOM     38  C   LIG d   1       2.593  -0.444  -9.513  0.00  0.00     0.133 A 
ATOM     39  H   LIG d   1       1.068  -0.722 -11.004  0.00  0.00     0.071 H 
ATOM     40  C   LIG d   1       3.433  -1.105  -8.623  0.00  0.00     0.055 A 
ATOM     41  H   LIG d   1       4.119  -0.551  -8.001  0.00  0.00     0.072 H 
BRANCH  38  42
ATOM     42  O   LIG d   1       2.619   0.909  -9.617  0.00  0.00    -0.489 OA
BRANCH  42  43
ATOM     43  C   LIG d   1       3.769   1.490 -10.236  0.00  0.00     0.113 C 
ATOM     44  H   LIG d   1       3.472   1.994 -11.156  0.00  0.00     0.072 H 
ATOM     45  H   LIG d   1       4.492   0.708 -10.467  0.00  0.00     0.072 H 
BRANCH  43  46
ATOM     46  C   LIG d   1       4.403   2.506  -9.282  0.00  0.00     0.081 C 
ATOM     47  H   LIG d   1       3.631   2.937  -8.645  0.00  0.00     0.059 H 
ATOM     48  H   LIG d   1       4.882   3.297  -9.859  0.00  0.00     0.059 H 
BRANCH  46  49
ATOM     49  O   LIG d   1       5.381   1.851  -8.471  0.00  0.00    -0.380 OA
BRANCH  49  50
ATOM     50  C   LIG d   1       6.518   1.381  -9.197  0.00  0.00     0.037 C 
ATOM     51  H   LIG d   1       7.181   2.218  -9.415  0.00  0.00     0.052 H 
ATOM     52  H   LIG d   1       7.051   0.642  -8.599  0.00  0.00     0.052 H 
ATOM     53  H   LIG d   1       6.190   0.925 -10.131  0.00  0.00     0.052 H 
ENDBRANCH  49  50
ENDBRANCH  46  49
ENDBRANCH  43  46
ENDBRANCH  42  43
ENDBRANCH  38  42
ENDBRANCH   1  32
TORSDOF 9
ENDMDL
MODEL 6
REMARK VINA RESULT:      -6.1      3.847      6.080
REMARK  9 active torsions:
REMARK  status: ('A' for Active; 'I' for Inactive)
REMARK    1  A    between atoms: C_1  and  O_2 
REMARK    2  A    between atoms: O_2  and  C_3 
REMARK    3  A    between atoms: C_3  and  C_4 
REMARK    4  A    between atoms: C_4  and  O_5 
REMARK    5  A    between atoms: O_5  and  C_6 
REMARK    6  A    between atoms: C_10  and  C_12 
REMARK    7  A    between atoms: C_14  and  C_17 
REMARK    8  A    between atoms: N_22  and  C_23 
REMARK    9  A    between atoms: C_23  and  C_24 
ROOT
ATOM      1  C   LIG d   1       5.503  -4.923  -5.378  0.00  0.00     0.267 A 
ATOM      2  N   LIG d   1       4.627  -3.969  -5.014  0.00  0.00    -0.181 NA
ATOM      3  C   LIG d   1       5.263  -2.941  -4.528  0.00  0.00     0.276 A 
ATOM      4  O   LIG d   1       6.577  -3.200  -4.562  0.00  0.00    -0.332 OA
ATOM      5  N   LIG d   1       6.715  -4.500  -5.115  0.00  0.00    -0.050 NA
ENDROOT
BRANCH   3   6
ATOM      6  C   LIG d   1       4.628  -1.675  -4.015  0.00  0.00     0.060 C 
ATOM      7  H   LIG d   1       5.381  -0.900  -3.869  0.00  0.00     0.095 H 
ATOM      8  N   LIG d   1       3.567  -1.208  -4.943  0.00  0.00     0.247 N 
ATOM      9  C   LIG d   1       2.673  -0.351  -4.131  0.00  0.00    -0.031 C 
ATOM     10  H   LIG d   1       3.053  -1.995  -5.310  0.00  0.00     0.204 HD
ATOM     11  C   LIG d   1       2.815  -0.804  -2.667  0.00  0.00    -0.007 C 
ATOM     12  H   LIG d   1       1.640  -0.472  -4.460  0.00  0.00     0.082 H 
ATOM     13  H   LIG d   1       2.975   0.692  -4.229  0.00  0.00     0.082 H 
ATOM     14  C   LIG d   1       3.858  -1.944  -2.697  0.00  0.00     0.004 C 
ATOM     15  H   LIG d   1       1.861  -1.174  -2.291  0.00  0.00     0.032 H 
ATOM     16  H   LIG d   1       3.172   0.020  -2.049  0.00  0.00     0.032 H 
ATOM     17  H   LIG d   1       3.367  -2.917  -2.729  0.00  0.00     0.033 H 
ATOM     18  H   LIG d   1       4.528  -1.877  -1.839  0.00  0.00     0.033 H 
BRANCH   8  19
ATOM     19  C   LIG d   1       4.159  -0.432  -6.041  0.00  0.00    -0.004 C 
ATOM     20  H   LIG d   1       3.965   0.629  -5.882  0.00  0.00     0.087 H 
ATOM     21  H   LIG d   1       5.235  -0.605  -6.068  0.00  0.00     0.087 H 
BRANCH  19  22
ATOM     22  C   LIG d   1       3.548  -0.864  -7.348  0.00  0.00     0.015 A 
ATOM     23  C   LIG d   1       3.955  -2.036  -7.957  0.00  0.00     0.036 A 
ATOM     24  N   LIG d   1       3.420  -2.424  -9.098  0.00  0.00    -0.263 NA
ATOM     25  H   LIG d   1       4.718  -2.643  -7.491  0.00  0.00     0.083 H 
ATOM     26  C   LIG d   1       2.491  -1.712  -9.707  0.00  0.00     0.028 A 
ATOM     27  C   LIG d   1       2.038  -0.526  -9.160  0.00  0.00    -0.043 A 
ATOM     28  H   LIG d   1       2.080  -2.060 -10.643  0.00  0.00     0.083 H 
ATOM     29  C   LIG d   1       2.572  -0.089  -7.958  0.00  0.00    -0.051 A 
ATOM     30  H   LIG d   1       1.276   0.052  -9.663  0.00  0.00     0.063 H 
ATOM     31  H   LIG d   1       2.237   0.833  -7.507  0.00  0.00     0.062 H 
ENDBRANCH  19  22
ENDBRANCH   8  19
ENDBRANCH   3   6
BRANCH   1  32
ATOM     32  C   LIG d   1       5.154  -6.238  -5.971  0.00  0.00     0.257 A 
ATOM     33  N   LIG d   1       5.566  -7.355  -5.383  0.00  0.00    -0.208 N 
ATOM     34  C   LIG d   1       5.280  -8.544  -5.875  0.00  0.00     0.174 A 
ATOM     35  H   LIG d   1       6.090  -7.293  -4.570  0.00  0.00     0.453 HD
ATOM     36  C   LIG d   1       4.536  -8.674  -7.031  0.00  0.00     0.044 A 
ATOM     37  H   LIG d   1       5.632  -9.428  -5.366  0.00  0.00     0.138 H 
ATOM     38  C   LIG d   1       4.083  -7.529  -7.682  0.00  0.00     0.133 A 
ATOM     39  H   LIG d   1       4.307  -9.653  -7.425  0.00  0.00     0.071 H 
ATOM     40  C   LIG d   1       4.406  -6.289  -7.142  0.00  0.00     0.055 A 
ATOM     41  H   LIG d   1       4.077  -5.379  -7.622  0.00  0.00     0.072 H 
BRANCH  38  42
ATOM     42  O   LIG d   1       3.350  -7.622  -8.821  0.00  0.00    -0.489 OA
BRANCH  42  43
ATOM     43  C   LIG d   1       3.398  -6.508  -9.715  0.00  0.00     0.113 C 
ATOM     44  H   LIG d   1       3.854  -6.816 -10.656  0.00  0.00     0.072 H 
ATOM     45  H   LIG d   1       3.990  -5.709  -9.269  0.00  0.00     0.072 H 
BRANCH  43  46
ATOM     46  C   LIG d   1       1.977  -6.004  -9.980  0.00  0.00     0.081 C 
ATOM     47  H   LIG d   1       1.852  -5.815 -11.046  0.00  0.00     0.059 H 
ATOM     48  H   LIG d   1       1.809  -5.081  -9.425  0.00  0.00     0.059 H 
BRANCH  46  49
ATOM     49  O   LIG d   1       1.035  -6.992  -9.557  0.00  0.00    -0.380 OA
BRANCH  49  50
ATOM     50  C   LIG d   1       0.344  -7.633 -10.631  0.00  0.00     0.037 C 
ATOM     51  H   LIG d   1      -0.477  -7.000 -10.964  0.00  0.00     0.052 H 
ATOM     52  H   LIG d   1       1.034  -7.799 -11.459  0.00  0.00     0.052 H 
ATOM     53  H   LIG d   1      -0.050  -8.590 -10.289  0.00  0.00     0.052 H 
ENDBRANCH  49  50
ENDBRANCH  46  49
ENDBRANCH  43  46
ENDBRANCH  42  43
ENDBRANCH  38  42
ENDBRANCH   1  32
TORSDOF 9
ENDMDL
MODEL 7
REMARK VINA RESULT:      -6.1      3.218      7.651
REMARK  9 active torsions:
REMARK  status: ('A' for Active; 'I' for Inactive)
REMARK    1  A    between atoms: C_1  and  O_2 
REMARK    2  A    between atoms: O_2  and  C_3 
REMARK    3  A    between atoms: C_3  and  C_4 
REMARK    4  A    between atoms: C_4  and  O_5 
REMARK    5  A    between atoms: O_5  and  C_6 
REMARK    6  A    between atoms: C_10  and  C_12 
REMARK    7  A    between atoms: C_14  and  C_17 
REMARK    8  A    between atoms: N_22  and  C_23 
REMARK    9  A    between atoms: C_23  and  C_24 
ROOT
ATOM      1  C   LIG d   1       8.656   1.042  -5.709  0.00  0.00     0.267 A 
ATOM      2  N   LIG d   1       7.385   1.191  -6.122  0.00  0.00    -0.181 NA
ATOM      3  C   LIG d   1       7.064   0.224  -6.934  0.00  0.00     0.276 A 
ATOM      4  O   LIG d   1       8.123  -0.584  -7.073  0.00  0.00    -0.332 OA
ATOM      5  N   LIG d   1       9.156  -0.032  -6.269  0.00  0.00    -0.050 NA
ENDROOT
BRANCH   3   6
ATOM      6  C   LIG d   1       5.727   0.045  -7.605  0.00  0.00     0.060 C 
ATOM      7  H   LIG d   1       5.703  -0.887  -8.169  0.00  0.00     0.095 H 
ATOM      8  N   LIG d   1       4.630   0.081  -6.604  0.00  0.00     0.247 N 
ATOM      9  C   LIG d   1       3.411   0.451  -7.357  0.00  0.00    -0.031 C 
ATOM     10  H   LIG d   1       4.825   0.774  -5.897  0.00  0.00     0.204 HD
ATOM     11  C   LIG d   1       3.866   1.229  -8.606  0.00  0.00    -0.007 C 
ATOM     12  H   LIG d   1       2.768   1.081  -6.741  0.00  0.00     0.082 H 
ATOM     13  H   LIG d   1       2.874  -0.450  -7.656  0.00  0.00     0.082 H 
ATOM     14  C   LIG d   1       5.410   1.250  -8.525  0.00  0.00     0.004 C 
ATOM     15  H   LIG d   1       3.472   2.245  -8.583  0.00  0.00     0.032 H 
ATOM     16  H   LIG d   1       3.541   0.716  -9.510  0.00  0.00     0.032 H 
ATOM     17  H   LIG d   1       5.761   2.181  -8.078  0.00  0.00     0.033 H 
ATOM     18  H   LIG d   1       5.850   1.107  -9.513  0.00  0.00     0.033 H 
BRANCH   8  19
ATOM     19  C   LIG d   1       4.465  -1.242  -5.985  0.00  0.00    -0.004 C 
ATOM     20  H   LIG d   1       3.533  -1.690  -6.327  0.00  0.00     0.087 H 
ATOM     21  H   LIG d   1       5.302  -1.882  -6.268  0.00  0.00     0.087 H 
BRANCH  19  22
ATOM     22  C   LIG d   1       4.431  -1.094  -4.486  0.00  0.00     0.015 A 
ATOM     23  C   LIG d   1       4.801   0.097  -3.892  0.00  0.00     0.036 A 
ATOM     24  N   LIG d   1       4.768   0.236  -2.581  0.00  0.00    -0.263 NA
ATOM     25  H   LIG d   1       5.118   0.925  -4.509  0.00  0.00     0.083 H 
ATOM     26  C   LIG d   1       4.394  -0.750  -1.788  0.00  0.00     0.028 A 
ATOM     27  C   LIG d   1       4.015  -1.972  -2.311  0.00  0.00    -0.043 A 
ATOM     28  H   LIG d   1       4.384  -0.600  -0.718  0.00  0.00     0.083 H 
ATOM     29  C   LIG d   1       4.031  -2.154  -3.685  0.00  0.00    -0.051 A 
ATOM     30  H   LIG d   1       3.709  -2.775  -1.656  0.00  0.00     0.063 H 
ATOM     31  H   LIG d   1       3.739  -3.097  -4.121  0.00  0.00     0.062 H 
ENDBRANCH  19  22
ENDBRANCH   8  19
ENDBRANCH   3   6
BRANCH   1  32
ATOM     32  C   LIG d   1       9.376   1.947  -4.777  0.00  0.00     0.257 A 
ATOM     33  N   LIG d   1      10.360   1.470  -4.026  0.00  0.00    -0.208 N 
ATOM     34  C   LIG d   1      11.026   2.236  -3.185  0.00  0.00     0.174 A 
ATOM     35  H   LIG d   1      10.595   0.532  -4.097  0.00  0.00     0.453 HD
ATOM     36  C   LIG d   1      10.722   3.577  -3.054  0.00  0.00     0.044 A 
ATOM     37  H   LIG d   1      11.820   1.810  -2.592  0.00  0.00     0.138 H 
ATOM     38  C   LIG d   1       9.697   4.122  -3.823  0.00  0.00     0.133 A 
ATOM     39  H   LIG d   1      11.274   4.196  -2.363  0.00  0.00     0.071 H 
ATOM     40  C   LIG d   1       9.008   3.286  -4.697  0.00  0.00     0.055 A 
ATOM     41  H   LIG d   1       8.204   3.671  -5.306  0.00  0.00     0.072 H 
BRANCH  38  42
ATOM     42  O   LIG d   1       9.372   5.436  -3.718  0.00  0.00    -0.489 OA
BRANCH  42  43
ATOM     43  C   LIG d   1      10.151   6.227  -2.818  0.00  0.00     0.113 C 
ATOM     44  H   LIG d   1      10.796   6.896  -3.387  0.00  0.00     0.072 H 
ATOM     45  H   LIG d   1      10.763   5.573  -2.197  0.00  0.00     0.072 H 
BRANCH  43  46
ATOM     46  C   LIG d   1       9.220   7.052  -1.927  0.00  0.00     0.081 C 
ATOM     47  H   LIG d   1       8.221   6.616  -1.944  0.00  0.00     0.059 H 
ATOM     48  H   LIG d   1       9.176   8.076  -2.298  0.00  0.00     0.059 H 
BRANCH  46  49
ATOM     49  O   LIG d   1       9.719   7.052  -0.588  0.00  0.00    -0.380 OA
BRANCH  49  50
ATOM     50  C   LIG d   1      10.747   6.088  -0.352  0.00  0.00     0.037 C 
ATOM     51  H   LIG d   1      10.389   5.098  -0.633  0.00  0.00     0.052 H 
ATOM     52  H   LIG d   1      11.624   6.340  -0.948  0.00  0.00     0.052 H 
ATOM     53  H   LIG d   1      11.012   6.092   0.705  0.00  0.00     0.052 H 
ENDBRANCH  49  50
ENDBRANCH  46  49
ENDBRANCH  43  46
ENDBRANCH  42  43
ENDBRANCH  38  42
ENDBRANCH   1  32
TORSDOF 9
ENDMDL
MODEL 8
REMARK VINA RESULT:      -6.0      4.148      6.382
REMARK  9 active torsions:
REMARK  status: ('A' for Active; 'I' for Inactive)
REMARK    1  A    between atoms: C_1  and  O_2 
REMARK    2  A    between atoms: O_2  and  C_3 
REMARK    3  A    between atoms: C_3  and  C_4 
REMARK    4  A    between atoms: C_4  and  O_5 
REMARK    5  A    between atoms: O_5  and  C_6 
REMARK    6  A    between atoms: C_10  and  C_12 
REMARK    7  A    between atoms: C_14  and  C_17 
REMARK    8  A    between atoms: N_22  and  C_23 
REMARK    9  A    between atoms: C_23  and  C_24 
ROOT
ATOM      1  C   LIG d   1       8.591   1.662  -4.144  0.00  0.00     0.267 A 
ATOM      2  N   LIG d   1       8.345   2.860  -4.703  0.00  0.00    -0.181 NA
ATOM      3  C   LIG d   1       9.465   3.496  -4.905  0.00  0.00     0.276 A 
ATOM      4  O   LIG d   1      10.474   2.724  -4.481  0.00  0.00    -0.332 OA
ATOM      5  N   LIG d   1       9.885   1.533  -3.983  0.00  0.00    -0.050 NA
ENDROOT
BRANCH   3   6
ATOM      6  C   LIG d   1       9.600   4.867  -5.515  0.00  0.00     0.060 C 
ATOM      7  H   LIG d   1       8.621   5.270  -5.774  0.00  0.00     0.095 H 
ATOM      8  N   LIG d   1      10.316   5.783  -4.590  0.00  0.00     0.247 N 
ATOM      9  C   LIG d   1      10.873   6.858  -5.442  0.00  0.00    -0.031 C 
ATOM     10  H   LIG d   1      11.062   5.291  -4.121  0.00  0.00     0.204 HD
ATOM     11  C   LIG d   1      11.041   6.277  -6.858  0.00  0.00    -0.007 C 
ATOM     12  H   LIG d   1      11.840   7.178  -5.054  0.00  0.00     0.082 H 
ATOM     13  H   LIG d   1      10.183   7.703  -5.467  0.00  0.00     0.082 H 
ATOM     14  C   LIG d   1      10.521   4.823  -6.760  0.00  0.00     0.004 C 
ATOM     15  H   LIG d   1      12.091   6.285  -7.147  0.00  0.00     0.032 H 
ATOM     16  H   LIG d   1      10.445   6.844  -7.572  0.00  0.00     0.032 H 
ATOM     17  H   LIG d   1      11.347   4.128  -6.606  0.00  0.00     0.033 H 
ATOM     18  H   LIG d   1       9.953   4.556  -7.651  0.00  0.00     0.033 H 
BRANCH   8  19
ATOM     19  C   LIG d   1       9.380   6.344  -3.606  0.00  0.00    -0.004 C 
ATOM     20  H   LIG d   1       9.179   7.387  -3.850  0.00  0.00     0.087 H 
ATOM     21  H   LIG d   1       8.447   5.779  -3.630  0.00  0.00     0.087 H 
BRANCH  19  22
ATOM     22  C   LIG d   1       9.985   6.256  -2.230  0.00  0.00     0.015 A 
ATOM     23  C   LIG d   1       9.659   7.187  -1.262  0.00  0.00     0.036 A 
ATOM     24  N   LIG d   1      10.180   7.113  -0.053  0.00  0.00    -0.263 NA
ATOM     25  H   LIG d   1       8.966   7.982  -1.497  0.00  0.00     0.083 H 
ATOM     26  C   LIG d   1      11.035   6.164   0.278  0.00  0.00     0.028 A 
ATOM     27  C   LIG d   1      11.413   5.202  -0.640  0.00  0.00    -0.043 A 
ATOM     28  H   LIG d   1      11.445   6.139   1.277  0.00  0.00     0.083 H 
ATOM     29  C   LIG d   1      10.881   5.243  -1.920  0.00  0.00    -0.051 A 
ATOM     30  H   LIG d   1      12.112   4.427  -0.364  0.00  0.00     0.063 H 
ATOM     31  H   LIG d   1      11.156   4.505  -2.657  0.00  0.00     0.062 H 
ENDBRANCH  19  22
ENDBRANCH   8  19
ENDBRANCH   3   6
BRANCH   1  32
ATOM     32  C   LIG d   1       7.566   0.656  -3.767  0.00  0.00     0.257 A 
ATOM     33  N   LIG d   1       7.893  -0.630  -3.723  0.00  0.00    -0.208 N 
ATOM     34  C   LIG d   1       7.016  -1.558  -3.393  0.00  0.00     0.174 A 
ATOM     35  H   LIG d   1       8.801  -0.894  -3.938  0.00  0.00     0.453 HD
ATOM     36  C   LIG d   1       5.714  -1.224  -3.080  0.00  0.00     0.044 A 
ATOM     37  H   LIG d   1       7.321  -2.593  -3.368  0.00  0.00     0.138 H 
ATOM     38  C   LIG d   1       5.326   0.113  -3.113  0.00  0.00     0.133 A 
ATOM     39  H   LIG d   1       5.003  -1.992  -2.811  0.00  0.00     0.071 H 
ATOM     40  C   LIG d   1       6.272   1.069  -3.470  0.00  0.00     0.055 A 
ATOM     41  H   LIG d   1       6.007   2.114  -3.511  0.00  0.00     0.072 H 
BRANCH  38  42
ATOM     42  O   LIG d   1       4.053   0.476  -2.810  0.00  0.00    -0.489 OA
BRANCH  42  43
ATOM     43  C   LIG d   1       3.003  -0.218  -3.486  0.00  0.00     0.113 C 
ATOM     44  H   LIG d   1       2.160  -0.352  -2.808  0.00  0.00     0.072 H 
ATOM     45  H   LIG d   1       3.364  -1.193  -3.813  0.00  0.00     0.072 H 
BRANCH  43  46
ATOM     46  C   LIG d   1       2.554   0.594  -4.703  0.00  0.00     0.081 C 
ATOM     47  H   LIG d   1       2.532   1.653  -4.444  0.00  0.00     0.059 H 
ATOM     48  H   LIG d   1       1.558   0.274  -5.007  0.00  0.00     0.059 H 
BRANCH  46  49
ATOM     49  O   LIG d   1       3.470   0.385  -5.779  0.00  0.00    -0.380 OA
BRANCH  49  50
ATOM     50  C   LIG d   1       2.841   0.148  -7.041  0.00  0.00     0.037 C 
ATOM     51  H   LIG d   1       2.006   0.837  -7.165  0.00  0.00     0.052 H 
ATOM     52  H   LIG d   1       3.563   0.305  -7.842  0.00  0.00     0.052 H 
ATOM     53  H   LIG d   1       2.475  -0.878  -7.076  0.00  0.00     0.052 H 
ENDBRANCH  49  50
ENDBRANCH  46  49
ENDBRANCH  43  46
ENDBRANCH  42  43
ENDBRANCH  38  42
ENDBRANCH   1  32
TORSDOF 9
ENDMDL
MODEL 9
REMARK VINA RESULT:      -6.0      5.631      9.061
REMARK  9 active torsions:
REMARK  status: ('A' for Active; 'I' for Inactive)
REMARK    1  A    between atoms: C_1  and  O_2 
REMARK    2  A    between atoms: O_2  and  C_3 
REMARK    3  A    between atoms: C_3  and  C_4 
REMARK    4  A    between atoms: C_4  and  O_5 
REMARK    5  A    between atoms: O_5  and  C_6 
REMARK    6  A    between atoms: C_10  and  C_12 
REMARK    7  A    between atoms: C_14  and  C_17 
REMARK    8  A    between atoms: N_22  and  C_23 
REMARK    9  A    between atoms: C_23  and  C_24 
ROOT
ATOM      1  C   LIG d   1      10.203   4.017  -2.843  0.00  0.00     0.267 A 
ATOM      2  N   LIG d   1       9.488   3.647  -3.920  0.00  0.00    -0.181 NA
ATOM      3  C   LIG d   1       9.780   2.422  -4.250  0.00  0.00     0.276 A 
ATOM      4  O   LIG d   1      10.698   1.957  -3.393  0.00  0.00    -0.332 OA
ATOM      5  N   LIG d   1      10.967   3.014  -2.483  0.00  0.00    -0.050 NA
ENDROOT
BRANCH   3   6
ATOM      6  C   LIG d   1       9.184   1.655  -5.403  0.00  0.00     0.060 C 
ATOM      7  H   LIG d   1       9.793   0.782  -5.637  0.00  0.00     0.095 H 
ATOM      8  N   LIG d   1       7.787   1.254  -5.099  0.00  0.00     0.247 N 
ATOM      9  C   LIG d   1       7.139   1.031  -6.412  0.00  0.00    -0.031 C 
ATOM     10  H   LIG d   1       7.313   1.992  -4.600  0.00  0.00     0.204 HD
ATOM     11  C   LIG d   1       7.904   1.877  -7.446  0.00  0.00    -0.007 C 
ATOM     12  H   LIG d   1       6.096   1.345  -6.371  0.00  0.00     0.082 H 
ATOM     13  H   LIG d   1       7.200  -0.025  -6.677  0.00  0.00     0.082 H 
ATOM     14  C   LIG d   1       9.033   2.567  -6.646  0.00  0.00     0.004 C 
ATOM     15  H   LIG d   1       7.243   2.623  -7.887  0.00  0.00     0.032 H 
ATOM     16  H   LIG d   1       8.324   1.237  -8.221  0.00  0.00     0.032 H 
ATOM     17  H   LIG d   1       8.739   3.574  -6.353  0.00  0.00     0.033 H 
ATOM     18  H   LIG d   1       9.958   2.587  -7.224  0.00  0.00     0.033 H 
BRANCH   8  19
ATOM     19  C   LIG d   1       7.775   0.017  -4.307  0.00  0.00    -0.004 C 
ATOM     20  H   LIG d   1       7.798  -0.843  -4.976  0.00  0.00     0.087 H 
ATOM     21  H   LIG d   1       8.650  -0.005  -3.656  0.00  0.00     0.087 H 
BRANCH  19  22
ATOM     22  C   LIG d   1       6.524  -0.031  -3.469  0.00  0.00     0.015 A 
ATOM     23  C   LIG d   1       5.930  -1.242  -3.168  0.00  0.00     0.036 A 
ATOM     24  N   LIG d   1       4.838  -1.292  -2.430  0.00  0.00    -0.263 NA
ATOM     25  H   LIG d   1       6.367  -2.158  -3.538  0.00  0.00     0.083 H 
ATOM     26  C   LIG d   1       4.265  -0.200  -1.962  0.00  0.00     0.028 A 
ATOM     27  C   LIG d   1       4.800   1.047  -2.227  0.00  0.00    -0.043 A 
ATOM     28  H   LIG d   1       3.369  -0.281  -1.365  0.00  0.00     0.083 H 
ATOM     29  C   LIG d   1       5.951   1.140  -2.995  0.00  0.00    -0.051 A 
ATOM     30  H   LIG d   1       4.327   1.938  -1.841  0.00  0.00     0.063 H 
ATOM     31  H   LIG d   1       6.392   2.100  -3.217  0.00  0.00     0.062 H 
ENDBRANCH  19  22
ENDBRANCH   8  19
ENDBRANCH   3   6
BRANCH   1  32
ATOM     32  C   LIG d   1      10.143   5.342  -2.175  0.00  0.00     0.257 A 
ATOM     33  N   LIG d   1       9.640   6.383  -2.827  0.00  0.00    -0.208 N 
ATOM     34  C   LIG d   1       9.567   7.578  -2.274  0.00  0.00     0.174 A 
ATOM     35  H   LIG d   1       9.317   6.262  -3.732  0.00  0.00     0.453 HD
ATOM     36  C   LIG d   1      10.016   7.793  -0.986  0.00  0.00     0.044 A 
ATOM     37  H   LIG d   1       9.150   8.399  -2.836  0.00  0.00     0.138 H 
ATOM     38  C   LIG d   1      10.552   6.728  -0.264  0.00  0.00     0.133 A 
ATOM     39  H   LIG d   1       9.951   8.775  -0.542  0.00  0.00     0.071 H 
ATOM     40  C   LIG d   1      10.621   5.481  -0.877  0.00  0.00     0.055 A 
ATOM     41  H   LIG d   1      11.035   4.634  -0.351  0.00  0.00     0.072 H 
BRANCH  38  42
ATOM     42  O   LIG d   1      11.003   6.905   1.004  0.00  0.00    -0.489 OA
BRANCH  42  43
ATOM     43  C   LIG d   1      10.973   5.767   1.867  0.00  0.00     0.113 C 
ATOM     44  H   LIG d   1      11.861   5.158   1.698  0.00  0.00     0.072 H 
ATOM     45  H   LIG d   1      10.082   5.175   1.657  0.00  0.00     0.072 H 
BRANCH  43  46
ATOM     46  C   LIG d   1      10.945   6.232   3.325  0.00  0.00     0.081 C 
ATOM     47  H   LIG d   1      11.553   5.562   3.932  0.00  0.00     0.059 H 
ATOM     48  H   LIG d   1       9.918   6.223   3.690  0.00  0.00     0.059 H 
BRANCH  46  49
ATOM     49  O   LIG d   1      11.468   7.559   3.411  0.00  0.00    -0.380 OA
BRANCH  49  50
ATOM     50  C   LIG d   1      11.719   8.000   4.747  0.00  0.00     0.037 C 
ATOM     51  H   LIG d   1      10.774   8.241   5.234  0.00  0.00     0.052 H 
ATOM     52  H   LIG d   1      12.221   7.208   5.302  0.00  0.00     0.052 H 
ATOM     53  H   LIG d   1      12.352   8.886   4.724  0.00  0.00     0.052 H 
ENDBRANCH  49  50
ENDBRANCH  46  49
ENDBRANCH  43  46
ENDBRANCH  42  43
ENDBRANCH  38  42
ENDBRANCH   1  32
TORSDOF 9
ENDMDL
