MODEL 1
REMARK VINA RESULT:      -6.6      0.000      0.000
REMARK  8 active torsions:
REMARK  status: ('A' for Active; 'I' for Inactive)
REMARK    1  A    between atoms: C_1  and  C_2 
REMARK    2  A    between atoms: C_2  and  CA_3 
REMARK    3  A    between atoms: CA_3  and  C_5 
REMARK    4  A    between atoms: CA_3  and  N_7 
REMARK       I    between atoms: N_7  and  C_8 
REMARK    5  A    between atoms: C_8  and  C_10 
REMARK    6  A    between atoms: C_10  and  O_11 
REMARK    7  A    between atoms: O_11  and  C_12 
REMARK    8  A    between atoms: C_26  and  C_27 
ROOT
ATOM      1  C   LIG d   1       7.284   0.352  -6.002  0.00  0.00     0.128 A 
ATOM      2  C   LIG d   1       7.680   0.920  -7.209  0.00  0.00    -0.019 A 
ATOM      3  C   LIG d   1       8.436   2.071  -7.214  0.00  0.00    -0.047 A 
ATOM      4  C   LIG d   1       8.812   2.661  -6.008  0.00  0.00     0.026 A 
ATOM      5  C   LIG d   1       9.627   3.891  -5.993  0.00  0.00    -0.000 A 
ATOM      6  C   LIG d   1      10.049   4.508  -7.164  0.00  0.00    -0.053 A 
ATOM      7  C   LIG d   1      10.810   5.658  -7.092  0.00  0.00    -0.061 A 
ATOM      8  C   LIG d   1      11.156   6.200  -5.863  0.00  0.00    -0.061 A 
ATOM      9  C   LIG d   1      10.746   5.602  -4.691  0.00  0.00    -0.047 A 
ATOM     10  C   LIG d   1       9.977   4.442  -4.742  0.00  0.00     0.067 A 
ATOM     11  C   LIG d   1       9.514   3.763  -3.524  0.00  0.00     0.345 A 
ATOM     12  O   LIG d   1       9.802   4.216  -2.432  0.00  0.00    -0.244 OA
ATOM     13  O   LIG d   1       8.774   2.645  -3.610  0.00  0.00    -0.421 OA
ATOM     14  C   LIG d   1       8.420   2.088  -4.789  0.00  0.00     0.146 A 
ATOM     15  C   LIG d   1       7.653   0.930  -4.800  0.00  0.00     0.034 A 
ATOM     16  H   LIG d   1       7.392   0.460  -8.142  0.00  0.00     0.065 H 
ATOM     17  H   LIG d   1       8.740   2.515  -8.150  0.00  0.00     0.063 H 
ATOM     18  H   LIG d   1       9.785   4.091  -8.125  0.00  0.00     0.062 H 
ATOM     19  H   LIG d   1      11.139   6.140  -8.001  0.00  0.00     0.062 H 
ATOM     20  H   LIG d   1      11.752   7.100  -5.825  0.00  0.00     0.062 H 
ATOM     21  H   LIG d   1      11.018   6.031  -3.738  0.00  0.00     0.063 H 
ENDROOT
BRANCH   1  22
ATOM     22  O   LIG d   1       6.534  -0.780  -6.003  0.00  0.00    -0.482 OA
BRANCH  22  23
ATOM     23  C   LIG d   1       5.308  -0.746  -6.738  0.00  0.00     0.165 C 
ATOM     24  H   LIG d   1       5.063  -1.750  -7.083  0.00  0.00     0.080 H 
ATOM     25  H   LIG d   1       5.418  -0.084  -7.598  0.00  0.00     0.080 H 
BRANCH  23  26
ATOM     26  C   LIG d   1       4.204  -0.235  -5.849  0.00  0.00     0.251 C 
ATOM     27  N   LIG d   1       4.216  -0.516  -4.531  0.00  0.00    -0.305 N 
ATOM     28  H   LIG d   1       4.935  -1.046  -4.154  0.00  0.00     0.149 HD
ATOM     29  O   LIG d   1       3.304   0.427  -6.321  0.00  0.00    -0.272 OA
BRANCH  27  30
ATOM     30  CA  LIG d   1       3.141  -0.020  -3.667  0.00  0.00     0.062 C 
ATOM     31  HA  LIG d   1       2.272   0.229  -4.275  0.00  0.00     0.056 H 
BRANCH  30  32
ATOM     32  C   LIG d   1       2.762  -1.101  -2.653  0.00  0.00    -0.032 C 
ATOM     33  H   LIG d   1       2.630  -0.647  -1.671  0.00  0.00     0.028 H 
ATOM     34  H   LIG d   1       1.832  -1.579  -2.961  0.00  0.00     0.028 H 
BRANCH  32  35
ATOM     35  C   LIG d   1       3.876  -2.148  -2.585  0.00  0.00    -0.063 C 
ATOM     36  H   LIG d   1       4.479  -2.096  -3.491  0.00  0.00     0.023 H 
ATOM     37  H   LIG d   1       4.505  -1.954  -1.718  0.00  0.00     0.023 H 
ATOM     38  H   LIG d   1       3.435  -3.142  -2.499  0.00  0.00     0.023 H 
ENDBRANCH  32  35
ENDBRANCH  30  32
BRANCH  30  39
ATOM     39  C   LIG d   1       3.612   1.211  -2.936  0.00  0.00     0.062 C 
ATOM     40  O   LIG d   1       3.604   2.284  -3.492  0.00  0.00    -0.548 OA
ATOM     41  OXT LIG d   1       4.041   1.115  -1.668  0.00  0.00    -0.548 OA
ENDBRANCH  30  39
ENDBRANCH  27  30
ENDBRANCH  23  26
ENDBRANCH  22  23
ENDBRANCH   1  22
BRANCH  15  42
ATOM     42  C   LIG d   1       7.222   0.302  -3.500  0.00  0.00    -0.033 C 
ATOM     43  H   LIG d   1       7.812   0.718  -2.683  0.00  0.00     0.028 H 
ATOM     44  H   LIG d   1       6.166   0.510  -3.328  0.00  0.00     0.028 H 
ATOM     45  H   LIG d   1       7.377  -0.776  -3.547  0.00  0.00     0.028 H 
ENDBRANCH  15  42
TORSDOF 8
ENDMDL
MODEL 2
REMARK VINA RESULT:      -6.5      5.469      7.865
REMARK  8 active torsions:
REMARK  status: ('A' for Active; 'I' for Inactive)
REMARK    1  A    between atoms: C_1  and  C_2 
REMARK    2  A    between atoms: C_2  and  CA_3 
REMARK    3  A    between atoms: CA_3  and  C_5 
REMARK    4  A    between atoms: CA_3  and  N_7 
REMARK       I    between atoms: N_7  and  C_8 
REMARK    5  A    between atoms: C_8  and  C_10 
REMARK    6  A    between atoms: C_10  and  O_11 
REMARK    7  A    between atoms: O_11  and  C_12 
REMARK    8  A    between atoms: C_26  and  C_27 
ROOT
ATOM      1  C   LIG d   1       3.213  -1.157  -8.408  0.00  0.00     0.128 A 
ATOM      2  C   LIG d   1       2.511  -0.098  -7.842  0.00  0.00    -0.019 A 
ATOM      3  C   LIG d   1       2.747   0.264  -6.534  0.00  0.00    -0.047 A 
ATOM      4  C   LIG d   1       3.698  -0.424  -5.783  0.00  0.00     0.026 A 
ATOM      5  C   LIG d   1       3.969  -0.046  -4.382  0.00  0.00    -0.000 A 
ATOM      6  C   LIG d   1       3.298   0.998  -3.759  0.00  0.00    -0.053 A 
ATOM      7  C   LIG d   1       3.592   1.309  -2.446  0.00  0.00    -0.061 A 
ATOM      8  C   LIG d   1       4.549   0.590  -1.747  0.00  0.00    -0.061 A 
ATOM      9  C   LIG d   1       5.225  -0.450  -2.348  0.00  0.00    -0.047 A 
ATOM     10  C   LIG d   1       4.943  -0.780  -3.672  0.00  0.00     0.067 A 
ATOM     11  C   LIG d   1       5.635  -1.878  -4.362  0.00  0.00     0.345 A 
ATOM     12  O   LIG d   1       6.478  -2.526  -3.774  0.00  0.00    -0.244 OA
ATOM     13  O   LIG d   1       5.338  -2.169  -5.640  0.00  0.00    -0.421 OA
ATOM     14  C   LIG d   1       4.412  -1.489  -6.352  0.00  0.00     0.146 A 
ATOM     15  C   LIG d   1       4.160  -1.847  -7.669  0.00  0.00     0.034 A 
ATOM     16  H   LIG d   1       1.778   0.437  -8.426  0.00  0.00     0.065 H 
ATOM     17  H   LIG d   1       2.199   1.083  -6.092  0.00  0.00     0.063 H 
ATOM     18  H   LIG d   1       2.552   1.564  -4.297  0.00  0.00     0.062 H 
ATOM     19  H   LIG d   1       3.071   2.121  -1.959  0.00  0.00     0.062 H 
ATOM     20  H   LIG d   1       4.767   0.846  -0.720  0.00  0.00     0.062 H 
ATOM     21  H   LIG d   1       5.969  -1.006  -1.797  0.00  0.00     0.063 H 
ENDROOT
BRANCH   1  22
ATOM     22  O   LIG d   1       2.972  -1.515  -9.696  0.00  0.00    -0.482 OA
BRANCH  22  23
ATOM     23  C   LIG d   1       1.628  -1.384 -10.164  0.00  0.00     0.165 C 
ATOM     24  H   LIG d   1       1.575  -0.580 -10.899  0.00  0.00     0.080 H 
ATOM     25  H   LIG d   1       0.971  -1.153  -9.325  0.00  0.00     0.080 H 
BRANCH  23  26
ATOM     26  C   LIG d   1       1.190  -2.677 -10.803  0.00  0.00     0.251 C 
ATOM     27  N   LIG d   1       0.373  -3.515 -10.135  0.00  0.00    -0.305 N 
ATOM     28  H   LIG d   1       0.066  -3.287  -9.244  0.00  0.00     0.149 HD
ATOM     29  O   LIG d   1       1.575  -2.963 -11.917  0.00  0.00    -0.272 OA
BRANCH  27  30
ATOM     30  CA  LIG d   1      -0.052  -4.773 -10.756  0.00  0.00     0.062 C 
ATOM     31  HA  LIG d   1       0.067  -4.703 -11.837  0.00  0.00     0.056 H 
BRANCH  30  32
ATOM     32  C   LIG d   1       0.807  -5.921 -10.221  0.00  0.00    -0.032 C 
ATOM     33  H   LIG d   1       1.855  -5.622 -10.224  0.00  0.00     0.028 H 
ATOM     34  H   LIG d   1       0.500  -6.161  -9.203  0.00  0.00     0.028 H 
BRANCH  32  35
ATOM     35  C   LIG d   1       0.625  -7.151 -11.112  0.00  0.00    -0.063 C 
ATOM     36  H   LIG d   1       0.865  -8.050 -10.543  0.00  0.00     0.023 H 
ATOM     37  H   LIG d   1      -0.407  -7.202 -11.455  0.00  0.00     0.023 H 
ATOM     38  H   LIG d   1       1.291  -7.078 -11.973  0.00  0.00     0.023 H 
ENDBRANCH  32  35
ENDBRANCH  30  32
BRANCH  30  39
ATOM     39  C   LIG d   1      -1.499  -5.033 -10.425  0.00  0.00     0.062 C 
ATOM     40  O   LIG d   1      -2.353  -4.841 -11.258  0.00  0.00    -0.548 OA
ATOM     41  OXT LIG d   1      -1.839  -5.479  -9.206  0.00  0.00    -0.548 OA
ENDBRANCH  30  39
ENDBRANCH  27  30
ENDBRANCH  23  26
ENDBRANCH  22  23
ENDBRANCH   1  22
BRANCH  15  42
ATOM     42  C   LIG d   1       4.917  -2.989  -8.297  0.00  0.00    -0.033 C 
ATOM     43  H   LIG d   1       5.158  -2.740  -9.330  0.00  0.00     0.028 H 
ATOM     44  H   LIG d   1       5.838  -3.163  -7.740  0.00  0.00     0.028 H 
ATOM     45  H   LIG d   1       4.303  -3.889  -8.274  0.00  0.00     0.028 H 
ENDBRANCH  15  42
TORSDOF 8
ENDMDL
MODEL 3
REMARK VINA RESULT:      -6.5      5.447      8.919
REMARK  8 active torsions:
REMARK  status: ('A' for Active; 'I' for Inactive)
REMARK    1  A    between atoms: C_1  and  C_2 
REMARK    2  A    between atoms: C_2  and  CA_3 
REMARK    3  A    between atoms: CA_3  and  C_5 
REMARK    4  A    between atoms: CA_3  and  N_7 
REMARK       I    between atoms: N_7  and  C_8 
REMARK    5  A    between atoms: C_8  and  C_10 
REMARK    6  A    between atoms: C_10  and  O_11 
REMARK    7  A    between atoms: O_11  and  C_12 
REMARK    8  A    between atoms: C_26  and  C_27 
ROOT
ATOM      1  C   LIG d   1       2.899   0.220  -9.322  0.00  0.00     0.128 A 
ATOM      2  C   LIG d   1       1.723  -0.492  -9.533  0.00  0.00    -0.019 A 
ATOM      3  C   LIG d   1       1.482  -1.078 -10.756  0.00  0.00    -0.047 A 
ATOM      4  C   LIG d   1       2.423  -0.966 -11.778  0.00  0.00     0.026 A 
ATOM      5  C   LIG d   1       2.185  -1.592 -13.093  0.00  0.00    -0.000 A 
ATOM      6  C   LIG d   1       1.028  -2.311 -13.367  0.00  0.00    -0.053 A 
ATOM      7  C   LIG d   1       0.857  -2.877 -14.615  0.00  0.00    -0.061 A 
ATOM      8  C   LIG d   1       1.828  -2.734 -15.594  0.00  0.00    -0.061 A 
ATOM      9  C   LIG d   1       2.983  -2.023 -15.342  0.00  0.00    -0.047 A 
ATOM     10  C   LIG d   1       3.174  -1.445 -14.089  0.00  0.00     0.067 A 
ATOM     11  C   LIG d   1       4.385  -0.679 -13.765  0.00  0.00     0.345 A 
ATOM     12  O   LIG d   1       5.254  -0.536 -14.604  0.00  0.00    -0.244 OA
ATOM     13  O   LIG d   1       4.538  -0.134 -12.546  0.00  0.00    -0.421 OA
ATOM     14  C   LIG d   1       3.613  -0.254 -11.568  0.00  0.00     0.146 A 
ATOM     15  C   LIG d   1       3.840   0.336 -10.332  0.00  0.00     0.034 A 
ATOM     16  H   LIG d   1       0.997  -0.582  -8.740  0.00  0.00     0.065 H 
ATOM     17  H   LIG d   1       0.566  -1.627 -10.922  0.00  0.00     0.063 H 
ATOM     18  H   LIG d   1       0.267  -2.428 -12.609  0.00  0.00     0.062 H 
ATOM     19  H   LIG d   1      -0.042  -3.436 -14.830  0.00  0.00     0.062 H 
ATOM     20  H   LIG d   1       1.679  -3.182 -16.566  0.00  0.00     0.062 H 
ATOM     21  H   LIG d   1       3.734  -1.915 -16.109  0.00  0.00     0.063 H 
ENDROOT
BRANCH   1  22
ATOM     22  O   LIG d   1       3.130   0.801  -8.116  0.00  0.00    -0.482 OA
BRANCH  22  23
ATOM     23  C   LIG d   1       2.446   0.248  -6.989  0.00  0.00     0.165 C 
ATOM     24  H   LIG d   1       1.954  -0.680  -7.282  0.00  0.00     0.080 H 
ATOM     25  H   LIG d   1       1.699   0.958  -6.633  0.00  0.00     0.080 H 
BRANCH  23  26
ATOM     26  C   LIG d   1       3.436  -0.033  -5.889  0.00  0.00     0.251 C 
ATOM     27  N   LIG d   1       3.002  -0.463  -4.687  0.00  0.00    -0.305 N 
ATOM     28  H   LIG d   1       2.054  -0.591  -4.530  0.00  0.00     0.149 HD
ATOM     29  O   LIG d   1       4.621   0.127  -6.085  0.00  0.00    -0.272 OA
BRANCH  27  30
ATOM     30  CA  LIG d   1       3.966  -0.736  -3.617  0.00  0.00     0.062 C 
ATOM     31  HA  LIG d   1       4.958  -0.416  -3.931  0.00  0.00     0.056 H 
BRANCH  30  32
ATOM     32  C   LIG d   1       3.558   0.029  -2.356  0.00  0.00    -0.032 C 
ATOM     33  H   LIG d   1       2.669   0.626  -2.565  0.00  0.00     0.028 H 
ATOM     34  H   LIG d   1       3.340  -0.679  -1.556  0.00  0.00     0.028 H 
BRANCH  32  35
ATOM     35  C   LIG d   1       4.701   0.949  -1.926  0.00  0.00    -0.063 C 
ATOM     36  H   LIG d   1       5.505   0.897  -2.660  0.00  0.00     0.023 H 
ATOM     37  H   LIG d   1       4.338   1.974  -1.858  0.00  0.00     0.023 H 
ATOM     38  H   LIG d   1       5.076   0.632  -0.953  0.00  0.00     0.023 H 
ENDBRANCH  32  35
ENDBRANCH  30  32
BRANCH  30  39
ATOM     39  C   LIG d   1       3.984  -2.214  -3.323  0.00  0.00     0.062 C 
ATOM     40  O   LIG d   1       3.620  -2.621  -2.246  0.00  0.00    -0.548 OA
ATOM     41  OXT LIG d   1       4.404  -3.079  -4.260  0.00  0.00    -0.548 OA
ENDBRANCH  30  39
ENDBRANCH  27  30
ENDBRANCH  23  26
ENDBRANCH  22  23
ENDBRANCH   1  22
BRANCH  15  42
ATOM     42  C   LIG d   1       5.113   1.105 -10.088  0.00  0.00    -0.033 C 
ATOM     43  H   LIG d   1       5.223   1.296  -9.021  0.00  0.00     0.028 H 
ATOM     44  H   LIG d   1       5.963   0.522 -10.443  0.00  0.00     0.028 H 
ATOM     45  H   LIG d   1       5.073   2.053 -10.625  0.00  0.00     0.028 H 
ENDBRANCH  15  42
TORSDOF 8
ENDMDL
MODEL 4
REMARK VINA RESULT:      -6.4      5.586      8.141
REMARK  8 active torsions:
REMARK  status: ('A' for Active; 'I' for Inactive)
REMARK    1  A    between atoms: C_1  and  C_2 
REMARK    2  A    between atoms: C_2  and  CA_3 
REMARK    3  A    between atoms: CA_3  and  C_5 
REMARK    4  A    between atoms: CA_3  and  N_7 
REMARK       I    between atoms: N_7  and  C_8 
REMARK    5  A    between atoms: C_8  and  C_10 
REMARK    6  A    between atoms: C_10  and  O_11 
REMARK    7  A    between atoms: O_11  and  C_12 
REMARK    8  A    between atoms: C_26  and  C_27 
ROOT
ATOM      1  C   LIG d   1       3.664  -1.927  -8.336  0.00  0.00     0.128 A 
ATOM      2  C   LIG d   1       4.317  -2.785  -7.457  0.00  0.00    -0.019 A 
ATOM      3  C   LIG d   1       4.472  -2.431  -6.135  0.00  0.00    -0.047 A 
ATOM      4  C   LIG d   1       3.964  -1.216  -5.677  0.00  0.00     0.026 A 
ATOM      5  C   LIG d   1       4.114  -0.821  -4.263  0.00  0.00    -0.000 A 
ATOM      6  C   LIG d   1       4.760  -1.632  -3.338  0.00  0.00    -0.053 A 
ATOM      7  C   LIG d   1       4.872  -1.214  -2.027  0.00  0.00    -0.061 A 
ATOM      8  C   LIG d   1       4.347   0.005  -1.627  0.00  0.00    -0.061 A 
ATOM      9  C   LIG d   1       3.703   0.824  -2.531  0.00  0.00    -0.047 A 
ATOM     10  C   LIG d   1       3.580   0.419  -3.858  0.00  0.00     0.067 A 
ATOM     11  C   LIG d   1       2.902   1.252  -4.863  0.00  0.00     0.345 A 
ATOM     12  O   LIG d   1       2.432   2.326  -4.541  0.00  0.00    -0.244 OA
ATOM     13  O   LIG d   1       2.801   0.832  -6.135  0.00  0.00    -0.421 OA
ATOM     14  C   LIG d   1       3.300  -0.351  -6.559  0.00  0.00     0.146 A 
ATOM     15  C   LIG d   1       3.156  -0.719  -7.890  0.00  0.00     0.034 A 
ATOM     16  H   LIG d   1       4.706  -3.727  -7.812  0.00  0.00     0.065 H 
ATOM     17  H   LIG d   1       4.982  -3.094  -5.453  0.00  0.00     0.063 H 
ATOM     18  H   LIG d   1       5.171  -2.585  -3.642  0.00  0.00     0.062 H 
ATOM     19  H   LIG d   1       5.374  -1.843  -1.306  0.00  0.00     0.062 H 
ATOM     20  H   LIG d   1       4.443   0.318  -0.598  0.00  0.00     0.062 H 
ATOM     21  H   LIG d   1       3.297   1.772  -2.213  0.00  0.00     0.063 H 
ENDROOT
BRANCH   1  22
ATOM     22  O   LIG d   1       3.519  -2.279  -9.640  0.00  0.00    -0.482 OA
BRANCH  22  23
ATOM     23  C   LIG d   1       3.121  -3.625  -9.908  0.00  0.00     0.165 C 
ATOM     24  H   LIG d   1       3.337  -4.248  -9.039  0.00  0.00     0.080 H 
ATOM     25  H   LIG d   1       3.671  -4.003 -10.770  0.00  0.00     0.080 H 
BRANCH  23  26
ATOM     26  C   LIG d   1       1.643  -3.664 -10.199  0.00  0.00     0.251 C 
ATOM     27  N   LIG d   1       0.980  -4.837 -10.167  0.00  0.00    -0.305 N 
ATOM     28  H   LIG d   1       1.454  -5.657  -9.956  0.00  0.00     0.149 HD
ATOM     29  O   LIG d   1       1.051  -2.639 -10.462  0.00  0.00    -0.272 OA
BRANCH  27  30
ATOM     30  CA  LIG d   1      -0.457  -4.874 -10.450  0.00  0.00     0.062 C 
ATOM     31  HA  LIG d   1      -0.898  -3.905 -10.216  0.00  0.00     0.056 H 
BRANCH  30  32
ATOM     32  C   LIG d   1      -0.677  -5.192 -11.930  0.00  0.00    -0.032 C 
ATOM     33  H   LIG d   1       0.268  -5.099 -12.466  0.00  0.00     0.028 H 
ATOM     34  H   LIG d   1      -1.053  -6.210 -12.031  0.00  0.00     0.028 H 
BRANCH  32  35
ATOM     35  C   LIG d   1      -1.694  -4.211 -12.516  0.00  0.00    -0.063 C 
ATOM     36  H   LIG d   1      -2.123  -3.610 -11.714  0.00  0.00     0.023 H 
ATOM     37  H   LIG d   1      -1.198  -3.559 -13.234  0.00  0.00     0.023 H 
ATOM     38  H   LIG d   1      -2.487  -4.767 -13.018  0.00  0.00     0.023 H 
ENDBRANCH  32  35
ENDBRANCH  30  32
BRANCH  30  39
ATOM     39  C   LIG d   1      -1.108  -5.939  -9.605  0.00  0.00     0.062 C 
ATOM     40  O   LIG d   1      -2.166  -5.719  -9.065  0.00  0.00    -0.548 OA
ATOM     41  OXT LIG d   1      -0.512  -7.132  -9.454  0.00  0.00    -0.548 OA
ENDBRANCH  30  39
ENDBRANCH  27  30
ENDBRANCH  23  26
ENDBRANCH  22  23
ENDBRANCH   1  22
BRANCH  15  42
ATOM     42  C   LIG d   1       2.447   0.199  -8.852  0.00  0.00    -0.033 C 
ATOM     43  H   LIG d   1       2.648  -0.120  -9.874  0.00  0.00     0.028 H 
ATOM     44  H   LIG d   1       1.373   0.163  -8.664  0.00  0.00     0.028 H 
ATOM     45  H   LIG d   1       2.805   1.219  -8.713  0.00  0.00     0.028 H 
ENDBRANCH  15  42
TORSDOF 8
ENDMDL
MODEL 5
REMARK VINA RESULT:      -6.4      1.825      2.967
REMARK  8 active torsions:
REMARK  status: ('A' for Active; 'I' for Inactive)
REMARK    1  A    between atoms: C_1  and  C_2 
REMARK    2  A    between atoms: C_2  and  CA_3 
REMARK    3  A    between atoms: CA_3  and  C_5 
REMARK    4  A    between atoms: CA_3  and  N_7 
REMARK       I    between atoms: N_7  and  C_8 
REMARK    5  A    between atoms: C_8  and  C_10 
REMARK    6  A    between atoms: C_10  and  O_11 
REMARK    7  A    between atoms: O_11  and  C_12 
REMARK    8  A    between atoms: C_26  and  C_27 
ROOT
ATOM      1  C   LIG d   1       8.696   1.500  -5.168  0.00  0.00     0.128 A 
ATOM      2  C   LIG d   1       8.817   1.825  -3.821  0.00  0.00    -0.019 A 
ATOM      3  C   LIG d   1       9.197   3.096  -3.450  0.00  0.00    -0.047 A 
ATOM      4  C   LIG d   1       9.449   4.059  -4.426  0.00  0.00     0.026 A 
ATOM      5  C   LIG d   1       9.852   5.427  -4.047  0.00  0.00    -0.000 A 
ATOM      6  C   LIG d   1       9.994   5.811  -2.720  0.00  0.00    -0.053 A 
ATOM      7  C   LIG d   1      10.373   7.106  -2.422  0.00  0.00    -0.061 A 
ATOM      8  C   LIG d   1      10.610   8.022  -3.435  0.00  0.00    -0.061 A 
ATOM      9  C   LIG d   1      10.474   7.660  -4.758  0.00  0.00    -0.047 A 
ATOM     10  C   LIG d   1      10.093   6.358  -5.079  0.00  0.00     0.067 A 
ATOM     11  C   LIG d   1       9.932   5.919  -6.472  0.00  0.00     0.345 A 
ATOM     12  O   LIG d   1      10.134   6.701  -7.381  0.00  0.00    -0.244 OA
ATOM     13  O   LIG d   1       9.564   4.656  -6.746  0.00  0.00    -0.421 OA
ATOM     14  C   LIG d   1       9.323   3.737  -5.785  0.00  0.00     0.146 A 
ATOM     15  C   LIG d   1       8.944   2.450  -6.145  0.00  0.00     0.034 A 
ATOM     16  H   LIG d   1       8.616   1.080  -3.067  0.00  0.00     0.065 H 
ATOM     17  H   LIG d   1       9.295   3.347  -2.404  0.00  0.00     0.063 H 
ATOM     18  H   LIG d   1       9.810   5.103  -1.925  0.00  0.00     0.062 H 
ATOM     19  H   LIG d   1      10.485   7.406  -1.391  0.00  0.00     0.062 H 
ATOM     20  H   LIG d   1      10.906   9.031  -3.185  0.00  0.00     0.062 H 
ATOM     21  H   LIG d   1      10.662   8.379  -5.542  0.00  0.00     0.063 H 
ENDROOT
BRANCH   1  22
ATOM     22  O   LIG d   1       8.326   0.244  -5.529  0.00  0.00    -0.482 OA
BRANCH  22  23
ATOM     23  C   LIG d   1       7.586  -0.515  -4.570  0.00  0.00     0.165 C 
ATOM     24  H   LIG d   1       7.940  -0.276  -3.567  0.00  0.00     0.080 H 
ATOM     25  H   LIG d   1       7.727  -1.579  -4.761  0.00  0.00     0.080 H 
BRANCH  23  26
ATOM     26  C   LIG d   1       6.122  -0.174  -4.682  0.00  0.00     0.251 C 
ATOM     27  N   LIG d   1       5.309  -0.344  -3.620  0.00  0.00    -0.305 N 
ATOM     28  H   LIG d   1       5.665  -0.686  -2.785  0.00  0.00     0.149 HD
ATOM     29  O   LIG d   1       5.677   0.252  -5.726  0.00  0.00    -0.272 OA
BRANCH  27  30
ATOM     30  CA  LIG d   1       3.885  -0.014  -3.729  0.00  0.00     0.062 C 
ATOM     31  HA  LIG d   1       3.619   0.102  -4.779  0.00  0.00     0.056 H 
BRANCH  30  32
ATOM     32  C   LIG d   1       3.052  -1.138  -3.111  0.00  0.00    -0.032 C 
ATOM     33  H   LIG d   1       2.348  -0.716  -2.393  0.00  0.00     0.028 H 
ATOM     34  H   LIG d   1       2.503  -1.657  -3.896  0.00  0.00     0.028 H 
BRANCH  32  35
ATOM     35  C   LIG d   1       3.978  -2.125  -2.397  0.00  0.00    -0.063 C 
ATOM     36  H   LIG d   1       3.965  -1.924  -1.325  0.00  0.00     0.023 H 
ATOM     37  H   LIG d   1       3.635  -3.142  -2.580  0.00  0.00     0.023 H 
ATOM     38  H   LIG d   1       4.994  -2.009  -2.776  0.00  0.00     0.023 H 
ENDBRANCH  32  35
ENDBRANCH  30  32
BRANCH  30  39
ATOM     39  C   LIG d   1       3.612   1.275  -2.996  0.00  0.00     0.062 C 
ATOM     40  O   LIG d   1       3.657   1.306  -1.790  0.00  0.00    -0.548 OA
ATOM     41  OXT LIG d   1       3.320   2.389  -3.685  0.00  0.00    -0.548 OA
ENDBRANCH  30  39
ENDBRANCH  27  30
ENDBRANCH  23  26
ENDBRANCH  22  23
ENDBRANCH   1  22
BRANCH  15  42
ATOM     42  C   LIG d   1       8.804   2.087  -7.600  0.00  0.00    -0.033 C 
ATOM     43  H   LIG d   1       9.448   1.237  -7.826  0.00  0.00     0.028 H 
ATOM     44  H   LIG d   1       7.767   1.823  -7.811  0.00  0.00     0.028 H 
ATOM     45  H   LIG d   1       9.095   2.937  -8.217  0.00  0.00     0.028 H 
ENDBRANCH  15  42
TORSDOF 8
ENDMDL
MODEL 6
REMARK VINA RESULT:      -6.4      5.146      8.600
REMARK  8 active torsions:
REMARK  status: ('A' for Active; 'I' for Inactive)
REMARK    1  A    between atoms: C_1  and  C_2 
REMARK    2  A    between atoms: C_2  and  CA_3 
REMARK    3  A    between atoms: CA_3  and  C_5 
REMARK    4  A    between atoms: CA_3  and  N_7 
REMARK       I    between atoms: N_7  and  C_8 
REMARK    5  A    between atoms: C_8  and  C_10 
REMARK    6  A    between atoms: C_10  and  O_11 
REMARK    7  A    between atoms: O_11  and  C_12 
REMARK    8  A    between atoms: C_26  and  C_27 
ROOT
ATOM      1  C   LIG d   1       3.297   0.011  -9.017  0.00  0.00     0.128 A 
ATOM      2  C   LIG d   1       2.072  -0.631  -9.163  0.00  0.00    -0.019 A 
ATOM      3  C   LIG d   1       1.697  -1.129 -10.392  0.00  0.00    -0.047 A 
ATOM      4  C   LIG d   1       2.553  -0.998 -11.485  0.00  0.00     0.026 A 
ATOM      5  C   LIG d   1       2.171  -1.530 -12.808  0.00  0.00    -0.000 A 
ATOM      6  C   LIG d   1       0.960  -2.177 -13.019  0.00  0.00    -0.053 A 
ATOM      7  C   LIG d   1       0.655  -2.656 -14.278  0.00  0.00    -0.061 A 
ATOM      8  C   LIG d   1       1.545  -2.498 -15.329  0.00  0.00    -0.061 A 
ATOM      9  C   LIG d   1       2.751  -1.858 -15.138  0.00  0.00    -0.047 A 
ATOM     10  C   LIG d   1       3.078  -1.368 -13.876  0.00  0.00     0.067 A 
ATOM     11  C   LIG d   1       4.351  -0.679 -13.617  0.00  0.00     0.345 A 
ATOM     12  O   LIG d   1       5.150  -0.525 -14.520  0.00  0.00    -0.244 OA
ATOM     13  O   LIG d   1       4.634  -0.218 -12.388  0.00  0.00    -0.421 OA
ATOM     14  C   LIG d   1       3.791  -0.356 -11.340  0.00  0.00     0.146 A 
ATOM     15  C   LIG d   1       4.153   0.146 -10.097  0.00  0.00     0.034 A 
ATOM     16  H   LIG d   1       1.413  -0.736  -8.316  0.00  0.00     0.065 H 
ATOM     17  H   LIG d   1       0.744  -1.624 -10.508  0.00  0.00     0.063 H 
ATOM     18  H   LIG d   1       0.262  -2.305 -12.204  0.00  0.00     0.062 H 
ATOM     19  H   LIG d   1      -0.287  -3.159 -14.444  0.00  0.00     0.062 H 
ATOM     20  H   LIG d   1       1.290  -2.878 -16.307  0.00  0.00     0.062 H 
ATOM     21  H   LIG d   1       3.439  -1.738 -15.962  0.00  0.00     0.063 H 
ENDROOT
BRANCH   1  22
ATOM     22  O   LIG d   1       3.659   0.506  -7.804  0.00  0.00    -0.482 OA
BRANCH  22  23
ATOM     23  C   LIG d   1       4.156  -0.430  -6.845  0.00  0.00     0.165 C 
ATOM     24  H   LIG d   1       5.240  -0.340  -6.778  0.00  0.00     0.080 H 
ATOM     25  H   LIG d   1       3.894  -1.442  -7.154  0.00  0.00     0.080 H 
BRANCH  23  26
ATOM     26  C   LIG d   1       3.544  -0.142  -5.498  0.00  0.00     0.251 C 
ATOM     27  N   LIG d   1       4.268  -0.324  -4.376  0.00  0.00    -0.305 N 
ATOM     28  H   LIG d   1       5.183  -0.641  -4.435  0.00  0.00     0.149 HD
ATOM     29  O   LIG d   1       2.400   0.254  -5.425  0.00  0.00    -0.272 OA
BRANCH  27  30
ATOM     30  CA  LIG d   1       3.672  -0.045  -3.067  0.00  0.00     0.062 C 
ATOM     31  HA  LIG d   1       2.586  -0.043  -3.155  0.00  0.00     0.056 H 
BRANCH  30  32
ATOM     32  C   LIG d   1       4.103  -1.122  -2.070  0.00  0.00    -0.032 C 
ATOM     33  H   LIG d   1       5.125  -0.928  -1.744  0.00  0.00     0.028 H 
ATOM     34  H   LIG d   1       3.437  -1.106  -1.207  0.00  0.00     0.028 H 
BRANCH  32  35
ATOM     35  C   LIG d   1       4.034  -2.495  -2.742  0.00  0.00    -0.063 C 
ATOM     36  H   LIG d   1       3.006  -2.700  -3.042  0.00  0.00     0.023 H 
ATOM     37  H   LIG d   1       4.677  -2.502  -3.620  0.00  0.00     0.023 H 
ATOM     38  H   LIG d   1       4.367  -3.260  -2.040  0.00  0.00     0.023 H 
ENDBRANCH  32  35
ENDBRANCH  30  32
BRANCH  30  39
ATOM     39  C   LIG d   1       4.138   1.304  -2.581  0.00  0.00     0.062 C 
ATOM     40  O   LIG d   1       3.844   2.302  -3.195  0.00  0.00    -0.548 OA
ATOM     41  OXT LIG d   1       4.879   1.396  -1.466  0.00  0.00    -0.548 OA
ENDBRANCH  30  39
ENDBRANCH  27  30
ENDBRANCH  23  26
ENDBRANCH  22  23
ENDBRANCH   1  22
BRANCH  15  42
ATOM     42  C   LIG d   1       5.479   0.839  -9.923  0.00  0.00    -0.033 C 
ATOM     43  H   LIG d   1       5.333   1.773  -9.381  0.00  0.00     0.028 H 
ATOM     44  H   LIG d   1       6.156   0.195  -9.360  0.00  0.00     0.028 H 
ATOM     45  H   LIG d   1       5.910   1.051 -10.901  0.00  0.00     0.028 H 
ENDBRANCH  15  42
TORSDOF 8
ENDMDL
MODEL 7
REMARK VINA RESULT:      -6.3      3.740      5.781
REMARK  8 active torsions:
REMARK  status: ('A' for Active; 'I' for Inactive)
REMARK    1  A    between atoms: C_1  and  C_2 
REMARK    2  A    between atoms: C_2  and  CA_3 
REMARK    3  A    between atoms: CA_3  and  C_5 
REMARK    4  A    between atoms: CA_3  and  N_7 
REMARK       I    between atoms: N_7  and  C_8 
REMARK    5  A    between atoms: C_8  and  C_10 
REMARK    6  A    between atoms: C_10  and  O_11 
REMARK    7  A    between atoms: O_11  and  C_12 
REMARK    8  A    between atoms: C_26  and  C_27 
ROOT
ATOM      1  C   LIG d   1      10.010   4.631  -3.207  0.00  0.00     0.128 A 
ATOM      2  C   LIG d   1      10.539   4.337  -1.954  0.00  0.00    -0.019 A 
ATOM      3  C   LIG d   1      10.816   5.353  -1.067  0.00  0.00    -0.047 A 
ATOM      4  C   LIG d   1      10.554   6.676  -1.422  0.00  0.00     0.026 A 
ATOM      5  C   LIG d   1      10.839   7.778  -0.482  0.00  0.00    -0.000 A 
ATOM      6  C   LIG d   1      11.372   7.549   0.780  0.00  0.00    -0.053 A 
ATOM      7  C   LIG d   1      11.617   8.618   1.620  0.00  0.00    -0.061 A 
ATOM      8  C   LIG d   1      11.337   9.913   1.214  0.00  0.00    -0.061 A 
ATOM      9  C   LIG d   1      10.808  10.160  -0.036  0.00  0.00    -0.047 A 
ATOM     10  C   LIG d   1      10.553   9.095  -0.897  0.00  0.00     0.067 A 
ATOM     11  C   LIG d   1       9.989   9.301  -2.239  0.00  0.00     0.345 A 
ATOM     12  O   LIG d   1       9.734  10.427  -2.622  0.00  0.00    -0.244 OA
ATOM     13  O   LIG d   1       9.756   8.252  -3.044  0.00  0.00    -0.421 OA
ATOM     14  C   LIG d   1      10.016   6.976  -2.681  0.00  0.00     0.146 A 
ATOM     15  C   LIG d   1       9.747   5.941  -3.568  0.00  0.00     0.034 A 
ATOM     16  H   LIG d   1      10.737   3.312  -1.679  0.00  0.00     0.065 H 
ATOM     17  H   LIG d   1      11.231   5.126  -0.096  0.00  0.00     0.063 H 
ATOM     18  H   LIG d   1      11.592   6.542   1.104  0.00  0.00     0.062 H 
ATOM     19  H   LIG d   1      12.032   8.442   2.602  0.00  0.00     0.062 H 
ATOM     20  H   LIG d   1      11.535  10.738   1.882  0.00  0.00     0.062 H 
ATOM     21  H   LIG d   1      10.593  11.172  -0.345  0.00  0.00     0.063 H 
ENDROOT
BRANCH   1  22
ATOM     22  O   LIG d   1       9.745   3.625  -4.081  0.00  0.00    -0.482 OA
BRANCH  22  23
ATOM     23  C   LIG d   1       9.523   2.326  -3.526  0.00  0.00     0.165 C 
ATOM     24  H   LIG d   1       9.582   2.380  -2.439  0.00  0.00     0.080 H 
ATOM     25  H   LIG d   1      10.283   1.638  -3.897  0.00  0.00     0.080 H 
BRANCH  23  26
ATOM     26  C   LIG d   1       8.157   1.834  -3.931  0.00  0.00     0.251 C 
ATOM     27  N   LIG d   1       7.519   0.921  -3.172  0.00  0.00    -0.305 N 
ATOM     28  H   LIG d   1       7.937   0.581  -2.366  0.00  0.00     0.149 HD
ATOM     29  O   LIG d   1       7.635   2.258  -4.939  0.00  0.00    -0.272 OA
BRANCH  27  30
ATOM     30  CA  LIG d   1       6.191   0.441  -3.567  0.00  0.00     0.062 C 
ATOM     31  HA  LIG d   1       6.041   0.623  -4.630  0.00  0.00     0.056 H 
BRANCH  30  32
ATOM     32  C   LIG d   1       6.086  -1.058  -3.285  0.00  0.00    -0.032 C 
ATOM     33  H   LIG d   1       6.934  -1.573  -3.737  0.00  0.00     0.028 H 
ATOM     34  H   LIG d   1       6.091  -1.227  -2.208  0.00  0.00     0.028 H 
BRANCH  32  35
ATOM     35  C   LIG d   1       4.784  -1.599  -3.880  0.00  0.00    -0.063 C 
ATOM     36  H   LIG d   1       5.004  -2.462  -4.508  0.00  0.00     0.023 H 
ATOM     37  H   LIG d   1       4.113  -1.897  -3.075  0.00  0.00     0.023 H 
ATOM     38  H   LIG d   1       4.310  -0.823  -4.481  0.00  0.00     0.023 H 
ENDBRANCH  32  35
ENDBRANCH  30  32
BRANCH  30  39
ATOM     39  C   LIG d   1       5.137   1.176  -2.778  0.00  0.00     0.062 C 
ATOM     40  O   LIG d   1       5.123   1.101  -1.572  0.00  0.00    -0.548 OA
ATOM     41  OXT LIG d   1       4.216   1.914  -3.415  0.00  0.00    -0.548 OA
ENDBRANCH  30  39
ENDBRANCH  27  30
ENDBRANCH  23  26
ENDBRANCH  22  23
ENDBRANCH   1  22
BRANCH  15  42
ATOM     42  C   LIG d   1       9.169   6.246  -4.926  0.00  0.00    -0.033 C 
ATOM     43  H   LIG d   1       8.438   7.049  -4.837  0.00  0.00     0.028 H 
ATOM     44  H   LIG d   1       9.968   6.553  -5.601  0.00  0.00     0.028 H 
ATOM     45  H   LIG d   1       8.682   5.354  -5.322  0.00  0.00     0.028 H 
ENDBRANCH  15  42
TORSDOF 8
ENDMDL
MODEL 8
REMARK VINA RESULT:      -6.2      3.199      5.075
REMARK  8 active torsions:
REMARK  status: ('A' for Active; 'I' for Inactive)
REMARK    1  A    between atoms: C_1  and  C_2 
REMARK    2  A    between atoms: C_2  and  CA_3 
REMARK    3  A    between atoms: CA_3  and  C_5 
REMARK    4  A    between atoms: CA_3  and  N_7 
REMARK       I    between atoms: N_7  and  C_8 
REMARK    5  A    between atoms: C_8  and  C_10 
REMARK    6  A    between atoms: C_10  and  O_11 
REMARK    7  A    between atoms: O_11  and  C_12 
REMARK    8  A    between atoms: C_26  and  C_27 
ROOT
ATOM      1  C   LIG d   1       9.988   4.318  -4.148  0.00  0.00     0.128 A 
ATOM      2  C   LIG d   1       9.526   5.551  -4.597  0.00  0.00    -0.019 A 
ATOM      3  C   LIG d   1       9.580   6.650  -3.768  0.00  0.00    -0.047 A 
ATOM      4  C   LIG d   1      10.110   6.527  -2.485  0.00  0.00     0.026 A 
ATOM      5  C   LIG d   1      10.183   7.695  -1.585  0.00  0.00    -0.000 A 
ATOM      6  C   LIG d   1       9.733   8.951  -1.972  0.00  0.00    -0.053 A 
ATOM      7  C   LIG d   1       9.825  10.009  -1.090  0.00  0.00    -0.061 A 
ATOM      8  C   LIG d   1      10.362   9.829   0.175  0.00  0.00    -0.061 A 
ATOM      9  C   LIG d   1      10.814   8.590   0.578  0.00  0.00    -0.047 A 
ATOM     10  C   LIG d   1      10.729   7.509  -0.298  0.00  0.00     0.067 A 
ATOM     11  C   LIG d   1      11.196   6.168   0.079  0.00  0.00     0.345 A 
ATOM     12  O   LIG d   1      11.670   5.980   1.183  0.00  0.00    -0.244 OA
ATOM     13  O   LIG d   1      11.099   5.148  -0.790  0.00  0.00    -0.421 OA
ATOM     14  C   LIG d   1      10.583   5.287  -2.031  0.00  0.00     0.146 A 
ATOM     15  C   LIG d   1      10.516   4.186  -2.875  0.00  0.00     0.034 A 
ATOM     16  H   LIG d   1       9.120   5.645  -5.592  0.00  0.00     0.065 H 
ATOM     17  H   LIG d   1       9.217   7.607  -4.114  0.00  0.00     0.063 H 
ATOM     18  H   LIG d   1       9.314   9.100  -2.958  0.00  0.00     0.062 H 
ATOM     19  H   LIG d   1       9.476  10.987  -1.389  0.00  0.00     0.062 H 
ATOM     20  H   LIG d   1      10.427  10.667   0.853  0.00  0.00     0.062 H 
ATOM     21  H   LIG d   1      11.230   8.457   1.565  0.00  0.00     0.063 H 
ENDROOT
BRANCH   1  22
ATOM     22  O   LIG d   1       9.926   3.236  -4.967  0.00  0.00    -0.482 OA
BRANCH  22  23
ATOM     23  C   LIG d   1       8.637   2.874  -5.468  0.00  0.00     0.165 C 
ATOM     24  H   LIG d   1       8.726   2.560  -6.508  0.00  0.00     0.080 H 
ATOM     25  H   LIG d   1       7.968   3.733  -5.404  0.00  0.00     0.080 H 
BRANCH  23  26
ATOM     26  C   LIG d   1       8.079   1.740  -4.647  0.00  0.00     0.251 C 
ATOM     27  N   LIG d   1       6.808   1.794  -4.200  0.00  0.00    -0.305 N 
ATOM     28  H   LIG d   1       6.253   2.562  -4.406  0.00  0.00     0.149 HD
ATOM     29  O   LIG d   1       8.773   0.781  -4.388  0.00  0.00    -0.272 OA
BRANCH  27  30
ATOM     30  CA  LIG d   1       6.266   0.692  -3.401  0.00  0.00     0.062 C 
ATOM     31  HA  LIG d   1       7.061   0.255  -2.797  0.00  0.00     0.056 H 
BRANCH  30  32
ATOM     32  C   LIG d   1       5.161   1.221  -2.485  0.00  0.00    -0.032 C 
ATOM     33  H   LIG d   1       5.585   1.938  -1.781  0.00  0.00     0.028 H 
ATOM     34  H   LIG d   1       4.395   1.711  -3.086  0.00  0.00     0.028 H 
BRANCH  32  35
ATOM     35  C   LIG d   1       4.537   0.057  -1.713  0.00  0.00    -0.063 C 
ATOM     36  H   LIG d   1       3.891   0.447  -0.927  0.00  0.00     0.023 H 
ATOM     37  H   LIG d   1       3.951  -0.558  -2.394  0.00  0.00     0.023 H 
ATOM     38  H   LIG d   1       5.328  -0.548  -1.267  0.00  0.00     0.023 H 
ENDBRANCH  32  35
ENDBRANCH  30  32
BRANCH  30  39
ATOM     39  C   LIG d   1       5.697  -0.360  -4.318  0.00  0.00     0.062 C 
ATOM     40  O   LIG d   1       6.115  -1.493  -4.271  0.00  0.00    -0.548 OA
ATOM     41  OXT LIG d   1       4.726  -0.039  -5.186  0.00  0.00    -0.548 OA
ENDBRANCH  30  39
ENDBRANCH  27  30
ENDBRANCH  23  26
ENDBRANCH  22  23
ENDBRANCH   1  22
BRANCH  15  42
ATOM     42  C   LIG d   1      11.018   2.846  -2.404  0.00  0.00    -0.033 C 
ATOM     43  H   LIG d   1      11.590   2.372  -3.201  0.00  0.00     0.028 H 
ATOM     44  H   LIG d   1      11.656   2.983  -1.531  0.00  0.00     0.028 H 
ATOM     45  H   LIG d   1      10.171   2.213  -2.139  0.00  0.00     0.028 H 
ENDBRANCH  15  42
TORSDOF 8
ENDMDL
MODEL 9
REMARK VINA RESULT:      -6.2      3.295      7.751
REMARK  8 active torsions:
REMARK  status: ('A' for Active; 'I' for Inactive)
REMARK    1  A    between atoms: C_1  and  C_2 
REMARK    2  A    between atoms: C_2  and  CA_3 
REMARK    3  A    between atoms: CA_3  and  C_5 
REMARK    4  A    between atoms: CA_3  and  N_7 
REMARK       I    between atoms: N_7  and  C_8 
REMARK    5  A    between atoms: C_8  and  C_10 
REMARK    6  A    between atoms: C_10  and  O_11 
REMARK    7  A    between atoms: O_11  and  C_12 
REMARK    8  A    between atoms: C_26  and  C_27 
ROOT
ATOM      1  C   LIG d   1       9.348   1.433  -4.629  0.00  0.00     0.128 A 
ATOM      2  C   LIG d   1       8.384   2.150  -3.929  0.00  0.00    -0.019 A 
ATOM      3  C   LIG d   1       7.223   1.529  -3.522  0.00  0.00    -0.047 A 
ATOM      4  C   LIG d   1       7.023   0.178  -3.803  0.00  0.00     0.026 A 
ATOM      5  C   LIG d   1       5.789  -0.506  -3.371  0.00  0.00    -0.000 A 
ATOM      6  C   LIG d   1       4.786   0.156  -2.673  0.00  0.00    -0.053 A 
ATOM      7  C   LIG d   1       3.652  -0.533  -2.292  0.00  0.00    -0.061 A 
ATOM      8  C   LIG d   1       3.507  -1.877  -2.598  0.00  0.00    -0.061 A 
ATOM      9  C   LIG d   1       4.490  -2.551  -3.290  0.00  0.00    -0.047 A 
ATOM     10  C   LIG d   1       5.642  -1.873  -3.684  0.00  0.00     0.067 A 
ATOM     11  C   LIG d   1       6.722  -2.543  -4.423  0.00  0.00     0.345 A 
ATOM     12  O   LIG d   1       6.621  -3.721  -4.706  0.00  0.00    -0.244 OA
ATOM     13  O   LIG d   1       7.819  -1.860  -4.787  0.00  0.00    -0.421 OA
ATOM     14  C   LIG d   1       7.996  -0.550  -4.504  0.00  0.00     0.146 A 
ATOM     15  C   LIG d   1       9.158   0.091  -4.913  0.00  0.00     0.034 A 
ATOM     16  H   LIG d   1       8.542   3.194  -3.708  0.00  0.00     0.065 H 
ATOM     17  H   LIG d   1       6.472   2.086  -2.983  0.00  0.00     0.063 H 
ATOM     18  H   LIG d   1       4.893   1.204  -2.429  0.00  0.00     0.062 H 
ATOM     19  H   LIG d   1       2.871  -0.020  -1.749  0.00  0.00     0.062 H 
ATOM     20  H   LIG d   1       2.613  -2.402  -2.293  0.00  0.00     0.062 H 
ATOM     21  H   LIG d   1       4.369  -3.598  -3.526  0.00  0.00     0.063 H 
ENDROOT
BRANCH   1  22
ATOM     22  O   LIG d   1      10.488   2.052  -5.033  0.00  0.00    -0.482 OA
BRANCH  22  23
ATOM     23  C   LIG d   1      11.490   2.279  -4.039  0.00  0.00     0.165 C 
ATOM     24  H   LIG d   1      12.464   1.986  -4.430  0.00  0.00     0.080 H 
ATOM     25  H   LIG d   1      11.262   1.687  -3.152  0.00  0.00     0.080 H 
BRANCH  23  26
ATOM     26  C   LIG d   1      11.514   3.741  -3.675  0.00  0.00     0.251 C 
ATOM     27  N   LIG d   1      10.830   4.179  -2.599  0.00  0.00    -0.305 N 
ATOM     28  H   LIG d   1      10.323   3.554  -2.058  0.00  0.00     0.149 HD
ATOM     29  O   LIG d   1      12.148   4.523  -4.351  0.00  0.00    -0.272 OA
BRANCH  27  30
ATOM     30  CA  LIG d   1      10.854   5.601  -2.246  0.00  0.00     0.062 C 
ATOM     31  HA  LIG d   1      11.721   6.075  -2.704  0.00  0.00     0.056 H 
BRANCH  30  32
ATOM     32  C   LIG d   1       9.577   6.273  -2.754  0.00  0.00    -0.032 C 
ATOM     33  H   LIG d   1       8.897   5.515  -3.143  0.00  0.00     0.028 H 
ATOM     34  H   LIG d   1       9.096   6.806  -1.934  0.00  0.00     0.028 H 
BRANCH  32  35
ATOM     35  C   LIG d   1       9.930   7.262  -3.867  0.00  0.00    -0.063 C 
ATOM     36  H   LIG d   1      10.976   7.135  -4.146  0.00  0.00     0.023 H 
ATOM     37  H   LIG d   1       9.297   7.074  -4.733  0.00  0.00     0.023 H 
ATOM     38  H   LIG d   1       9.769   8.280  -3.512  0.00  0.00     0.023 H 
ENDBRANCH  32  35
ENDBRANCH  30  32
BRANCH  30  39
ATOM     39  C   LIG d   1      10.935   5.745  -0.748  0.00  0.00     0.062 C 
ATOM     40  O   LIG d   1      11.756   5.115  -0.124  0.00  0.00    -0.548 OA
ATOM     41  OXT LIG d   1      10.097   6.575  -0.107  0.00  0.00    -0.548 OA
ENDBRANCH  30  39
ENDBRANCH  27  30
ENDBRANCH  23  26
ENDBRANCH  22  23
ENDBRANCH   1  22
BRANCH  15  42
ATOM     42  C   LIG d   1      10.213  -0.675  -5.667  0.00  0.00    -0.033 C 
ATOM     43  H   LIG d   1      11.030  -0.004  -5.932  0.00  0.00     0.028 H 
ATOM     44  H   LIG d   1      10.594  -1.482  -5.041  0.00  0.00     0.028 H 
ATOM     45  H   LIG d   1       9.779  -1.094  -6.575  0.00  0.00     0.028 H 
ENDBRANCH  15  42
TORSDOF 8
ENDMDL
MODEL 10
REMARK VINA RESULT:      -6.2      4.969      7.597
REMARK  8 active torsions:
REMARK  status: ('A' for Active; 'I' for Inactive)
REMARK    1  A    between atoms: C_1  and  C_2 
REMARK    2  A    between atoms: C_2  and  CA_3 
REMARK    3  A    between atoms: CA_3  and  C_5 
REMARK    4  A    between atoms: CA_3  and  N_7 
REMARK       I    between atoms: N_7  and  C_8 
REMARK    5  A    between atoms: C_8  and  C_10 
REMARK    6  A    between atoms: C_10  and  O_11 
REMARK    7  A    between atoms: O_11  and  C_12 
REMARK    8  A    between atoms: C_26  and  C_27 
ROOT
ATOM      1  C   LIG d   1       6.745  -4.302  -5.710  0.00  0.00     0.128 A 
ATOM      2  C   LIG d   1       5.430  -4.410  -5.268  0.00  0.00    -0.019 A 
ATOM      3  C   LIG d   1       4.856  -3.380  -4.557  0.00  0.00    -0.047 A 
ATOM      4  C   LIG d   1       5.590  -2.225  -4.291  0.00  0.00     0.026 A 
ATOM      5  C   LIG d   1       4.989  -1.108  -3.536  0.00  0.00    -0.000 A 
ATOM      6  C   LIG d   1       3.684  -1.157  -3.063  0.00  0.00    -0.053 A 
ATOM      7  C   LIG d   1       3.172  -0.083  -2.362  0.00  0.00    -0.061 A 
ATOM      8  C   LIG d   1       3.949   1.042  -2.128  0.00  0.00    -0.061 A 
ATOM      9  C   LIG d   1       5.246   1.109  -2.589  0.00  0.00    -0.047 A 
ATOM     10  C   LIG d   1       5.781   0.035  -3.298  0.00  0.00     0.067 A 
ATOM     11  C   LIG d   1       7.157   0.055  -3.812  0.00  0.00     0.345 A 
ATOM     12  O   LIG d   1       7.862   1.027  -3.621  0.00  0.00    -0.244 OA
ATOM     13  O   LIG d   1       7.641  -0.998  -4.492  0.00  0.00    -0.421 OA
ATOM     14  C   LIG d   1       6.913  -2.110  -4.740  0.00  0.00     0.146 A 
ATOM     15  C   LIG d   1       7.481  -3.159  -5.451  0.00  0.00     0.034 A 
ATOM     16  H   LIG d   1       4.862  -5.302  -5.478  0.00  0.00     0.065 H 
ATOM     17  H   LIG d   1       3.837  -3.465  -4.209  0.00  0.00     0.063 H 
ATOM     18  H   LIG d   1       3.072  -2.030  -3.243  0.00  0.00     0.062 H 
ATOM     19  H   LIG d   1       2.157  -0.119  -1.994  0.00  0.00     0.062 H 
ATOM     20  H   LIG d   1       3.533   1.874  -1.578  0.00  0.00     0.062 H 
ATOM     21  H   LIG d   1       5.845   1.988  -2.402  0.00  0.00     0.063 H 
ENDROOT
BRANCH   1  22
ATOM     22  O   LIG d   1       7.309  -5.324  -6.406  0.00  0.00    -0.482 OA
BRANCH  22  23
ATOM     23  C   LIG d   1       7.399  -6.587  -5.744  0.00  0.00     0.165 C 
ATOM     24  H   LIG d   1       7.285  -7.389  -6.473  0.00  0.00     0.080 H 
ATOM     25  H   LIG d   1       6.609  -6.663  -4.995  0.00  0.00     0.080 H 
BRANCH  23  26
ATOM     26  C   LIG d   1       8.742  -6.707  -5.071  0.00  0.00     0.251 C 
ATOM     27  N   LIG d   1       8.885  -6.338  -3.782  0.00  0.00    -0.305 N 
ATOM     28  H   LIG d   1       8.124  -5.997  -3.287  0.00  0.00     0.149 HD
ATOM     29  O   LIG d   1       9.693  -7.134  -5.689  0.00  0.00    -0.272 OA
BRANCH  27  30
ATOM     30  CA  LIG d   1      10.191  -6.454  -3.128  0.00  0.00     0.062 C 
ATOM     31  HA  LIG d   1      10.911  -6.880  -3.827  0.00  0.00     0.056 H 
BRANCH  30  32
ATOM     32  C   LIG d   1      10.666  -5.068  -2.688  0.00  0.00    -0.032 C 
ATOM     33  H   LIG d   1      11.323  -5.167  -1.823  0.00  0.00     0.028 H 
ATOM     34  H   LIG d   1      11.209  -4.594  -3.505  0.00  0.00     0.028 H 
BRANCH  32  35
ATOM     35  C   LIG d   1       9.455  -4.210  -2.314  0.00  0.00    -0.063 C 
ATOM     36  H   LIG d   1       9.487  -3.984  -1.248  0.00  0.00     0.023 H 
ATOM     37  H   LIG d   1       9.478  -3.282  -2.883  0.00  0.00     0.023 H 
ATOM     38  H   LIG d   1       8.540  -4.756  -2.543  0.00  0.00     0.023 H 
ENDBRANCH  32  35
ENDBRANCH  30  32
BRANCH  30  39
ATOM     39  C   LIG d   1      10.071  -7.351  -1.923  0.00  0.00     0.062 C 
ATOM     40  O   LIG d   1      10.822  -7.209  -0.987  0.00  0.00    -0.548 OA
ATOM     41  OXT LIG d   1       9.130  -8.307  -1.889  0.00  0.00    -0.548 OA
ENDBRANCH  30  39
ENDBRANCH  27  30
ENDBRANCH  23  26
ENDBRANCH  22  23
ENDBRANCH   1  22
BRANCH  15  42
ATOM     42  C   LIG d   1       8.902  -3.053  -5.941  0.00  0.00    -0.033 C 
ATOM     43  H   LIG d   1       9.267  -4.042  -6.215  0.00  0.00     0.028 H 
ATOM     44  H   LIG d   1       8.939  -2.398  -6.812  0.00  0.00     0.028 H 
ATOM     45  H   LIG d   1       9.530  -2.641  -5.151  0.00  0.00     0.028 H 
ENDBRANCH  15  42
TORSDOF 8
ENDMDL
