MODEL 1
REMARK VINA RESULT:      -6.3      0.000      0.000
REMARK  2 active torsions:
REMARK  status: ('A' for Active; 'I' for Inactive)
REMARK    1  A    between atoms: C_1  and  C_2 
REMARK    2  A    between atoms: C_17  and  C_27 
ROOT
ATOM      1  C   LIG d   1       4.672  -0.935  -5.501  0.00  0.00    -0.008 C 
ATOM      2  C   LIG d   1       5.987  -0.460  -4.883  0.00  0.00    -0.042 C 
ATOM      3  C   LIG d   1       5.860  -0.263  -3.377  0.00  0.00    -0.036 C 
ATOM      4  C   LIG d   1       4.774   0.768  -3.070  0.00  0.00     0.038 C 
ATOM      5  H   LIG d   1       4.987   1.694  -3.605  0.00  0.00     0.047 H 
ATOM      6  C   LIG d   1       3.423   0.212  -3.534  0.00  0.00    -0.015 C 
ATOM      7  C   LIG d   1       3.526  -0.088  -5.019  0.00  0.00    -0.066 C 
ATOM      8  C   LIG d   1       2.614   0.417  -5.801  0.00  0.00    -0.084 C 
ATOM      9  C   LIG d   1       2.586   0.245  -7.296  0.00  0.00    -0.031 C 
ATOM     10  C   LIG d   1       3.399  -1.000  -7.651  0.00  0.00    -0.030 C 
ATOM     11  H   LIG d   1       2.892  -1.866  -7.187  0.00  0.00     0.031 H 
ATOM     12  C   LIG d   1       4.782  -0.849  -7.021  0.00  0.00    -0.029 C 
ATOM     13  H   LIG d   1       5.132   0.180  -7.197  0.00  0.00     0.031 H 
ATOM     14  C   LIG d   1       5.799  -1.803  -7.609  0.00  0.00    -0.049 C 
ATOM     15  C   LIG d   1       5.969  -1.634  -9.126  0.00  0.00    -0.042 C 
ATOM     16  C   LIG d   1       4.850  -0.817  -9.722  0.00  0.00     0.025 C 
ATOM     17  C   LIG d   1       3.499  -1.259  -9.122  0.00  0.00    -0.027 C 
ATOM     18  H   LIG d   1       3.386  -2.353  -9.289  0.00  0.00     0.031 H 
ATOM     19  C   LIG d   1       2.492  -0.552 -10.039  0.00  0.00    -0.044 C 
ATOM     20  C   LIG d   1       3.108  -0.793 -11.448  0.00  0.00     0.002 C 
ATOM     21  C   LIG d   1       4.607  -1.069 -11.221  0.00  0.00     0.176 C 
ATOM     22  O   LIG d   1       4.931  -2.420 -11.569  0.00  0.00    -0.346 OA
ATOM     23  C   LIG d   1       5.392  -2.302 -12.946  0.00  0.00     0.074 C 
ATOM     24  C   LIG d   1       6.255  -1.014 -12.827  0.00  0.00     0.074 C 
ATOM     25  O   LIG d   1       5.402  -0.176 -12.008  0.00  0.00    -0.346 OA
ATOM     26 CL   LIG d   1       4.720   1.089  -1.299  0.00  0.00    -0.121 Cl
ATOM     27  H   LIG d   1       6.765  -1.203  -5.083  0.00  0.00     0.027 H 
ATOM     28  H   LIG d   1       6.284   0.484  -5.349  0.00  0.00     0.027 H 
ATOM     29  H   LIG d   1       5.619  -1.205  -2.888  0.00  0.00     0.028 H 
ATOM     30  H   LIG d   1       6.814   0.100  -2.980  0.00  0.00     0.028 H 
ATOM     31  H   LIG d   1       3.191  -0.699  -2.984  0.00  0.00     0.032 H 
ATOM     32  H   LIG d   1       2.643   0.953  -3.361  0.00  0.00     0.032 H 
ATOM     33  H   LIG d   1       1.828   1.006  -5.345  0.00  0.00     0.057 H 
ATOM     34  H   LIG d   1       1.554   0.116  -7.625  0.00  0.00     0.031 H 
ATOM     35  H   LIG d   1       3.014   1.127  -7.770  0.00  0.00     0.031 H 
ATOM     36  H   LIG d   1       5.499  -2.843  -7.419  0.00  0.00     0.027 H 
ATOM     37  H   LIG d   1       6.772  -1.650  -7.125  0.00  0.00     0.027 H 
ATOM     38  H   LIG d   1       5.994  -2.625  -9.598  0.00  0.00     0.027 H 
ATOM     39  H   LIG d   1       6.929  -1.143  -9.332  0.00  0.00     0.027 H 
ATOM     40  H   LIG d   1       1.512  -1.028  -9.968  0.00  0.00     0.027 H 
ATOM     41  H   LIG d   1       2.419   0.507  -9.820  0.00  0.00     0.027 H 
ATOM     42  H   LIG d   1       2.973   0.092 -12.070  0.00  0.00     0.032 H 
ATOM     43  H   LIG d   1       2.632  -1.655 -11.915  0.00  0.00     0.032 H 
ATOM     44  H   LIG d   1       4.558  -2.153 -13.625  0.00  0.00     0.058 H 
ATOM     45  H   LIG d   1       6.002  -3.155 -13.227  0.00  0.00     0.058 H 
ATOM     46  H   LIG d   1       6.416  -0.565 -13.802  0.00  0.00     0.058 H 
ATOM     47  H   LIG d   1       7.192  -1.223 -12.319  0.00  0.00     0.058 H 
ENDROOT
BRANCH  16  48
ATOM     48  C   LIG d   1       5.111   0.680  -9.572  0.00  0.00    -0.054 C 
ATOM     49  H   LIG d   1       4.942   1.176 -10.527  0.00  0.00     0.024 H 
ATOM     50  H   LIG d   1       4.438   1.094  -8.823  0.00  0.00     0.024 H 
ATOM     51  H   LIG d   1       6.144   0.838  -9.259  0.00  0.00     0.024 H 
ENDBRANCH  16  48
BRANCH   1  52
ATOM     52  C   LIG d   1       4.423  -2.382  -5.089  0.00  0.00    -0.056 C 
ATOM     53  H   LIG d   1       3.588  -2.784  -5.663  0.00  0.00     0.024 H 
ATOM     54  H   LIG d   1       5.317  -2.974  -5.284  0.00  0.00     0.024 H 
ATOM     55  H   LIG d   1       4.186  -2.421  -4.026  0.00  0.00     0.024 H 
ENDBRANCH   1  52
TORSDOF 2
ENDMDL
MODEL 2
REMARK VINA RESULT:      -5.9      3.708      6.790
REMARK  2 active torsions:
REMARK  status: ('A' for Active; 'I' for Inactive)
REMARK    1  A    between atoms: C_1  and  C_2 
REMARK    2  A    between atoms: C_17  and  C_27 
ROOT
ATOM      1  C   LIG d   1       4.075  -0.454 -10.535  0.00  0.00    -0.008 C 
ATOM      2  C   LIG d   1       4.933  -1.442 -11.323  0.00  0.00    -0.042 C 
ATOM      3  C   LIG d   1       4.473  -1.554 -12.773  0.00  0.00    -0.036 C 
ATOM      4  C   LIG d   1       3.017  -2.017 -12.827  0.00  0.00     0.038 C 
ATOM      5  H   LIG d   1       2.909  -2.949 -12.273  0.00  0.00     0.047 H 
ATOM      6  C   LIG d   1       2.134  -0.939 -12.191  0.00  0.00    -0.015 C 
ATOM      7  C   LIG d   1       2.613  -0.724 -10.765  0.00  0.00    -0.066 C 
ATOM      8  C   LIG d   1       1.726  -0.795  -9.813  0.00  0.00    -0.084 C 
ATOM      9  C   LIG d   1       2.036  -0.639  -8.348  0.00  0.00    -0.031 C 
ATOM     10  C   LIG d   1       3.349   0.133  -8.216  0.00  0.00    -0.030 C 
ATOM     11  H   LIG d   1       3.184   1.137  -8.650  0.00  0.00     0.031 H 
ATOM     12  C   LIG d   1       4.403  -0.590  -9.050  0.00  0.00    -0.029 C 
ATOM     13  H   LIG d   1       4.309  -1.671  -8.864  0.00  0.00     0.031 H 
ATOM     14  C   LIG d   1       5.814  -0.169  -8.702  0.00  0.00    -0.049 C 
ATOM     15  C   LIG d   1       6.160  -0.406  -7.225  0.00  0.00    -0.042 C 
ATOM     16  C   LIG d   1       4.925  -0.669  -6.400  0.00  0.00     0.025 C 
ATOM     17  C   LIG d   1       3.806   0.314  -6.803  0.00  0.00    -0.027 C 
ATOM     18  H   LIG d   1       4.198   1.349  -6.695  0.00  0.00     0.031 H 
ATOM     19  C   LIG d   1       2.773   0.099  -5.688  0.00  0.00    -0.044 C 
ATOM     20  C   LIG d   1       3.670   0.042  -4.417  0.00  0.00     0.002 C 
ATOM     21  C   LIG d   1       5.079  -0.350  -4.903  0.00  0.00     0.176 C 
ATOM     22  O   LIG d   1       6.001   0.730  -4.705  0.00  0.00    -0.346 OA
ATOM     23  C   LIG d   1       6.603   0.415  -3.416  0.00  0.00     0.074 C 
ATOM     24  C   LIG d   1       6.804  -1.118  -3.585  0.00  0.00     0.074 C 
ATOM     25  O   LIG d   1       5.547  -1.503  -4.196  0.00  0.00    -0.346 OA
ATOM     26 CL   LIG d   1       2.522  -2.270 -14.541  0.00  0.00    -0.121 Cl
ATOM     27  H   LIG d   1       5.975  -1.106 -11.304  0.00  0.00     0.027 H 
ATOM     28  H   LIG d   1       4.880  -2.425 -10.849  0.00  0.00     0.027 H 
ATOM     29  H   LIG d   1       4.571  -0.596 -13.279  0.00  0.00     0.028 H 
ATOM     30  H   LIG d   1       5.096  -2.288 -13.293  0.00  0.00     0.028 H 
ATOM     31  H   LIG d   1       2.216  -0.013 -12.756  0.00  0.00     0.032 H 
ATOM     32  H   LIG d   1       1.096  -1.273 -12.183  0.00  0.00     0.032 H 
ATOM     33  H   LIG d   1       0.698  -0.987 -10.094  0.00  0.00     0.057 H 
ATOM     34  H   LIG d   1       1.232  -0.083  -7.867  0.00  0.00     0.031 H 
ATOM     35  H   LIG d   1       2.128  -1.623  -7.891  0.00  0.00     0.031 H 
ATOM     36  H   LIG d   1       5.954   0.900  -8.911  0.00  0.00     0.027 H 
ATOM     37  H   LIG d   1       6.529  -0.721  -9.326  0.00  0.00     0.027 H 
ATOM     38  H   LIG d   1       6.685   0.474  -6.832  0.00  0.00     0.027 H 
ATOM     39  H   LIG d   1       6.843  -1.263  -7.144  0.00  0.00     0.027 H 
ATOM     40  H   LIG d   1       2.091   0.950  -5.632  0.00  0.00     0.027 H 
ATOM     41  H   LIG d   1       2.221  -0.824  -5.819  0.00  0.00     0.027 H 
ATOM     42  H   LIG d   1       3.285  -0.704  -3.723  0.00  0.00     0.032 H 
ATOM     43  H   LIG d   1       3.694   1.021  -3.939  0.00  0.00     0.032 H 
ATOM     44  H   LIG d   1       5.918   0.632  -2.603  0.00  0.00     0.058 H 
ATOM     45  H   LIG d   1       7.555   0.922  -3.297  0.00  0.00     0.058 H 
ATOM     46  H   LIG d   1       6.928  -1.600  -2.621  0.00  0.00     0.058 H 
ATOM     47  H   LIG d   1       7.636  -1.327  -4.252  0.00  0.00     0.058 H 
ENDROOT
BRANCH  16  48
ATOM     48  C   LIG d   1       4.498  -2.133  -6.488  0.00  0.00    -0.054 C 
ATOM     49  H   LIG d   1       5.248  -2.699  -7.039  0.00  0.00     0.024 H 
ATOM     50  H   LIG d   1       4.398  -2.543  -5.483  0.00  0.00     0.024 H 
ATOM     51  H   LIG d   1       3.540  -2.201  -7.004  0.00  0.00     0.024 H 
ENDBRANCH  16  48
BRANCH   1  52
ATOM     52  C   LIG d   1       4.393   0.963 -10.999  0.00  0.00    -0.056 C 
ATOM     53  H   LIG d   1       4.004   1.111 -12.007  0.00  0.00     0.024 H 
ATOM     54  H   LIG d   1       3.930   1.680 -10.321  0.00  0.00     0.024 H 
ATOM     55  H   LIG d   1       5.473   1.111 -11.001  0.00  0.00     0.024 H 
ENDBRANCH   1  52
TORSDOF 2
ENDMDL
MODEL 3
REMARK VINA RESULT:      -5.9      3.780      7.033
REMARK  2 active torsions:
REMARK  status: ('A' for Active; 'I' for Inactive)
REMARK    1  A    between atoms: C_1  and  C_2 
REMARK    2  A    between atoms: C_17  and  C_27 
ROOT
ATOM      1  C   LIG d   1       3.703  -1.127  -9.505  0.00  0.00    -0.008 C 
ATOM      2  C   LIG d   1       3.618   0.267 -10.124  0.00  0.00    -0.042 C 
ATOM      3  C   LIG d   1       3.430   0.201 -11.635  0.00  0.00    -0.036 C 
ATOM      4  C   LIG d   1       4.595  -0.551 -12.278  0.00  0.00     0.038 C 
ATOM      5  H   LIG d   1       5.536  -0.084 -11.987  0.00  0.00     0.047 H 
ATOM      6  C   LIG d   1       4.573  -2.003 -11.790  0.00  0.00    -0.015 C 
ATOM      7  C   LIG d   1       4.669  -1.988 -10.274  0.00  0.00    -0.066 C 
ATOM      8  C   LIG d   1       5.594  -2.720  -9.720  0.00  0.00    -0.084 C 
ATOM      9  C   LIG d   1       5.845  -2.794  -8.238  0.00  0.00    -0.031 C 
ATOM     10  C   LIG d   1       4.569  -2.364  -7.513  0.00  0.00    -0.030 C 
ATOM     11  H   LIG d   1       3.781  -3.096  -7.774  0.00  0.00     0.031 H 
ATOM     12  C   LIG d   1       4.162  -0.996  -8.055  0.00  0.00    -0.029 C 
ATOM     13  H   LIG d   1       5.065  -0.370  -8.125  0.00  0.00     0.031 H 
ATOM     14  C   LIG d   1       3.162  -0.290  -7.166  0.00  0.00    -0.049 C 
ATOM     15  C   LIG d   1       3.680  -0.077  -5.736  0.00  0.00    -0.042 C 
ATOM     16  C   LIG d   1       4.900  -0.920  -5.457  0.00  0.00     0.025 C 
ATOM     17  C   LIG d   1       4.697  -2.341  -6.022  0.00  0.00    -0.027 C 
ATOM     18  H   LIG d   1       3.763  -2.758  -5.587  0.00  0.00     0.031 H 
ATOM     19  C   LIG d   1       5.872  -3.107  -5.397  0.00  0.00    -0.044 C 
ATOM     20  C   LIG d   1       5.861  -2.582  -3.931  0.00  0.00     0.002 C 
ATOM     21  C   LIG d   1       5.137  -1.222  -3.966  0.00  0.00     0.176 C 
ATOM     22  O   LIG d   1       3.894  -1.292  -3.257  0.00  0.00    -0.346 OA
ATOM     23  C   LIG d   1       4.248  -0.816  -1.927  0.00  0.00     0.074 C 
ATOM     24  C   LIG d   1       5.171   0.376  -2.309  0.00  0.00     0.074 C 
ATOM     25  O   LIG d   1       5.957  -0.207  -3.379  0.00  0.00    -0.346 OA
ATOM     26 CL   LIG d   1       4.430  -0.514 -14.072  0.00  0.00    -0.121 Cl
ATOM     27  H   LIG d   1       2.774   0.805  -9.681  0.00  0.00     0.027 H 
ATOM     28  H   LIG d   1       4.534   0.819  -9.897  0.00  0.00     0.027 H 
ATOM     29  H   LIG d   1       2.493  -0.297 -11.881  0.00  0.00     0.028 H 
ATOM     30  H   LIG d   1       3.399   1.217 -12.040  0.00  0.00     0.028 H 
ATOM     31  H   LIG d   1       3.647  -2.483 -12.101  0.00  0.00     0.032 H 
ATOM     32  H   LIG d   1       5.424  -2.543 -12.206  0.00  0.00     0.032 H 
ATOM     33  H   LIG d   1       6.229  -3.307 -10.370  0.00  0.00     0.057 H 
ATOM     34  H   LIG d   1       6.094  -3.820  -7.965  0.00  0.00     0.031 H 
ATOM     35  H   LIG d   1       6.670  -2.134  -7.977  0.00  0.00     0.031 H 
ATOM     36  H   LIG d   1       2.232  -0.871  -7.102  0.00  0.00     0.027 H 
ATOM     37  H   LIG d   1       2.908   0.687  -7.598  0.00  0.00     0.027 H 
ATOM     38  H   LIG d   1       2.885  -0.333  -5.023  0.00  0.00     0.027 H 
ATOM     39  H   LIG d   1       3.928   0.983  -5.592  0.00  0.00     0.027 H 
ATOM     40  H   LIG d   1       5.680  -4.181  -5.416  0.00  0.00     0.027 H 
ATOM     41  H   LIG d   1       6.812  -2.878  -5.887  0.00  0.00     0.027 H 
ATOM     42  H   LIG d   1       6.882  -2.461  -3.572  0.00  0.00     0.032 H 
ATOM     43  H   LIG d   1       5.320  -3.282  -3.294  0.00  0.00     0.032 H 
ATOM     44  H   LIG d   1       4.795  -1.573  -1.374  0.00  0.00     0.058 H 
ATOM     45  H   LIG d   1       3.369  -0.471  -1.390  0.00  0.00     0.058 H 
ATOM     46  H   LIG d   1       5.805   0.658  -1.475  0.00  0.00     0.058 H 
ATOM     47  H   LIG d   1       4.586   1.215  -2.675  0.00  0.00     0.058 H 
ENDROOT
BRANCH  16  48
ATOM     48  C   LIG d   1       6.172  -0.246  -5.968  0.00  0.00    -0.054 C 
ATOM     49  H   LIG d   1       6.632   0.322  -5.161  0.00  0.00     0.024 H 
ATOM     50  H   LIG d   1       6.868  -1.005  -6.322  0.00  0.00     0.024 H 
ATOM     51  H   LIG d   1       5.921   0.427  -6.789  0.00  0.00     0.024 H 
ENDBRANCH  16  48
BRANCH   1  52
ATOM     52  C   LIG d   1       2.324  -1.775  -9.547  0.00  0.00    -0.056 C 
ATOM     53  H   LIG d   1       2.067  -2.016 -10.578  0.00  0.00     0.024 H 
ATOM     54  H   LIG d   1       2.333  -2.688  -8.951  0.00  0.00     0.024 H 
ATOM     55  H   LIG d   1       1.585  -1.084  -9.140  0.00  0.00     0.024 H 
ENDBRANCH   1  52
TORSDOF 2
ENDMDL
MODEL 4
REMARK VINA RESULT:      -5.9      2.439      3.476
REMARK  2 active torsions:
REMARK  status: ('A' for Active; 'I' for Inactive)
REMARK    1  A    between atoms: C_1  and  C_2 
REMARK    2  A    between atoms: C_17  and  C_27 
ROOT
ATOM      1  C   LIG d   1       5.757  -3.027  -5.462  0.00  0.00    -0.008 C 
ATOM      2  C   LIG d   1       6.788  -4.067  -5.903  0.00  0.00    -0.042 C 
ATOM      3  C   LIG d   1       7.658  -4.524  -4.737  0.00  0.00    -0.036 C 
ATOM      4  C   LIG d   1       8.394  -3.330  -4.130  0.00  0.00     0.038 C 
ATOM      5  H   LIG d   1       8.960  -2.816  -4.908  0.00  0.00     0.047 H 
ATOM      6  C   LIG d   1       7.363  -2.369  -3.530  0.00  0.00    -0.015 C 
ATOM      7  C   LIG d   1       6.412  -1.952  -4.638  0.00  0.00    -0.066 C 
ATOM      8  C   LIG d   1       6.221  -0.676  -4.821  0.00  0.00    -0.084 C 
ATOM      9  C   LIG d   1       5.339  -0.093  -5.893  0.00  0.00    -0.031 C 
ATOM     10  C   LIG d   1       4.331  -1.162  -6.317  0.00  0.00    -0.030 C 
ATOM     11  H   LIG d   1       3.706  -1.393  -5.434  0.00  0.00     0.031 H 
ATOM     12  C   LIG d   1       5.113  -2.415  -6.703  0.00  0.00    -0.029 C 
ATOM     13  H   LIG d   1       5.974  -2.109  -7.317  0.00  0.00     0.031 H 
ATOM     14  C   LIG d   1       4.285  -3.397  -7.502  0.00  0.00    -0.049 C 
ATOM     15  C   LIG d   1       3.727  -2.792  -8.798  0.00  0.00    -0.042 C 
ATOM     16  C   LIG d   1       3.835  -1.288  -8.800  0.00  0.00     0.025 C 
ATOM     17  C   LIG d   1       3.419  -0.730  -7.423  0.00  0.00    -0.027 C 
ATOM     18  H   LIG d   1       2.396  -1.099  -7.193  0.00  0.00     0.031 H 
ATOM     19  C   LIG d   1       3.307   0.775  -7.705  0.00  0.00    -0.044 C 
ATOM     20  C   LIG d   1       2.572   0.796  -9.078  0.00  0.00     0.002 C 
ATOM     21  C   LIG d   1       2.830  -0.578  -9.726  0.00  0.00     0.176 C 
ATOM     22  O   LIG d   1       1.613  -1.328  -9.825  0.00  0.00    -0.346 OA
ATOM     23  C   LIG d   1       1.154  -1.029 -11.175  0.00  0.00     0.074 C 
ATOM     24  C   LIG d   1       2.505  -1.117 -11.940  0.00  0.00     0.074 C 
ATOM     25  O   LIG d   1       3.391  -0.415 -11.032  0.00  0.00    -0.346 OA
ATOM     26 CL   LIG d   1       9.516  -3.897  -2.840  0.00  0.00    -0.121 Cl
ATOM     27  H   LIG d   1       6.266  -4.933  -6.321  0.00  0.00     0.027 H 
ATOM     28  H   LIG d   1       7.422  -3.637  -6.682  0.00  0.00     0.027 H 
ATOM     29  H   LIG d   1       7.049  -5.006  -3.973  0.00  0.00     0.028 H 
ATOM     30  H   LIG d   1       8.395  -5.247  -5.100  0.00  0.00     0.028 H 
ATOM     31  H   LIG d   1       6.813  -2.869  -2.734  0.00  0.00     0.032 H 
ATOM     32  H   LIG d   1       7.870  -1.491  -3.130  0.00  0.00     0.032 H 
ATOM     33  H   LIG d   1       6.738   0.011  -4.164  0.00  0.00     0.057 H 
ATOM     34  H   LIG d   1       4.810   0.773  -5.493  0.00  0.00     0.031 H 
ATOM     35  H   LIG d   1       5.951   0.209  -6.741  0.00  0.00     0.031 H 
ATOM     36  H   LIG d   1       3.435  -3.752  -6.905  0.00  0.00     0.027 H 
ATOM     37  H   LIG d   1       4.895  -4.274  -7.755  0.00  0.00     0.027 H 
ATOM     38  H   LIG d   1       2.675  -3.086  -8.909  0.00  0.00     0.027 H 
ATOM     39  H   LIG d   1       4.278  -3.199  -9.657  0.00  0.00     0.027 H 
ATOM     40  H   LIG d   1       2.698   1.262  -6.942  0.00  0.00     0.027 H 
ATOM     41  H   LIG d   1       4.280   1.248  -7.777  0.00  0.00     0.027 H 
ATOM     42  H   LIG d   1       2.972   1.593  -9.703  0.00  0.00     0.032 H 
ATOM     43  H   LIG d   1       1.503   0.944  -8.920  0.00  0.00     0.032 H 
ATOM     44  H   LIG d   1       0.737  -0.029 -11.232  0.00  0.00     0.058 H 
ATOM     45  H   LIG d   1       0.458  -1.785 -11.526  0.00  0.00     0.058 H 
ATOM     46  H   LIG d   1       2.444  -0.603 -12.894  0.00  0.00     0.058 H 
ATOM     47  H   LIG d   1       2.815  -2.151 -12.057  0.00  0.00     0.058 H 
ENDROOT
BRANCH  16  48
ATOM     48  C   LIG d   1       5.224  -0.829  -9.239  0.00  0.00    -0.054 C 
ATOM     49  H   LIG d   1       5.406   0.182  -8.875  0.00  0.00     0.024 H 
ATOM     50  H   LIG d   1       5.976  -1.504  -8.829  0.00  0.00     0.024 H 
ATOM     51  H   LIG d   1       5.283  -0.839 -10.327  0.00  0.00     0.024 H 
ENDBRANCH  16  48
BRANCH   1  52
ATOM     52  C   LIG d   1       4.689  -3.713  -4.619  0.00  0.00    -0.056 C 
ATOM     53  H   LIG d   1       4.211  -2.978  -3.970  0.00  0.00     0.024 H 
ATOM     54  H   LIG d   1       3.941  -4.160  -5.273  0.00  0.00     0.024 H 
ATOM     55  H   LIG d   1       5.150  -4.491  -4.009  0.00  0.00     0.024 H 
ENDBRANCH   1  52
TORSDOF 2
ENDMDL
MODEL 5
REMARK VINA RESULT:      -5.7      9.829     12.100
REMARK  2 active torsions:
REMARK  status: ('A' for Active; 'I' for Inactive)
REMARK    1  A    between atoms: C_1  and  C_2 
REMARK    2  A    between atoms: C_17  and  C_27 
ROOT
ATOM      1  C   LIG d   1      10.230   9.453  -1.071  0.00  0.00    -0.008 C 
ATOM      2  C   LIG d   1      11.240   9.585   0.069  0.00  0.00    -0.042 C 
ATOM      3  C   LIG d   1      11.300  11.012   0.604  0.00  0.00    -0.036 C 
ATOM      4  C   LIG d   1      11.693  11.977  -0.514  0.00  0.00     0.038 C 
ATOM      5  H   LIG d   1      12.631  11.652  -0.965  0.00  0.00     0.047 H 
ATOM      6  C   LIG d   1      10.589  11.975  -1.576  0.00  0.00    -0.015 C 
ATOM      7  C   LIG d   1      10.427  10.552  -2.080  0.00  0.00    -0.066 C 
ATOM      8  C   LIG d   1      10.477  10.357  -3.368  0.00  0.00    -0.084 C 
ATOM      9  C   LIG d   1      10.367   9.010  -4.029  0.00  0.00    -0.031 C 
ATOM     10  C   LIG d   1       9.659   8.059  -3.064  0.00  0.00    -0.030 C 
ATOM     11  H   LIG d   1       8.640   8.455  -2.901  0.00  0.00     0.031 H 
ATOM     12  C   LIG d   1      10.413   8.092  -1.737  0.00  0.00    -0.029 C 
ATOM     13  H   LIG d   1      11.493   8.054  -1.952  0.00  0.00     0.031 H 
ATOM     14  C   LIG d   1      10.066   6.926  -0.837  0.00  0.00    -0.049 C 
ATOM     15  C   LIG d   1      10.351   5.565  -1.488  0.00  0.00    -0.042 C 
ATOM     16  C   LIG d   1      10.573   5.696  -2.974  0.00  0.00     0.025 C 
ATOM     17  C   LIG d   1       9.531   6.659  -3.579  0.00  0.00    -0.027 C 
ATOM     18  H   LIG d   1       8.518   6.284  -3.314  0.00  0.00     0.031 H 
ATOM     19  C   LIG d   1       9.720   6.434  -5.085  0.00  0.00    -0.044 C 
ATOM     20  C   LIG d   1       9.847   4.885  -5.172  0.00  0.00     0.002 C 
ATOM     21  C   LIG d   1      10.293   4.411  -3.775  0.00  0.00     0.176 C 
ATOM     22  O   LIG d   1       9.262   3.636  -3.149  0.00  0.00    -0.346 OA
ATOM     23  C   LIG d   1       9.632   2.268  -3.485  0.00  0.00     0.074 C 
ATOM     24  C   LIG d   1      11.169   2.346  -3.258  0.00  0.00     0.074 C 
ATOM     25  O   LIG d   1      11.482   3.620  -3.874  0.00  0.00    -0.346 OA
ATOM     26 CL   LIG d   1      11.887  13.639   0.155  0.00  0.00    -0.121 Cl
ATOM     27  H   LIG d   1      10.954   8.910   0.881  0.00  0.00     0.027 H 
ATOM     28  H   LIG d   1      12.230   9.291  -0.290  0.00  0.00     0.027 H 
ATOM     29  H   LIG d   1      10.337  11.304   1.018  0.00  0.00     0.028 H 
ATOM     30  H   LIG d   1      12.050  11.067   1.399  0.00  0.00     0.028 H 
ATOM     31  H   LIG d   1       9.656  12.325  -1.139  0.00  0.00     0.032 H 
ATOM     32  H   LIG d   1      10.874  12.627  -2.402  0.00  0.00     0.032 H 
ATOM     33  H   LIG d   1      10.615  11.222  -4.004  0.00  0.00     0.057 H 
ATOM     34  H   LIG d   1       9.784   9.105  -4.946  0.00  0.00     0.031 H 
ATOM     35  H   LIG d   1      11.364   8.640  -4.264  0.00  0.00     0.031 H 
ATOM     36  H   LIG d   1       9.000   6.955  -0.573  0.00  0.00     0.027 H 
ATOM     37  H   LIG d   1      10.637   6.998   0.097  0.00  0.00     0.027 H 
ATOM     38  H   LIG d   1       9.504   4.892  -1.299  0.00  0.00     0.027 H 
ATOM     39  H   LIG d   1      11.240   5.119  -1.023  0.00  0.00     0.027 H 
ATOM     40  H   LIG d   1       8.840   6.773  -5.635  0.00  0.00     0.027 H 
ATOM     41  H   LIG d   1      10.615   6.921  -5.458  0.00  0.00     0.027 H 
ATOM     42  H   LIG d   1      10.589   4.613  -5.921  0.00  0.00     0.032 H 
ATOM     43  H   LIG d   1       8.880   4.451  -5.426  0.00  0.00     0.032 H 
ATOM     44  H   LIG d   1       9.401   2.044  -4.521  0.00  0.00     0.058 H 
ATOM     45  H   LIG d   1       9.173   1.562  -2.800  0.00  0.00     0.058 H 
ATOM     46  H   LIG d   1      11.677   1.535  -3.770  0.00  0.00     0.058 H 
ATOM     47  H   LIG d   1      11.402   2.363  -2.197  0.00  0.00     0.058 H 
ENDROOT
BRANCH  16  48
ATOM     48  C   LIG d   1      12.013   6.095  -3.289  0.00  0.00    -0.054 C 
ATOM     49  H   LIG d   1      12.496   6.459  -2.383  0.00  0.00     0.024 H 
ATOM     50  H   LIG d   1      12.556   5.230  -3.669  0.00  0.00     0.024 H 
ATOM     51  H   LIG d   1      12.014   6.883  -4.042  0.00  0.00     0.024 H 
ENDBRANCH  16  48
BRANCH   1  52
ATOM     52  C   LIG d   1       8.820   9.556  -0.500  0.00  0.00    -0.056 C 
ATOM     53  H   LIG d   1       8.855   9.421   0.581  0.00  0.00     0.024 H 
ATOM     54  H   LIG d   1       8.405  10.537  -0.731  0.00  0.00     0.024 H 
ATOM     55  H   LIG d   1       8.192   8.782  -0.943  0.00  0.00     0.024 H 
ENDBRANCH   1  52
TORSDOF 2
ENDMDL
MODEL 6
REMARK VINA RESULT:      -5.6      4.876      7.390
REMARK  2 active torsions:
REMARK  status: ('A' for Active; 'I' for Inactive)
REMARK    1  A    between atoms: C_1  and  C_2 
REMARK    2  A    between atoms: C_17  and  C_27 
ROOT
ATOM      1  C   LIG d   1       7.990  -4.902  -5.411  0.00  0.00    -0.008 C 
ATOM      2  C   LIG d   1       8.461  -5.796  -4.265  0.00  0.00    -0.042 C 
ATOM      3  C   LIG d   1       9.128  -7.067  -4.781  0.00  0.00    -0.036 C 
ATOM      4  C   LIG d   1       8.151  -7.857  -5.651  0.00  0.00     0.038 C 
ATOM      5  H   LIG d   1       7.238  -8.054  -5.089  0.00  0.00     0.047 H 
ATOM      6  C   LIG d   1       7.815  -7.027  -6.894  0.00  0.00    -0.015 C 
ATOM      7  C   LIG d   1       7.227  -5.705  -6.428  0.00  0.00    -0.066 C 
ATOM      8  C   LIG d   1       6.082  -5.343  -6.933  0.00  0.00    -0.084 C 
ATOM      9  C   LIG d   1       5.348  -4.084  -6.558  0.00  0.00    -0.031 C 
ATOM     10  C   LIG d   1       6.358  -3.095  -5.976  0.00  0.00    -0.030 C 
ATOM     11  H   LIG d   1       7.082  -2.856  -6.777  0.00  0.00     0.031 H 
ATOM     12  C   LIG d   1       7.101  -3.799  -4.842  0.00  0.00    -0.029 C 
ATOM     13  H   LIG d   1       6.364  -4.349  -4.236  0.00  0.00     0.031 H 
ATOM     14  C   LIG d   1       7.836  -2.834  -3.938  0.00  0.00    -0.049 C 
ATOM     15  C   LIG d   1       6.908  -1.793  -3.296  0.00  0.00    -0.042 C 
ATOM     16  C   LIG d   1       5.563  -1.753  -3.978  0.00  0.00     0.025 C 
ATOM     17  C   LIG d   1       5.748  -1.811  -5.508  0.00  0.00    -0.027 C 
ATOM     18  H   LIG d   1       6.422  -0.978  -5.808  0.00  0.00     0.031 H 
ATOM     19  C   LIG d   1       4.342  -1.465  -6.017  0.00  0.00    -0.044 C 
ATOM     20  C   LIG d   1       3.938  -0.286  -5.083  0.00  0.00     0.002 C 
ATOM     21  C   LIG d   1       4.808  -0.420  -3.819  0.00  0.00     0.176 C 
ATOM     22  O   LIG d   1       5.726   0.675  -3.717  0.00  0.00    -0.346 OA
ATOM     23  C   LIG d   1       5.020   1.616  -2.857  0.00  0.00     0.074 C 
ATOM     24  C   LIG d   1       4.444   0.629  -1.802  0.00  0.00     0.074 C 
ATOM     25  O   LIG d   1       3.984  -0.455  -2.649  0.00  0.00    -0.346 OA
ATOM     26 CL   LIG d   1       8.903  -9.416  -6.150  0.00  0.00    -0.121 Cl
ATOM     27  H   LIG d   1       9.176  -5.242  -3.648  0.00  0.00     0.027 H 
ATOM     28  H   LIG d   1       7.605  -6.065  -3.641  0.00  0.00     0.027 H 
ATOM     29  H   LIG d   1      10.018  -6.822  -5.359  0.00  0.00     0.028 H 
ATOM     30  H   LIG d   1       9.427  -7.687  -3.931  0.00  0.00     0.028 H 
ATOM     31  H   LIG d   1       8.719  -6.849  -7.474  0.00  0.00     0.032 H 
ATOM     32  H   LIG d   1       7.086  -7.559  -7.504  0.00  0.00     0.032 H 
ATOM     33  H   LIG d   1       5.624  -5.996  -7.666  0.00  0.00     0.057 H 
ATOM     34  H   LIG d   1       4.887  -3.656  -7.449  0.00  0.00     0.031 H 
ATOM     35  H   LIG d   1       4.579  -4.318  -5.824  0.00  0.00     0.031 H 
ATOM     36  H   LIG d   1       8.605  -2.294  -4.504  0.00  0.00     0.027 H 
ATOM     37  H   LIG d   1       8.346  -3.391  -3.141  0.00  0.00     0.027 H 
ATOM     38  H   LIG d   1       7.381  -0.804  -3.355  0.00  0.00     0.027 H 
ATOM     39  H   LIG d   1       6.771  -2.033  -2.233  0.00  0.00     0.027 H 
ATOM     40  H   LIG d   1       4.384  -1.128  -7.055  0.00  0.00     0.027 H 
ATOM     41  H   LIG d   1       3.656  -2.298  -5.912  0.00  0.00     0.027 H 
ATOM     42  H   LIG d   1       2.882  -0.358  -4.828  0.00  0.00     0.032 H 
ATOM     43  H   LIG d   1       4.140   0.663  -5.581  0.00  0.00     0.032 H 
ATOM     44  H   LIG d   1       4.224   2.117  -3.399  0.00  0.00     0.058 H 
ATOM     45  H   LIG d   1       5.710   2.317  -2.398  0.00  0.00     0.058 H 
ATOM     46  H   LIG d   1       3.614   1.077  -1.266  0.00  0.00     0.058 H 
ATOM     47  H   LIG d   1       5.223   0.286  -1.128  0.00  0.00     0.058 H 
ENDROOT
BRANCH  16  48
ATOM     48  C   LIG d   1       4.634  -2.841  -3.444  0.00  0.00    -0.054 C 
ATOM     49  H   LIG d   1       4.886  -3.794  -3.908  0.00  0.00     0.024 H 
ATOM     50  H   LIG d   1       4.749  -2.920  -2.363  0.00  0.00     0.024 H 
ATOM     51  H   LIG d   1       3.601  -2.585  -3.681  0.00  0.00     0.024 H 
ENDBRANCH  16  48
BRANCH   1  52
ATOM     52  C   LIG d   1       9.206  -4.278  -6.086  0.00  0.00    -0.056 C 
ATOM     53  H   LIG d   1       9.125  -3.191  -6.049  0.00  0.00     0.024 H 
ATOM     54  H   LIG d   1      10.111  -4.593  -5.568  0.00  0.00     0.024 H 
ATOM     55  H   LIG d   1       9.251  -4.603  -7.126  0.00  0.00     0.024 H 
ENDBRANCH   1  52
TORSDOF 2
ENDMDL
MODEL 7
REMARK VINA RESULT:      -5.6      4.796      7.283
REMARK  2 active torsions:
REMARK  status: ('A' for Active; 'I' for Inactive)
REMARK    1  A    between atoms: C_1  and  C_2 
REMARK    2  A    between atoms: C_17  and  C_27 
ROOT
ATOM      1  C   LIG d   1       9.913   1.882  -4.733  0.00  0.00    -0.008 C 
ATOM      2  C   LIG d   1      10.583   2.168  -3.390  0.00  0.00    -0.042 C 
ATOM      3  C   LIG d   1      12.004   2.692  -3.571  0.00  0.00    -0.036 C 
ATOM      4  C   LIG d   1      12.848   1.669  -4.332  0.00  0.00     0.038 C 
ATOM      5  H   LIG d   1      12.810   0.709  -3.817  0.00  0.00     0.047 H 
ATOM      6  C   LIG d   1      12.277   1.514  -5.745  0.00  0.00    -0.015 C 
ATOM      7  C   LIG d   1      10.827   1.078  -5.618  0.00  0.00    -0.066 C 
ATOM      8  C   LIG d   1      10.455   0.019  -6.280  0.00  0.00    -0.084 C 
ATOM      9  C   LIG d   1       9.068  -0.564  -6.240  0.00  0.00    -0.031 C 
ATOM     10  C   LIG d   1       8.099   0.532  -5.798  0.00  0.00    -0.030 C 
ATOM     11  H   LIG d   1       8.126   1.324  -6.569  0.00  0.00     0.031 H 
ATOM     12  C   LIG d   1       8.618   1.113  -4.485  0.00  0.00    -0.029 C 
ATOM     13  H   LIG d   1       8.933   0.279  -3.839  0.00  0.00     0.031 H 
ATOM     14  C   LIG d   1       7.570   1.917  -3.747  0.00  0.00    -0.049 C 
ATOM     15  C   LIG d   1       6.314   1.098  -3.417  0.00  0.00    -0.042 C 
ATOM     16  C   LIG d   1       6.269  -0.190  -4.200  0.00  0.00     0.025 C 
ATOM     17  C   LIG d   1       6.682   0.070  -5.663  0.00  0.00    -0.027 C 
ATOM     18  H   LIG d   1       6.018   0.862  -6.075  0.00  0.00     0.031 H 
ATOM     19  C   LIG d   1       6.296  -1.249  -6.347  0.00  0.00    -0.044 C 
ATOM     20  C   LIG d   1       4.903  -1.547  -5.719  0.00  0.00     0.002 C 
ATOM     21  C   LIG d   1       4.856  -0.772  -4.387  0.00  0.00     0.176 C 
ATOM     22  O   LIG d   1       3.878   0.274  -4.443  0.00  0.00    -0.346 OA
ATOM     23  C   LIG d   1       2.697  -0.351  -3.862  0.00  0.00     0.074 C 
ATOM     24  C   LIG d   1       3.356  -1.108  -2.674  0.00  0.00     0.074 C 
ATOM     25  O   LIG d   1       4.538  -1.657  -3.308  0.00  0.00    -0.346 OA
ATOM     26 CL   LIG d   1      14.554   2.239  -4.428  0.00  0.00    -0.121 Cl
ATOM     27  H   LIG d   1       9.994   2.914  -2.848  0.00  0.00     0.027 H 
ATOM     28  H   LIG d   1      10.608   1.251  -2.796  0.00  0.00     0.027 H 
ATOM     29  H   LIG d   1      11.996   3.636  -4.113  0.00  0.00     0.028 H 
ATOM     30  H   LIG d   1      12.454   2.860  -2.587  0.00  0.00     0.028 H 
ATOM     31  H   LIG d   1      12.336   2.464  -6.274  0.00  0.00     0.032 H 
ATOM     32  H   LIG d   1      12.842   0.756  -6.287  0.00  0.00     0.032 H 
ATOM     33  H   LIG d   1      11.195  -0.478  -6.893  0.00  0.00     0.057 H 
ATOM     34  H   LIG d   1       8.796  -0.916  -7.236  0.00  0.00     0.031 H 
ATOM     35  H   LIG d   1       9.046  -1.396  -5.538  0.00  0.00     0.031 H 
ATOM     36  H   LIG d   1       7.259   2.780  -4.349  0.00  0.00     0.027 H 
ATOM     37  H   LIG d   1       7.994   2.306  -2.812  0.00  0.00     0.027 H 
ATOM     38  H   LIG d   1       5.423   1.699  -3.643  0.00  0.00     0.027 H 
ATOM     39  H   LIG d   1       6.297   0.873  -2.342  0.00  0.00     0.027 H 
ATOM     40  H   LIG d   1       6.202  -1.106  -7.425  0.00  0.00     0.027 H 
ATOM     41  H   LIG d   1       7.001  -2.042  -6.126  0.00  0.00     0.027 H 
ATOM     42  H   LIG d   1       4.795  -2.616  -5.542  0.00  0.00     0.032 H 
ATOM     43  H   LIG d   1       4.115  -1.196  -6.387  0.00  0.00     0.032 H 
ATOM     44  H   LIG d   1       2.238  -1.043  -4.561  0.00  0.00     0.058 H 
ATOM     45  H   LIG d   1       1.996   0.398  -3.506  0.00  0.00     0.058 H 
ATOM     46  H   LIG d   1       2.708  -1.901  -2.314  0.00  0.00     0.058 H 
ATOM     47  H   LIG d   1       3.629  -0.418  -1.881  0.00  0.00     0.058 H 
ENDROOT
BRANCH  16  48
ATOM     48  C   LIG d   1       7.099  -1.281  -3.527  0.00  0.00    -0.054 C 
ATOM     49  H   LIG d   1       8.023  -0.849  -3.141  0.00  0.00     0.024 H 
ATOM     50  H   LIG d   1       6.531  -1.716  -2.706  0.00  0.00     0.024 H 
ATOM     51  H   LIG d   1       7.338  -2.057  -4.255  0.00  0.00     0.024 H 
ENDBRANCH  16  48
BRANCH   1  52
ATOM     52  C   LIG d   1       9.597   3.204  -5.423  0.00  0.00    -0.056 C 
ATOM     53  H   LIG d   1      10.113   3.245  -6.383  0.00  0.00     0.024 H 
ATOM     54  H   LIG d   1       8.522   3.281  -5.585  0.00  0.00     0.024 H 
ATOM     55  H   LIG d   1       9.930   4.031  -4.795  0.00  0.00     0.024 H 
ENDBRANCH   1  52
TORSDOF 2
ENDMDL
MODEL 8
REMARK VINA RESULT:      -5.6      9.954     13.047
REMARK  2 active torsions:
REMARK  status: ('A' for Active; 'I' for Inactive)
REMARK    1  A    between atoms: C_1  and  C_2 
REMARK    2  A    between atoms: C_17  and  C_27 
ROOT
ATOM      1  C   LIG d   1      10.207   6.220  -4.692  0.00  0.00    -0.008 C 
ATOM      2  C   LIG d   1      11.131   6.596  -5.850  0.00  0.00    -0.042 C 
ATOM      3  C   LIG d   1      10.734   5.886  -7.139  0.00  0.00    -0.036 C 
ATOM      4  C   LIG d   1      10.785   4.371  -6.943  0.00  0.00     0.038 C 
ATOM      5  H   LIG d   1      11.773   4.082  -6.585  0.00  0.00     0.047 H 
ATOM      6  C   LIG d   1       9.730   3.974  -5.905  0.00  0.00    -0.015 C 
ATOM      7  C   LIG d   1      10.031   4.728  -4.621  0.00  0.00    -0.066 C 
ATOM      8  C   LIG d   1      10.129   4.034  -3.522  0.00  0.00    -0.084 C 
ATOM      9  C   LIG d   1      10.452   4.619  -2.173  0.00  0.00    -0.031 C 
ATOM     10  C   LIG d   1      10.097   6.106  -2.198  0.00  0.00    -0.030 C 
ATOM     11  H   LIG d   1       9.006   6.180  -2.361  0.00  0.00     0.031 H 
ATOM     12  C   LIG d   1      10.813   6.738  -3.390  0.00  0.00    -0.029 C 
ATOM     13  H   LIG d   1      11.845   6.355  -3.416  0.00  0.00     0.031 H 
ATOM     14  C   LIG d   1      10.867   8.247  -3.306  0.00  0.00    -0.049 C 
ATOM     15  C   LIG d   1      11.569   8.749  -2.036  0.00  0.00    -0.042 C 
ATOM     16  C   LIG d   1      11.724   7.649  -1.015  0.00  0.00     0.025 C 
ATOM     17  C   LIG d   1      10.421   6.827  -0.927  0.00  0.00    -0.027 C 
ATOM     18  H   LIG d   1       9.585   7.525  -0.702  0.00  0.00     0.031 H 
ATOM     19  C   LIG d   1      10.659   5.980   0.331  0.00  0.00    -0.044 C 
ATOM     20  C   LIG d   1      11.277   7.019   1.312  0.00  0.00     0.002 C 
ATOM     21  C   LIG d   1      11.865   8.142   0.436  0.00  0.00     0.176 C 
ATOM     22  O   LIG d   1      11.144   9.365   0.630  0.00  0.00    -0.346 OA
ATOM     23  C   LIG d   1      11.932  10.052   1.645  0.00  0.00     0.074 C 
ATOM     24  C   LIG d   1      13.364   9.751   1.118  0.00  0.00     0.074 C 
ATOM     25  O   LIG d   1      13.244   8.352   0.756  0.00  0.00    -0.346 OA
ATOM     26 CL   LIG d   1      10.439   3.542  -8.504  0.00  0.00    -0.121 Cl
ATOM     27  H   LIG d   1      11.085   7.678  -6.008  0.00  0.00     0.027 H 
ATOM     28  H   LIG d   1      12.160   6.329  -5.592  0.00  0.00     0.027 H 
ATOM     29  H   LIG d   1       9.731   6.182  -7.444  0.00  0.00     0.028 H 
ATOM     30  H   LIG d   1      11.434   6.163  -7.934  0.00  0.00     0.028 H 
ATOM     31  H   LIG d   1       8.738   4.235  -6.268  0.00  0.00     0.032 H 
ATOM     32  H   LIG d   1       9.783   2.900  -5.722  0.00  0.00     0.032 H 
ATOM     33  H   LIG d   1       9.975   2.965  -3.585  0.00  0.00     0.057 H 
ATOM     34  H   LIG d   1       9.861   4.113  -1.410  0.00  0.00     0.031 H 
ATOM     35  H   LIG d   1      11.513   4.485  -1.966  0.00  0.00     0.031 H 
ATOM     36  H   LIG d   1       9.852   8.665  -3.315  0.00  0.00     0.027 H 
ATOM     37  H   LIG d   1      11.394   8.647  -4.182  0.00  0.00     0.027 H 
ATOM     38  H   LIG d   1      10.986   9.573  -1.604  0.00  0.00     0.027 H 
ATOM     39  H   LIG d   1      12.559   9.145  -2.299  0.00  0.00     0.027 H 
ATOM     40  H   LIG d   1       9.711   5.606   0.723  0.00  0.00     0.027 H 
ATOM     41  H   LIG d   1      11.346   5.162   0.145  0.00  0.00     0.027 H 
ATOM     42  H   LIG d   1      12.060   6.550   1.907  0.00  0.00     0.032 H 
ATOM     43  H   LIG d   1      10.499   7.417   1.964  0.00  0.00     0.032 H 
ATOM     44  H   LIG d   1      11.776   9.612   2.624  0.00  0.00     0.058 H 
ATOM     45  H   LIG d   1      11.731  11.119   1.638  0.00  0.00     0.058 H 
ATOM     46  H   LIG d   1      14.101   9.884   1.903  0.00  0.00     0.058 H 
ATOM     47  H   LIG d   1      13.589  10.357   0.245  0.00  0.00     0.058 H 
ENDROOT
BRANCH  16  48
ATOM     48  C   LIG d   1      12.956   6.792  -1.302  0.00  0.00    -0.054 C 
ATOM     49  H   LIG d   1      12.768   6.164  -2.172  0.00  0.00     0.024 H 
ATOM     50  H   LIG d   1      13.811   7.439  -1.497  0.00  0.00     0.024 H 
ATOM     51  H   LIG d   1      13.168   6.162  -0.438  0.00  0.00     0.024 H 
ENDBRANCH  16  48
BRANCH   1  52
ATOM     52  C   LIG d   1       8.845   6.868  -4.913  0.00  0.00    -0.056 C 
ATOM     53  H   LIG d   1       8.261   6.259  -5.604  0.00  0.00     0.024 H 
ATOM     54  H   LIG d   1       8.319   6.942  -3.961  0.00  0.00     0.024 H 
ATOM     55  H   LIG d   1       8.980   7.865  -5.332  0.00  0.00     0.024 H 
ENDBRANCH   1  52
TORSDOF 2
ENDMDL
MODEL 9
REMARK VINA RESULT:      -5.5     12.195     15.064
REMARK  2 active torsions:
REMARK  status: ('A' for Active; 'I' for Inactive)
REMARK    1  A    between atoms: C_1  and  C_2 
REMARK    2  A    between atoms: C_17  and  C_27 
ROOT
ATOM      1  C   LIG d   1       8.625 -10.985  -1.133  0.00  0.00    -0.008 C 
ATOM      2  C   LIG d   1       7.361 -11.489  -0.437  0.00  0.00    -0.042 C 
ATOM      3  C   LIG d   1       6.186 -11.582  -1.404  0.00  0.00    -0.036 C 
ATOM      4  C   LIG d   1       5.896 -10.210  -2.013  0.00  0.00     0.038 C 
ATOM      5  H   LIG d   1       5.735  -9.484  -1.216  0.00  0.00     0.047 H 
ATOM      6  C   LIG d   1       7.100  -9.783  -2.858  0.00  0.00    -0.015 C 
ATOM      7  C   LIG d   1       8.321  -9.761  -1.955  0.00  0.00    -0.066 C 
ATOM      8  C   LIG d   1       9.039  -8.674  -1.936  0.00  0.00    -0.084 C 
ATOM      9  C   LIG d   1      10.258  -8.475  -1.076  0.00  0.00    -0.031 C 
ATOM     10  C   LIG d   1      10.810  -9.851  -0.701  0.00  0.00    -0.030 C 
ATOM     11  H   LIG d   1      11.118 -10.348  -1.640  0.00  0.00     0.031 H 
ATOM     12  C   LIG d   1       9.673 -10.655  -0.074  0.00  0.00    -0.029 C 
ATOM     13  H   LIG d   1       9.133 -10.000   0.628  0.00  0.00     0.031 H 
ATOM     14  C   LIG d   1      10.165 -11.866   0.688  0.00  0.00    -0.049 C 
ATOM     15  C   LIG d   1      11.143 -11.505   1.815  0.00  0.00    -0.042 C 
ATOM     16  C   LIG d   1      11.652 -10.092   1.678  0.00  0.00     0.025 C 
ATOM     17  C   LIG d   1      12.001  -9.800   0.204  0.00  0.00    -0.027 C 
ATOM     18  H   LIG d   1      12.729 -10.568  -0.138  0.00  0.00     0.031 H 
ATOM     19  C   LIG d   1      12.758  -8.469   0.309  0.00  0.00    -0.044 C 
ATOM     20  C   LIG d   1      13.673  -8.710   1.545  0.00  0.00     0.002 C 
ATOM     21  C   LIG d   1      13.006  -9.833   2.363  0.00  0.00     0.176 C 
ATOM     22  O   LIG d   1      13.814 -11.016   2.354  0.00  0.00    -0.346 OA
ATOM     23  C   LIG d   1      14.590 -10.891   3.581  0.00  0.00     0.074 C 
ATOM     24  C   LIG d   1      13.480 -10.387   4.546  0.00  0.00     0.074 C 
ATOM     25  O   LIG d   1      12.804  -9.410   3.715  0.00  0.00    -0.346 OA
ATOM     26 CL   LIG d   1       4.428 -10.303  -3.053  0.00  0.00    -0.121 Cl
ATOM     27  H   LIG d   1       7.556 -12.480  -0.015  0.00  0.00     0.027 H 
ATOM     28  H   LIG d   1       7.104 -10.811   0.381  0.00  0.00     0.027 H 
ATOM     29  H   LIG d   1       6.400 -12.297  -2.197  0.00  0.00     0.028 H 
ATOM     30  H   LIG d   1       5.299 -11.923  -0.861  0.00  0.00     0.028 H 
ATOM     31  H   LIG d   1       7.249 -10.490  -3.672  0.00  0.00     0.032 H 
ATOM     32  H   LIG d   1       6.926  -8.787  -3.265  0.00  0.00     0.032 H 
ATOM     33  H   LIG d   1       8.733  -7.856  -2.576  0.00  0.00     0.057 H 
ATOM     34  H   LIG d   1      11.009  -7.919  -1.639  0.00  0.00     0.031 H 
ATOM     35  H   LIG d   1       9.984  -7.919  -0.181  0.00  0.00     0.031 H 
ATOM     36  H   LIG d   1      10.678 -12.560   0.009  0.00  0.00     0.027 H 
ATOM     37  H   LIG d   1       9.310 -12.403   1.120  0.00  0.00     0.027 H 
ATOM     38  H   LIG d   1      11.989 -12.205   1.796  0.00  0.00     0.027 H 
ATOM     39  H   LIG d   1      10.640 -11.620   2.785  0.00  0.00     0.027 H 
ATOM     40  H   LIG d   1      13.363  -8.303  -0.584  0.00  0.00     0.027 H 
ATOM     41  H   LIG d   1      12.087  -7.634   0.477  0.00  0.00     0.027 H 
ATOM     42  H   LIG d   1      13.747  -7.799   2.137  0.00  0.00     0.032 H 
ATOM     43  H   LIG d   1      14.664  -9.023   1.213  0.00  0.00     0.032 H 
ATOM     44  H   LIG d   1      15.377 -10.152   3.471  0.00  0.00     0.058 H 
ATOM     45  H   LIG d   1      14.974 -11.856   3.899  0.00  0.00     0.058 H 
ATOM     46  H   LIG d   1      13.913  -9.914   5.422  0.00  0.00     0.058 H 
ATOM     47  H   LIG d   1      12.806 -11.196   4.815  0.00  0.00     0.058 H 
ENDROOT
BRANCH  16  48
ATOM     48  C   LIG d   1      10.668  -9.085   2.272  0.00  0.00    -0.054 C 
ATOM     49  H   LIG d   1       9.746  -9.091   1.691  0.00  0.00     0.024 H 
ATOM     50  H   LIG d   1      10.449  -9.357   3.304  0.00  0.00     0.024 H 
ATOM     51  H   LIG d   1      11.108  -8.088   2.245  0.00  0.00     0.024 H 
ENDBRANCH  16  48
BRANCH   1  52
ATOM     52  C   LIG d   1       9.156 -12.078  -2.053  0.00  0.00    -0.056 C 
ATOM     53  H   LIG d   1       8.321 -12.570  -2.552  0.00  0.00     0.024 H 
ATOM     54  H   LIG d   1       9.816 -11.635  -2.800  0.00  0.00     0.024 H 
ATOM     55  H   LIG d   1       9.711 -12.809  -1.466  0.00  0.00     0.024 H 
ENDBRANCH   1  52
TORSDOF 2
ENDMDL
MODEL 10
REMARK VINA RESULT:      -5.5      9.621     12.599
REMARK  2 active torsions:
REMARK  status: ('A' for Active; 'I' for Inactive)
REMARK    1  A    between atoms: C_1  and  C_2 
REMARK    2  A    between atoms: C_17  and  C_27 
ROOT
ATOM      1  C   LIG d   1      10.686   4.375  -3.602  0.00  0.00    -0.008 C 
ATOM      2  C   LIG d   1      10.037   3.201  -2.870  0.00  0.00    -0.042 C 
ATOM      3  C   LIG d   1       9.600   2.107  -3.838  0.00  0.00    -0.036 C 
ATOM      4  C   LIG d   1       8.600   2.668  -4.849  0.00  0.00     0.038 C 
ATOM      5  H   LIG d   1       7.765   3.127  -4.320  0.00  0.00     0.047 H 
ATOM      6  C   LIG d   1       9.306   3.726  -5.704  0.00  0.00    -0.015 C 
ATOM      7  C   LIG d   1       9.841   4.800  -4.772  0.00  0.00    -0.066 C 
ATOM      8  C   LIG d   1       9.529   6.037  -5.034  0.00  0.00    -0.084 C 
ATOM      9  C   LIG d   1       9.948   7.215  -4.196  0.00  0.00    -0.031 C 
ATOM     10  C   LIG d   1      11.183   6.815  -3.389  0.00  0.00    -0.030 C 
ATOM     11  H   LIG d   1      11.990   6.592  -4.113  0.00  0.00     0.031 H 
ATOM     12  C   LIG d   1      10.848   5.536  -2.625  0.00  0.00    -0.029 C 
ATOM     13  H   LIG d   1       9.843   5.648  -2.189  0.00  0.00     0.031 H 
ATOM     14  C   LIG d   1      11.823   5.253  -1.503  0.00  0.00    -0.049 C 
ATOM     15  C   LIG d   1      11.898   6.391  -0.476  0.00  0.00    -0.042 C 
ATOM     16  C   LIG d   1      11.261   7.654  -0.999  0.00  0.00     0.025 C 
ATOM     17  C   LIG d   1      11.677   7.884  -2.466  0.00  0.00    -0.027 C 
ATOM     18  H   LIG d   1      12.788   7.897  -2.513  0.00  0.00     0.031 H 
ATOM     19  C   LIG d   1      11.194   9.319  -2.717  0.00  0.00    -0.044 C 
ATOM     20  C   LIG d   1      11.628  10.044  -1.409  0.00  0.00     0.002 C 
ATOM     21  C   LIG d   1      11.772   8.947  -0.337  0.00  0.00     0.176 C 
ATOM     22  O   LIG d   1      13.140   8.806   0.064  0.00  0.00    -0.346 OA
ATOM     23  C   LIG d   1      13.225   9.656   1.244  0.00  0.00     0.074 C 
ATOM     24  C   LIG d   1      11.886   9.279   1.938  0.00  0.00     0.074 C 
ATOM     25  O   LIG d   1      10.976   9.264   0.810  0.00  0.00    -0.346 OA
ATOM     26 CL   LIG d   1       7.993   1.343  -5.907  0.00  0.00    -0.121 Cl
ATOM     27  H   LIG d   1      10.754   2.782  -2.157  0.00  0.00     0.027 H 
ATOM     28  H   LIG d   1       9.168   3.559  -2.312  0.00  0.00     0.027 H 
ATOM     29  H   LIG d   1      10.461   1.697  -4.364  0.00  0.00     0.028 H 
ATOM     30  H   LIG d   1       9.120   1.300  -3.277  0.00  0.00     0.028 H 
ATOM     31  H   LIG d   1      10.125   3.268  -6.256  0.00  0.00     0.032 H 
ATOM     32  H   LIG d   1       8.595   4.167  -6.402  0.00  0.00     0.032 H 
ATOM     33  H   LIG d   1       8.921   6.230  -5.908  0.00  0.00     0.057 H 
ATOM     34  H   LIG d   1      10.192   8.054  -4.850  0.00  0.00     0.031 H 
ATOM     35  H   LIG d   1       9.134   7.494  -3.530  0.00  0.00     0.031 H 
ATOM     36  H   LIG d   1      12.832   5.099  -1.907  0.00  0.00     0.027 H 
ATOM     37  H   LIG d   1      11.533   4.329  -0.987  0.00  0.00     0.027 H 
ATOM     38  H   LIG d   1      12.950   6.585  -0.229  0.00  0.00     0.027 H 
ATOM     39  H   LIG d   1      11.392   6.082   0.448  0.00  0.00     0.027 H 
ATOM     40  H   LIG d   1      11.710   9.751  -3.578  0.00  0.00     0.027 H 
ATOM     41  H   LIG d   1      10.119   9.368  -2.852  0.00  0.00     0.027 H 
ATOM     42  H   LIG d   1      10.869  10.767  -1.115  0.00  0.00     0.032 H 
ATOM     43  H   LIG d   1      12.583  10.546  -1.566  0.00  0.00     0.032 H 
ATOM     44  H   LIG d   1      13.241  10.706   0.968  0.00  0.00     0.058 H 
ATOM     45  H   LIG d   1      14.075   9.381   1.861  0.00  0.00     0.058 H 
ATOM     46  H   LIG d   1      11.595  10.039   2.657  0.00  0.00     0.058 H 
ATOM     47  H   LIG d   1      11.951   8.296   2.394  0.00  0.00     0.058 H 
ENDROOT
BRANCH  16  48
ATOM     48  C   LIG d   1       9.746   7.638  -0.800  0.00  0.00    -0.054 C 
ATOM     49  H   LIG d   1       9.513   7.244   0.188  0.00  0.00     0.024 H 
ATOM     50  H   LIG d   1       9.357   8.651  -0.890  0.00  0.00     0.024 H 
ATOM     51  H   LIG d   1       9.288   7.004  -1.560  0.00  0.00     0.024 H 
ENDBRANCH  16  48
BRANCH   1  52
ATOM     52  C   LIG d   1      12.056   3.945  -4.113  0.00  0.00    -0.056 C 
ATOM     53  H   LIG d   1      11.968   3.605  -5.145  0.00  0.00     0.024 H 
ATOM     54  H   LIG d   1      12.743   4.790  -4.066  0.00  0.00     0.024 H 
ATOM     55  H   LIG d   1      12.438   3.133  -3.494  0.00  0.00     0.024 H 
ENDBRANCH   1  52
TORSDOF 2
ENDMDL
