MODEL 1
REMARK VINA RESULT:      -6.3      0.000      0.000
REMARK  18 active torsions:
REMARK  status: ('A' for Active; 'I' for Inactive)
REMARK    1  A    between atoms: C_1  and  C_2 
REMARK    2  A    between atoms: C_2  and  O_4 
REMARK    3  A    between atoms: O_4  and  C_5 
REMARK    4  A    between atoms: C_5  and  C_6 
REMARK    5  A    between atoms: C_8  and  O_43 
REMARK    6  A    between atoms: C_10  and  O_39 
REMARK    7  A    between atoms: C_12  and  O_35 
REMARK    8  A    between atoms: C_14  and  N_17 
REMARK    9  A    between atoms: N_20  and  C_25 
REMARK   10  A    between atoms: C_25  and  C_26 
REMARK   11  A    between atoms: C_29  and  O_33 
REMARK   12  A    between atoms: O_33  and  C_34 
REMARK   13  A    between atoms: O_35  and  C_36 
REMARK   14  A    between atoms: C_36  and  C_38 
REMARK   15  A    between atoms: O_39  and  C_40 
REMARK   16  A    between atoms: C_40  and  C_42 
REMARK   17  A    between atoms: O_43  and  C_44 
REMARK   18  A    between atoms: C_44  and  C_46 
ROOT
ATOM      1  C   LIG d   1       6.026  -2.546  -6.031  0.00  0.00     0.136 C 
ATOM      2  H   LIG d   1       6.196  -2.017  -6.968  0.00  0.00     0.067 H 
ATOM      3  C   LIG d   1       7.044  -2.079  -4.987  0.00  0.00     0.172 C 
ATOM      4  H   LIG d   1       6.901  -2.636  -4.062  0.00  0.00     0.080 H 
ATOM      5  C   LIG d   1       6.839  -0.584  -4.720  0.00  0.00     0.183 C 
ATOM      6  H   LIG d   1       7.030  -0.021  -5.634  0.00  0.00     0.081 H 
ATOM      7  C   LIG d   1       5.394  -0.351  -4.268  0.00  0.00     0.190 C 
ATOM      8  H   LIG d   1       5.218  -0.875  -3.329  0.00  0.00     0.082 H 
ATOM      9  C   LIG d   1       4.439  -0.887  -5.338  0.00  0.00     0.197 C 
ATOM     10  H   LIG d   1       3.410  -0.762  -5.003  0.00  0.00     0.089 H 
ATOM     11  O   LIG d   1       4.705  -2.273  -5.561  0.00  0.00    -0.341 OA
ENDROOT
BRANCH   9  12
ATOM     12  N   LIG d   1       4.640  -0.145  -6.586  0.00  0.00    -0.181 N 
ATOM     13  N   LIG d   1       5.925   0.289  -6.933  0.00  0.00    -0.168 NA
ATOM     14  C   LIG d   1       6.111   0.945  -8.045  0.00  0.00     0.113 A 
ATOM     15  C   LIG d   1       4.959   1.225  -8.908  0.00  0.00     0.275 A 
ATOM     16  H   LIG d   1       7.098   1.281  -8.325  0.00  0.00     0.090 H 
ATOM     17  N   LIG d   1       3.736   0.793  -8.533  0.00  0.00    -0.254 N 
ATOM     18  O   LIG d   1       5.103   1.840  -9.948  0.00  0.00    -0.266 OA
ATOM     19  C   LIG d   1       3.586   0.114  -7.380  0.00  0.00     0.351 A 
ATOM     20  O   LIG d   1       2.479  -0.270  -7.052  0.00  0.00    -0.245 OA
BRANCH  17  21
ATOM     21  C   LIG d   1       2.573   1.063  -9.381  0.00  0.00     0.056 C 
ATOM     22  H   LIG d   1       1.687   1.181  -8.758  0.00  0.00     0.054 H 
ATOM     23  H   LIG d   1       2.743   1.978  -9.950  0.00  0.00     0.054 H 
BRANCH  21  24
ATOM     24  C   LIG d   1       2.367  -0.088 -10.333  0.00  0.00    -0.026 A 
ATOM     25  C   LIG d   1       3.103  -0.157 -11.501  0.00  0.00    -0.039 A 
ATOM     26  C   LIG d   1       2.919  -1.214 -12.373  0.00  0.00     0.060 A 
ATOM     27  H   LIG d   1       3.825   0.613 -11.731  0.00  0.00     0.063 H 
ATOM     28  C   LIG d   1       1.988  -2.200 -12.079  0.00  0.00     0.134 A 
ATOM     29 BR   LIG d   1       3.932  -1.313 -13.967  0.00  0.00    -0.046 Br
ATOM     30  C   LIG d   1       1.246  -2.124 -10.909  0.00  0.00    -0.018 A 
ATOM     31  C   LIG d   1       1.437  -1.069 -10.039  0.00  0.00    -0.053 A 
ATOM     32  H   LIG d   1       0.521  -2.890 -10.678  0.00  0.00     0.065 H 
ATOM     33  H   LIG d   1       0.860  -1.009  -9.128  0.00  0.00     0.062 H 
BRANCH  28  34
ATOM     34  O   LIG d   1       1.801  -3.238 -12.937  0.00  0.00    -0.494 OA
BRANCH  34  35
ATOM     35  C   LIG d   1       1.597  -4.528 -12.360  0.00  0.00     0.079 C 
ATOM     36  H   LIG d   1       0.538  -4.782 -12.399  0.00  0.00     0.066 H 
ATOM     37  H   LIG d   1       2.168  -5.270 -12.919  0.00  0.00     0.066 H 
ATOM     38  H   LIG d   1       1.930  -4.520 -11.323  0.00  0.00     0.066 H 
ENDBRANCH  34  35
ENDBRANCH  28  34
ENDBRANCH  21  24
ENDBRANCH  17  21
ENDBRANCH   9  12
BRANCH   7  39
ATOM     39  O   LIG d   1       5.171   1.049  -4.085  0.00  0.00    -0.453 OA
BRANCH  39  40
ATOM     40  C   LIG d   1       4.369   1.410  -3.070  0.00  0.00     0.304 C 
ATOM     41  O   LIG d   1       3.473   2.198  -3.260  0.00  0.00    -0.251 OA
BRANCH  40  42
ATOM     42  C   LIG d   1       4.586   0.832  -1.696  0.00  0.00     0.033 C 
ATOM     43  H   LIG d   1       5.532   1.195  -1.294  0.00  0.00     0.034 H 
ATOM     44  H   LIG d   1       3.772   1.139  -1.039  0.00  0.00     0.034 H 
ATOM     45  H   LIG d   1       4.612  -0.257  -1.759  0.00  0.00     0.034 H 
ENDBRANCH  40  42
ENDBRANCH  39  40
ENDBRANCH   7  39
BRANCH   5  46
ATOM     46  O   LIG d   1       7.738  -0.153  -3.696  0.00  0.00    -0.454 OA
BRANCH  46  47
ATOM     47  C   LIG d   1       8.455   0.955  -3.942  0.00  0.00     0.304 C 
ATOM     48  O   LIG d   1       8.164   1.995  -3.400  0.00  0.00    -0.251 OA
BRANCH  47  49
ATOM     49  C   LIG d   1       9.622   0.901  -4.893  0.00  0.00     0.033 C 
ATOM     50  H   LIG d   1      10.491   0.491  -4.379  0.00  0.00     0.034 H 
ATOM     51  H   LIG d   1       9.369   0.267  -5.743  0.00  0.00     0.034 H 
ATOM     52  H   LIG d   1       9.850   1.908  -5.245  0.00  0.00     0.034 H 
ENDBRANCH  47  49
ENDBRANCH  46  47
ENDBRANCH   5  46
BRANCH   1  53
ATOM     53  C   LIG d   1       6.185  -4.051  -6.258  0.00  0.00     0.122 C 
ATOM     54  H   LIG d   1       7.241  -4.316  -6.226  0.00  0.00     0.072 H 
ATOM     55  H   LIG d   1       5.773  -4.316  -7.233  0.00  0.00     0.072 H 
BRANCH  53  56
ATOM     56  O   LIG d   1       5.484  -4.764  -5.237  0.00  0.00    -0.462 OA
BRANCH  56  57
ATOM     57  C   LIG d   1       4.621  -5.711  -5.638  0.00  0.00     0.304 C 
ATOM     58  O   LIG d   1       3.531  -5.399  -6.055  0.00  0.00    -0.251 OA
BRANCH  57  59
ATOM     59  C   LIG d   1       5.012  -7.165  -5.568  0.00  0.00     0.033 C 
ATOM     60  H   LIG d   1       5.256  -7.523  -6.568  0.00  0.00     0.034 H 
ATOM     61  H   LIG d   1       5.880  -7.278  -4.919  0.00  0.00     0.034 H 
ATOM     62  H   LIG d   1       4.181  -7.745  -5.167  0.00  0.00     0.034 H 
ENDBRANCH  57  59
ENDBRANCH  56  57
ENDBRANCH  53  56
ENDBRANCH   1  53
BRANCH   3  63
ATOM     63  O   LIG d   1       8.368  -2.299  -5.480  0.00  0.00    -0.455 OA
BRANCH  63  64
ATOM     64  C   LIG d   1       9.248  -2.851  -4.631  0.00  0.00     0.304 C 
ATOM     65  O   LIG d   1      10.432  -2.653  -4.774  0.00  0.00    -0.251 OA
BRANCH  64  66
ATOM     66  C   LIG d   1       8.762  -3.717  -3.497  0.00  0.00     0.033 C 
ATOM     67  H   LIG d   1       7.806  -3.337  -3.134  0.00  0.00     0.034 H 
ATOM     68  H   LIG d   1       8.636  -4.741  -3.849  0.00  0.00     0.034 H 
ATOM     69  H   LIG d   1       9.490  -3.698  -2.687  0.00  0.00     0.034 H 
ENDBRANCH  64  66
ENDBRANCH  63  64
ENDBRANCH   3  63
TORSDOF 18
ENDMDL
MODEL 2
REMARK VINA RESULT:      -6.2      3.232      8.078
REMARK  18 active torsions:
REMARK  status: ('A' for Active; 'I' for Inactive)
REMARK    1  A    between atoms: C_1  and  C_2 
REMARK    2  A    between atoms: C_2  and  O_4 
REMARK    3  A    between atoms: O_4  and  C_5 
REMARK    4  A    between atoms: C_5  and  C_6 
REMARK    5  A    between atoms: C_8  and  O_43 
REMARK    6  A    between atoms: C_10  and  O_39 
REMARK    7  A    between atoms: C_12  and  O_35 
REMARK    8  A    between atoms: C_14  and  N_17 
REMARK    9  A    between atoms: N_20  and  C_25 
REMARK   10  A    between atoms: C_25  and  C_26 
REMARK   11  A    between atoms: C_29  and  O_33 
REMARK   12  A    between atoms: O_33  and  C_34 
REMARK   13  A    between atoms: O_35  and  C_36 
REMARK   14  A    between atoms: C_36  and  C_38 
REMARK   15  A    between atoms: O_39  and  C_40 
REMARK   16  A    between atoms: C_40  and  C_42 
REMARK   17  A    between atoms: O_43  and  C_44 
REMARK   18  A    between atoms: C_44  and  C_46 
ROOT
ATOM      1  C   LIG d   1       5.224  -1.044  -7.773  0.00  0.00     0.136 C 
ATOM      2  H   LIG d   1       6.292  -1.255  -7.820  0.00  0.00     0.067 H 
ATOM      3  C   LIG d   1       4.474  -2.303  -7.330  0.00  0.00     0.172 C 
ATOM      4  H   LIG d   1       3.402  -2.105  -7.321  0.00  0.00     0.080 H 
ATOM      5  C   LIG d   1       4.933  -2.691  -5.921  0.00  0.00     0.183 C 
ATOM      6  H   LIG d   1       5.996  -2.936  -5.938  0.00  0.00     0.081 H 
ATOM      7  C   LIG d   1       4.696  -1.509  -4.975  0.00  0.00     0.190 C 
ATOM      8  H   LIG d   1       3.629  -1.296  -4.920  0.00  0.00     0.082 H 
ATOM      9  C   LIG d   1       5.437  -0.281  -5.510  0.00  0.00     0.197 C 
ATOM     10  H   LIG d   1       5.237   0.574  -4.864  0.00  0.00     0.089 H 
ATOM     11  O   LIG d   1       4.985   0.006  -6.835  0.00  0.00    -0.341 OA
ENDROOT
BRANCH   9  12
ATOM     12  N   LIG d   1       6.877  -0.550  -5.533  0.00  0.00    -0.181 N 
ATOM     13  N   LIG d   1       7.346  -1.827  -5.201  0.00  0.00    -0.168 NA
ATOM     14  C   LIG d   1       8.626  -2.075  -5.225  0.00  0.00     0.113 A 
ATOM     15  C   LIG d   1       9.554  -0.999  -5.590  0.00  0.00     0.275 A 
ATOM     16  H   LIG d   1       8.999  -3.057  -4.975  0.00  0.00     0.090 H 
ATOM     17  N   LIG d   1       9.059   0.218  -5.897  0.00  0.00    -0.254 N 
ATOM     18  O   LIG d   1      10.754  -1.201  -5.614  0.00  0.00    -0.266 OA
ATOM     19  C   LIG d   1       7.731   0.434  -5.866  0.00  0.00     0.351 A 
ATOM     20  O   LIG d   1       7.296   1.535  -6.145  0.00  0.00    -0.245 OA
BRANCH  17  21
ATOM     21  C   LIG d   1       9.970   1.306  -6.264  0.00  0.00     0.056 C 
ATOM     22  H   LIG d   1      10.963   0.900  -6.454  0.00  0.00     0.054 H 
ATOM     23  H   LIG d   1       9.600   1.800  -7.163  0.00  0.00     0.054 H 
BRANCH  21  24
ATOM     24  C   LIG d   1      10.042   2.303  -5.137  0.00  0.00    -0.026 A 
ATOM     25  C   LIG d   1       9.702   3.624  -5.361  0.00  0.00    -0.039 A 
ATOM     26  C   LIG d   1       9.763   4.539  -4.328  0.00  0.00     0.060 A 
ATOM     27  H   LIG d   1       9.385   3.940  -6.344  0.00  0.00     0.063 H 
ATOM     28  C   LIG d   1      10.175   4.133  -3.066  0.00  0.00     0.134 A 
ATOM     29 BR   LIG d   1       9.290   6.345  -4.633  0.00  0.00    -0.046 Br
ATOM     30  C   LIG d   1      10.521   2.808  -2.845  0.00  0.00    -0.018 A 
ATOM     31  C   LIG d   1      10.454   1.896  -3.881  0.00  0.00    -0.053 A 
ATOM     32  H   LIG d   1      10.842   2.490  -1.865  0.00  0.00     0.065 H 
ATOM     33  H   LIG d   1      10.723   0.864  -3.709  0.00  0.00     0.062 H 
BRANCH  28  34
ATOM     34  O   LIG d   1      10.241   5.033  -2.049  0.00  0.00    -0.494 OA
BRANCH  34  35
ATOM     35  C   LIG d   1      11.448   5.061  -1.285  0.00  0.00     0.079 C 
ATOM     36  H   LIG d   1      12.033   4.166  -1.495  0.00  0.00     0.066 H 
ATOM     37  H   LIG d   1      12.027   5.945  -1.554  0.00  0.00     0.066 H 
ATOM     38  H   LIG d   1      11.206   5.096  -0.223  0.00  0.00     0.066 H 
ENDBRANCH  34  35
ENDBRANCH  28  34
ENDBRANCH  21  24
ENDBRANCH  17  21
ENDBRANCH   9  12
BRANCH   7  39
ATOM     39  O   LIG d   1       5.187  -1.835  -3.672  0.00  0.00    -0.453 OA
BRANCH  39  40
ATOM     40  C   LIG d   1       4.337  -1.679  -2.645  0.00  0.00     0.304 C 
ATOM     41  O   LIG d   1       3.544  -2.552  -2.380  0.00  0.00    -0.251 OA
BRANCH  40  42
ATOM     42  C   LIG d   1       4.374  -0.419  -1.821  0.00  0.00     0.033 C 
ATOM     43  H   LIG d   1       5.243   0.175  -2.104  0.00  0.00     0.034 H 
ATOM     44  H   LIG d   1       3.466   0.159  -1.999  0.00  0.00     0.034 H 
ATOM     45  H   LIG d   1       4.439  -0.677  -0.763  0.00  0.00     0.034 H 
ENDBRANCH  40  42
ENDBRANCH  39  40
ENDBRANCH   7  39
BRANCH   5  46
ATOM     46  O   LIG d   1       4.188  -3.824  -5.469  0.00  0.00    -0.454 OA
BRANCH  46  47
ATOM     47  C   LIG d   1       4.848  -4.989  -5.377  0.00  0.00     0.304 C 
ATOM     48  O   LIG d   1       4.248  -6.005  -5.116  0.00  0.00    -0.251 OA
BRANCH  47  49
ATOM     49  C   LIG d   1       6.338  -5.030  -5.599  0.00  0.00     0.033 C 
ATOM     50  H   LIG d   1       6.611  -4.305  -6.366  0.00  0.00     0.034 H 
ATOM     51  H   LIG d   1       6.851  -4.786  -4.669  0.00  0.00     0.034 H 
ATOM     52  H   LIG d   1       6.629  -6.029  -5.925  0.00  0.00     0.034 H 
ENDBRANCH  47  49
ENDBRANCH  46  47
ENDBRANCH   5  46
BRANCH   1  53
ATOM     53  C   LIG d   1       4.726  -0.615  -9.155  0.00  0.00     0.122 C 
ATOM     54  H   LIG d   1       3.637  -0.605  -9.163  0.00  0.00     0.072 H 
ATOM     55  H   LIG d   1       5.089  -1.318  -9.906  0.00  0.00     0.072 H 
BRANCH  53  56
ATOM     56  O   LIG d   1       5.218   0.693  -9.453  0.00  0.00    -0.462 OA
BRANCH  56  57
ATOM     57  C   LIG d   1       4.355   1.555 -10.015  0.00  0.00     0.304 C 
ATOM     58  O   LIG d   1       3.967   1.372 -11.144  0.00  0.00    -0.251 OA
BRANCH  57  59
ATOM     59  C   LIG d   1       3.869   2.750  -9.236  0.00  0.00     0.033 C 
ATOM     60  H   LIG d   1       3.963   3.646  -9.849  0.00  0.00     0.034 H 
ATOM     61  H   LIG d   1       2.824   2.606  -8.962  0.00  0.00     0.034 H 
ATOM     62  H   LIG d   1       4.468   2.863  -8.333  0.00  0.00     0.034 H 
ENDBRANCH  57  59
ENDBRANCH  56  57
ENDBRANCH  53  56
ENDBRANCH   1  53
BRANCH   3  63
ATOM     63  O   LIG d   1       4.757  -3.371  -8.236  0.00  0.00    -0.455 OA
BRANCH  63  64
ATOM     64  C   LIG d   1       3.704  -4.004  -8.778  0.00  0.00     0.304 C 
ATOM     65  O   LIG d   1       2.770  -3.367  -9.205  0.00  0.00    -0.251 OA
BRANCH  64  66
ATOM     66  C   LIG d   1       3.687  -5.509  -8.855  0.00  0.00     0.033 C 
ATOM     67  H   LIG d   1       4.708  -5.888  -8.780  0.00  0.00     0.034 H 
ATOM     68  H   LIG d   1       3.091  -5.909  -8.035  0.00  0.00     0.034 H 
ATOM     69  H   LIG d   1       3.255  -5.820  -9.805  0.00  0.00     0.034 H 
ENDBRANCH  64  66
ENDBRANCH  63  64
ENDBRANCH   3  63
TORSDOF 18
ENDMDL
MODEL 3
REMARK VINA RESULT:      -6.0      3.308      7.525
REMARK  18 active torsions:
REMARK  status: ('A' for Active; 'I' for Inactive)
REMARK    1  A    between atoms: C_1  and  C_2 
REMARK    2  A    between atoms: C_2  and  O_4 
REMARK    3  A    between atoms: O_4  and  C_5 
REMARK    4  A    between atoms: C_5  and  C_6 
REMARK    5  A    between atoms: C_8  and  O_43 
REMARK    6  A    between atoms: C_10  and  O_39 
REMARK    7  A    between atoms: C_12  and  O_35 
REMARK    8  A    between atoms: C_14  and  N_17 
REMARK    9  A    between atoms: N_20  and  C_25 
REMARK   10  A    between atoms: C_25  and  C_26 
REMARK   11  A    between atoms: C_29  and  O_33 
REMARK   12  A    between atoms: O_33  and  C_34 
REMARK   13  A    between atoms: O_35  and  C_36 
REMARK   14  A    between atoms: C_36  and  C_38 
REMARK   15  A    between atoms: O_39  and  C_40 
REMARK   16  A    between atoms: C_40  and  C_42 
REMARK   17  A    between atoms: O_43  and  C_44 
REMARK   18  A    between atoms: C_44  and  C_46 
ROOT
ATOM      1  C   LIG d   1       4.936  -0.845  -7.695  0.00  0.00     0.136 C 
ATOM      2  H   LIG d   1       6.009  -1.007  -7.791  0.00  0.00     0.067 H 
ATOM      3  C   LIG d   1       4.250  -2.164  -7.332  0.00  0.00     0.172 C 
ATOM      4  H   LIG d   1       3.172  -2.010  -7.275  0.00  0.00     0.080 H 
ATOM      5  C   LIG d   1       4.770  -2.643  -5.974  0.00  0.00     0.183 C 
ATOM      6  H   LIG d   1       5.840  -2.844  -6.043  0.00  0.00     0.081 H 
ATOM      7  C   LIG d   1       4.521  -1.552  -4.928  0.00  0.00     0.190 C 
ATOM      8  H   LIG d   1       3.449  -1.386  -4.824  0.00  0.00     0.082 H 
ATOM      9  C   LIG d   1       5.196  -0.255  -5.385  0.00  0.00     0.197 C 
ATOM     10  H   LIG d   1       4.986   0.536  -4.666  0.00  0.00     0.089 H 
ATOM     11  O   LIG d   1       4.690   0.118  -6.668  0.00  0.00    -0.341 OA
ENDROOT
BRANCH   9  12
ATOM     12  N   LIG d   1       6.644  -0.464  -5.473  0.00  0.00    -0.181 N 
ATOM     13  N   LIG d   1       7.139  -1.611  -6.106  0.00  0.00    -0.168 NA
ATOM     14  C   LIG d   1       8.427  -1.799  -6.193  0.00  0.00     0.113 A 
ATOM     15  C   LIG d   1       9.334  -0.805  -5.610  0.00  0.00     0.275 A 
ATOM     16  H   LIG d   1       8.820  -2.678  -6.683  0.00  0.00     0.090 H 
ATOM     17  N   LIG d   1       8.814   0.283  -5.004  0.00  0.00    -0.254 N 
ATOM     18  O   LIG d   1      10.539  -0.959  -5.671  0.00  0.00    -0.266 OA
ATOM     19  C   LIG d   1       7.479   0.445  -4.939  0.00  0.00     0.351 A 
ATOM     20  O   LIG d   1       7.021   1.429  -4.390  0.00  0.00    -0.245 OA
BRANCH  17  21
ATOM     21  C   LIG d   1       9.703   1.287  -4.416  0.00  0.00     0.056 C 
ATOM     22  H   LIG d   1       9.335   1.566  -3.428  0.00  0.00     0.054 H 
ATOM     23  H   LIG d   1      10.708   0.875  -4.326  0.00  0.00     0.054 H 
BRANCH  21  24
ATOM     24  C   LIG d   1       9.739   2.507  -5.301  0.00  0.00    -0.026 A 
ATOM     25  C   LIG d   1       9.559   3.763  -4.752  0.00  0.00    -0.039 A 
ATOM     26  C   LIG d   1       9.597   4.883  -5.560  0.00  0.00     0.060 A 
ATOM     27  H   LIG d   1       9.394   3.869  -3.690  0.00  0.00     0.063 H 
ATOM     28  C   LIG d   1       9.805   4.745  -6.926  0.00  0.00     0.134 A 
ATOM     29 BR   LIG d   1       9.361   6.602  -4.808  0.00  0.00    -0.046 Br
ATOM     30  C   LIG d   1       9.978   3.482  -7.475  0.00  0.00    -0.018 A 
ATOM     31  C   LIG d   1       9.945   2.367  -6.661  0.00  0.00    -0.053 A 
ATOM     32  H   LIG d   1      10.140   3.373  -8.536  0.00  0.00     0.065 H 
ATOM     33  H   LIG d   1      10.079   1.384  -7.088  0.00  0.00     0.062 H 
BRANCH  28  34
ATOM     34  O   LIG d   1       9.837   5.845  -7.725  0.00  0.00    -0.494 OA
BRANCH  34  35
ATOM     35  C   LIG d   1       9.313   5.702  -9.046  0.00  0.00     0.079 C 
ATOM     36  H   LIG d   1      10.012   6.132  -9.763  0.00  0.00     0.066 H 
ATOM     37  H   LIG d   1       9.170   4.645  -9.268  0.00  0.00     0.066 H 
ATOM     38  H   LIG d   1       8.357   6.220  -9.117  0.00  0.00     0.066 H 
ENDBRANCH  34  35
ENDBRANCH  28  34
ENDBRANCH  21  24
ENDBRANCH  17  21
ENDBRANCH   9  12
BRANCH   7  39
ATOM     39  O   LIG d   1       5.066  -1.960  -3.672  0.00  0.00    -0.453 OA
BRANCH  39  40
ATOM     40  C   LIG d   1       4.299  -1.776  -2.586  0.00  0.00     0.304 C 
ATOM     41  O   LIG d   1       3.513  -2.630  -2.251  0.00  0.00    -0.251 OA
BRANCH  40  42
ATOM     42  C   LIG d   1       4.419  -0.506  -1.785  0.00  0.00     0.033 C 
ATOM     43  H   LIG d   1       3.849  -0.605  -0.861  0.00  0.00     0.034 H 
ATOM     44  H   LIG d   1       5.467  -0.324  -1.547  0.00  0.00     0.034 H 
ATOM     45  H   LIG d   1       4.028   0.329  -2.366  0.00  0.00     0.034 H 
ENDBRANCH  40  42
ENDBRANCH  39  40
ENDBRANCH   7  39
BRANCH   5  46
ATOM     46  O   LIG d   1       4.083  -3.838  -5.593  0.00  0.00    -0.454 OA
BRANCH  46  47
ATOM     47  C   LIG d   1       4.829  -4.941  -5.423  0.00  0.00     0.304 C 
ATOM     48  O   LIG d   1       4.300  -5.995  -5.159  0.00  0.00    -0.251 OA
BRANCH  47  49
ATOM     49  C   LIG d   1       6.328  -4.865  -5.562  0.00  0.00     0.033 C 
ATOM     50  H   LIG d   1       6.582  -4.341  -6.483  0.00  0.00     0.034 H 
ATOM     51  H   LIG d   1       6.745  -4.327  -4.711  0.00  0.00     0.034 H 
ATOM     52  H   LIG d   1       6.742  -5.874  -5.592  0.00  0.00     0.034 H 
ENDBRANCH  47  49
ENDBRANCH  46  47
ENDBRANCH   5  46
BRANCH   1  53
ATOM     53  C   LIG d   1       4.378  -0.327  -9.022  0.00  0.00     0.122 C 
ATOM     54  H   LIG d   1       3.390   0.105  -8.858  0.00  0.00     0.072 H 
ATOM     55  H   LIG d   1       4.300  -1.153  -9.730  0.00  0.00     0.072 H 
BRANCH  53  56
ATOM     56  O   LIG d   1       5.252   0.672  -9.550  0.00  0.00    -0.462 OA
BRANCH  56  57
ATOM     57  C   LIG d   1       4.903   1.953  -9.354  0.00  0.00     0.304 C 
ATOM     58  O   LIG d   1       5.752   2.810  -9.298  0.00  0.00    -0.251 OA
BRANCH  57  59
ATOM     59  C   LIG d   1       3.450   2.323  -9.205  0.00  0.00     0.033 C 
ATOM     60  H   LIG d   1       3.196   2.380  -8.146  0.00  0.00     0.034 H 
ATOM     61  H   LIG d   1       3.270   3.291  -9.673  0.00  0.00     0.034 H 
ATOM     62  H   LIG d   1       2.831   1.567  -9.687  0.00  0.00     0.034 H 
ENDBRANCH  57  59
ENDBRANCH  56  57
ENDBRANCH  53  56
ENDBRANCH   1  53
BRANCH   3  63
ATOM     63  O   LIG d   1       4.542  -3.144  -8.330  0.00  0.00    -0.455 OA
BRANCH  63  64
ATOM     64  C   LIG d   1       3.498  -3.792  -8.871  0.00  0.00     0.304 C 
ATOM     65  O   LIG d   1       2.614  -3.169  -9.410  0.00  0.00    -0.251 OA
BRANCH  64  66
ATOM     66  C   LIG d   1       3.429  -5.296  -8.805  0.00  0.00     0.033 C 
ATOM     67  H   LIG d   1       2.724  -5.660  -9.554  0.00  0.00     0.034 H 
ATOM     68  H   LIG d   1       4.416  -5.715  -9.003  0.00  0.00     0.034 H 
ATOM     69  H   LIG d   1       3.095  -5.602  -7.814  0.00  0.00     0.034 H 
ENDBRANCH  64  66
ENDBRANCH  63  64
ENDBRANCH   3  63
TORSDOF 18
ENDMDL
MODEL 4
REMARK VINA RESULT:      -5.7      3.687      8.325
REMARK  18 active torsions:
REMARK  status: ('A' for Active; 'I' for Inactive)
REMARK    1  A    between atoms: C_1  and  C_2 
REMARK    2  A    between atoms: C_2  and  O_4 
REMARK    3  A    between atoms: O_4  and  C_5 
REMARK    4  A    between atoms: C_5  and  C_6 
REMARK    5  A    between atoms: C_8  and  O_43 
REMARK    6  A    between atoms: C_10  and  O_39 
REMARK    7  A    between atoms: C_12  and  O_35 
REMARK    8  A    between atoms: C_14  and  N_17 
REMARK    9  A    between atoms: N_20  and  C_25 
REMARK   10  A    between atoms: C_25  and  C_26 
REMARK   11  A    between atoms: C_29  and  O_33 
REMARK   12  A    between atoms: O_33  and  C_34 
REMARK   13  A    between atoms: O_35  and  C_36 
REMARK   14  A    between atoms: C_36  and  C_38 
REMARK   15  A    between atoms: O_39  and  C_40 
REMARK   16  A    between atoms: C_40  and  C_42 
REMARK   17  A    between atoms: O_43  and  C_44 
REMARK   18  A    between atoms: C_44  and  C_46 
ROOT
ATOM      1  C   LIG d   1       4.914  -1.994  -7.951  0.00  0.00     0.136 C 
ATOM      2  H   LIG d   1       4.309  -2.899  -7.917  0.00  0.00     0.067 H 
ATOM      3  C   LIG d   1       4.714  -1.197  -6.660  0.00  0.00     0.172 C 
ATOM      4  H   LIG d   1       5.288  -0.271  -6.710  0.00  0.00     0.080 H 
ATOM      5  C   LIG d   1       5.199  -2.034  -5.472  0.00  0.00     0.183 C 
ATOM      6  H   LIG d   1       4.594  -2.938  -5.392  0.00  0.00     0.081 H 
ATOM      7  C   LIG d   1       6.665  -2.419  -5.697  0.00  0.00     0.190 C 
ATOM      8  H   LIG d   1       7.277  -1.518  -5.728  0.00  0.00     0.082 H 
ATOM      9  C   LIG d   1       6.790  -3.168  -7.027  0.00  0.00     0.197 C 
ATOM     10  H   LIG d   1       7.837  -3.407  -7.212  0.00  0.00     0.089 H 
ATOM     11  O   LIG d   1       6.293  -2.345  -8.084  0.00  0.00    -0.341 OA
ENDROOT
BRANCH   9  12
ATOM     12  N   LIG d   1       6.009  -4.407  -6.964  0.00  0.00    -0.181 N 
ATOM     13  N   LIG d   1       4.613  -4.341  -6.890  0.00  0.00    -0.168 NA
ATOM     14  C   LIG d   1       3.913  -5.440  -6.840  0.00  0.00     0.113 A 
ATOM     15  C   LIG d   1       4.610  -6.730  -6.850  0.00  0.00     0.275 A 
ATOM     16  H   LIG d   1       2.835  -5.401  -6.787  0.00  0.00     0.090 H 
ATOM     17  N   LIG d   1       5.958  -6.748  -6.916  0.00  0.00    -0.254 N 
ATOM     18  O   LIG d   1       3.981  -7.771  -6.798  0.00  0.00    -0.266 OA
ATOM     19  C   LIG d   1       6.645  -5.592  -6.973  0.00  0.00     0.351 A 
ATOM     20  O   LIG d   1       7.860  -5.620  -7.032  0.00  0.00    -0.245 OA
BRANCH  17  21
ATOM     21  C   LIG d   1       6.672  -8.027  -6.927  0.00  0.00     0.056 C 
ATOM     22  H   LIG d   1       6.061  -8.781  -7.423  0.00  0.00     0.054 H 
ATOM     23  H   LIG d   1       7.614  -7.912  -7.464  0.00  0.00     0.054 H 
BRANCH  21  24
ATOM     24  C   LIG d   1       6.951  -8.459  -5.511  0.00  0.00    -0.026 A 
ATOM     25  C   LIG d   1       6.054  -9.276  -4.849  0.00  0.00    -0.039 A 
ATOM     26  C   LIG d   1       6.310  -9.678  -3.552  0.00  0.00     0.060 A 
ATOM     27  H   LIG d   1       5.154  -9.605  -5.348  0.00  0.00     0.063 H 
ATOM     28  C   LIG d   1       7.465  -9.252  -2.910  0.00  0.00     0.134 A 
ATOM     29 BR   LIG d   1       5.087 -10.804  -2.650  0.00  0.00    -0.046 Br
ATOM     30  C   LIG d   1       8.361  -8.426  -3.575  0.00  0.00    -0.018 A 
ATOM     31  C   LIG d   1       8.102  -8.032  -4.873  0.00  0.00    -0.053 A 
ATOM     32  H   LIG d   1       9.260  -8.094  -3.078  0.00  0.00     0.065 H 
ATOM     33  H   LIG d   1       8.799  -7.389  -5.391  0.00  0.00     0.062 H 
BRANCH  28  34
ATOM     34  O   LIG d   1       7.717  -9.641  -1.632  0.00  0.00    -0.494 OA
BRANCH  34  35
ATOM     35  C   LIG d   1       9.083  -9.641  -1.211  0.00  0.00     0.079 C 
ATOM     36  H   LIG d   1       9.497 -10.643  -1.318  0.00  0.00     0.066 H 
ATOM     37  H   LIG d   1       9.653  -8.945  -1.828  0.00  0.00     0.066 H 
ATOM     38  H   LIG d   1       9.142  -9.332  -0.168  0.00  0.00     0.066 H 
ENDBRANCH  34  35
ENDBRANCH  28  34
ENDBRANCH  21  24
ENDBRANCH  17  21
ENDBRANCH   9  12
BRANCH   7  39
ATOM     39  O   LIG d   1       7.107  -3.261  -4.630  0.00  0.00    -0.453 OA
BRANCH  39  40
ATOM     40  C   LIG d   1       8.426  -3.284  -4.379  0.00  0.00     0.304 C 
ATOM     41  O   LIG d   1       9.102  -2.310  -4.611  0.00  0.00    -0.251 OA
BRANCH  40  42
ATOM     42  C   LIG d   1       9.061  -4.524  -3.807  0.00  0.00     0.033 C 
ATOM     43  H   LIG d   1      10.036  -4.272  -3.388  0.00  0.00     0.034 H 
ATOM     44  H   LIG d   1       8.424  -4.931  -3.021  0.00  0.00     0.034 H 
ATOM     45  H   LIG d   1       9.185  -5.267  -4.595  0.00  0.00     0.034 H 
ENDBRANCH  40  42
ENDBRANCH  39  40
ENDBRANCH   7  39
BRANCH   5  46
ATOM     46  O   LIG d   1       5.082  -1.272  -4.269  0.00  0.00    -0.454 OA
BRANCH  46  47
ATOM     47  C   LIG d   1       4.449  -1.854  -3.238  0.00  0.00     0.304 C 
ATOM     48  O   LIG d   1       3.986  -2.962  -3.361  0.00  0.00    -0.251 OA
BRANCH  47  49
ATOM     49  C   LIG d   1       4.318  -1.123  -1.926  0.00  0.00     0.033 C 
ATOM     50  H   LIG d   1       5.295  -0.754  -1.616  0.00  0.00     0.034 H 
ATOM     51  H   LIG d   1       3.633  -0.283  -2.045  0.00  0.00     0.034 H 
ATOM     52  H   LIG d   1       3.930  -1.804  -1.169  0.00  0.00     0.034 H 
ENDBRANCH  47  49
ENDBRANCH  46  47
ENDBRANCH   5  46
BRANCH   1  53
ATOM     53  C   LIG d   1       4.489  -1.140  -9.148  0.00  0.00     0.122 C 
ATOM     54  H   LIG d   1       3.536  -0.657  -8.930  0.00  0.00     0.072 H 
ATOM     55  H   LIG d   1       4.381  -1.776 -10.027  0.00  0.00     0.072 H 
BRANCH  53  56
ATOM     56  O   LIG d   1       5.482  -0.145  -9.400  0.00  0.00    -0.462 OA
BRANCH  56  57
ATOM     57  C   LIG d   1       5.063   1.011  -9.940  0.00  0.00     0.304 C 
ATOM     58  O   LIG d   1       5.574   2.054  -9.609  0.00  0.00    -0.251 OA
BRANCH  57  59
ATOM     59  C   LIG d   1       3.954   1.007 -10.961  0.00  0.00     0.033 C 
ATOM     60  H   LIG d   1       3.250   1.807 -10.736  0.00  0.00     0.034 H 
ATOM     61  H   LIG d   1       4.374   1.161 -11.955  0.00  0.00     0.034 H 
ATOM     62  H   LIG d   1       3.437   0.048 -10.931  0.00  0.00     0.034 H 
ENDBRANCH  57  59
ENDBRANCH  56  57
ENDBRANCH  53  56
ENDBRANCH   1  53
BRANCH   3  63
ATOM     63  O   LIG d   1       3.327  -0.893  -6.496  0.00  0.00    -0.455 OA
BRANCH  63  64
ATOM     64  C   LIG d   1       3.014   0.380  -6.207  0.00  0.00     0.304 C 
ATOM     65  O   LIG d   1       3.208   1.250  -7.023  0.00  0.00    -0.251 OA
BRANCH  64  66
ATOM     66  C   LIG d   1       2.417   0.724  -4.867  0.00  0.00     0.033 C 
ATOM     67  H   LIG d   1       1.385   1.052  -5.002  0.00  0.00     0.034 H 
ATOM     68  H   LIG d   1       2.437  -0.156  -4.223  0.00  0.00     0.034 H 
ATOM     69  H   LIG d   1       2.994   1.525  -4.406  0.00  0.00     0.034 H 
ENDBRANCH  64  66
ENDBRANCH  63  64
ENDBRANCH   3  63
TORSDOF 18
ENDMDL
MODEL 5
REMARK VINA RESULT:      -5.6      2.355      4.416
REMARK  18 active torsions:
REMARK  status: ('A' for Active; 'I' for Inactive)
REMARK    1  A    between atoms: C_1  and  C_2 
REMARK    2  A    between atoms: C_2  and  O_4 
REMARK    3  A    between atoms: O_4  and  C_5 
REMARK    4  A    between atoms: C_5  and  C_6 
REMARK    5  A    between atoms: C_8  and  O_43 
REMARK    6  A    between atoms: C_10  and  O_39 
REMARK    7  A    between atoms: C_12  and  O_35 
REMARK    8  A    between atoms: C_14  and  N_17 
REMARK    9  A    between atoms: N_20  and  C_25 
REMARK   10  A    between atoms: C_25  and  C_26 
REMARK   11  A    between atoms: C_29  and  O_33 
REMARK   12  A    between atoms: O_33  and  C_34 
REMARK   13  A    between atoms: O_35  and  C_36 
REMARK   14  A    between atoms: C_36  and  C_38 
REMARK   15  A    between atoms: O_39  and  C_40 
REMARK   16  A    between atoms: C_40  and  C_42 
REMARK   17  A    between atoms: O_43  and  C_44 
REMARK   18  A    between atoms: C_44  and  C_46 
ROOT
ATOM      1  C   LIG d   1       4.268  -1.603  -5.342  0.00  0.00     0.136 C 
ATOM      2  H   LIG d   1       4.029  -2.467  -5.962  0.00  0.00     0.067 H 
ATOM      3  C   LIG d   1       5.761  -1.288  -5.457  0.00  0.00     0.172 C 
ATOM      4  H   LIG d   1       6.008  -0.449  -4.807  0.00  0.00     0.080 H 
ATOM      5  C   LIG d   1       6.086  -0.921  -6.909  0.00  0.00     0.183 C 
ATOM      6  H   LIG d   1       5.886  -1.777  -7.555  0.00  0.00     0.081 H 
ATOM      7  C   LIG d   1       5.208   0.259  -7.335  0.00  0.00     0.190 C 
ATOM      8  H   LIG d   1       5.444   1.128  -6.722  0.00  0.00     0.082 H 
ATOM      9  C   LIG d   1       3.736  -0.115  -7.146  0.00  0.00     0.197 C 
ATOM     10  H   LIG d   1       3.108   0.736  -7.408  0.00  0.00     0.089 H 
ATOM     11  O   LIG d   1       3.509  -0.476  -5.782  0.00  0.00    -0.341 OA
ENDROOT
BRANCH   9  12
ATOM     12  N   LIG d   1       3.406  -1.251  -8.013  0.00  0.00    -0.181 N 
ATOM     13  N   LIG d   1       3.991  -2.499  -7.768  0.00  0.00    -0.168 NA
ATOM     14  C   LIG d   1       3.697  -3.514  -8.531  0.00  0.00     0.113 A 
ATOM     15  C   LIG d   1       2.763  -3.322  -9.645  0.00  0.00     0.275 A 
ATOM     16  H   LIG d   1       4.138  -4.483  -8.349  0.00  0.00     0.090 H 
ATOM     17  N   LIG d   1       2.226  -2.100  -9.849  0.00  0.00    -0.254 N 
ATOM     18  O   LIG d   1       2.476  -4.251 -10.377  0.00  0.00    -0.266 OA
ATOM     19  C   LIG d   1       2.550  -1.078  -9.035  0.00  0.00     0.351 A 
ATOM     20  O   LIG d   1       2.061   0.019  -9.228  0.00  0.00    -0.245 OA
BRANCH  17  21
ATOM     21  C   LIG d   1       1.292  -1.887 -10.956  0.00  0.00     0.056 C 
ATOM     22  H   LIG d   1       0.634  -2.752 -11.049  0.00  0.00     0.054 H 
ATOM     23  H   LIG d   1       0.695  -0.996 -10.762  0.00  0.00     0.054 H 
BRANCH  21  24
ATOM     24  C   LIG d   1       2.064  -1.704 -12.238  0.00  0.00    -0.026 A 
ATOM     25  C   LIG d   1       1.622  -2.306 -13.401  0.00  0.00    -0.039 A 
ATOM     26  C   LIG d   1       2.325  -2.135 -14.579  0.00  0.00     0.060 A 
ATOM     27  H   LIG d   1       0.725  -2.907 -13.391  0.00  0.00     0.063 H 
ATOM     28  C   LIG d   1       3.481  -1.366 -14.590  0.00  0.00     0.134 A 
ATOM     29 BR   LIG d   1       1.716  -2.951 -16.173  0.00  0.00    -0.046 Br
ATOM     30  C   LIG d   1       3.925  -0.768 -13.419  0.00  0.00    -0.018 A 
ATOM     31  C   LIG d   1       3.215  -0.938 -12.246  0.00  0.00    -0.053 A 
ATOM     32  H   LIG d   1       4.823  -0.170 -13.425  0.00  0.00     0.065 H 
ATOM     33  H   LIG d   1       3.561  -0.473 -11.334  0.00  0.00     0.062 H 
BRANCH  28  34
ATOM     34  O   LIG d   1       4.178  -1.200 -15.745  0.00  0.00    -0.494 OA
BRANCH  34  35
ATOM     35  C   LIG d   1       4.291   0.131 -16.250  0.00  0.00     0.079 C 
ATOM     36  H   LIG d   1       3.673   0.801 -15.652  0.00  0.00     0.066 H 
ATOM     37  H   LIG d   1       5.332   0.453 -16.195  0.00  0.00     0.066 H 
ATOM     38  H   LIG d   1       3.958   0.158 -17.287  0.00  0.00     0.066 H 
ENDBRANCH  34  35
ENDBRANCH  28  34
ENDBRANCH  21  24
ENDBRANCH  17  21
ENDBRANCH   9  12
BRANCH   7  39
ATOM     39  O   LIG d   1       5.453   0.564  -8.710  0.00  0.00    -0.453 OA
BRANCH  39  40
ATOM     40  C   LIG d   1       5.566   1.861  -9.036  0.00  0.00     0.304 C 
ATOM     41  O   LIG d   1       6.659   2.371  -9.114  0.00  0.00    -0.251 OA
BRANCH  40  42
ATOM     42  C   LIG d   1       4.332   2.681  -9.306  0.00  0.00     0.033 C 
ATOM     43  H   LIG d   1       3.627   2.093  -9.894  0.00  0.00     0.034 H 
ATOM     44  H   LIG d   1       3.868   2.963  -8.361  0.00  0.00     0.034 H 
ATOM     45  H   LIG d   1       4.605   3.580  -9.859  0.00  0.00     0.034 H 
ENDBRANCH  40  42
ENDBRANCH  39  40
ENDBRANCH   7  39
BRANCH   5  46
ATOM     46  O   LIG d   1       7.465  -0.557  -7.013  0.00  0.00    -0.454 OA
BRANCH  46  47
ATOM     47  C   LIG d   1       8.179  -1.145  -7.985  0.00  0.00     0.304 C 
ATOM     48  O   LIG d   1       8.794  -0.471  -8.776  0.00  0.00    -0.251 OA
BRANCH  47  49
ATOM     49  C   LIG d   1       8.212  -2.649  -8.090  0.00  0.00     0.033 C 
ATOM     50  H   LIG d   1       8.782  -3.059  -7.256  0.00  0.00     0.034 H 
ATOM     51  H   LIG d   1       7.194  -3.038  -8.061  0.00  0.00     0.034 H 
ATOM     52  H   LIG d   1       8.685  -2.937  -9.029  0.00  0.00     0.034 H 
ENDBRANCH  47  49
ENDBRANCH  46  47
ENDBRANCH   5  46
BRANCH   1  53
ATOM     53  C   LIG d   1       3.923  -1.911  -3.883  0.00  0.00     0.122 C 
ATOM     54  H   LIG d   1       4.840  -2.085  -3.321  0.00  0.00     0.072 H 
ATOM     55  H   LIG d   1       3.295  -2.801  -3.839  0.00  0.00     0.072 H 
BRANCH  53  56
ATOM     56  O   LIG d   1       3.219  -0.804  -3.317  0.00  0.00    -0.462 OA
BRANCH  56  57
ATOM     57  C   LIG d   1       3.834  -0.131  -2.331  0.00  0.00     0.304 C 
ATOM     58  O   LIG d   1       4.452  -0.731  -1.483  0.00  0.00    -0.251 OA
BRANCH  57  59
ATOM     59  C   LIG d   1       3.755   1.373  -2.282  0.00  0.00     0.033 C 
ATOM     60  H   LIG d   1       4.215   1.790  -3.178  0.00  0.00     0.034 H 
ATOM     61  H   LIG d   1       2.711   1.682  -2.232  0.00  0.00     0.034 H 
ATOM     62  H   LIG d   1       4.283   1.736  -1.400  0.00  0.00     0.034 H 
ENDBRANCH  57  59
ENDBRANCH  56  57
ENDBRANCH  53  56
ENDBRANCH   1  53
BRANCH   3  63
ATOM     63  O   LIG d   1       6.522  -2.434  -5.071  0.00  0.00    -0.455 OA
BRANCH  63  64
ATOM     64  C   LIG d   1       7.382  -2.278  -4.053  0.00  0.00     0.304 C 
ATOM     65  O   LIG d   1       7.315  -1.298  -3.350  0.00  0.00    -0.251 OA
BRANCH  64  66
ATOM     66  C   LIG d   1       8.432  -3.326  -3.785  0.00  0.00     0.033 C 
ATOM     67  H   LIG d   1       8.025  -4.313  -4.011  0.00  0.00     0.034 H 
ATOM     68  H   LIG d   1       9.302  -3.140  -4.416  0.00  0.00     0.034 H 
ATOM     69  H   LIG d   1       8.727  -3.287  -2.737  0.00  0.00     0.034 H 
ENDBRANCH  64  66
ENDBRANCH  63  64
ENDBRANCH   3  63
TORSDOF 18
ENDMDL
MODEL 6
REMARK VINA RESULT:      -5.6      3.434      7.361
REMARK  18 active torsions:
REMARK  status: ('A' for Active; 'I' for Inactive)
REMARK    1  A    between atoms: C_1  and  C_2 
REMARK    2  A    between atoms: C_2  and  O_4 
REMARK    3  A    between atoms: O_4  and  C_5 
REMARK    4  A    between atoms: C_5  and  C_6 
REMARK    5  A    between atoms: C_8  and  O_43 
REMARK    6  A    between atoms: C_10  and  O_39 
REMARK    7  A    between atoms: C_12  and  O_35 
REMARK    8  A    between atoms: C_14  and  N_17 
REMARK    9  A    between atoms: N_20  and  C_25 
REMARK   10  A    between atoms: C_25  and  C_26 
REMARK   11  A    between atoms: C_29  and  O_33 
REMARK   12  A    between atoms: O_33  and  C_34 
REMARK   13  A    between atoms: O_35  and  C_36 
REMARK   14  A    between atoms: C_36  and  C_38 
REMARK   15  A    between atoms: O_39  and  C_40 
REMARK   16  A    between atoms: C_40  and  C_42 
REMARK   17  A    between atoms: O_43  and  C_44 
REMARK   18  A    between atoms: C_44  and  C_46 
ROOT
ATOM      1  C   LIG d   1       5.784  -2.099  -4.357  0.00  0.00     0.136 C 
ATOM      2  H   LIG d   1       6.570  -2.761  -4.720  0.00  0.00     0.067 H 
ATOM      3  C   LIG d   1       5.912  -0.733  -5.036  0.00  0.00     0.172 C 
ATOM      4  H   LIG d   1       5.152  -0.058  -4.643  0.00  0.00     0.080 H 
ATOM      5  C   LIG d   1       5.715  -0.903  -6.545  0.00  0.00     0.183 C 
ATOM      6  H   LIG d   1       6.505  -1.539  -6.947  0.00  0.00     0.081 H 
ATOM      7  C   LIG d   1       4.352  -1.554  -6.802  0.00  0.00     0.190 C 
ATOM      8  H   LIG d   1       3.562  -0.895  -6.444  0.00  0.00     0.082 H 
ATOM      9  C   LIG d   1       4.284  -2.888  -6.053  0.00  0.00     0.197 C 
ATOM     10  H   LIG d   1       3.301  -3.335  -6.197  0.00  0.00     0.089 H 
ATOM     11  O   LIG d   1       4.507  -2.663  -4.660  0.00  0.00    -0.341 OA
ENDROOT
BRANCH   9  12
ATOM     12  N   LIG d   1       5.314  -3.792  -6.572  0.00  0.00    -0.181 N 
ATOM     13  N   LIG d   1       6.571  -3.282  -6.918  0.00  0.00    -0.168 NA
ATOM     14  C   LIG d   1       7.494  -4.082  -7.375  0.00  0.00     0.113 A 
ATOM     15  C   LIG d   1       7.188  -5.508  -7.529  0.00  0.00     0.275 A 
ATOM     16  H   LIG d   1       8.468  -3.700  -7.640  0.00  0.00     0.090 H 
ATOM     17  N   LIG d   1       5.961  -5.957  -7.189  0.00  0.00    -0.254 N 
ATOM     18  O   LIG d   1       8.028  -6.276  -7.959  0.00  0.00    -0.266 OA
ATOM     19  C   LIG d   1       5.037  -5.100  -6.716  0.00  0.00     0.351 A 
ATOM     20  O   LIG d   1       3.935  -5.516  -6.413  0.00  0.00    -0.245 OA
BRANCH  17  21
ATOM     21  C   LIG d   1       5.636  -7.378  -7.337  0.00  0.00     0.056 C 
ATOM     22  H   LIG d   1       4.595  -7.483  -7.641  0.00  0.00     0.054 H 
ATOM     23  H   LIG d   1       6.283  -7.822  -8.093  0.00  0.00     0.054 H 
BRANCH  21  24
ATOM     24  C   LIG d   1       5.848  -8.081  -6.020  0.00  0.00    -0.026 A 
ATOM     25  C   LIG d   1       4.810  -8.784  -5.439  0.00  0.00    -0.039 A 
ATOM     26  C   LIG d   1       5.003  -9.434  -4.235  0.00  0.00     0.060 A 
ATOM     27  H   LIG d   1       3.848  -8.830  -5.928  0.00  0.00     0.063 H 
ATOM     28  C   LIG d   1       6.238  -9.372  -3.604  0.00  0.00     0.134 A 
ATOM     29 BR   LIG d   1       3.585 -10.404  -3.444  0.00  0.00    -0.046 Br
ATOM     30  C   LIG d   1       7.276  -8.660  -4.187  0.00  0.00    -0.018 A 
ATOM     31  C   LIG d   1       7.079  -8.016  -5.394  0.00  0.00    -0.053 A 
ATOM     32  H   LIG d   1       8.238  -8.610  -3.699  0.00  0.00     0.065 H 
ATOM     33  H   LIG d   1       7.887  -7.462  -5.848  0.00  0.00     0.062 H 
BRANCH  28  34
ATOM     34  O   LIG d   1       6.430 -10.005  -2.417  0.00  0.00    -0.494 OA
BRANCH  34  35
ATOM     35  C   LIG d   1       7.510  -9.546  -1.603  0.00  0.00     0.079 C 
ATOM     36  H   LIG d   1       7.601  -8.464  -1.696  0.00  0.00     0.066 H 
ATOM     37  H   LIG d   1       7.316  -9.805  -0.562  0.00  0.00     0.066 H 
ATOM     38  H   LIG d   1       8.437 -10.017  -1.928  0.00  0.00     0.066 H 
ENDBRANCH  34  35
ENDBRANCH  28  34
ENDBRANCH  21  24
ENDBRANCH  17  21
ENDBRANCH   9  12
BRANCH   7  39
ATOM     39  O   LIG d   1       4.188  -1.782  -8.203  0.00  0.00    -0.453 OA
BRANCH  39  40
ATOM     40  C   LIG d   1       3.016  -1.417  -8.746  0.00  0.00     0.304 C 
ATOM     41  O   LIG d   1       2.425  -2.178  -9.475  0.00  0.00    -0.251 OA
BRANCH  40  42
ATOM     42  C   LIG d   1       2.438  -0.059  -8.446  0.00  0.00     0.033 C 
ATOM     43  H   LIG d   1       1.372  -0.060  -8.674  0.00  0.00     0.034 H 
ATOM     44  H   LIG d   1       2.583   0.173  -7.391  0.00  0.00     0.034 H 
ATOM     45  H   LIG d   1       2.939   0.693  -9.056  0.00  0.00     0.034 H 
ENDBRANCH  40  42
ENDBRANCH  39  40
ENDBRANCH   7  39
BRANCH   5  46
ATOM     46  O   LIG d   1       5.763   0.377  -7.181  0.00  0.00    -0.454 OA
BRANCH  46  47
ATOM     47  C   LIG d   1       6.616   0.516  -8.207  0.00  0.00     0.304 C 
ATOM     48  O   LIG d   1       7.762   0.150  -8.095  0.00  0.00    -0.251 OA
BRANCH  47  49
ATOM     49  C   LIG d   1       6.144   1.128  -9.501  0.00  0.00     0.033 C 
ATOM     50  H   LIG d   1       6.524   0.544 -10.340  0.00  0.00     0.034 H 
ATOM     51  H   LIG d   1       5.054   1.132  -9.525  0.00  0.00     0.034 H 
ATOM     52  H   LIG d   1       6.514   2.151  -9.575  0.00  0.00     0.034 H 
ENDBRANCH  47  49
ENDBRANCH  46  47
ENDBRANCH   5  46
BRANCH   1  53
ATOM     53  C   LIG d   1       5.919  -1.930  -2.842  0.00  0.00     0.122 C 
ATOM     54  H   LIG d   1       6.473  -1.016  -2.625  0.00  0.00     0.072 H 
ATOM     55  H   LIG d   1       6.453  -2.785  -2.427  0.00  0.00     0.072 H 
BRANCH  53  56
ATOM     56  O   LIG d   1       4.620  -1.849  -2.254  0.00  0.00    -0.462 OA
BRANCH  56  57
ATOM     57  C   LIG d   1       4.091  -0.624  -2.110  0.00  0.00     0.304 C 
ATOM     58  O   LIG d   1       4.613   0.179  -1.374  0.00  0.00    -0.251 OA
BRANCH  57  59
ATOM     59  C   LIG d   1       2.844  -0.248  -2.869  0.00  0.00     0.033 C 
ATOM     60  H   LIG d   1       3.117   0.331  -3.752  0.00  0.00     0.034 H 
ATOM     61  H   LIG d   1       2.317  -1.151  -3.175  0.00  0.00     0.034 H 
ATOM     62  H   LIG d   1       2.196   0.350  -2.229  0.00  0.00     0.034 H 
ENDBRANCH  57  59
ENDBRANCH  56  57
ENDBRANCH  53  56
ENDBRANCH   1  53
BRANCH   3  63
ATOM     63  O   LIG d   1       7.210  -0.193  -4.780  0.00  0.00    -0.455 OA
BRANCH  63  64
ATOM     64  C   LIG d   1       7.263   1.005  -4.178  0.00  0.00     0.304 C 
ATOM     65  O   LIG d   1       6.242   1.558  -3.841  0.00  0.00    -0.251 OA
BRANCH  64  66
ATOM     66  C   LIG d   1       8.595   1.661  -3.919  0.00  0.00     0.033 C 
ATOM     67  H   LIG d   1       9.086   1.167  -3.080  0.00  0.00     0.034 H 
ATOM     68  H   LIG d   1       9.221   1.577  -4.808  0.00  0.00     0.034 H 
ATOM     69  H   LIG d   1       8.442   2.713  -3.681  0.00  0.00     0.034 H 
ENDBRANCH  64  66
ENDBRANCH  63  64
ENDBRANCH   3  63
TORSDOF 18
ENDMDL
MODEL 7
REMARK VINA RESULT:      -5.5      3.704      7.770
REMARK  18 active torsions:
REMARK  status: ('A' for Active; 'I' for Inactive)
REMARK    1  A    between atoms: C_1  and  C_2 
REMARK    2  A    between atoms: C_2  and  O_4 
REMARK    3  A    between atoms: O_4  and  C_5 
REMARK    4  A    between atoms: C_5  and  C_6 
REMARK    5  A    between atoms: C_8  and  O_43 
REMARK    6  A    between atoms: C_10  and  O_39 
REMARK    7  A    between atoms: C_12  and  O_35 
REMARK    8  A    between atoms: C_14  and  N_17 
REMARK    9  A    between atoms: N_20  and  C_25 
REMARK   10  A    between atoms: C_25  and  C_26 
REMARK   11  A    between atoms: C_29  and  O_33 
REMARK   12  A    between atoms: O_33  and  C_34 
REMARK   13  A    between atoms: O_35  and  C_36 
REMARK   14  A    between atoms: C_36  and  C_38 
REMARK   15  A    between atoms: O_39  and  C_40 
REMARK   16  A    between atoms: C_40  and  C_42 
REMARK   17  A    between atoms: O_43  and  C_44 
REMARK   18  A    between atoms: C_44  and  C_46 
ROOT
ATOM      1  C   LIG d   1       7.473  -2.240  -6.371  0.00  0.00     0.136 C 
ATOM      2  H   LIG d   1       7.023  -2.985  -7.027  0.00  0.00     0.067 H 
ATOM      3  C   LIG d   1       6.636  -0.959  -6.400  0.00  0.00     0.172 C 
ATOM      4  H   LIG d   1       7.108  -0.201  -5.776  0.00  0.00     0.080 H 
ATOM      5  C   LIG d   1       5.235  -1.264  -5.862  0.00  0.00     0.183 C 
ATOM      6  H   LIG d   1       4.742  -1.987  -6.514  0.00  0.00     0.081 H 
ATOM      7  C   LIG d   1       5.356  -1.847  -4.451  0.00  0.00     0.190 C 
ATOM      8  H   LIG d   1       5.803  -1.107  -3.788  0.00  0.00     0.082 H 
ATOM      9  C   LIG d   1       6.245  -3.094  -4.497  0.00  0.00     0.197 C 
ATOM     10  H   LIG d   1       6.369  -3.488  -3.489  0.00  0.00     0.089 H 
ATOM     11  O   LIG d   1       7.522  -2.747  -5.036  0.00  0.00    -0.341 OA
ENDROOT
BRANCH   9  12
ATOM     12  N   LIG d   1       5.616  -4.110  -5.346  0.00  0.00    -0.181 N 
ATOM     13  N   LIG d   1       4.370  -3.848  -5.929  0.00  0.00    -0.168 NA
ATOM     14  C   LIG d   1       3.808  -4.746  -6.689  0.00  0.00     0.113 A 
ATOM     15  C   LIG d   1       4.493  -6.024  -6.909  0.00  0.00     0.275 A 
ATOM     16  H   LIG d   1       2.849  -4.554  -7.148  0.00  0.00     0.090 H 
ATOM     17  N   LIG d   1       5.690  -6.237  -6.323  0.00  0.00    -0.254 N 
ATOM     18  O   LIG d   1       3.988  -6.882  -7.609  0.00  0.00    -0.266 OA
ATOM     19  C   LIG d   1       6.241  -5.283  -5.549  0.00  0.00     0.351 A 
ATOM     20  O   LIG d   1       7.320  -5.486  -5.026  0.00  0.00    -0.245 OA
BRANCH  17  21
ATOM     21  C   LIG d   1       6.390  -7.507  -6.530  0.00  0.00     0.056 C 
ATOM     22  H   LIG d   1       5.960  -8.024  -7.388  0.00  0.00     0.054 H 
ATOM     23  H   LIG d   1       7.447  -7.313  -6.715  0.00  0.00     0.054 H 
BRANCH  21  24
ATOM     24  C   LIG d   1       6.245  -8.367  -5.301  0.00  0.00    -0.026 A 
ATOM     25  C   LIG d   1       5.025  -8.942  -5.002  0.00  0.00    -0.039 A 
ATOM     26  C   LIG d   1       4.891  -9.736  -3.878  0.00  0.00     0.060 A 
ATOM     27  H   LIG d   1       4.176  -8.775  -5.649  0.00  0.00     0.063 H 
ATOM     28  C   LIG d   1       5.980  -9.946  -3.045  0.00  0.00     0.134 A 
ATOM     29 BR   LIG d   1       3.222 -10.530  -3.473  0.00  0.00    -0.046 Br
ATOM     30  C   LIG d   1       7.203  -9.363  -3.345  0.00  0.00    -0.018 A 
ATOM     31  C   LIG d   1       7.333  -8.575  -4.472  0.00  0.00    -0.053 A 
ATOM     32  H   LIG d   1       8.052  -9.525  -2.699  0.00  0.00     0.065 H 
ATOM     33  H   LIG d   1       8.284  -8.120  -4.706  0.00  0.00     0.062 H 
BRANCH  28  34
ATOM     34  O   LIG d   1       5.851 -10.722  -1.936  0.00  0.00    -0.494 OA
BRANCH  34  35
ATOM     35  C   LIG d   1       7.002 -10.860  -1.102  0.00  0.00     0.079 C 
ATOM     36  H   LIG d   1       7.049 -10.025  -0.404  0.00  0.00     0.066 H 
ATOM     37  H   LIG d   1       6.937 -11.795  -0.545  0.00  0.00     0.066 H 
ATOM     38  H   LIG d   1       7.900 -10.868  -1.719  0.00  0.00     0.066 H 
ENDBRANCH  34  35
ENDBRANCH  28  34
ENDBRANCH  21  24
ENDBRANCH  17  21
ENDBRANCH   9  12
BRANCH   7  39
ATOM     39  O   LIG d   1       4.059  -2.201  -3.967  0.00  0.00    -0.453 OA
BRANCH  39  40
ATOM     40  C   LIG d   1       3.591  -1.509  -2.916  0.00  0.00     0.304 C 
ATOM     41  O   LIG d   1       2.470  -1.059  -2.941  0.00  0.00    -0.251 OA
BRANCH  40  42
ATOM     42  C   LIG d   1       4.462  -1.294  -1.707  0.00  0.00     0.033 C 
ATOM     43  H   LIG d   1       5.240  -0.568  -1.944  0.00  0.00     0.034 H 
ATOM     44  H   LIG d   1       3.855  -0.919  -0.883  0.00  0.00     0.034 H 
ATOM     45  H   LIG d   1       4.923  -2.240  -1.418  0.00  0.00     0.034 H 
ENDBRANCH  40  42
ENDBRANCH  39  40
ENDBRANCH   7  39
BRANCH   5  46
ATOM     46  O   LIG d   1       4.467  -0.059  -5.819  0.00  0.00    -0.454 OA
BRANCH  46  47
ATOM     47  C   LIG d   1       3.270  -0.077  -6.427  0.00  0.00     0.304 C 
ATOM     48  O   LIG d   1       2.308   0.411  -5.884  0.00  0.00    -0.251 OA
BRANCH  47  49
ATOM     49  C   LIG d   1       3.128  -0.708  -7.789  0.00  0.00     0.033 C 
ATOM     50  H   LIG d   1       2.580  -1.646  -7.699  0.00  0.00     0.034 H 
ATOM     51  H   LIG d   1       2.584  -0.031  -8.448  0.00  0.00     0.034 H 
ATOM     52  H   LIG d   1       4.117  -0.904  -8.203  0.00  0.00     0.034 H 
ENDBRANCH  47  49
ENDBRANCH  46  47
ENDBRANCH   5  46
BRANCH   1  53
ATOM     53  C   LIG d   1       8.894  -1.932  -6.850  0.00  0.00     0.122 C 
ATOM     54  H   LIG d   1       8.944  -0.901  -7.200  0.00  0.00     0.072 H 
ATOM     55  H   LIG d   1       9.156  -2.606  -7.666  0.00  0.00     0.072 H 
BRANCH  53  56
ATOM     56  O   LIG d   1       9.811  -2.113  -5.769  0.00  0.00    -0.462 OA
BRANCH  56  57
ATOM     57  C   LIG d   1      10.819  -1.233  -5.671  0.00  0.00     0.304 C 
ATOM     58  O   LIG d   1      11.945  -1.569  -5.953  0.00  0.00    -0.251 OA
BRANCH  57  59
ATOM     59  C   LIG d   1      10.547   0.176  -5.211  0.00  0.00     0.033 C 
ATOM     60  H   LIG d   1       9.726   0.172  -4.495  0.00  0.00     0.034 H 
ATOM     61  H   LIG d   1      11.440   0.584  -4.738  0.00  0.00     0.034 H 
ATOM     62  H   LIG d   1      10.278   0.793  -6.069  0.00  0.00     0.034 H 
ENDBRANCH  57  59
ENDBRANCH  56  57
ENDBRANCH  53  56
ENDBRANCH   1  53
BRANCH   3  63
ATOM     63  O   LIG d   1       6.540  -0.482  -7.744  0.00  0.00    -0.455 OA
BRANCH  63  64
ATOM     64  C   LIG d   1       6.680   0.839  -7.931  0.00  0.00     0.304 C 
ATOM     65  O   LIG d   1       5.785   1.476  -8.436  0.00  0.00    -0.251 OA
BRANCH  64  66
ATOM     66  C   LIG d   1       7.953   1.529  -7.512  0.00  0.00     0.033 C 
ATOM     67  H   LIG d   1       8.632   1.587  -8.364  0.00  0.00     0.034 H 
ATOM     68  H   LIG d   1       7.722   2.536  -7.162  0.00  0.00     0.034 H 
ATOM     69  H   LIG d   1       8.426   0.964  -6.710  0.00  0.00     0.034 H 
ENDBRANCH  64  66
ENDBRANCH  63  64
ENDBRANCH   3  63
TORSDOF 18
ENDMDL
MODEL 8
REMARK VINA RESULT:      -5.5      2.908      5.287
REMARK  18 active torsions:
REMARK  status: ('A' for Active; 'I' for Inactive)
REMARK    1  A    between atoms: C_1  and  C_2 
REMARK    2  A    between atoms: C_2  and  O_4 
REMARK    3  A    between atoms: O_4  and  C_5 
REMARK    4  A    between atoms: C_5  and  C_6 
REMARK    5  A    between atoms: C_8  and  O_43 
REMARK    6  A    between atoms: C_10  and  O_39 
REMARK    7  A    between atoms: C_12  and  O_35 
REMARK    8  A    between atoms: C_14  and  N_17 
REMARK    9  A    between atoms: N_20  and  C_25 
REMARK   10  A    between atoms: C_25  and  C_26 
REMARK   11  A    between atoms: C_29  and  O_33 
REMARK   12  A    between atoms: O_33  and  C_34 
REMARK   13  A    between atoms: O_35  and  C_36 
REMARK   14  A    between atoms: C_36  and  C_38 
REMARK   15  A    between atoms: O_39  and  C_40 
REMARK   16  A    between atoms: C_40  and  C_42 
REMARK   17  A    between atoms: O_43  and  C_44 
REMARK   18  A    between atoms: C_44  and  C_46 
ROOT
ATOM      1  C   LIG d   1       4.263  -1.171  -5.568  0.00  0.00     0.136 C 
ATOM      2  H   LIG d   1       4.454  -2.181  -5.930  0.00  0.00     0.067 H 
ATOM      3  C   LIG d   1       5.499  -0.300  -5.806  0.00  0.00     0.172 C 
ATOM      4  H   LIG d   1       5.323   0.699  -5.409  0.00  0.00     0.080 H 
ATOM      5  C   LIG d   1       5.767  -0.211  -7.312  0.00  0.00     0.183 C 
ATOM      6  H   LIG d   1       5.992  -1.205  -7.702  0.00  0.00     0.081 H 
ATOM      7  C   LIG d   1       4.522   0.344  -8.010  0.00  0.00     0.190 C 
ATOM      8  H   LIG d   1       4.327   1.355  -7.656  0.00  0.00     0.082 H 
ATOM      9  C   LIG d   1       3.323  -0.552  -7.685  0.00  0.00     0.197 C 
ATOM     10  H   LIG d   1       2.426  -0.138  -8.144  0.00  0.00     0.089 H 
ATOM     11  O   LIG d   1       3.148  -0.617  -6.269  0.00  0.00    -0.341 OA
ENDROOT
BRANCH   9  12
ATOM     12  N   LIG d   1       3.564  -1.899  -8.210  0.00  0.00    -0.181 N 
ATOM     13  N   LIG d   1       4.403  -2.773  -7.509  0.00  0.00    -0.168 NA
ATOM     14  C   LIG d   1       4.617  -3.975  -7.967  0.00  0.00     0.113 A 
ATOM     15  C   LIG d   1       3.978  -4.384  -9.222  0.00  0.00     0.275 A 
ATOM     16  H   LIG d   1       5.259  -4.659  -7.433  0.00  0.00     0.090 H 
ATOM     17  N   LIG d   1       3.180  -3.508  -9.869  0.00  0.00    -0.254 N 
ATOM     18  O   LIG d   1       4.165  -5.497  -9.676  0.00  0.00    -0.266 OA
ATOM     19  C   LIG d   1       2.979  -2.277  -9.360  0.00  0.00     0.351 A 
ATOM     20  O   LIG d   1       2.259  -1.495  -9.951  0.00  0.00    -0.245 OA
BRANCH  17  21
ATOM     21  C   LIG d   1       2.532  -3.896 -11.123  0.00  0.00     0.056 C 
ATOM     22  H   LIG d   1       2.239  -3.003 -11.674  0.00  0.00     0.054 H 
ATOM     23  H   LIG d   1       3.228  -4.482 -11.725  0.00  0.00     0.054 H 
BRANCH  21  24
ATOM     24  C   LIG d   1       1.309  -4.725 -10.822  0.00  0.00    -0.026 A 
ATOM     25  C   LIG d   1       1.366  -6.102 -10.927  0.00  0.00    -0.039 A 
ATOM     26  C   LIG d   1       0.247  -6.863 -10.646  0.00  0.00     0.060 A 
ATOM     27  H   LIG d   1       2.286  -6.583 -11.224  0.00  0.00     0.063 H 
ATOM     28  C   LIG d   1      -0.936  -6.244 -10.270  0.00  0.00     0.134 A 
ATOM     29 BR   LIG d   1       0.327  -8.748 -10.781  0.00  0.00    -0.046 Br
ATOM     30  C   LIG d   1      -0.991  -4.861 -10.171  0.00  0.00    -0.018 A 
ATOM     31  C   LIG d   1       0.131  -4.104 -10.448  0.00  0.00    -0.053 A 
ATOM     32  H   LIG d   1      -1.911  -4.376  -9.878  0.00  0.00     0.065 H 
ATOM     33  H   LIG d   1       0.088  -3.028 -10.372  0.00  0.00     0.062 H 
BRANCH  28  34
ATOM     34  O   LIG d   1      -2.040  -6.990  -9.998  0.00  0.00    -0.494 OA
BRANCH  34  35
ATOM     35  C   LIG d   1      -3.134  -6.324  -9.365  0.00  0.00     0.079 C 
ATOM     36  H   LIG d   1      -2.752  -5.594  -8.652  0.00  0.00     0.066 H 
ATOM     37  H   LIG d   1      -3.735  -5.815 -10.119  0.00  0.00     0.066 H 
ATOM     38  H   LIG d   1      -3.751  -7.054  -8.842  0.00  0.00     0.066 H 
ENDBRANCH  34  35
ENDBRANCH  28  34
ENDBRANCH  21  24
ENDBRANCH  17  21
ENDBRANCH   9  12
BRANCH   7  39
ATOM     39  O   LIG d   1       4.736   0.364  -9.423  0.00  0.00    -0.453 OA
BRANCH  39  40
ATOM     40  C   LIG d   1       4.238   1.411 -10.099  0.00  0.00     0.304 C 
ATOM     41  O   LIG d   1       3.943   1.293 -11.265  0.00  0.00    -0.251 OA
BRANCH  40  42
ATOM     42  C   LIG d   1       4.044   2.734  -9.404  0.00  0.00     0.033 C 
ATOM     43  H   LIG d   1       4.495   2.692  -8.412  0.00  0.00     0.034 H 
ATOM     44  H   LIG d   1       4.519   3.524  -9.986  0.00  0.00     0.034 H 
ATOM     45  H   LIG d   1       2.978   2.943  -9.310  0.00  0.00     0.034 H 
ENDBRANCH  40  42
ENDBRANCH  39  40
ENDBRANCH   7  39
BRANCH   5  46
ATOM     46  O   LIG d   1       6.878   0.657  -7.549  0.00  0.00    -0.454 OA
BRANCH  46  47
ATOM     47  C   LIG d   1       7.883   0.171  -8.293  0.00  0.00     0.304 C 
ATOM     48  O   LIG d   1       8.530  -0.770  -7.896  0.00  0.00    -0.251 OA
BRANCH  47  49
ATOM     49  C   LIG d   1       8.207   0.798  -9.625  0.00  0.00     0.033 C 
ATOM     50  H   LIG d   1       7.322   1.303 -10.013  0.00  0.00     0.034 H 
ATOM     51  H   LIG d   1       9.012   1.521  -9.500  0.00  0.00     0.034 H 
ATOM     52  H   LIG d   1       8.518   0.023 -10.325  0.00  0.00     0.034 H 
ENDBRANCH  47  49
ENDBRANCH  46  47
ENDBRANCH   5  46
BRANCH   1  53
ATOM     53  C   LIG d   1       3.952  -1.216  -4.070  0.00  0.00     0.122 C 
ATOM     54  H   LIG d   1       4.878  -1.124  -3.503  0.00  0.00     0.072 H 
ATOM     55  H   LIG d   1       3.470  -2.163  -3.827  0.00  0.00     0.072 H 
BRANCH  53  56
ATOM     56  O   LIG d   1       3.077  -0.137  -3.733  0.00  0.00    -0.462 OA
BRANCH  56  57
ATOM     57  C   LIG d   1       3.618   0.905  -3.082  0.00  0.00     0.304 C 
ATOM     58  O   LIG d   1       3.533   2.018  -3.546  0.00  0.00    -0.251 OA
BRANCH  57  59
ATOM     59  C   LIG d   1       4.331   0.688  -1.773  0.00  0.00     0.033 C 
ATOM     60  H   LIG d   1       4.829  -0.281  -1.786  0.00  0.00     0.034 H 
ATOM     61  H   LIG d   1       5.071   1.474  -1.626  0.00  0.00     0.034 H 
ATOM     62  H   LIG d   1       3.608   0.714  -0.957  0.00  0.00     0.034 H 
ENDBRANCH  57  59
ENDBRANCH  56  57
ENDBRANCH  53  56
ENDBRANCH   1  53
BRANCH   3  63
ATOM     63  O   LIG d   1       6.628  -0.884  -5.152  0.00  0.00    -0.455 OA
BRANCH  63  64
ATOM     64  C   LIG d   1       7.077  -0.268  -4.048  0.00  0.00     0.304 C 
ATOM     65  O   LIG d   1       7.230  -0.894  -3.026  0.00  0.00    -0.251 OA
BRANCH  64  66
ATOM     66  C   LIG d   1       7.393   1.205  -4.083  0.00  0.00     0.033 C 
ATOM     67  H   LIG d   1       7.732   1.528  -3.098  0.00  0.00     0.034 H 
ATOM     68  H   LIG d   1       8.178   1.392  -4.816  0.00  0.00     0.034 H 
ATOM     69  H   LIG d   1       6.498   1.763  -4.358  0.00  0.00     0.034 H 
ENDBRANCH  64  66
ENDBRANCH  63  64
ENDBRANCH   3  63
TORSDOF 18
ENDMDL
MODEL 9
REMARK VINA RESULT:      -5.4      4.126      8.331
REMARK  18 active torsions:
REMARK  status: ('A' for Active; 'I' for Inactive)
REMARK    1  A    between atoms: C_1  and  C_2 
REMARK    2  A    between atoms: C_2  and  O_4 
REMARK    3  A    between atoms: O_4  and  C_5 
REMARK    4  A    between atoms: C_5  and  C_6 
REMARK    5  A    between atoms: C_8  and  O_43 
REMARK    6  A    between atoms: C_10  and  O_39 
REMARK    7  A    between atoms: C_12  and  O_35 
REMARK    8  A    between atoms: C_14  and  N_17 
REMARK    9  A    between atoms: N_20  and  C_25 
REMARK   10  A    between atoms: C_25  and  C_26 
REMARK   11  A    between atoms: C_29  and  O_33 
REMARK   12  A    between atoms: O_33  and  C_34 
REMARK   13  A    between atoms: O_35  and  C_36 
REMARK   14  A    between atoms: C_36  and  C_38 
REMARK   15  A    between atoms: O_39  and  C_40 
REMARK   16  A    between atoms: C_40  and  C_42 
REMARK   17  A    between atoms: O_43  and  C_44 
REMARK   18  A    between atoms: C_44  and  C_46 
ROOT
ATOM      1  C   LIG d   1       5.859  -2.146  -3.570  0.00  0.00     0.136 C 
ATOM      2  H   LIG d   1       6.713  -2.689  -3.164  0.00  0.00     0.067 H 
ATOM      3  C   LIG d   1       6.355  -0.952  -4.389  0.00  0.00     0.172 C 
ATOM      4  H   LIG d   1       5.502  -0.386  -4.761  0.00  0.00     0.080 H 
ATOM      5  C   LIG d   1       7.184  -1.464  -5.571  0.00  0.00     0.183 C 
ATOM      6  H   LIG d   1       8.065  -1.989  -5.199  0.00  0.00     0.081 H 
ATOM      7  C   LIG d   1       6.328  -2.425  -6.403  0.00  0.00     0.190 C 
ATOM      8  H   LIG d   1       5.475  -1.888  -6.815  0.00  0.00     0.082 H 
ATOM      9  C   LIG d   1       5.832  -3.562  -5.505  0.00  0.00     0.197 C 
ATOM     10  H   LIG d   1       5.188  -4.225  -6.082  0.00  0.00     0.089 H 
ATOM     11  O   LIG d   1       5.097  -3.015  -4.409  0.00  0.00    -0.341 OA
ENDROOT
BRANCH   9  12
ATOM     12  N   LIG d   1       6.980  -4.317  -4.994  0.00  0.00    -0.181 N 
ATOM     13  N   LIG d   1       7.952  -3.662  -4.229  0.00  0.00    -0.168 NA
ATOM     14  C   LIG d   1       8.973  -4.329  -3.767  0.00  0.00     0.113 A 
ATOM     15  C   LIG d   1       9.087  -5.759  -4.072  0.00  0.00     0.275 A 
ATOM     16  H   LIG d   1       9.727  -3.835  -3.172  0.00  0.00     0.090 H 
ATOM     17  N   LIG d   1       8.130  -6.350  -4.818  0.00  0.00    -0.254 N 
ATOM     18  O   LIG d   1      10.032  -6.405  -3.658  0.00  0.00    -0.266 OA
ATOM     19  C   LIG d   1       7.088  -5.628  -5.272  0.00  0.00     0.351 A 
ATOM     20  O   LIG d   1       6.231  -6.170  -5.944  0.00  0.00    -0.245 OA
BRANCH  17  21
ATOM     21  C   LIG d   1       8.225  -7.777  -5.133  0.00  0.00     0.056 C 
ATOM     22  H   LIG d   1       7.702  -7.979  -6.068  0.00  0.00     0.054 H 
ATOM     23  H   LIG d   1       9.274  -8.057  -5.235  0.00  0.00     0.054 H 
BRANCH  21  24
ATOM     24  C   LIG d   1       7.597  -8.580  -4.023  0.00  0.00    -0.026 A 
ATOM     25  C   LIG d   1       6.349  -9.147  -4.202  0.00  0.00    -0.039 A 
ATOM     26  C   LIG d   1       5.773  -9.888  -3.188  0.00  0.00     0.060 A 
ATOM     27  H   LIG d   1       5.825  -9.013  -5.137  0.00  0.00     0.063 H 
ATOM     28  C   LIG d   1       6.445 -10.055  -1.985  0.00  0.00     0.134 A 
ATOM     29 BR   LIG d   1       4.069 -10.670  -3.436  0.00  0.00    -0.046 Br
ATOM     30  C   LIG d   1       7.695  -9.480  -1.806  0.00  0.00    -0.018 A 
ATOM     31  C   LIG d   1       8.268  -8.744  -2.825  0.00  0.00    -0.053 A 
ATOM     32  H   LIG d   1       8.220  -9.608  -0.871  0.00  0.00     0.065 H 
ATOM     33  H   LIG d   1       9.241  -8.296  -2.686  0.00  0.00     0.062 H 
BRANCH  28  34
ATOM     34  O   LIG d   1       5.879 -10.779  -0.983  0.00  0.00    -0.494 OA
BRANCH  34  35
ATOM     35  C   LIG d   1       6.506 -12.016  -0.642  0.00  0.00     0.079 C 
ATOM     36  H   LIG d   1       7.100 -12.368  -1.486  0.00  0.00     0.066 H 
ATOM     37  H   LIG d   1       7.155 -11.869   0.221  0.00  0.00     0.066 H 
ATOM     38  H   LIG d   1       5.744 -12.756  -0.401  0.00  0.00     0.066 H 
ENDBRANCH  34  35
ENDBRANCH  28  34
ENDBRANCH  21  24
ENDBRANCH  17  21
ENDBRANCH   9  12
BRANCH   7  39
ATOM     39  O   LIG d   1       7.114  -2.964  -7.468  0.00  0.00    -0.453 OA
BRANCH  39  40
ATOM     40  C   LIG d   1       6.615  -2.854  -8.709  0.00  0.00     0.304 C 
ATOM     41  O   LIG d   1       6.961  -1.942  -9.421  0.00  0.00    -0.251 OA
BRANCH  40  42
ATOM     42  C   LIG d   1       5.624  -3.870  -9.215  0.00  0.00     0.033 C 
ATOM     43  H   LIG d   1       5.775  -4.815  -8.693  0.00  0.00     0.034 H 
ATOM     44  H   LIG d   1       4.611  -3.513  -9.031  0.00  0.00     0.034 H 
ATOM     45  H   LIG d   1       5.769  -4.019 -10.286  0.00  0.00     0.034 H 
ENDBRANCH  40  42
ENDBRANCH  39  40
ENDBRANCH   7  39
BRANCH   5  46
ATOM     46  O   LIG d   1       7.593  -0.360  -6.382  0.00  0.00    -0.454 OA
BRANCH  46  47
ATOM     47  C   LIG d   1       8.905  -0.247  -6.640  0.00  0.00     0.304 C 
ATOM     48  O   LIG d   1       9.716  -0.559  -5.800  0.00  0.00    -0.251 OA
BRANCH  47  49
ATOM     49  C   LIG d   1       9.368   0.270  -7.978  0.00  0.00     0.033 C 
ATOM     50  H   LIG d   1      10.422   0.029  -8.116  0.00  0.00     0.034 H 
ATOM     51  H   LIG d   1       8.782  -0.196  -8.770  0.00  0.00     0.034 H 
ATOM     52  H   LIG d   1       9.235   1.352  -8.015  0.00  0.00     0.034 H 
ENDBRANCH  47  49
ENDBRANCH  46  47
ENDBRANCH   5  46
BRANCH   1  53
ATOM     53  C   LIG d   1       4.980  -1.646  -2.421  0.00  0.00     0.122 C 
ATOM     54  H   LIG d   1       5.324  -0.664  -2.100  0.00  0.00     0.072 H 
ATOM     55  H   LIG d   1       5.042  -2.344  -1.586  0.00  0.00     0.072 H 
BRANCH  53  56
ATOM     56  O   LIG d   1       3.625  -1.555  -2.865  0.00  0.00    -0.462 OA
BRANCH  56  57
ATOM     57  C   LIG d   1       3.131  -0.323  -3.064  0.00  0.00     0.304 C 
ATOM     58  O   LIG d   1       3.137   0.485  -2.165  0.00  0.00    -0.251 OA
BRANCH  57  59
ATOM     59  C   LIG d   1       2.569   0.055  -4.411  0.00  0.00     0.033 C 
ATOM     60  H   LIG d   1       1.838   0.854  -4.288  0.00  0.00     0.034 H 
ATOM     61  H   LIG d   1       3.375   0.397  -5.059  0.00  0.00     0.034 H 
ATOM     62  H   LIG d   1       2.086  -0.814  -4.859  0.00  0.00     0.034 H 
ENDBRANCH  57  59
ENDBRANCH  56  57
ENDBRANCH  53  56
ENDBRANCH   1  53
BRANCH   3  63
ATOM     63  O   LIG d   1       7.165  -0.111  -3.565  0.00  0.00    -0.455 OA
BRANCH  63  64
ATOM     64  C   LIG d   1       6.961   1.212  -3.660  0.00  0.00     0.304 C 
ATOM     65  O   LIG d   1       5.842   1.659  -3.571  0.00  0.00    -0.251 OA
BRANCH  64  66
ATOM     66  C   LIG d   1       8.129   2.141  -3.875  0.00  0.00     0.033 C 
ATOM     67  H   LIG d   1       8.825   1.691  -4.584  0.00  0.00     0.034 H 
ATOM     68  H   LIG d   1       7.769   3.090  -4.272  0.00  0.00     0.034 H 
ATOM     69  H   LIG d   1       8.637   2.312  -2.927  0.00  0.00     0.034 H 
ENDBRANCH  64  66
ENDBRANCH  63  64
ENDBRANCH   3  63
TORSDOF 18
ENDMDL
MODEL 10
REMARK VINA RESULT:      -5.4      3.772      8.090
REMARK  18 active torsions:
REMARK  status: ('A' for Active; 'I' for Inactive)
REMARK    1  A    between atoms: C_1  and  C_2 
REMARK    2  A    between atoms: C_2  and  O_4 
REMARK    3  A    between atoms: O_4  and  C_5 
REMARK    4  A    between atoms: C_5  and  C_6 
REMARK    5  A    between atoms: C_8  and  O_43 
REMARK    6  A    between atoms: C_10  and  O_39 
REMARK    7  A    between atoms: C_12  and  O_35 
REMARK    8  A    between atoms: C_14  and  N_17 
REMARK    9  A    between atoms: N_20  and  C_25 
REMARK   10  A    between atoms: C_25  and  C_26 
REMARK   11  A    between atoms: C_29  and  O_33 
REMARK   12  A    between atoms: O_33  and  C_34 
REMARK   13  A    between atoms: O_35  and  C_36 
REMARK   14  A    between atoms: C_36  and  C_38 
REMARK   15  A    between atoms: O_39  and  C_40 
REMARK   16  A    between atoms: C_40  and  C_42 
REMARK   17  A    between atoms: O_43  and  C_44 
REMARK   18  A    between atoms: C_44  and  C_46 
ROOT
ATOM      1  C   LIG d   1       6.770  -0.252  -4.859  0.00  0.00     0.136 C 
ATOM      2  H   LIG d   1       6.625   0.677  -5.410  0.00  0.00     0.067 H 
ATOM      3  C   LIG d   1       5.664  -1.243  -5.227  0.00  0.00     0.172 C 
ATOM      4  H   LIG d   1       5.785  -2.157  -4.647  0.00  0.00     0.080 H 
ATOM      5  C   LIG d   1       5.759  -1.569  -6.721  0.00  0.00     0.183 C 
ATOM      6  H   LIG d   1       5.589  -0.663  -7.304  0.00  0.00     0.081 H 
ATOM      7  C   LIG d   1       7.157  -2.119  -7.024  0.00  0.00     0.190 C 
ATOM      8  H   LIG d   1       7.307  -3.050  -6.479  0.00  0.00     0.082 H 
ATOM      9  C   LIG d   1       8.206  -1.094  -6.585  0.00  0.00     0.197 C 
ATOM     10  H   LIG d   1       9.203  -1.498  -6.759  0.00  0.00     0.089 H 
ATOM     11  O   LIG d   1       8.041  -0.812  -5.194  0.00  0.00    -0.341 OA
ENDROOT
BRANCH   9  12
ATOM     12  N   LIG d   1       8.036   0.140  -7.357  0.00  0.00    -0.181 N 
ATOM     13  N   LIG d   1       6.802   0.414  -7.958  0.00  0.00    -0.168 NA
ATOM     14  C   LIG d   1       6.643   1.513  -8.641  0.00  0.00     0.113 A 
ATOM     15  C   LIG d   1       7.773   2.439  -8.776  0.00  0.00     0.275 A 
ATOM     16  H   LIG d   1       5.694   1.738  -9.106  0.00  0.00     0.090 H 
ATOM     17  N   LIG d   1       8.947   2.133  -8.185  0.00  0.00    -0.254 N 
ATOM     18  O   LIG d   1       7.654   3.469  -9.414  0.00  0.00    -0.266 OA
ATOM     19  C   LIG d   1       9.070   0.990  -7.483  0.00  0.00     0.351 A 
ATOM     20  O   LIG d   1      10.133   0.724  -6.955  0.00  0.00    -0.245 OA
BRANCH  17  21
ATOM     21  C   LIG d   1      10.087   3.044  -8.308  0.00  0.00     0.056 C 
ATOM     22  H   LIG d   1      11.012   2.496  -8.127  0.00  0.00     0.054 H 
ATOM     23  H   LIG d   1      10.106   3.468  -9.312  0.00  0.00     0.054 H 
BRANCH  21  24
ATOM     24  C   LIG d   1       9.955   4.154  -7.297  0.00  0.00    -0.026 A 
ATOM     25  C   LIG d   1       9.956   3.861  -5.947  0.00  0.00    -0.039 A 
ATOM     26  C   LIG d   1       9.840   4.877  -5.018  0.00  0.00     0.060 A 
ATOM     27  H   LIG d   1      10.052   2.837  -5.617  0.00  0.00     0.063 H 
ATOM     28  C   LIG d   1       9.712   6.192  -5.443  0.00  0.00     0.134 A 
ATOM     29 BR   LIG d   1       9.850   4.477  -3.169  0.00  0.00    -0.046 Br
ATOM     30  C   LIG d   1       9.705   6.483  -6.799  0.00  0.00    -0.018 A 
ATOM     31  C   LIG d   1       9.826   5.464  -7.723  0.00  0.00    -0.053 A 
ATOM     32  H   LIG d   1       9.606   7.506  -7.132  0.00  0.00     0.065 H 
ATOM     33  H   LIG d   1       9.821   5.689  -8.780  0.00  0.00     0.062 H 
BRANCH  28  34
ATOM     34  O   LIG d   1       9.592   7.195  -4.532  0.00  0.00    -0.494 OA
BRANCH  34  35
ATOM     35  C   LIG d   1      10.618   8.189  -4.522  0.00  0.00     0.079 C 
ATOM     36  H   LIG d   1      11.538   7.767  -4.925  0.00  0.00     0.066 H 
ATOM     37  H   LIG d   1      10.309   9.036  -5.134  0.00  0.00     0.066 H 
ATOM     38  H   LIG d   1      10.790   8.524  -3.499  0.00  0.00     0.066 H 
ENDBRANCH  34  35
ENDBRANCH  28  34
ENDBRANCH  21  24
ENDBRANCH  17  21
ENDBRANCH   9  12
BRANCH   7  39
ATOM     39  O   LIG d   1       7.281  -2.360  -8.427  0.00  0.00    -0.453 OA
BRANCH  39  40
ATOM     40  C   LIG d   1       7.812  -3.536  -8.799  0.00  0.00     0.304 C 
ATOM     41  O   LIG d   1       8.886  -3.565  -9.353  0.00  0.00    -0.251 OA
BRANCH  40  42
ATOM     42  C   LIG d   1       7.071  -4.818  -8.523  0.00  0.00     0.033 C 
ATOM     43  H   LIG d   1       6.989  -5.395  -9.445  0.00  0.00     0.034 H 
ATOM     44  H   LIG d   1       7.615  -5.400  -7.779  0.00  0.00     0.034 H 
ATOM     45  H   LIG d   1       6.073  -4.588  -8.148  0.00  0.00     0.034 H 
ENDBRANCH  40  42
ENDBRANCH  39  40
ENDBRANCH   7  39
BRANCH   5  46
ATOM     46  O   LIG d   1       4.774  -2.548  -7.061  0.00  0.00    -0.454 OA
BRANCH  46  47
ATOM     47  C   LIG d   1       3.925  -2.239  -8.054  0.00  0.00     0.304 C 
ATOM     48  O   LIG d   1       3.405  -1.149  -8.087  0.00  0.00    -0.251 OA
BRANCH  47  49
ATOM     49  C   LIG d   1       3.622  -3.252  -9.127  0.00  0.00     0.033 C 
ATOM     50  H   LIG d   1       4.230  -3.043 -10.007  0.00  0.00     0.034 H 
ATOM     51  H   LIG d   1       3.849  -4.252  -8.758  0.00  0.00     0.034 H 
ATOM     52  H   LIG d   1       2.566  -3.193  -9.393  0.00  0.00     0.034 H 
ENDBRANCH  47  49
ENDBRANCH  46  47
ENDBRANCH   5  46
BRANCH   1  53
ATOM     53  C   LIG d   1       6.720   0.033  -3.356  0.00  0.00     0.122 C 
ATOM     54  H   LIG d   1       7.716  -0.082  -2.930  0.00  0.00     0.072 H 
ATOM     55  H   LIG d   1       6.036  -0.669  -2.876  0.00  0.00     0.072 H 
BRANCH  53  56
ATOM     56  O   LIG d   1       6.260   1.368  -3.139  0.00  0.00    -0.462 OA
BRANCH  56  57
ATOM     57  C   LIG d   1       5.007   1.514  -2.679  0.00  0.00     0.304 C 
ATOM     58  O   LIG d   1       4.210   2.180  -3.296  0.00  0.00    -0.251 OA
BRANCH  57  59
ATOM     59  C   LIG d   1       4.594   0.846  -1.392  0.00  0.00     0.033 C 
ATOM     60  H   LIG d   1       5.482   0.520  -0.852  0.00  0.00     0.034 H 
ATOM     61  H   LIG d   1       4.034   1.552  -0.779  0.00  0.00     0.034 H 
ATOM     62  H   LIG d   1       3.967  -0.017  -1.616  0.00  0.00     0.034 H 
ENDBRANCH  57  59
ENDBRANCH  56  57
ENDBRANCH  53  56
ENDBRANCH   1  53
BRANCH   3  63
ATOM     63  O   LIG d   1       4.389  -0.661  -4.945  0.00  0.00    -0.455 OA
BRANCH  63  64
ATOM     64  C   LIG d   1       3.631  -1.276  -4.024  0.00  0.00     0.304 C 
ATOM     65  O   LIG d   1       2.532  -0.846  -3.761  0.00  0.00    -0.251 OA
BRANCH  64  66
ATOM     66  C   LIG d   1       4.149  -2.502  -3.317  0.00  0.00     0.033 C 
ATOM     67  H   LIG d   1       3.637  -3.386  -3.702  0.00  0.00     0.034 H 
ATOM     68  H   LIG d   1       5.220  -2.598  -3.493  0.00  0.00     0.034 H 
ATOM     69  H   LIG d   1       3.962  -2.412  -2.248  0.00  0.00     0.034 H 
ENDBRANCH  64  66
ENDBRANCH  63  64
ENDBRANCH   3  63
TORSDOF 18
ENDMDL
