MODEL 1
REMARK VINA RESULT:      -7.0      0.000      0.000
REMARK  4 active torsions:
REMARK  status: ('A' for Active; 'I' for Inactive)
REMARK    1  A    between atoms: C_1  and  C_2 
REMARK    2  A    between atoms: C_17  and  C_25 
REMARK    3  A    between atoms: C_22  and  C_23 
REMARK    4  A    between atoms: C_22  and  O_24 
ROOT
ATOM      1  C   LIG d   1       8.168  -3.251  -4.053  0.00  0.00    -0.006 C 
ATOM      2  C   LIG d   1       8.930  -3.594  -2.763  0.00  0.00    -0.037 C 
ATOM      3  C   LIG d   1      10.202  -4.386  -3.058  0.00  0.00     0.012 C 
ATOM      4  C   LIG d   1      10.270  -4.742  -4.525  0.00  0.00     0.174 C 
ATOM      5  O   LIG d   1      11.297  -4.631  -5.161  0.00  0.00    -0.291 OA
ATOM      6  C   LIG d   1       9.019  -5.232  -5.148  0.00  0.00     0.083 C 
ATOM      7  C   LIG d   1       7.939  -4.459  -4.878  0.00  0.00    -0.042 C 
ATOM      8  C   LIG d   1       6.605  -4.855  -5.438  0.00  0.00    -0.029 C 
ATOM      9  C   LIG d   1       5.718  -3.610  -5.543  0.00  0.00    -0.046 C 
ATOM     10  C   LIG d   1       5.644  -2.983  -4.150  0.00  0.00    -0.034 C 
ATOM     11  H   LIG d   1       5.460  -3.810  -3.464  0.00  0.00     0.031 H 
ATOM     12  C   LIG d   1       6.967  -2.395  -3.742  0.00  0.00    -0.029 C 
ATOM     13  H   LIG d   1       6.938  -2.266  -2.659  0.00  0.00     0.031 H 
ATOM     14  C   LIG d   1       7.138  -1.000  -4.352  0.00  0.00    -0.049 C 
ATOM     15  C   LIG d   1       6.023  -0.105  -3.812  0.00  0.00    -0.044 C 
ATOM     16  C   LIG d   1       4.667  -0.605  -4.311  0.00  0.00    -0.000 C 
ATOM     17  C   LIG d   1       4.459  -2.084  -4.009  0.00  0.00    -0.030 C 
ATOM     18  H   LIG d   1       3.698  -2.439  -4.703  0.00  0.00     0.031 H 
ATOM     19  C   LIG d   1       3.833  -2.119  -2.600  0.00  0.00    -0.047 C 
ATOM     20  C   LIG d   1       2.840  -0.928  -2.665  0.00  0.00    -0.024 C 
ATOM     21  C   LIG d   1       3.580   0.143  -3.496  0.00  0.00     0.069 C 
ATOM     22 CL   LIG d   1       8.944  -6.661  -6.131  0.00  0.00    -0.080 Cl
ATOM     23  H   LIG d   1       8.283  -4.187  -2.117  0.00  0.00     0.028 H 
ATOM     24  H   LIG d   1       9.197  -2.672  -2.248  0.00  0.00     0.028 H 
ATOM     25  H   LIG d   1      10.202  -5.228  -2.518  0.00  0.00     0.035 H 
ATOM     26  H   LIG d   1      11.069  -3.783  -2.793  0.00  0.00     0.035 H 
ATOM     27  H   LIG d   1       6.135  -5.585  -4.779  0.00  0.00     0.031 H 
ATOM     28  H   LIG d   1       6.740  -5.290  -6.429  0.00  0.00     0.031 H 
ATOM     29  H   LIG d   1       4.719  -3.893  -5.874  0.00  0.00     0.027 H 
ATOM     30  H   LIG d   1       6.155  -2.900  -6.245  0.00  0.00     0.027 H 
ATOM     31  H   LIG d   1       7.068  -1.062  -5.437  0.00  0.00     0.027 H 
ATOM     32  H   LIG d   1       8.109  -0.590  -4.069  0.00  0.00     0.027 H 
ATOM     33  H   LIG d   1       6.038  -0.127  -2.722  0.00  0.00     0.027 H 
ATOM     34  H   LIG d   1       6.181   0.917  -4.155  0.00  0.00     0.027 H 
ATOM     35  H   LIG d   1       3.305  -3.058  -2.431  0.00  0.00     0.027 H 
ATOM     36  H   LIG d   1       4.590  -1.955  -1.833  0.00  0.00     0.027 H 
ATOM     37  H   LIG d   1       1.918  -1.227  -3.163  0.00  0.00     0.029 H 
ATOM     38  H   LIG d   1       2.627  -0.554  -1.663  0.00  0.00     0.029 H 
ENDROOT
BRANCH  21  39
ATOM     39  C   LIG d   1       4.233   1.169  -2.567  0.00  0.00    -0.036 C 
ATOM     40  H   LIG d   1       3.460   1.685  -1.996  0.00  0.00     0.026 H 
ATOM     41  H   LIG d   1       4.912   0.660  -1.883  0.00  0.00     0.026 H 
ATOM     42  H   LIG d   1       4.790   1.894  -3.161  0.00  0.00     0.026 H 
ENDBRANCH  21  39
BRANCH  21  43
ATOM     43  O   LIG d   1       2.665   0.795  -4.379  0.00  0.00    -0.388 OA
ATOM     44  H   LIG d   1       2.684   1.760  -4.322  0.00  0.00     0.210 HD
ENDBRANCH  21  43
BRANCH  16  45
ATOM     45  C   LIG d   1       4.517  -0.338  -5.810  0.00  0.00    -0.057 C 
ATOM     46  H   LIG d   1       3.497  -0.567  -6.119  0.00  0.00     0.024 H 
ATOM     47  H   LIG d   1       4.732   0.710  -6.016  0.00  0.00     0.024 H 
ATOM     48  H   LIG d   1       5.214  -0.969  -6.362  0.00  0.00     0.024 H 
ENDBRANCH  16  45
BRANCH   1  49
ATOM     49  C   LIG d   1       9.119  -2.367  -4.860  0.00  0.00    -0.056 C 
ATOM     50  H   LIG d   1       9.813  -2.996  -5.420  0.00  0.00     0.024 H 
ATOM     51  H   LIG d   1       8.545  -1.753  -5.554  0.00  0.00     0.024 H 
ATOM     52  H   LIG d   1       9.679  -1.723  -4.183  0.00  0.00     0.024 H 
ENDBRANCH   1  49
TORSDOF 4
ENDMDL
MODEL 2
REMARK VINA RESULT:      -6.7      4.018      6.205
REMARK  4 active torsions:
REMARK  status: ('A' for Active; 'I' for Inactive)
REMARK    1  A    between atoms: C_1  and  C_2 
REMARK    2  A    between atoms: C_17  and  C_25 
REMARK    3  A    between atoms: C_22  and  C_23 
REMARK    4  A    between atoms: C_22  and  O_24 
ROOT
ATOM      1  C   LIG d   1       3.845   0.086  -8.285  0.00  0.00    -0.006 C 
ATOM      2  C   LIG d   1       4.032   1.424  -9.017  0.00  0.00    -0.037 C 
ATOM      3  C   LIG d   1       3.677   1.307 -10.498  0.00  0.00     0.012 C 
ATOM      4  C   LIG d   1       3.391  -0.133 -10.856  0.00  0.00     0.174 C 
ATOM      5  O   LIG d   1       2.449  -0.441 -11.556  0.00  0.00    -0.291 OA
ATOM      6  C   LIG d   1       4.317  -1.150 -10.309  0.00  0.00     0.083 C 
ATOM      7  C   LIG d   1       4.555  -1.010  -8.982  0.00  0.00    -0.042 C 
ATOM      8  C   LIG d   1       5.490  -1.970  -8.307  0.00  0.00    -0.029 C 
ATOM      9  C   LIG d   1       5.152  -2.031  -6.814  0.00  0.00    -0.046 C 
ATOM     10  C   LIG d   1       5.228  -0.604  -6.269  0.00  0.00    -0.034 C 
ATOM     11  H   LIG d   1       6.150  -0.184  -6.671  0.00  0.00     0.031 H 
ATOM     12  C   LIG d   1       4.115   0.251  -6.812  0.00  0.00    -0.029 C 
ATOM     13  H   LIG d   1       4.406   1.291  -6.654  0.00  0.00     0.031 H 
ATOM     14  C   LIG d   1       2.830   0.022  -6.008  0.00  0.00    -0.049 C 
ATOM     15  C   LIG d   1       3.096   0.433  -4.560  0.00  0.00    -0.044 C 
ATOM     16  C   LIG d   1       4.138  -0.497  -3.938  0.00  0.00    -0.000 C 
ATOM     17  C   LIG d   1       5.401  -0.586  -4.786  0.00  0.00    -0.030 C 
ATOM     18  H   LIG d   1       5.899  -1.513  -4.505  0.00  0.00     0.031 H 
ATOM     19  C   LIG d   1       6.295   0.571  -4.291  0.00  0.00    -0.047 C 
ATOM     20  C   LIG d   1       6.074   0.508  -2.756  0.00  0.00    -0.024 C 
ATOM     21  C   LIG d   1       4.580   0.149  -2.599  0.00  0.00     0.069 C 
ATOM     22 CL   LIG d   1       5.031  -2.403 -11.276  0.00  0.00    -0.080 Cl
ATOM     23  H   LIG d   1       5.072   1.736  -8.924  0.00  0.00     0.028 H 
ATOM     24  H   LIG d   1       3.392   2.178  -8.558  0.00  0.00     0.028 H 
ATOM     25  H   LIG d   1       4.444   1.634 -11.051  0.00  0.00     0.035 H 
ATOM     26  H   LIG d   1       2.796   1.912 -10.704  0.00  0.00     0.035 H 
ATOM     27  H   LIG d   1       6.517  -1.629  -8.436  0.00  0.00     0.031 H 
ATOM     28  H   LIG d   1       5.376  -2.961  -8.747  0.00  0.00     0.031 H 
ATOM     29  H   LIG d   1       5.872  -2.663  -6.296  0.00  0.00     0.027 H 
ATOM     30  H   LIG d   1       4.144  -2.425  -6.678  0.00  0.00     0.027 H 
ATOM     31  H   LIG d   1       2.555  -1.031  -6.048  0.00  0.00     0.027 H 
ATOM     32  H   LIG d   1       2.024   0.629  -6.421  0.00  0.00     0.027 H 
ATOM     33  H   LIG d   1       3.467   1.458  -4.538  0.00  0.00     0.027 H 
ATOM     34  H   LIG d   1       2.169   0.372  -3.991  0.00  0.00     0.027 H 
ATOM     35  H   LIG d   1       7.340   0.390  -4.543  0.00  0.00     0.027 H 
ATOM     36  H   LIG d   1       5.956   1.524  -4.696  0.00  0.00     0.027 H 
ATOM     37  H   LIG d   1       6.700  -0.266  -2.312  0.00  0.00     0.029 H 
ATOM     38  H   LIG d   1       6.284   1.475  -2.301  0.00  0.00     0.029 H 
ENDROOT
BRANCH  21  39
ATOM     39  C   LIG d   1       3.762   1.413  -2.330  0.00  0.00    -0.036 C 
ATOM     40  H   LIG d   1       4.252   2.269  -2.798  0.00  0.00     0.026 H 
ATOM     41  H   LIG d   1       2.762   1.295  -2.747  0.00  0.00     0.026 H 
ATOM     42  H   LIG d   1       3.691   1.579  -1.255  0.00  0.00     0.026 H 
ENDBRANCH  21  39
BRANCH  21  43
ATOM     43  O   LIG d   1       4.411  -0.781  -1.526  0.00  0.00    -0.388 OA
ATOM     44  H   LIG d   1       5.235  -1.189  -1.227  0.00  0.00     0.210 HD
ENDBRANCH  21  43
BRANCH  16  45
ATOM     45  C   LIG d   1       3.545  -1.889  -3.713  0.00  0.00    -0.057 C 
ATOM     46  H   LIG d   1       2.549  -1.935  -4.152  0.00  0.00     0.024 H 
ATOM     47  H   LIG d   1       4.184  -2.636  -4.183  0.00  0.00     0.024 H 
ATOM     48  H   LIG d   1       3.480  -2.087  -2.643  0.00  0.00     0.024 H 
ENDBRANCH  16  45
BRANCH   1  49
ATOM     49  C   LIG d   1       2.355  -0.236  -8.408  0.00  0.00    -0.056 C 
ATOM     50  H   LIG d   1       2.189  -1.287  -8.173  0.00  0.00     0.024 H 
ATOM     51  H   LIG d   1       1.790   0.385  -7.713  0.00  0.00     0.024 H 
ATOM     52  H   LIG d   1       2.023  -0.034  -9.426  0.00  0.00     0.024 H 
ENDBRANCH   1  49
TORSDOF 4
ENDMDL
MODEL 3
REMARK VINA RESULT:      -6.2      4.201      6.583
REMARK  4 active torsions:
REMARK  status: ('A' for Active; 'I' for Inactive)
REMARK    1  A    between atoms: C_1  and  C_2 
REMARK    2  A    between atoms: C_17  and  C_25 
REMARK    3  A    between atoms: C_22  and  C_23 
REMARK    4  A    between atoms: C_22  and  O_24 
ROOT
ATOM      1  C   LIG d   1       4.928  -0.829  -5.789  0.00  0.00    -0.006 C 
ATOM      2  C   LIG d   1       6.387  -0.507  -5.425  0.00  0.00    -0.037 C 
ATOM      3  C   LIG d   1       6.655  -0.730  -3.938  0.00  0.00     0.012 C 
ATOM      4  C   LIG d   1       5.368  -1.056  -3.216  0.00  0.00     0.174 C 
ATOM      5  O   LIG d   1       5.306  -1.945  -2.393  0.00  0.00    -0.291 OA
ATOM      6  C   LIG d   1       4.185  -0.237  -3.566  0.00  0.00     0.083 C 
ATOM      7  C   LIG d   1       3.984  -0.115  -4.900  0.00  0.00    -0.042 C 
ATOM      8  C   LIG d   1       2.825   0.704  -5.388  0.00  0.00    -0.029 C 
ATOM      9  C   LIG d   1       2.432   0.227  -6.790  0.00  0.00    -0.046 C 
ATOM     10  C   LIG d   1       3.676   0.326  -7.673  0.00  0.00    -0.034 C 
ATOM     11  H   LIG d   1       4.113   1.302  -7.459  0.00  0.00     0.031 H 
ATOM     12  C   LIG d   1       4.715  -0.687  -7.274  0.00  0.00    -0.029 C 
ATOM     13  H   LIG d   1       5.662  -0.359  -7.704  0.00  0.00     0.031 H 
ATOM     14  C   LIG d   1       4.392  -2.050  -7.896  0.00  0.00    -0.049 C 
ATOM     15  C   LIG d   1       4.423  -1.897  -9.417  0.00  0.00    -0.044 C 
ATOM     16  C   LIG d   1       3.298  -0.966  -9.869  0.00  0.00    -0.000 C 
ATOM     17  C   LIG d   1       3.325   0.363  -9.124  0.00  0.00    -0.030 C 
ATOM     18  H   LIG d   1       2.324   0.786  -9.206  0.00  0.00     0.031 H 
ATOM     19  C   LIG d   1       4.261   1.266  -9.955  0.00  0.00    -0.047 C 
ATOM     20  C   LIG d   1       3.847   0.903 -11.406  0.00  0.00    -0.024 C 
ATOM     21  C   LIG d   1       3.569  -0.616 -11.355  0.00  0.00     0.069 C 
ATOM     22 CL   LIG d   1       3.154   0.497  -2.378  0.00  0.00    -0.080 Cl
ATOM     23  H   LIG d   1       6.592   0.534  -5.671  0.00  0.00     0.028 H 
ATOM     24  H   LIG d   1       7.051  -1.147  -6.005  0.00  0.00     0.028 H 
ATOM     25  H   LIG d   1       7.049   0.100  -3.543  0.00  0.00     0.035 H 
ATOM     26  H   LIG d   1       7.354  -1.557  -3.820  0.00  0.00     0.035 H 
ATOM     27  H   LIG d   1       3.112   1.755  -5.426  0.00  0.00     0.031 H 
ATOM     28  H   LIG d   1       1.981   0.580  -4.711  0.00  0.00     0.031 H 
ATOM     29  H   LIG d   1       1.643   0.864  -7.191  0.00  0.00     0.027 H 
ATOM     30  H   LIG d   1       2.090  -0.807  -6.748  0.00  0.00     0.027 H 
ATOM     31  H   LIG d   1       3.402  -2.374  -7.578  0.00  0.00     0.027 H 
ATOM     32  H   LIG d   1       5.137  -2.783  -7.585  0.00  0.00     0.027 H 
ATOM     33  H   LIG d   1       5.383  -1.478  -9.719  0.00  0.00     0.027 H 
ATOM     34  H   LIG d   1       4.293  -2.874  -9.881  0.00  0.00     0.027 H 
ATOM     35  H   LIG d   1       4.071   2.320  -9.747  0.00  0.00     0.027 H 
ATOM     36  H   LIG d   1       5.306   1.016  -9.772  0.00  0.00     0.027 H 
ATOM     37  H   LIG d   1       2.947   1.445 -11.692  0.00  0.00     0.029 H 
ATOM     38  H   LIG d   1       4.659   1.120 -12.099  0.00  0.00     0.029 H 
ENDROOT
BRANCH  21  39
ATOM     39  C   LIG d   1       4.788  -1.389 -11.863  0.00  0.00    -0.036 C 
ATOM     40  H   LIG d   1       4.459  -2.316 -12.334  0.00  0.00     0.026 H 
ATOM     41  H   LIG d   1       5.325  -0.782 -12.592  0.00  0.00     0.026 H 
ATOM     42  H   LIG d   1       5.446  -1.620 -11.025  0.00  0.00     0.026 H 
ENDBRANCH  21  39
BRANCH  21  43
ATOM     43  O   LIG d   1       2.424  -0.929 -12.151  0.00  0.00    -0.388 OA
ATOM     44  H   LIG d   1       1.596  -0.961 -11.652  0.00  0.00     0.210 HD
ENDBRANCH  21  43
BRANCH  16  45
ATOM     45  C   LIG d   1       1.939  -1.647  -9.699  0.00  0.00    -0.057 C 
ATOM     46  H   LIG d   1       1.277  -1.344 -10.511  0.00  0.00     0.024 H 
ATOM     47  H   LIG d   1       2.069  -2.728  -9.722  0.00  0.00     0.024 H 
ATOM     48  H   LIG d   1       1.501  -1.351  -8.745  0.00  0.00     0.024 H 
ENDBRANCH  16  45
BRANCH   1  49
ATOM     49  C   LIG d   1       4.754  -2.316  -5.477  0.00  0.00    -0.056 C 
ATOM     50  H   LIG d   1       4.554  -2.443  -4.413  0.00  0.00     0.024 H 
ATOM     51  H   LIG d   1       3.919  -2.713  -6.054  0.00  0.00     0.024 H 
ATOM     52  H   LIG d   1       5.665  -2.852  -5.742  0.00  0.00     0.024 H 
ENDBRANCH   1  49
TORSDOF 4
ENDMDL
MODEL 4
REMARK VINA RESULT:      -6.1      2.761      6.155
REMARK  4 active torsions:
REMARK  status: ('A' for Active; 'I' for Inactive)
REMARK    1  A    between atoms: C_1  and  C_2 
REMARK    2  A    between atoms: C_17  and  C_25 
REMARK    3  A    between atoms: C_22  and  C_23 
REMARK    4  A    between atoms: C_22  and  O_24 
ROOT
ATOM      1  C   LIG d   1       5.448  -1.524  -3.814  0.00  0.00    -0.006 C 
ATOM      2  C   LIG d   1       5.008  -1.585  -2.342  0.00  0.00    -0.037 C 
ATOM      3  C   LIG d   1       4.668  -0.197  -1.801  0.00  0.00     0.012 C 
ATOM      4  C   LIG d   1       5.010   0.861  -2.823  0.00  0.00     0.174 C 
ATOM      5  O   LIG d   1       4.259   1.784  -3.062  0.00  0.00    -0.291 OA
ATOM      6  C   LIG d   1       6.308   0.716  -3.521  0.00  0.00     0.083 C 
ATOM      7  C   LIG d   1       6.526  -0.528  -4.010  0.00  0.00    -0.042 C 
ATOM      8  C   LIG d   1       7.813  -0.812  -4.727  0.00  0.00    -0.029 C 
ATOM      9  C   LIG d   1       7.604  -1.995  -5.679  0.00  0.00    -0.046 C 
ATOM     10  C   LIG d   1       7.087  -3.168  -4.846  0.00  0.00    -0.034 C 
ATOM     11  H   LIG d   1       7.720  -3.201  -3.959  0.00  0.00     0.031 H 
ATOM     12  C   LIG d   1       5.690  -2.913  -4.347  0.00  0.00    -0.029 C 
ATOM     13  H   LIG d   1       5.514  -3.607  -3.524  0.00  0.00     0.031 H 
ATOM     14  C   LIG d   1       4.668  -3.249  -5.438  0.00  0.00    -0.049 C 
ATOM     15  C   LIG d   1       4.800  -4.734  -5.772  0.00  0.00    -0.044 C 
ATOM     16  C   LIG d   1       6.168  -5.007  -6.397  0.00  0.00    -0.000 C 
ATOM     17  C   LIG d   1       7.305  -4.475  -5.534  0.00  0.00    -0.030 C 
ATOM     18  H   LIG d   1       8.166  -4.356  -6.192  0.00  0.00     0.031 H 
ATOM     19  C   LIG d   1       7.639  -5.626  -4.562  0.00  0.00    -0.047 C 
ATOM     20  C   LIG d   1       7.540  -6.865  -5.492  0.00  0.00    -0.024 C 
ATOM     21  C   LIG d   1       6.353  -6.547  -6.428  0.00  0.00     0.069 C 
ATOM     22 CL   LIG d   1       7.443   2.018  -3.696  0.00  0.00    -0.080 Cl
ATOM     23  H   LIG d   1       5.816  -2.010  -1.748  0.00  0.00     0.028 H 
ATOM     24  H   LIG d   1       4.130  -2.225  -2.256  0.00  0.00     0.028 H 
ATOM     25  H   LIG d   1       5.193  -0.028  -0.968  0.00  0.00     0.035 H 
ATOM     26  H   LIG d   1       3.603  -0.152  -1.577  0.00  0.00     0.035 H 
ATOM     27  H   LIG d   1       8.587  -1.060  -4.001  0.00  0.00     0.031 H 
ATOM     28  H   LIG d   1       8.113   0.066  -5.298  0.00  0.00     0.031 H 
ATOM     29  H   LIG d   1       8.550  -2.264  -6.149  0.00  0.00     0.027 H 
ATOM     30  H   LIG d   1       6.871  -1.732  -6.442  0.00  0.00     0.027 H 
ATOM     31  H   LIG d   1       4.869  -2.651  -6.326  0.00  0.00     0.027 H 
ATOM     32  H   LIG d   1       3.660  -3.041  -5.075  0.00  0.00     0.027 H 
ATOM     33  H   LIG d   1       4.696  -5.321  -4.859  0.00  0.00     0.027 H 
ATOM     34  H   LIG d   1       4.017  -5.018  -6.475  0.00  0.00     0.027 H 
ATOM     35  H   LIG d   1       8.648  -5.518  -4.163  0.00  0.00     0.027 H 
ATOM     36  H   LIG d   1       6.906  -5.681  -3.758  0.00  0.00     0.027 H 
ATOM     37  H   LIG d   1       8.458  -6.984  -6.067  0.00  0.00     0.029 H 
ATOM     38  H   LIG d   1       7.336  -7.763  -4.909  0.00  0.00     0.029 H 
ENDROOT
BRANCH  21  39
ATOM     39  C   LIG d   1       5.086  -7.238  -5.923  0.00  0.00    -0.036 C 
ATOM     40  H   LIG d   1       4.942  -8.173  -6.466  0.00  0.00     0.026 H 
ATOM     41  H   LIG d   1       5.187  -7.449  -4.858  0.00  0.00     0.026 H 
ATOM     42  H   LIG d   1       4.227  -6.587  -6.086  0.00  0.00     0.026 H 
ENDBRANCH  21  39
BRANCH  21  43
ATOM     43  O   LIG d   1       6.651  -6.980  -7.758  0.00  0.00    -0.388 OA
ATOM     44  H   LIG d   1       6.139  -6.526  -8.442  0.00  0.00     0.210 HD
ENDBRANCH  21  43
BRANCH  16  45
ATOM     45  C   LIG d   1       6.241  -4.412  -7.805  0.00  0.00    -0.057 C 
ATOM     46  H   LIG d   1       7.209  -3.928  -7.945  0.00  0.00     0.024 H 
ATOM     47  H   LIG d   1       6.123  -5.206  -8.542  0.00  0.00     0.024 H 
ATOM     48  H   LIG d   1       5.446  -3.677  -7.930  0.00  0.00     0.024 H 
ENDBRANCH  16  45
BRANCH   1  49
ATOM     49  C   LIG d   1       4.236  -0.986  -4.574  0.00  0.00    -0.056 C 
ATOM     50  H   LIG d   1       4.328  -1.239  -5.631  0.00  0.00     0.024 H 
ATOM     51  H   LIG d   1       3.326  -1.432  -4.172  0.00  0.00     0.024 H 
ATOM     52  H   LIG d   1       4.189   0.097  -4.463  0.00  0.00     0.024 H 
ENDBRANCH   1  49
TORSDOF 4
ENDMDL
MODEL 5
REMARK VINA RESULT:      -6.1      1.443      2.438
REMARK  4 active torsions:
REMARK  status: ('A' for Active; 'I' for Inactive)
REMARK    1  A    between atoms: C_1  and  C_2 
REMARK    2  A    between atoms: C_17  and  C_25 
REMARK    3  A    between atoms: C_22  and  C_23 
REMARK    4  A    between atoms: C_22  and  O_24 
ROOT
ATOM      1  C   LIG d   1       7.797  -3.395  -4.842  0.00  0.00    -0.006 C 
ATOM      2  C   LIG d   1       7.356  -4.834  -5.152  0.00  0.00    -0.037 C 
ATOM      3  C   LIG d   1       8.556  -5.770  -5.293  0.00  0.00     0.012 C 
ATOM      4  C   LIG d   1       9.844  -4.981  -5.240  0.00  0.00     0.174 C 
ATOM      5  O   LIG d   1      10.797  -5.360  -4.591  0.00  0.00    -0.291 OA
ATOM      6  C   LIG d   1       9.884  -3.722  -6.017  0.00  0.00     0.083 C 
ATOM      7  C   LIG d   1       8.810  -2.923  -5.813  0.00  0.00    -0.042 C 
ATOM      8  C   LIG d   1       8.721  -1.621  -6.554  0.00  0.00    -0.029 C 
ATOM      9  C   LIG d   1       7.827  -0.658  -5.767  0.00  0.00    -0.046 C 
ATOM     10  C   LIG d   1       6.478  -1.348  -5.563  0.00  0.00    -0.034 C 
ATOM     11  H   LIG d   1       6.215  -1.773  -6.532  0.00  0.00     0.031 H 
ATOM     12  C   LIG d   1       6.595  -2.514  -4.619  0.00  0.00    -0.029 C 
ATOM     13  H   LIG d   1       5.711  -3.135  -4.769  0.00  0.00     0.031 H 
ATOM     14  C   LIG d   1       6.555  -2.027  -3.167  0.00  0.00    -0.049 C 
ATOM     15  C   LIG d   1       5.207  -1.345  -2.932  0.00  0.00    -0.044 C 
ATOM     16  C   LIG d   1       5.106  -0.083  -3.788  0.00  0.00    -0.000 C 
ATOM     17  C   LIG d   1       5.394  -0.367  -5.257  0.00  0.00    -0.030 C 
ATOM     18  H   LIG d   1       5.680   0.584  -5.707  0.00  0.00     0.031 H 
ATOM     19  C   LIG d   1       4.030  -0.758  -5.863  0.00  0.00    -0.047 C 
ATOM     20  C   LIG d   1       3.076   0.253  -5.174  0.00  0.00    -0.024 C 
ATOM     21  C   LIG d   1       3.627   0.382  -3.737  0.00  0.00     0.069 C 
ATOM     22 CL   LIG d   1      11.187  -3.309  -7.088  0.00  0.00    -0.080 Cl
ATOM     23  H   LIG d   1       6.791  -4.838  -6.084  0.00  0.00     0.028 H 
ATOM     24  H   LIG d   1       6.717  -5.196  -4.347  0.00  0.00     0.028 H 
ATOM     25  H   LIG d   1       8.503  -6.249  -6.169  0.00  0.00     0.035 H 
ATOM     26  H   LIG d   1       8.542  -6.494  -4.480  0.00  0.00     0.035 H 
ATOM     27  H   LIG d   1       8.293  -1.793  -7.542  0.00  0.00     0.031 H 
ATOM     28  H   LIG d   1       9.718  -1.192  -6.657  0.00  0.00     0.031 H 
ATOM     29  H   LIG d   1       7.689   0.265  -6.331  0.00  0.00     0.027 H 
ATOM     30  H   LIG d   1       8.280  -0.438  -4.800  0.00  0.00     0.027 H 
ATOM     31  H   LIG d   1       7.362  -1.316  -2.996  0.00  0.00     0.027 H 
ATOM     32  H   LIG d   1       6.661  -2.875  -2.491  0.00  0.00     0.027 H 
ATOM     33  H   LIG d   1       4.403  -2.031  -3.201  0.00  0.00     0.027 H 
ATOM     34  H   LIG d   1       5.116  -1.077  -1.879  0.00  0.00     0.027 H 
ATOM     35  H   LIG d   1       4.030  -0.620  -6.944  0.00  0.00     0.027 H 
ATOM     36  H   LIG d   1       3.768  -1.783  -5.601  0.00  0.00     0.027 H 
ATOM     37  H   LIG d   1       3.109   1.216  -5.682  0.00  0.00     0.029 H 
ATOM     38  H   LIG d   1       2.057  -0.134  -5.159  0.00  0.00     0.029 H 
ENDROOT
BRANCH  21  39
ATOM     39  C   LIG d   1       2.828  -0.512  -2.787  0.00  0.00    -0.036 C 
ATOM     40  H   LIG d   1       3.503  -0.960  -2.056  0.00  0.00     0.026 H 
ATOM     41  H   LIG d   1       2.078   0.087  -2.269  0.00  0.00     0.026 H 
ATOM     42  H   LIG d   1       2.335  -1.300  -3.357  0.00  0.00     0.026 H 
ENDBRANCH  21  39
BRANCH  21  43
ATOM     43  O   LIG d   1       3.554   1.743  -3.306  0.00  0.00    -0.388 OA
ATOM     44  H   LIG d   1       2.873   1.908  -2.640  0.00  0.00     0.210 HD
ENDBRANCH  21  43
BRANCH  16  45
ATOM     45  C   LIG d   1       6.046   1.001  -3.258  0.00  0.00    -0.057 C 
ATOM     46  H   LIG d   1       5.470   1.742  -2.703  0.00  0.00     0.024 H 
ATOM     47  H   LIG d   1       6.786   0.549  -2.598  0.00  0.00     0.024 H 
ATOM     48  H   LIG d   1       6.550   1.485  -4.094  0.00  0.00     0.024 H 
ENDBRANCH  16  45
BRANCH   1  49
ATOM     49  C   LIG d   1       8.516  -3.476  -3.494  0.00  0.00    -0.056 C 
ATOM     50  H   LIG d   1       8.774  -4.514  -3.281  0.00  0.00     0.024 H 
ATOM     51  H   LIG d   1       9.425  -2.876  -3.530  0.00  0.00     0.024 H 
ATOM     52  H   LIG d   1       7.862  -3.097  -2.710  0.00  0.00     0.024 H 
ENDBRANCH   1  49
TORSDOF 4
ENDMDL
MODEL 6
REMARK VINA RESULT:      -5.8      2.378      6.513
REMARK  4 active torsions:
REMARK  status: ('A' for Active; 'I' for Inactive)
REMARK    1  A    between atoms: C_1  and  C_2 
REMARK    2  A    between atoms: C_17  and  C_25 
REMARK    3  A    between atoms: C_22  and  C_23 
REMARK    4  A    between atoms: C_22  and  O_24 
ROOT
ATOM      1  C   LIG d   1       5.712  -0.996  -3.804  0.00  0.00    -0.006 C 
ATOM      2  C   LIG d   1       5.659   0.014  -2.647  0.00  0.00    -0.037 C 
ATOM      3  C   LIG d   1       4.222   0.411  -2.315  0.00  0.00     0.012 C 
ATOM      4  C   LIG d   1       3.267  -0.187  -3.322  0.00  0.00     0.174 C 
ATOM      5  O   LIG d   1       2.224  -0.706  -2.982  0.00  0.00    -0.291 OA
ATOM      6  C   LIG d   1       3.669  -0.110  -4.745  0.00  0.00     0.083 C 
ATOM      7  C   LIG d   1       4.941  -0.515  -4.973  0.00  0.00    -0.042 C 
ATOM      8  C   LIG d   1       5.477  -0.471  -6.374  0.00  0.00    -0.029 C 
ATOM      9  C   LIG d   1       6.617  -1.486  -6.504  0.00  0.00    -0.046 C 
ATOM     10  C   LIG d   1       7.655  -1.150  -5.433  0.00  0.00    -0.034 C 
ATOM     11  H   LIG d   1       7.790  -0.069  -5.482  0.00  0.00     0.031 H 
ATOM     12  C   LIG d   1       7.131  -1.438  -4.052  0.00  0.00    -0.029 C 
ATOM     13  H   LIG d   1       7.763  -0.891  -3.351  0.00  0.00     0.031 H 
ATOM     14  C   LIG d   1       7.289  -2.926  -3.725  0.00  0.00    -0.049 C 
ATOM     15  C   LIG d   1       8.779  -3.265  -3.759  0.00  0.00    -0.044 C 
ATOM     16  C   LIG d   1       9.318  -3.100  -5.180  0.00  0.00    -0.000 C 
ATOM     17  C   LIG d   1       8.994  -1.727  -5.756  0.00  0.00    -0.030 C 
ATOM     18  H   LIG d   1       9.053  -1.824  -6.840  0.00  0.00     0.031 H 
ATOM     19  C   LIG d   1      10.167  -0.825  -5.322  0.00  0.00    -0.047 C 
ATOM     20  C   LIG d   1      11.383  -1.769  -5.522  0.00  0.00    -0.024 C 
ATOM     21  C   LIG d   1      10.865  -3.158  -5.088  0.00  0.00     0.069 C 
ATOM     22 CL   LIG d   1       2.608   0.447  -6.002  0.00  0.00    -0.080 Cl
ATOM     23  H   LIG d   1       6.217   0.906  -2.931  0.00  0.00     0.028 H 
ATOM     24  H   LIG d   1       6.119  -0.427  -1.764  0.00  0.00     0.028 H 
ATOM     25  H   LIG d   1       4.138   1.407  -2.337  0.00  0.00     0.035 H 
ATOM     26  H   LIG d   1       3.972   0.046  -1.319  0.00  0.00     0.035 H 
ATOM     27  H   LIG d   1       5.852   0.530  -6.589  0.00  0.00     0.031 H 
ATOM     28  H   LIG d   1       4.683  -0.723  -7.076  0.00  0.00     0.031 H 
ATOM     29  H   LIG d   1       7.070  -1.411  -7.493  0.00  0.00     0.027 H 
ATOM     30  H   LIG d   1       6.236  -2.495  -6.345  0.00  0.00     0.027 H 
ATOM     31  H   LIG d   1       6.758  -3.523  -4.465  0.00  0.00     0.027 H 
ATOM     32  H   LIG d   1       6.888  -3.130  -2.731  0.00  0.00     0.027 H 
ATOM     33  H   LIG d   1       9.318  -2.595  -3.088  0.00  0.00     0.027 H 
ATOM     34  H   LIG d   1       8.924  -4.295  -3.433  0.00  0.00     0.027 H 
ATOM     35  H   LIG d   1      10.244   0.051  -5.966  0.00  0.00     0.027 H 
ATOM     36  H   LIG d   1      10.067  -0.533  -4.277  0.00  0.00     0.027 H 
ATOM     37  H   LIG d   1      11.685  -1.785  -6.568  0.00  0.00     0.029 H 
ATOM     38  H   LIG d   1      12.215  -1.458  -4.890  0.00  0.00     0.029 H 
ENDROOT
BRANCH  21  39
ATOM     39  C   LIG d   1      11.295  -3.452  -3.650  0.00  0.00    -0.036 C 
ATOM     40  H   LIG d   1      12.317  -3.103  -3.497  0.00  0.00     0.026 H 
ATOM     41  H   LIG d   1      10.628  -2.937  -2.958  0.00  0.00     0.026 H 
ATOM     42  H   LIG d   1      11.248  -4.527  -3.469  0.00  0.00     0.026 H 
ENDBRANCH  21  39
BRANCH  21  43
ATOM     43  O   LIG d   1      11.373  -4.165  -5.967  0.00  0.00    -0.388 OA
ATOM     44  H   LIG d   1      11.239  -5.068  -5.647  0.00  0.00     0.210 HD
ENDBRANCH  21  43
BRANCH  16  45
ATOM     45  C   LIG d   1       8.775  -4.204  -6.089  0.00  0.00    -0.057 C 
ATOM     46  H   LIG d   1       8.220  -3.756  -6.914  0.00  0.00     0.024 H 
ATOM     47  H   LIG d   1       9.605  -4.788  -6.486  0.00  0.00     0.024 H 
ATOM     48  H   LIG d   1       8.113  -4.853  -5.516  0.00  0.00     0.024 H 
ENDBRANCH  16  45
BRANCH   1  49
ATOM     49  C   LIG d   1       4.969  -2.232  -3.293  0.00  0.00    -0.056 C 
ATOM     50  H   LIG d   1       3.970  -1.945  -2.964  0.00  0.00     0.024 H 
ATOM     51  H   LIG d   1       4.890  -2.966  -4.095  0.00  0.00     0.024 H 
ATOM     52  H   LIG d   1       5.516  -2.665  -2.457  0.00  0.00     0.024 H 
ENDBRANCH   1  49
TORSDOF 4
ENDMDL
MODEL 7
REMARK VINA RESULT:      -5.8      4.139      6.359
REMARK  4 active torsions:
REMARK  status: ('A' for Active; 'I' for Inactive)
REMARK    1  A    between atoms: C_1  and  C_2 
REMARK    2  A    between atoms: C_17  and  C_25 
REMARK    3  A    between atoms: C_22  and  C_23 
REMARK    4  A    between atoms: C_22  and  O_24 
ROOT
ATOM      1  C   LIG d   1       4.244  -0.642  -5.166  0.00  0.00    -0.006 C 
ATOM      2  C   LIG d   1       3.881  -1.823  -4.252  0.00  0.00    -0.037 C 
ATOM      3  C   LIG d   1       4.173  -1.507  -2.786  0.00  0.00     0.012 C 
ATOM      4  C   LIG d   1       4.882  -0.178  -2.668  0.00  0.00     0.174 C 
ATOM      5  O   LIG d   1       4.573   0.636  -1.822  0.00  0.00    -0.291 OA
ATOM      6  C   LIG d   1       5.970   0.084  -3.637  0.00  0.00     0.083 C 
ATOM      7  C   LIG d   1       5.629  -0.179  -4.921  0.00  0.00    -0.042 C 
ATOM      8  C   LIG d   1       6.649   0.030  -6.001  0.00  0.00    -0.029 C 
ATOM      9  C   LIG d   1       5.926   0.269  -7.331  0.00  0.00    -0.046 C 
ATOM     10  C   LIG d   1       5.004  -0.926  -7.573  0.00  0.00    -0.034 C 
ATOM     11  H   LIG d   1       5.603  -1.810  -7.353  0.00  0.00     0.031 H 
ATOM     12  C   LIG d   1       3.863  -0.946  -6.592  0.00  0.00    -0.029 C 
ATOM     13  H   LIG d   1       3.449  -1.955  -6.605  0.00  0.00     0.031 H 
ATOM     14  C   LIG d   1       2.748  -0.003  -7.057  0.00  0.00    -0.049 C 
ATOM     15  C   LIG d   1       2.236  -0.502  -8.407  0.00  0.00    -0.044 C 
ATOM     16  C   LIG d   1       3.338  -0.379  -9.459  0.00  0.00    -0.000 C 
ATOM     17  C   LIG d   1       4.629  -1.054  -9.013  0.00  0.00    -0.030 C 
ATOM     18  H   LIG d   1       5.432  -0.608  -9.599  0.00  0.00     0.031 H 
ATOM     19  C   LIG d   1       4.494  -2.519  -9.479  0.00  0.00    -0.047 C 
ATOM     20  C   LIG d   1       3.849  -2.348 -10.880  0.00  0.00    -0.024 C 
ATOM     21  C   LIG d   1       2.864  -1.171 -10.706  0.00  0.00     0.069 C 
ATOM     22 CL   LIG d   1       7.535   0.672  -3.171  0.00  0.00    -0.080 Cl
ATOM     23  H   LIG d   1       4.464  -2.694  -4.551  0.00  0.00     0.028 H 
ATOM     24  H   LIG d   1       2.821  -2.050  -4.362  0.00  0.00     0.028 H 
ATOM     25  H   LIG d   1       4.757  -2.222  -2.402  0.00  0.00     0.035 H 
ATOM     26  H   LIG d   1       3.235  -1.467  -2.235  0.00  0.00     0.035 H 
ATOM     27  H   LIG d   1       7.280  -0.855  -6.082  0.00  0.00     0.031 H 
ATOM     28  H   LIG d   1       7.263   0.897  -5.759  0.00  0.00     0.031 H 
ATOM     29  H   LIG d   1       6.653   0.345  -8.140  0.00  0.00     0.027 H 
ATOM     30  H   LIG d   1       5.338   1.185  -7.274  0.00  0.00     0.027 H 
ATOM     31  H   LIG d   1       3.142   1.008  -7.162  0.00  0.00     0.027 H 
ATOM     32  H   LIG d   1       1.935  -0.007  -6.330  0.00  0.00     0.027 H 
ATOM     33  H   LIG d   1       1.936  -1.546  -8.317  0.00  0.00     0.027 H 
ATOM     34  H   LIG d   1       1.376   0.096  -8.711  0.00  0.00     0.027 H 
ATOM     35  H   LIG d   1       5.472  -2.994  -9.556  0.00  0.00     0.027 H 
ATOM     36  H   LIG d   1       3.840  -3.080  -8.813  0.00  0.00     0.027 H 
ATOM     37  H   LIG d   1       4.608  -2.103 -11.622  0.00  0.00     0.029 H 
ATOM     38  H   LIG d   1       3.315  -3.254 -11.166  0.00  0.00     0.029 H 
ENDROOT
BRANCH  21  39
ATOM     39  C   LIG d   1       1.446  -1.701 -10.484  0.00  0.00    -0.036 C 
ATOM     40  H   LIG d   1       0.727  -1.021 -10.942  0.00  0.00     0.026 H 
ATOM     41  H   LIG d   1       1.352  -2.688 -10.938  0.00  0.00     0.026 H 
ATOM     42  H   LIG d   1       1.248  -1.772  -9.414  0.00  0.00     0.026 H 
ENDBRANCH  21  39
BRANCH  21  43
ATOM     43  O   LIG d   1       2.897  -0.332 -11.863  0.00  0.00    -0.388 OA
ATOM     44  H   LIG d   1       2.742   0.604 -11.674  0.00  0.00     0.210 HD
ENDBRANCH  21  43
BRANCH  16  45
ATOM     45  C   LIG d   1       3.592   1.090  -9.800  0.00  0.00    -0.057 C 
ATOM     46  H   LIG d   1       2.732   1.688  -9.495  0.00  0.00     0.024 H 
ATOM     47  H   LIG d   1       4.480   1.437  -9.272  0.00  0.00     0.024 H 
ATOM     48  H   LIG d   1       3.743   1.193 -10.874  0.00  0.00     0.024 H 
ENDBRANCH  16  45
BRANCH   1  49
ATOM     49  C   LIG d   1       3.335   0.505  -4.722  0.00  0.00    -0.056 C 
ATOM     50  H   LIG d   1       2.496   0.592  -5.412  0.00  0.00     0.024 H 
ATOM     51  H   LIG d   1       2.959   0.303  -3.718  0.00  0.00     0.024 H 
ATOM     52  H   LIG d   1       3.900   1.436  -4.717  0.00  0.00     0.024 H 
ENDBRANCH   1  49
TORSDOF 4
ENDMDL
MODEL 8
REMARK VINA RESULT:      -5.7      3.340      4.713
REMARK  4 active torsions:
REMARK  status: ('A' for Active; 'I' for Inactive)
REMARK    1  A    between atoms: C_1  and  C_2 
REMARK    2  A    between atoms: C_17  and  C_25 
REMARK    3  A    between atoms: C_22  and  C_23 
REMARK    4  A    between atoms: C_22  and  O_24 
ROOT
ATOM      1  C   LIG d   1       4.877  -3.055  -7.381  0.00  0.00    -0.006 C 
ATOM      2  C   LIG d   1       3.922  -4.254  -7.503  0.00  0.00    -0.037 C 
ATOM      3  C   LIG d   1       4.191  -5.056  -8.775  0.00  0.00     0.012 C 
ATOM      4  C   LIG d   1       5.218  -4.353  -9.631  0.00  0.00     0.174 C 
ATOM      5  O   LIG d   1       6.125  -4.957 -10.164  0.00  0.00    -0.291 OA
ATOM      6  C   LIG d   1       5.063  -2.888  -9.785  0.00  0.00     0.083 C 
ATOM      7  C   LIG d   1       4.869  -2.236  -8.614  0.00  0.00    -0.042 C 
ATOM      8  C   LIG d   1       4.683  -0.747  -8.634  0.00  0.00    -0.029 C 
ATOM      9  C   LIG d   1       5.086  -0.175  -7.271  0.00  0.00    -0.046 C 
ATOM     10  C   LIG d   1       4.251  -0.890  -6.209  0.00  0.00    -0.034 C 
ATOM     11  H   LIG d   1       3.230  -0.897  -6.591  0.00  0.00     0.031 H 
ATOM     12  C   LIG d   1       4.651  -2.335  -6.076  0.00  0.00    -0.029 C 
ATOM     13  H   LIG d   1       3.834  -2.846  -5.565  0.00  0.00     0.031 H 
ATOM     14  C   LIG d   1       5.886  -2.463  -5.178  0.00  0.00    -0.049 C 
ATOM     15  C   LIG d   1       5.523  -1.931  -3.792  0.00  0.00    -0.044 C 
ATOM     16  C   LIG d   1       5.229  -0.433  -3.870  0.00  0.00    -0.000 C 
ATOM     17  C   LIG d   1       4.188  -0.112  -4.936  0.00  0.00    -0.030 C 
ATOM     18  H   LIG d   1       4.319   0.940  -5.191  0.00  0.00     0.031 H 
ATOM     19  C   LIG d   1       2.830  -0.232  -4.215  0.00  0.00    -0.047 C 
ATOM     20  C   LIG d   1       3.140   0.423  -2.842  0.00  0.00    -0.024 C 
ATOM     21  C   LIG d   1       4.582  -0.027  -2.520  0.00  0.00     0.069 C 
ATOM     22 CL   LIG d   1       5.125  -2.084 -11.323  0.00  0.00    -0.080 Cl
ATOM     23  H   LIG d   1       2.896  -3.889  -7.522  0.00  0.00     0.028 H 
ATOM     24  H   LIG d   1       4.052  -4.905  -6.638  0.00  0.00     0.028 H 
ATOM     25  H   LIG d   1       3.342  -5.149  -9.294  0.00  0.00     0.035 H 
ATOM     26  H   LIG d   1       4.562  -6.043  -8.503  0.00  0.00     0.035 H 
ATOM     27  H   LIG d   1       3.637  -0.514  -8.833  0.00  0.00     0.031 H 
ATOM     28  H   LIG d   1       5.310  -0.312  -9.412  0.00  0.00     0.031 H 
ATOM     29  H   LIG d   1       4.882   0.895  -7.243  0.00  0.00     0.027 H 
ATOM     30  H   LIG d   1       6.146  -0.356  -7.091  0.00  0.00     0.027 H 
ATOM     31  H   LIG d   1       6.705  -1.878  -5.595  0.00  0.00     0.027 H 
ATOM     32  H   LIG d   1       6.182  -3.510  -5.105  0.00  0.00     0.027 H 
ATOM     33  H   LIG d   1       4.640  -2.455  -3.424  0.00  0.00     0.027 H 
ATOM     34  H   LIG d   1       6.355  -2.102  -3.110  0.00  0.00     0.027 H 
ATOM     35  H   LIG d   1       2.056   0.323  -4.746  0.00  0.00     0.027 H 
ATOM     36  H   LIG d   1       2.545  -1.277  -4.093  0.00  0.00     0.027 H 
ATOM     37  H   LIG d   1       3.088   1.509  -2.918  0.00  0.00     0.029 H 
ATOM     38  H   LIG d   1       2.448   0.061  -2.082  0.00  0.00     0.029 H 
ENDROOT
BRANCH  21  39
ATOM     39  C   LIG d   1       4.557  -1.225  -1.569  0.00  0.00    -0.036 C 
ATOM     40  H   LIG d   1       4.211  -2.109  -2.107  0.00  0.00     0.026 H 
ATOM     41  H   LIG d   1       5.560  -1.404  -1.183  0.00  0.00     0.026 H 
ATOM     42  H   LIG d   1       3.879  -1.017  -0.740  0.00  0.00     0.026 H 
ENDBRANCH  21  39
BRANCH  21  43
ATOM     43  O   LIG d   1       5.311   1.052  -1.930  0.00  0.00    -0.388 OA
ATOM     44  H   LIG d   1       5.697   0.840  -1.070  0.00  0.00     0.210 HD
ENDBRANCH  21  43
BRANCH  16  45
ATOM     45  C   LIG d   1       6.516   0.353  -4.125  0.00  0.00    -0.057 C 
ATOM     46  H   LIG d   1       6.523   1.250  -3.507  0.00  0.00     0.024 H 
ATOM     47  H   LIG d   1       7.376  -0.267  -3.873  0.00  0.00     0.024 H 
ATOM     48  H   LIG d   1       6.566   0.636  -5.177  0.00  0.00     0.024 H 
ENDBRANCH  16  45
BRANCH   1  49
ATOM     49  C   LIG d   1       6.277  -3.663  -7.290  0.00  0.00    -0.056 C 
ATOM     50  H   LIG d   1       6.572  -4.045  -8.268  0.00  0.00     0.024 H 
ATOM     51  H   LIG d   1       6.985  -2.899  -6.971  0.00  0.00     0.024 H 
ATOM     52  H   LIG d   1       6.273  -4.479  -6.568  0.00  0.00     0.024 H 
ENDBRANCH   1  49
TORSDOF 4
ENDMDL
MODEL 9
REMARK VINA RESULT:      -5.7      3.230      4.570
REMARK  4 active torsions:
REMARK  status: ('A' for Active; 'I' for Inactive)
REMARK    1  A    between atoms: C_1  and  C_2 
REMARK    2  A    between atoms: C_17  and  C_25 
REMARK    3  A    between atoms: C_22  and  C_23 
REMARK    4  A    between atoms: C_22  and  O_24 
ROOT
ATOM      1  C   LIG d   1       7.513   0.118  -7.032  0.00  0.00    -0.006 C 
ATOM      2  C   LIG d   1       7.490   1.578  -7.510  0.00  0.00    -0.037 C 
ATOM      3  C   LIG d   1       8.424   1.793  -8.699  0.00  0.00     0.012 C 
ATOM      4  C   LIG d   1       9.224   0.540  -8.970  0.00  0.00     0.174 C 
ATOM      5  O   LIG d   1       9.392   0.122 -10.097  0.00  0.00    -0.291 OA
ATOM      6  C   LIG d   1       9.792  -0.153  -7.792  0.00  0.00     0.083 C 
ATOM      7  C   LIG d   1       8.898  -0.347  -6.792  0.00  0.00    -0.042 C 
ATOM      8  C   LIG d   1       9.351  -1.026  -5.533  0.00  0.00    -0.029 C 
ATOM      9  C   LIG d   1       8.140  -1.667  -4.848  0.00  0.00    -0.046 C 
ATOM     10  C   LIG d   1       7.106  -0.565  -4.620  0.00  0.00    -0.034 C 
ATOM     11  H   LIG d   1       7.662   0.281  -4.214  0.00  0.00     0.031 H 
ATOM     12  C   LIG d   1       6.517  -0.086  -5.919  0.00  0.00    -0.029 C 
ATOM     13  H   LIG d   1       6.055   0.882  -5.722  0.00  0.00     0.031 H 
ATOM     14  C   LIG d   1       5.399  -1.029  -6.373  0.00  0.00    -0.049 C 
ATOM     15  C   LIG d   1       4.302  -1.013  -5.309  0.00  0.00    -0.044 C 
ATOM     16  C   LIG d   1       4.833  -1.609  -4.005  0.00  0.00    -0.000 C 
ATOM     17  C   LIG d   1       6.125  -0.937  -3.557  0.00  0.00    -0.030 C 
ATOM     18  H   LIG d   1       6.623  -1.636  -2.885  0.00  0.00     0.031 H 
ATOM     19  C   LIG d   1       5.673   0.263  -2.699  0.00  0.00    -0.047 C 
ATOM     20  C   LIG d   1       4.493  -0.348  -1.896  0.00  0.00    -0.024 C 
ATOM     21  C   LIG d   1       3.791  -1.287  -2.902  0.00  0.00     0.069 C 
ATOM     22 CL   LIG d   1      11.447  -0.669  -7.700  0.00  0.00    -0.080 Cl
ATOM     23  H   LIG d   1       7.803   2.224  -6.690  0.00  0.00     0.028 H 
ATOM     24  H   LIG d   1       6.475   1.844  -7.804  0.00  0.00     0.028 H 
ATOM     25  H   LIG d   1       9.053   2.544  -8.497  0.00  0.00     0.035 H 
ATOM     26  H   LIG d   1       7.833   2.041  -9.579  0.00  0.00     0.035 H 
ATOM     27  H   LIG d   1       9.803  -0.292  -4.866  0.00  0.00     0.031 H 
ATOM     28  H   LIG d   1      10.082  -1.796  -5.778  0.00  0.00     0.031 H 
ATOM     29  H   LIG d   1       8.440  -2.097  -3.892  0.00  0.00     0.027 H 
ATOM     30  H   LIG d   1       7.719  -2.442  -5.489  0.00  0.00     0.027 H 
ATOM     31  H   LIG d   1       5.791  -2.040  -6.483  0.00  0.00     0.027 H 
ATOM     32  H   LIG d   1       4.992  -0.687  -7.326  0.00  0.00     0.027 H 
ATOM     33  H   LIG d   1       3.983   0.015  -5.134  0.00  0.00     0.027 H 
ATOM     34  H   LIG d   1       3.452  -1.600  -5.656  0.00  0.00     0.027 H 
ATOM     35  H   LIG d   1       6.471   0.588  -2.032  0.00  0.00     0.027 H 
ATOM     36  H   LIG d   1       5.333   1.085  -3.328  0.00  0.00     0.027 H 
ATOM     37  H   LIG d   1       4.865  -0.914  -1.043  0.00  0.00     0.029 H 
ATOM     38  H   LIG d   1       3.811   0.435  -1.566  0.00  0.00     0.029 H 
ENDROOT
BRANCH  21  39
ATOM     39  C   LIG d   1       2.577  -0.587  -3.515  0.00  0.00    -0.036 C 
ATOM     40  H   LIG d   1       1.691  -0.808  -2.918  0.00  0.00     0.026 H 
ATOM     41  H   LIG d   1       2.747   0.490  -3.528  0.00  0.00     0.026 H 
ATOM     42  H   LIG d   1       2.427  -0.944  -4.534  0.00  0.00     0.026 H 
ENDBRANCH  21  39
BRANCH  21  43
ATOM     43  O   LIG d   1       3.384  -2.489  -2.245  0.00  0.00    -0.388 OA
ATOM     44  H   LIG d   1       3.569  -3.294  -2.749  0.00  0.00     0.210 HD
ENDBRANCH  21  43
BRANCH  16  45
ATOM     45  C   LIG d   1       5.038  -3.118  -4.151  0.00  0.00    -0.057 C 
ATOM     46  H   LIG d   1       6.103  -3.345  -4.116  0.00  0.00     0.024 H 
ATOM     47  H   LIG d   1       4.530  -3.634  -3.336  0.00  0.00     0.024 H 
ATOM     48  H   LIG d   1       4.626  -3.450  -5.104  0.00  0.00     0.024 H 
ENDBRANCH  16  45
BRANCH   1  49
ATOM     49  C   LIG d   1       6.996  -0.702  -8.216  0.00  0.00    -0.056 C 
ATOM     50  H   LIG d   1       7.790  -1.355  -8.580  0.00  0.00     0.024 H 
ATOM     51  H   LIG d   1       6.147  -1.306  -7.897  0.00  0.00     0.024 H 
ATOM     52  H   LIG d   1       6.684  -0.029  -9.014  0.00  0.00     0.024 H 
ENDBRANCH   1  49
TORSDOF 4
ENDMDL
MODEL 10
REMARK VINA RESULT:      -5.6      4.213      6.314
REMARK  4 active torsions:
REMARK  status: ('A' for Active; 'I' for Inactive)
REMARK    1  A    between atoms: C_1  and  C_2 
REMARK    2  A    between atoms: C_17  and  C_25 
REMARK    3  A    between atoms: C_22  and  C_23 
REMARK    4  A    between atoms: C_22  and  O_24 
ROOT
ATOM      1  C   LIG d   1       3.964  -2.672  -8.579  0.00  0.00    -0.006 C 
ATOM      2  C   LIG d   1       3.388  -4.094  -8.677  0.00  0.00    -0.037 C 
ATOM      3  C   LIG d   1       2.763  -4.352 -10.047  0.00  0.00     0.012 C 
ATOM      4  C   LIG d   1       2.750  -3.081 -10.864  0.00  0.00     0.174 C 
ATOM      5  O   LIG d   1       3.065  -3.074 -12.036  0.00  0.00    -0.291 OA
ATOM      6  C   LIG d   1       2.337  -1.844 -10.164  0.00  0.00     0.083 C 
ATOM      7  C   LIG d   1       2.961  -1.659  -8.976  0.00  0.00    -0.042 C 
ATOM      8  C   LIG d   1       2.619  -0.448  -8.158  0.00  0.00    -0.029 C 
ATOM      9  C   LIG d   1       3.799  -0.119  -7.236  0.00  0.00    -0.046 C 
ATOM     10  C   LIG d   1       4.091  -1.368  -6.404  0.00  0.00    -0.034 C 
ATOM     11  H   LIG d   1       3.121  -1.723  -6.053  0.00  0.00     0.031 H 
ATOM     12  C   LIG d   1       4.653  -2.475  -7.253  0.00  0.00    -0.029 C 
ATOM     13  H   LIG d   1       4.534  -3.402  -6.690  0.00  0.00     0.031 H 
ATOM     14  C   LIG d   1       6.157  -2.272  -7.461  0.00  0.00    -0.049 C 
ATOM     15  C   LIG d   1       6.837  -2.319  -6.093  0.00  0.00    -0.044 C 
ATOM     16  C   LIG d   1       6.379  -1.132  -5.245  0.00  0.00    -0.000 C 
ATOM     17  C   LIG d   1       4.860  -1.041  -5.166  0.00  0.00    -0.030 C 
ATOM     18  H   LIG d   1       4.624  -0.012  -4.899  0.00  0.00     0.031 H 
ATOM     19  C   LIG d   1       4.471  -1.918  -3.958  0.00  0.00    -0.047 C 
ATOM     20  C   LIG d   1       5.582  -1.561  -2.935  0.00  0.00    -0.024 C 
ATOM     21  C   LIG d   1       6.856  -1.402  -3.794  0.00  0.00     0.069 C 
ATOM     22 CL   LIG d   1       1.164  -0.737 -10.805  0.00  0.00    -0.080 Cl
ATOM     23  H   LIG d   1       2.626  -4.221  -7.909  0.00  0.00     0.028 H 
ATOM     24  H   LIG d   1       4.186  -4.817  -8.509  0.00  0.00     0.028 H 
ATOM     25  H   LIG d   1       1.823  -4.672  -9.928  0.00  0.00     0.035 H 
ATOM     26  H   LIG d   1       3.344  -5.111 -10.568  0.00  0.00     0.035 H 
ATOM     27  H   LIG d   1       1.733  -0.652  -7.558  0.00  0.00     0.031 H 
ATOM     28  H   LIG d   1       2.428   0.396  -8.819  0.00  0.00     0.031 H 
ATOM     29  H   LIG d   1       3.536   0.710  -6.579  0.00  0.00     0.027 H 
ATOM     30  H   LIG d   1       4.674   0.141  -7.832  0.00  0.00     0.027 H 
ATOM     31  H   LIG d   1       6.336  -1.305  -7.930  0.00  0.00     0.027 H 
ATOM     32  H   LIG d   1       6.552  -3.067  -8.096  0.00  0.00     0.027 H 
ATOM     33  H   LIG d   1       6.572  -3.248  -5.589  0.00  0.00     0.027 H 
ATOM     34  H   LIG d   1       7.918  -2.275  -6.224  0.00  0.00     0.027 H 
ATOM     35  H   LIG d   1       3.487  -1.642  -3.577  0.00  0.00     0.027 H 
ATOM     36  H   LIG d   1       4.505  -2.976  -4.217  0.00  0.00     0.027 H 
ATOM     37  H   LIG d   1       5.347  -0.626  -2.427  0.00  0.00     0.029 H 
ATOM     38  H   LIG d   1       5.707  -2.366  -2.211  0.00  0.00     0.029 H 
ENDROOT
BRANCH  21  39
ATOM     39  C   LIG d   1       7.685  -2.687  -3.744  0.00  0.00    -0.036 C 
ATOM     40  H   LIG d   1       8.676  -2.465  -3.344  0.00  0.00     0.026 H 
ATOM     41  H   LIG d   1       7.190  -3.415  -3.101  0.00  0.00     0.026 H 
ATOM     42  H   LIG d   1       7.783  -3.096  -4.750  0.00  0.00     0.026 H 
ENDBRANCH  21  39
BRANCH  21  43
ATOM     43  O   LIG d   1       7.632  -0.300  -3.318  0.00  0.00    -0.388 OA
ATOM     44  H   LIG d   1       7.158   0.279  -2.705  0.00  0.00     0.210 HD
ENDBRANCH  21  43
BRANCH  16  45
ATOM     45  C   LIG d   1       6.966   0.172  -5.787  0.00  0.00    -0.057 C 
ATOM     46  H   LIG d   1       6.157   0.830  -6.103  0.00  0.00     0.024 H 
ATOM     47  H   LIG d   1       7.547   0.661  -5.006  0.00  0.00     0.024 H 
ATOM     48  H   LIG d   1       7.610  -0.047  -6.639  0.00  0.00     0.024 H 
ENDBRANCH  16  45
BRANCH   1  49
ATOM     49  C   LIG d   1       5.064  -2.610  -9.640  0.00  0.00    -0.056 C 
ATOM     50  H   LIG d   1       6.040  -2.674  -9.156  0.00  0.00     0.024 H 
ATOM     51  H   LIG d   1       4.948  -3.442 -10.334  0.00  0.00     0.024 H 
ATOM     52  H   LIG d   1       4.990  -1.670 -10.185  0.00  0.00     0.024 H 
ENDBRANCH   1  49
TORSDOF 4
ENDMDL
