MODEL 1
REMARK VINA RESULT:      -6.7      0.000      0.000
REMARK  11 active torsions:
REMARK  status: ('A' for Active; 'I' for Inactive)
REMARK    1  A    between atoms: C_1  and  O_2 
REMARK    2  A    between atoms: O_2  and  C_3 
REMARK    3  A    between atoms: C_3  and  C_4 
REMARK       I    between atoms: N_9  and  C_10 
REMARK    4  A    between atoms: C_10  and  C_12 
REMARK    5  A    between atoms: C_12  and  C_13 
REMARK    6  A    between atoms: C_15  and  O_35 
REMARK    7  A    between atoms: C_17  and  O_34 
REMARK    8  A    between atoms: C_19  and  C_22 
REMARK    9  A    between atoms: C_22  and  N_23 
REMARK   10  A    between atoms: N_23  and  S_24 
REMARK   11  A    between atoms: S_24  and  C_27 
ROOT
ATOM      1  C   LIG d   1       7.946   0.674  -5.005  0.00  0.00     0.096 C 
ATOM      2  H   LIG d   1       8.322   1.680  -4.820  0.00  0.00     0.063 H 
ATOM      3  C   LIG d   1       9.031  -0.172  -5.698  0.00  0.00     0.110 C 
ATOM      4  H   LIG d   1       9.237  -1.074  -5.123  0.00  0.00     0.065 H 
ATOM      5  C   LIG d   1       8.412  -0.532  -7.071  0.00  0.00     0.111 C 
ATOM      6  H   LIG d   1       7.966  -1.526  -7.048  0.00  0.00     0.065 H 
ATOM      7  C   LIG d   1       7.323   0.559  -7.233  0.00  0.00     0.102 C 
ATOM      8  H   LIG d   1       7.759   1.489  -7.599  0.00  0.00     0.064 H 
ATOM      9  O   LIG d   1       6.816   0.730  -5.892  0.00  0.00    -0.366 OA
ENDROOT
BRANCH   1  10
ATOM     10  C   LIG d   1       7.539   0.017  -3.685  0.00  0.00     0.053 C 
ATOM     11  H   LIG d   1       7.456  -1.060  -3.825  0.00  0.00     0.038 H 
ATOM     12  H   LIG d   1       8.294   0.227  -2.927  0.00  0.00     0.038 H 
BRANCH  10  13
ATOM     13  C   LIG d   1       6.209   0.569  -3.238  0.00  0.00     0.218 C 
ATOM     14  N   LIG d   1       5.150  -0.253  -3.100  0.00  0.00    -0.296 N 
ATOM     15  C   LIG d   1       3.804   0.150  -2.668  0.00  0.00     0.049 C 
ATOM     16  C   LIG d   1       5.152  -1.706  -3.352  0.00  0.00     0.015 C 
ATOM     17  H   LIG d   1       3.851   0.594  -1.674  0.00  0.00     0.052 H 
ATOM     18  C   LIG d   1       2.933  -1.124  -2.635  0.00  0.00    -0.031 C 
ATOM     19  C   LIG d   1       3.984  -2.258  -2.496  0.00  0.00    -0.035 C 
ATOM     20  H   LIG d   1       2.369  -1.234  -3.561  0.00  0.00     0.028 H 
ATOM     21  H   LIG d   1       2.265  -1.110  -1.774  0.00  0.00     0.028 H 
ATOM     22  H   LIG d   1       3.606  -3.193  -2.909  0.00  0.00     0.028 H 
ATOM     23  H   LIG d   1       4.287  -2.384  -1.457  0.00  0.00     0.028 H 
ATOM     24  H   LIG d   1       4.976  -1.908  -4.408  0.00  0.00     0.046 H 
ATOM     25  H   LIG d   1       6.097  -2.145  -3.034  0.00  0.00     0.046 H 
ATOM     26  O   LIG d   1       6.093   1.753  -3.001  0.00  0.00    -0.276 OA
BRANCH  15  27
ATOM     27  C   LIG d   1       3.217   1.152  -3.663  0.00  0.00     0.066 C 
ATOM     28  H   LIG d   1       2.143   1.240  -3.498  0.00  0.00     0.058 H 
ATOM     29  H   LIG d   1       3.687   2.125  -3.518  0.00  0.00     0.058 H 
BRANCH  27  30
ATOM     30  O   LIG d   1       3.460   0.700  -4.996  0.00  0.00    -0.381 OA
BRANCH  30  31
ATOM     31  C   LIG d   1       2.278   0.333  -5.710  0.00  0.00     0.036 C 
ATOM     32  H   LIG d   1       1.447   0.957  -5.383  0.00  0.00     0.052 H 
ATOM     33  H   LIG d   1       2.440   0.475  -6.779  0.00  0.00     0.052 H 
ATOM     34  H   LIG d   1       2.045  -0.715  -5.514  0.00  0.00     0.052 H 
ENDBRANCH  30  31
ENDBRANCH  27  30
ENDBRANCH  15  27
ENDBRANCH  10  13
ENDBRANCH   1  10
BRANCH   3  35
ATOM     35  O   LIG d   1      10.225   0.593  -5.874  0.00  0.00    -0.387 OA
ATOM     36  H   LIG d   1      11.037   0.105  -5.682  0.00  0.00     0.210 HD
ENDBRANCH   3  35
BRANCH   7  37
ATOM     37  C   LIG d   1       6.215   0.079  -8.172  0.00  0.00     0.046 C 
ATOM     38  H   LIG d   1       6.089  -0.998  -8.065  0.00  0.00     0.047 H 
ATOM     39  H   LIG d   1       6.483   0.313  -9.202  0.00  0.00     0.047 H 
BRANCH  37  40
ATOM     40  N   LIG d   1       4.959   0.753  -7.830  0.00  0.00    -0.187 N 
ATOM     41  H   LIG d   1       4.586   0.660  -6.939  0.00  0.00     0.148 HD
BRANCH  40  42
ATOM     42  S   LIG d   1       4.180   1.677  -8.961  0.00  0.00     0.059 S 
ATOM     43  O   LIG d   1       3.211   2.444  -8.261  0.00  0.00    -0.153 OA
ATOM     44  O   LIG d   1       5.190   2.274  -9.763  0.00  0.00    -0.153 OA
BRANCH  42  45
ATOM     45  C   LIG d   1       3.290   0.576 -10.011  0.00  0.00     0.105 A 
ATOM     46  C   LIG d   1       2.104   0.015  -9.576  0.00  0.00    -0.034 A 
ATOM     47  C   LIG d   1       1.404  -0.848 -10.398  0.00  0.00    -0.042 A 
ATOM     48  H   LIG d   1       1.723   0.253  -8.594  0.00  0.00     0.064 H 
ATOM     49  C   LIG d   1       1.893  -1.152 -11.656  0.00  0.00     0.041 A 
ATOM     50  H   LIG d   1       0.477  -1.285 -10.058  0.00  0.00     0.063 H 
ATOM     51  C   LIG d   1       3.081  -0.591 -12.090  0.00  0.00    -0.042 A 
ATOM     52 CL   LIG d   1       1.016  -2.237 -12.689  0.00  0.00    -0.084 Cl
ATOM     53  C   LIG d   1       3.776   0.277 -11.270  0.00  0.00    -0.034 A 
ATOM     54  H   LIG d   1       3.463  -0.828 -13.072  0.00  0.00     0.063 H 
ATOM     55  H   LIG d   1       4.700   0.718 -11.610  0.00  0.00     0.064 H 
ENDBRANCH  42  45
ENDBRANCH  40  42
ENDBRANCH  37  40
ENDBRANCH   7  37
BRANCH   5  56
ATOM     56  O   LIG d   1       9.387  -0.437  -8.111  0.00  0.00    -0.387 OA
ATOM     57  H   LIG d   1       9.662  -1.291  -8.472  0.00  0.00     0.210 HD
ENDBRANCH   5  56
TORSDOF 11
ENDMDL
MODEL 2
REMARK VINA RESULT:      -6.6      1.664      4.194
REMARK  11 active torsions:
REMARK  status: ('A' for Active; 'I' for Inactive)
REMARK    1  A    between atoms: C_1  and  O_2 
REMARK    2  A    between atoms: O_2  and  C_3 
REMARK    3  A    between atoms: C_3  and  C_4 
REMARK       I    between atoms: N_9  and  C_10 
REMARK    4  A    between atoms: C_10  and  C_12 
REMARK    5  A    between atoms: C_12  and  C_13 
REMARK    6  A    between atoms: C_15  and  O_35 
REMARK    7  A    between atoms: C_17  and  O_34 
REMARK    8  A    between atoms: C_19  and  C_22 
REMARK    9  A    between atoms: C_22  and  N_23 
REMARK   10  A    between atoms: N_23  and  S_24 
REMARK   11  A    between atoms: S_24  and  C_27 
ROOT
ATOM      1  C   LIG d   1       5.131  -2.089  -4.510  0.00  0.00     0.096 C 
ATOM      2  H   LIG d   1       4.704  -3.077  -4.339  0.00  0.00     0.063 H 
ATOM      3  C   LIG d   1       4.061  -1.007  -4.269  0.00  0.00     0.110 C 
ATOM      4  H   LIG d   1       4.402  -0.293  -3.520  0.00  0.00     0.065 H 
ATOM      5  C   LIG d   1       3.904  -0.317  -5.646  0.00  0.00     0.111 C 
ATOM      6  H   LIG d   1       4.497   0.596  -5.695  0.00  0.00     0.065 H 
ATOM      7  C   LIG d   1       4.462  -1.391  -6.614  0.00  0.00     0.102 C 
ATOM      8  H   LIG d   1       3.705  -2.146  -6.831  0.00  0.00     0.064 H 
ATOM      9  O   LIG d   1       5.560  -1.971  -5.877  0.00  0.00    -0.366 OA
ENDROOT
BRANCH   1  10
ATOM     10  C   LIG d   1       6.319  -1.864  -3.571  0.00  0.00     0.053 C 
ATOM     11  H   LIG d   1       6.080  -1.067  -2.868  0.00  0.00     0.038 H 
ATOM     12  H   LIG d   1       6.526  -2.782  -3.022  0.00  0.00     0.038 H 
BRANCH  10  13
ATOM     13  C   LIG d   1       7.531  -1.476  -4.379  0.00  0.00     0.218 C 
ATOM     14  N   LIG d   1       7.868  -0.177  -4.506  0.00  0.00    -0.296 N 
ATOM     15  C   LIG d   1       9.022   0.339  -5.255  0.00  0.00     0.049 C 
ATOM     16  C   LIG d   1       7.143   0.961  -3.911  0.00  0.00     0.015 C 
ATOM     17  H   LIG d   1       9.944  -0.075  -4.848  0.00  0.00     0.052 H 
ATOM     18  C   LIG d   1       9.020   1.875  -5.101  0.00  0.00    -0.031 C 
ATOM     19  C   LIG d   1       8.199   2.091  -3.802  0.00  0.00    -0.035 C 
ATOM     20  H   LIG d   1       8.530   2.350  -5.950  0.00  0.00     0.028 H 
ATOM     21  H   LIG d   1      10.037   2.249  -4.982  0.00  0.00     0.028 H 
ATOM     22  H   LIG d   1       7.723   3.071  -3.800  0.00  0.00     0.028 H 
ATOM     23  H   LIG d   1       8.823   1.958  -2.919  0.00  0.00     0.028 H 
ATOM     24  H   LIG d   1       6.324   1.270  -4.560  0.00  0.00     0.046 H 
ATOM     25  H   LIG d   1       6.766   0.696  -2.923  0.00  0.00     0.046 H 
ATOM     26  O   LIG d   1       8.203  -2.332  -4.913  0.00  0.00    -0.276 OA
BRANCH  15  27
ATOM     27  C   LIG d   1       8.891  -0.033  -6.734  0.00  0.00     0.066 C 
ATOM     28  H   LIG d   1       9.875  -0.008  -7.203  0.00  0.00     0.058 H 
ATOM     29  H   LIG d   1       8.472  -1.036  -6.820  0.00  0.00     0.058 H 
BRANCH  27  30
ATOM     30  O   LIG d   1       8.028   0.901  -7.385  0.00  0.00    -0.381 OA
BRANCH  30  31
ATOM     31  C   LIG d   1       8.406   1.201  -8.731  0.00  0.00     0.036 C 
ATOM     32  H   LIG d   1       9.466   1.448  -8.764  0.00  0.00     0.052 H 
ATOM     33  H   LIG d   1       8.215   0.334  -9.363  0.00  0.00     0.052 H 
ATOM     34  H   LIG d   1       7.823   2.050  -9.091  0.00  0.00     0.052 H 
ENDBRANCH  30  31
ENDBRANCH  27  30
ENDBRANCH  15  27
ENDBRANCH  10  13
ENDBRANCH   1  10
BRANCH   3  35
ATOM     35  O   LIG d   1       2.827  -1.605  -3.866  0.00  0.00    -0.387 OA
ATOM     36  H   LIG d   1       2.786  -1.825  -2.926  0.00  0.00     0.210 HD
ENDBRANCH   3  35
BRANCH   7  37
ATOM     37  C   LIG d   1       4.962  -0.745  -7.907  0.00  0.00     0.046 C 
ATOM     38  H   LIG d   1       4.302  -1.019  -8.730  0.00  0.00     0.047 H 
ATOM     39  H   LIG d   1       5.973  -1.092  -8.120  0.00  0.00     0.047 H 
BRANCH  37  40
ATOM     40  N   LIG d   1       4.969   0.713  -7.753  0.00  0.00    -0.187 N 
ATOM     41  H   LIG d   1       5.504   1.124  -7.056  0.00  0.00     0.148 HD
BRANCH  40  42
ATOM     42  S   LIG d   1       4.070   1.658  -8.773  0.00  0.00     0.059 S 
ATOM     43  O   LIG d   1       3.030   2.225  -7.989  0.00  0.00    -0.153 OA
ATOM     44  O   LIG d   1       4.992   2.453  -9.506  0.00  0.00    -0.153 OA
BRANCH  42  45
ATOM     45  C   LIG d   1       3.297   0.582  -9.935  0.00  0.00     0.105 A 
ATOM     46  C   LIG d   1       3.902   0.329 -11.151  0.00  0.00    -0.034 A 
ATOM     47  C   LIG d   1       3.297  -0.515 -12.063  0.00  0.00    -0.042 A 
ATOM     48  H   LIG d   1       4.849   0.791 -11.389  0.00  0.00     0.064 H 
ATOM     49  C   LIG d   1       2.084  -1.107 -11.758  0.00  0.00     0.041 A 
ATOM     50  H   LIG d   1       3.771  -0.713 -13.012  0.00  0.00     0.063 H 
ATOM     51  C   LIG d   1       1.478  -0.852 -10.540  0.00  0.00    -0.042 A 
ATOM     52 CL   LIG d   1       1.323  -2.167 -12.901  0.00  0.00    -0.084 Cl
ATOM     53  C   LIG d   1       2.087  -0.013  -9.627  0.00  0.00    -0.034 A 
ATOM     54  H   LIG d   1       0.531  -1.314 -10.301  0.00  0.00     0.063 H 
ATOM     55  H   LIG d   1       1.617   0.182  -8.675  0.00  0.00     0.064 H 
ENDBRANCH  42  45
ENDBRANCH  40  42
ENDBRANCH  37  40
ENDBRANCH   7  37
BRANCH   5  56
ATOM     56  O   LIG d   1       2.529  -0.045  -5.926  0.00  0.00    -0.387 OA
ATOM     57  H   LIG d   1       2.233  -0.363  -6.791  0.00  0.00     0.210 HD
ENDBRANCH   5  56
TORSDOF 11
ENDMDL
MODEL 3
REMARK VINA RESULT:      -6.4      3.804      4.850
REMARK  11 active torsions:
REMARK  status: ('A' for Active; 'I' for Inactive)
REMARK    1  A    between atoms: C_1  and  O_2 
REMARK    2  A    between atoms: O_2  and  C_3 
REMARK    3  A    between atoms: C_3  and  C_4 
REMARK       I    between atoms: N_9  and  C_10 
REMARK    4  A    between atoms: C_10  and  C_12 
REMARK    5  A    between atoms: C_12  and  C_13 
REMARK    6  A    between atoms: C_15  and  O_35 
REMARK    7  A    between atoms: C_17  and  O_34 
REMARK    8  A    between atoms: C_19  and  C_22 
REMARK    9  A    between atoms: C_22  and  N_23 
REMARK   10  A    between atoms: N_23  and  S_24 
REMARK   11  A    between atoms: S_24  and  C_27 
ROOT
ATOM      1  C   LIG d   1       5.137  -4.216  -5.350  0.00  0.00     0.096 C 
ATOM      2  H   LIG d   1       6.091  -4.662  -5.068  0.00  0.00     0.063 H 
ATOM      3  C   LIG d   1       4.108  -5.323  -5.649  0.00  0.00     0.110 C 
ATOM      4  H   LIG d   1       3.223  -5.200  -5.026  0.00  0.00     0.065 H 
ATOM      5  C   LIG d   1       3.756  -5.118  -7.143  0.00  0.00     0.111 C 
ATOM      6  H   LIG d   1       2.836  -4.543  -7.250  0.00  0.00     0.065 H 
ATOM      7  C   LIG d   1       4.975  -4.313  -7.658  0.00  0.00     0.102 C 
ATOM      8  H   LIG d   1       5.811  -4.977  -7.878  0.00  0.00     0.064 H 
ATOM      9  O   LIG d   1       5.296  -3.443  -6.551  0.00  0.00    -0.366 OA
ENDROOT
BRANCH   1  10
ATOM     10  C   LIG d   1       4.624  -3.321  -4.219  0.00  0.00     0.053 C 
ATOM     11  H   LIG d   1       3.726  -2.800  -4.547  0.00  0.00     0.038 H 
ATOM     12  H   LIG d   1       4.391  -3.935  -3.348  0.00  0.00     0.038 H 
BRANCH  10  13
ATOM     13  C   LIG d   1       5.685  -2.314  -3.855  0.00  0.00     0.218 C 
ATOM     14  N   LIG d   1       5.331  -1.072  -3.471  0.00  0.00    -0.296 N 
ATOM     15  C   LIG d   1       6.257   0.002  -3.085  0.00  0.00     0.049 C 
ATOM     16  C   LIG d   1       3.949  -0.566  -3.364  0.00  0.00     0.015 C 
ATOM     17  H   LIG d   1       6.857  -0.314  -2.232  0.00  0.00     0.052 H 
ATOM     18  C   LIG d   1       5.402   1.229  -2.703  0.00  0.00    -0.031 C 
ATOM     19  C   LIG d   1       4.031   0.598  -2.344  0.00  0.00    -0.035 C 
ATOM     20  H   LIG d   1       5.303   1.912  -3.546  0.00  0.00     0.028 H 
ATOM     21  H   LIG d   1       5.829   1.740  -1.840  0.00  0.00     0.028 H 
ATOM     22  H   LIG d   1       3.221   1.309  -2.500  0.00  0.00     0.028 H 
ATOM     23  H   LIG d   1       4.030   0.221  -1.322  0.00  0.00     0.028 H 
ATOM     24  H   LIG d   1       3.603  -0.200  -4.331  0.00  0.00     0.046 H 
ATOM     25  H   LIG d   1       3.287  -1.350  -2.996  0.00  0.00     0.046 H 
ATOM     26  O   LIG d   1       6.857  -2.622  -3.907  0.00  0.00    -0.276 OA
BRANCH  15  27
ATOM     27  C   LIG d   1       7.167   0.353  -4.264  0.00  0.00     0.066 C 
ATOM     28  H   LIG d   1       7.821   1.180  -3.984  0.00  0.00     0.058 H 
ATOM     29  H   LIG d   1       7.772  -0.515  -4.526  0.00  0.00     0.058 H 
BRANCH  27  30
ATOM     30  O   LIG d   1       6.370   0.734  -5.386  0.00  0.00    -0.381 OA
BRANCH  30  31
ATOM     31  C   LIG d   1       6.705   0.053  -6.596  0.00  0.00     0.036 C 
ATOM     32  H   LIG d   1       7.368   0.679  -7.194  0.00  0.00     0.052 H 
ATOM     33  H   LIG d   1       7.208  -0.885  -6.358  0.00  0.00     0.052 H 
ATOM     34  H   LIG d   1       5.796  -0.155  -7.161  0.00  0.00     0.052 H 
ENDBRANCH  30  31
ENDBRANCH  27  30
ENDBRANCH  15  27
ENDBRANCH  10  13
ENDBRANCH   1  10
BRANCH   3  35
ATOM     35  O   LIG d   1       4.688  -6.613  -5.446  0.00  0.00    -0.387 OA
ATOM     36  H   LIG d   1       5.631  -6.591  -5.231  0.00  0.00     0.210 HD
ENDBRANCH   3  35
BRANCH   7  37
ATOM     37  C   LIG d   1       4.598  -3.495  -8.894  0.00  0.00     0.046 C 
ATOM     38  H   LIG d   1       5.184  -3.836  -9.748  0.00  0.00     0.047 H 
ATOM     39  H   LIG d   1       4.803  -2.440  -8.711  0.00  0.00     0.047 H 
BRANCH  37  40
ATOM     40  N   LIG d   1       3.172  -3.671  -9.181  0.00  0.00    -0.187 N 
ATOM     41  H   LIG d   1       2.654  -4.323  -8.682  0.00  0.00     0.148 HD
BRANCH  40  42
ATOM     42  S   LIG d   1       2.442  -2.754 -10.350  0.00  0.00     0.059 S 
ATOM     43  O   LIG d   1       3.060  -3.100 -11.582  0.00  0.00    -0.153 OA
ATOM     44  O   LIG d   1       1.041  -2.871 -10.141  0.00  0.00    -0.153 OA
BRANCH  42  45
ATOM     45  C   LIG d   1       2.861  -1.072 -10.030  0.00  0.00     0.105 A 
ATOM     46  C   LIG d   1       3.582  -0.351 -10.962  0.00  0.00    -0.034 A 
ATOM     47  C   LIG d   1       3.910   0.968 -10.713  0.00  0.00    -0.042 A 
ATOM     48  H   LIG d   1       3.888  -0.818 -11.887  0.00  0.00     0.064 H 
ATOM     49  C   LIG d   1       3.518   1.566  -9.529  0.00  0.00     0.041 A 
ATOM     50  H   LIG d   1       4.473   1.532 -11.442  0.00  0.00     0.063 H 
ATOM     51  C   LIG d   1       2.796   0.843  -8.596  0.00  0.00    -0.042 A 
ATOM     52 CL   LIG d   1       3.930   3.222  -9.214  0.00  0.00    -0.084 Cl
ATOM     53  C   LIG d   1       2.463  -0.474  -8.849  0.00  0.00    -0.034 A 
ATOM     54  H   LIG d   1       2.489   1.309  -7.670  0.00  0.00     0.063 H 
ATOM     55  H   LIG d   1       1.896  -1.037  -8.123  0.00  0.00     0.064 H 
ENDBRANCH  42  45
ENDBRANCH  40  42
ENDBRANCH  37  40
ENDBRANCH   7  37
BRANCH   5  56
ATOM     56  O   LIG d   1       3.651  -6.372  -7.819  0.00  0.00    -0.387 OA
ATOM     57  H   LIG d   1       4.500  -6.817  -7.956  0.00  0.00     0.210 HD
ENDBRANCH   5  56
TORSDOF 11
ENDMDL
MODEL 4
REMARK VINA RESULT:      -6.3      1.282      2.073
REMARK  11 active torsions:
REMARK  status: ('A' for Active; 'I' for Inactive)
REMARK    1  A    between atoms: C_1  and  O_2 
REMARK    2  A    between atoms: O_2  and  C_3 
REMARK    3  A    between atoms: C_3  and  C_4 
REMARK       I    between atoms: N_9  and  C_10 
REMARK    4  A    between atoms: C_10  and  C_12 
REMARK    5  A    between atoms: C_12  and  C_13 
REMARK    6  A    between atoms: C_15  and  O_35 
REMARK    7  A    between atoms: C_17  and  O_34 
REMARK    8  A    between atoms: C_19  and  C_22 
REMARK    9  A    between atoms: C_22  and  N_23 
REMARK   10  A    between atoms: N_23  and  S_24 
REMARK   11  A    between atoms: S_24  and  C_27 
ROOT
ATOM      1  C   LIG d   1       8.175   1.635  -5.289  0.00  0.00     0.096 C 
ATOM      2  H   LIG d   1       8.336   2.705  -5.156  0.00  0.00     0.063 H 
ATOM      3  C   LIG d   1       9.417   0.996  -5.940  0.00  0.00     0.110 C 
ATOM      4  H   LIG d   1       9.799   0.186  -5.320  0.00  0.00     0.065 H 
ATOM      5  C   LIG d   1       8.896   0.448  -7.291  0.00  0.00     0.111 C 
ATOM      6  H   LIG d   1       8.663  -0.614  -7.216  0.00  0.00     0.065 H 
ATOM      7  C   LIG d   1       7.608   1.283  -7.506  0.00  0.00     0.102 C 
ATOM      8  H   LIG d   1       7.848   2.263  -7.920  0.00  0.00     0.064 H 
ATOM      9  O   LIG d   1       7.065   1.414  -6.175  0.00  0.00    -0.366 OA
ENDROOT
BRANCH   1  10
ATOM     10  C   LIG d   1       7.901   0.977  -3.935  0.00  0.00     0.053 C 
ATOM     11  H   LIG d   1       8.803   0.478  -3.584  0.00  0.00     0.038 H 
ATOM     12  H   LIG d   1       7.603   1.739  -3.214  0.00  0.00     0.038 H 
BRANCH  10  13
ATOM     13  C   LIG d   1       6.793  -0.034  -4.084  0.00  0.00     0.218 C 
ATOM     14  N   LIG d   1       5.609   0.168  -3.473  0.00  0.00    -0.296 N 
ATOM     15  C   LIG d   1       4.447  -0.729  -3.538  0.00  0.00     0.049 C 
ATOM     16  C   LIG d   1       5.263   1.330  -2.633  0.00  0.00     0.015 C 
ATOM     17  H   LIG d   1       4.127  -0.848  -4.573  0.00  0.00     0.052 H 
ATOM     18  C   LIG d   1       3.318  -0.079  -2.709  0.00  0.00    -0.031 C 
ATOM     19  C   LIG d   1       3.717   1.420  -2.698  0.00  0.00    -0.035 C 
ATOM     20  H   LIG d   1       3.300  -0.480  -1.696  0.00  0.00     0.028 H 
ATOM     21  H   LIG d   1       2.355  -0.219  -3.198  0.00  0.00     0.028 H 
ATOM     22  H   LIG d   1       3.319   1.924  -1.818  0.00  0.00     0.028 H 
ATOM     23  H   LIG d   1       3.394   1.918  -3.613  0.00  0.00     0.028 H 
ATOM     24  H   LIG d   1       5.590   1.167  -1.607  0.00  0.00     0.046 H 
ATOM     25  H   LIG d   1       5.715   2.236  -3.036  0.00  0.00     0.046 H 
ATOM     26  O   LIG d   1       6.967  -1.030  -4.754  0.00  0.00    -0.276 OA
BRANCH  15  27
ATOM     27  C   LIG d   1       4.807  -2.092  -2.943  0.00  0.00     0.066 C 
ATOM     28  H   LIG d   1       5.885  -2.243  -3.008  0.00  0.00     0.058 H 
ATOM     29  H   LIG d   1       4.498  -2.124  -1.897  0.00  0.00     0.058 H 
BRANCH  27  30
ATOM     30  O   LIG d   1       4.136  -3.122  -3.669  0.00  0.00    -0.381 OA
BRANCH  30  31
ATOM     31  C   LIG d   1       4.894  -3.656  -4.756  0.00  0.00     0.036 C 
ATOM     32  H   LIG d   1       5.474  -2.859  -5.220  0.00  0.00     0.052 H 
ATOM     33  H   LIG d   1       5.568  -4.428  -4.384  0.00  0.00     0.052 H 
ATOM     34  H   LIG d   1       4.217  -4.089  -5.494  0.00  0.00     0.052 H 
ENDBRANCH  30  31
ENDBRANCH  27  30
ENDBRANCH  15  27
ENDBRANCH  10  13
ENDBRANCH   1  10
BRANCH   3  35
ATOM     35  O   LIG d   1      10.430   1.980  -6.157  0.00  0.00    -0.387 OA
ATOM     36  H   LIG d   1      11.329   1.624  -6.161  0.00  0.00     0.210 HD
ENDBRANCH   3  35
BRANCH   7  37
ATOM     37  C   LIG d   1       6.629   0.540  -8.416  0.00  0.00     0.046 C 
ATOM     38  H   LIG d   1       6.866  -0.525  -8.412  0.00  0.00     0.047 H 
ATOM     39  H   LIG d   1       6.712   0.926  -9.433  0.00  0.00     0.047 H 
BRANCH  37  40
ATOM     40  N   LIG d   1       5.262   0.737  -7.929  0.00  0.00    -0.187 N 
ATOM     41  H   LIG d   1       4.980   0.326  -7.097  0.00  0.00     0.148 HD
BRANCH  40  42
ATOM     42  S   LIG d   1       4.200   1.667  -8.795  0.00  0.00     0.059 S 
ATOM     43  O   LIG d   1       3.177   2.062  -7.892  0.00  0.00    -0.153 OA
ATOM     44  O   LIG d   1       4.981   2.606  -9.520  0.00  0.00    -0.153 OA
BRANCH  42  45
ATOM     45  C   LIG d   1       3.440   0.615  -9.988  0.00  0.00     0.105 A 
ATOM     46  C   LIG d   1       4.049   0.405 -11.211  0.00  0.00    -0.034 A 
ATOM     47  C   LIG d   1       3.454  -0.420 -12.147  0.00  0.00    -0.042 A 
ATOM     48  H   LIG d   1       4.990   0.885 -11.434  0.00  0.00     0.064 H 
ATOM     49  C   LIG d   1       2.248  -1.034 -11.860  0.00  0.00     0.041 A 
ATOM     50  H   LIG d   1       3.931  -0.584 -13.101  0.00  0.00     0.063 H 
ATOM     51  C   LIG d   1       1.639  -0.823 -10.636  0.00  0.00    -0.042 A 
ATOM     52 CL   LIG d   1       1.501  -2.071 -13.034  0.00  0.00    -0.084 Cl
ATOM     53  C   LIG d   1       2.238  -0.003  -9.698  0.00  0.00    -0.034 A 
ATOM     54  H   LIG d   1       0.698  -1.302 -10.411  0.00  0.00     0.063 H 
ATOM     55  H   LIG d   1       1.765   0.158  -8.741  0.00  0.00     0.064 H 
ENDBRANCH  42  45
ENDBRANCH  40  42
ENDBRANCH  37  40
ENDBRANCH   7  37
BRANCH   5  56
ATOM     56  O   LIG d   1       9.839   0.688  -8.337  0.00  0.00    -0.387 OA
ATOM     57  H   LIG d   1       9.439   0.793  -9.212  0.00  0.00     0.210 HD
ENDBRANCH   5  56
TORSDOF 11
ENDMDL
MODEL 5
REMARK VINA RESULT:      -6.3      4.897      6.332
REMARK  11 active torsions:
REMARK  status: ('A' for Active; 'I' for Inactive)
REMARK    1  A    between atoms: C_1  and  O_2 
REMARK    2  A    between atoms: O_2  and  C_3 
REMARK    3  A    between atoms: C_3  and  C_4 
REMARK       I    between atoms: N_9  and  C_10 
REMARK    4  A    between atoms: C_10  and  C_12 
REMARK    5  A    between atoms: C_12  and  C_13 
REMARK    6  A    between atoms: C_15  and  O_35 
REMARK    7  A    between atoms: C_17  and  O_34 
REMARK    8  A    between atoms: C_19  and  C_22 
REMARK    9  A    between atoms: C_22  and  N_23 
REMARK   10  A    between atoms: N_23  and  S_24 
REMARK   11  A    between atoms: S_24  and  C_27 
ROOT
ATOM      1  C   LIG d   1       8.140   1.739  -4.195  0.00  0.00     0.096 C 
ATOM      2  H   LIG d   1       7.813   2.584  -3.588  0.00  0.00     0.063 H 
ATOM      3  C   LIG d   1       9.666   1.566  -4.073  0.00  0.00     0.110 C 
ATOM      4  H   LIG d   1       9.910   0.560  -3.733  0.00  0.00     0.065 H 
ATOM      5  C   LIG d   1      10.190   1.797  -5.511  0.00  0.00     0.111 C 
ATOM      6  H   LIG d   1      10.348   0.849  -6.025  0.00  0.00     0.065 H 
ATOM      7  C   LIG d   1       9.027   2.591  -6.157  0.00  0.00     0.102 C 
ATOM      8  H   LIG d   1       9.088   3.647  -5.895  0.00  0.00     0.064 H 
ATOM      9  O   LIG d   1       7.848   1.990  -5.580  0.00  0.00    -0.366 OA
ENDROOT
BRANCH   1  10
ATOM     10  C   LIG d   1       7.433   0.462  -3.737  0.00  0.00     0.053 C 
ATOM     11  H   LIG d   1       7.390  -0.246  -4.564  0.00  0.00     0.038 H 
ATOM     12  H   LIG d   1       7.985   0.019  -2.908  0.00  0.00     0.038 H 
BRANCH  10  13
ATOM     13  C   LIG d   1       6.033   0.796  -3.289  0.00  0.00     0.218 C 
ATOM     14  N   LIG d   1       5.104  -0.176  -3.201  0.00  0.00    -0.296 N 
ATOM     15  C   LIG d   1       3.710   0.008  -2.774  0.00  0.00     0.049 C 
ATOM     16  C   LIG d   1       5.319  -1.601  -3.512  0.00  0.00     0.015 C 
ATOM     17  H   LIG d   1       3.682   0.413  -1.763  0.00  0.00     0.052 H 
ATOM     18  C   LIG d   1       3.033  -1.379  -2.806  0.00  0.00    -0.031 C 
ATOM     19  C   LIG d   1       4.236  -2.353  -2.697  0.00  0.00    -0.035 C 
ATOM     20  H   LIG d   1       2.500  -1.529  -3.745  0.00  0.00     0.028 H 
ATOM     21  H   LIG d   1       2.362  -1.498  -1.956  0.00  0.00     0.028 H 
ATOM     22  H   LIG d   1       4.003  -3.314  -3.154  0.00  0.00     0.028 H 
ATOM     23  H   LIG d   1       4.545  -2.478  -1.660  0.00  0.00     0.028 H 
ATOM     24  H   LIG d   1       5.185  -1.781  -4.578  0.00  0.00     0.046 H 
ATOM     25  H   LIG d   1       6.316  -1.911  -3.198  0.00  0.00     0.046 H 
ATOM     26  O   LIG d   1       5.744   1.939  -3.006  0.00  0.00    -0.276 OA
BRANCH  15  27
ATOM     27  C   LIG d   1       2.992   0.957  -3.736  0.00  0.00     0.066 C 
ATOM     28  H   LIG d   1       2.274   1.561  -3.182  0.00  0.00     0.058 H 
ATOM     29  H   LIG d   1       3.722   1.609  -4.216  0.00  0.00     0.058 H 
BRANCH  27  30
ATOM     30  O   LIG d   1       2.306   0.196  -4.733  0.00  0.00    -0.381 OA
BRANCH  30  31
ATOM     31  C   LIG d   1       2.900   0.267  -6.030  0.00  0.00     0.036 C 
ATOM     32  H   LIG d   1       3.376  -0.685  -6.264  0.00  0.00     0.052 H 
ATOM     33  H   LIG d   1       2.130   0.480  -6.771  0.00  0.00     0.052 H 
ATOM     34  H   LIG d   1       3.649   1.060  -6.044  0.00  0.00     0.052 H 
ENDBRANCH  30  31
ENDBRANCH  27  30
ENDBRANCH  15  27
ENDBRANCH  10  13
ENDBRANCH   1  10
BRANCH   3  35
ATOM     35  O   LIG d   1      10.211   2.540  -3.180  0.00  0.00    -0.387 OA
ATOM     36  H   LIG d   1      11.174   2.613  -3.218  0.00  0.00     0.210 HD
ENDBRANCH   3  35
BRANCH   7  37
ATOM     37  C   LIG d   1       9.033   2.414  -7.677  0.00  0.00     0.046 C 
ATOM     38  H   LIG d   1       8.040   2.629  -8.072  0.00  0.00     0.047 H 
ATOM     39  H   LIG d   1       9.307   1.388  -7.923  0.00  0.00     0.047 H 
BRANCH  37  40
ATOM     40  N   LIG d   1      10.004   3.335  -8.273  0.00  0.00    -0.187 N 
ATOM     41  H   LIG d   1      10.951   3.220  -8.097  0.00  0.00     0.148 HD
BRANCH  40  42
ATOM     42  S   LIG d   1       9.486   4.567  -9.250  0.00  0.00     0.059 S 
ATOM     43  O   LIG d   1      10.493   4.755 -10.234  0.00  0.00    -0.153 OA
ATOM     44  O   LIG d   1       8.136   4.279  -9.586  0.00  0.00    -0.153 OA
BRANCH  42  45
ATOM     45  C   LIG d   1       9.459   6.033  -8.270  0.00  0.00     0.105 A 
ATOM     46  C   LIG d   1       9.032   7.225  -8.823  0.00  0.00    -0.034 A 
ATOM     47  C   LIG d   1       9.010   8.374  -8.056  0.00  0.00    -0.042 A 
ATOM     48  H   LIG d   1       8.715   7.259  -9.854  0.00  0.00     0.064 H 
ATOM     49  C   LIG d   1       9.417   8.331  -6.734  0.00  0.00     0.041 A 
ATOM     50  H   LIG d   1       8.675   9.305  -8.487  0.00  0.00     0.063 H 
ATOM     51  C   LIG d   1       9.845   7.136  -6.181  0.00  0.00    -0.042 A 
ATOM     52 CL   LIG d   1       9.389   9.773  -5.769  0.00  0.00    -0.084 Cl
ATOM     53  C   LIG d   1       9.861   5.987  -6.948  0.00  0.00    -0.034 A 
ATOM     54  H   LIG d   1      10.162   7.102  -5.150  0.00  0.00     0.063 H 
ATOM     55  H   LIG d   1      10.190   5.054  -6.516  0.00  0.00     0.064 H 
ENDBRANCH  42  45
ENDBRANCH  40  42
ENDBRANCH  37  40
ENDBRANCH   7  37
BRANCH   5  56
ATOM     56  O   LIG d   1      11.390   2.572  -5.499  0.00  0.00    -0.387 OA
ATOM     57  H   LIG d   1      11.903   2.518  -6.318  0.00  0.00     0.210 HD
ENDBRANCH   5  56
TORSDOF 11
ENDMDL
MODEL 6
REMARK VINA RESULT:      -6.2      7.219      9.414
REMARK  11 active torsions:
REMARK  status: ('A' for Active; 'I' for Inactive)
REMARK    1  A    between atoms: C_1  and  O_2 
REMARK    2  A    between atoms: O_2  and  C_3 
REMARK    3  A    between atoms: C_3  and  C_4 
REMARK       I    between atoms: N_9  and  C_10 
REMARK    4  A    between atoms: C_10  and  C_12 
REMARK    5  A    between atoms: C_12  and  C_13 
REMARK    6  A    between atoms: C_15  and  O_35 
REMARK    7  A    between atoms: C_17  and  O_34 
REMARK    8  A    between atoms: C_19  and  C_22 
REMARK    9  A    between atoms: C_22  and  N_23 
REMARK   10  A    between atoms: N_23  and  S_24 
REMARK   11  A    between atoms: S_24  and  C_27 
ROOT
ATOM      1  C   LIG d   1      10.586   5.946  -2.715  0.00  0.00     0.096 C 
ATOM      2  H   LIG d   1      11.555   6.443  -2.666  0.00  0.00     0.063 H 
ATOM      3  C   LIG d   1      10.625   4.641  -1.897  0.00  0.00     0.110 C 
ATOM      4  H   LIG d   1       9.841   4.640  -1.141  0.00  0.00     0.065 H 
ATOM      5  C   LIG d   1      10.371   3.529  -2.945  0.00  0.00     0.111 C 
ATOM      6  H   LIG d   1       9.323   3.232  -2.951  0.00  0.00     0.065 H 
ATOM      7  C   LIG d   1      10.754   4.237  -4.269  0.00  0.00     0.102 C 
ATOM      8  H   LIG d   1      11.834   4.222  -4.417  0.00  0.00     0.064 H 
ATOM      9  O   LIG d   1      10.287   5.590  -4.075  0.00  0.00    -0.366 OA
ENDROOT
BRANCH   1  10
ATOM     10  C   LIG d   1       9.497   6.870  -2.168  0.00  0.00     0.053 C 
ATOM     11  H   LIG d   1       9.285   7.652  -2.895  0.00  0.00     0.038 H 
ATOM     12  H   LIG d   1       8.590   6.293  -1.981  0.00  0.00     0.038 H 
BRANCH  10  13
ATOM     13  C   LIG d   1       9.969   7.495  -0.880  0.00  0.00     0.218 C 
ATOM     14  N   LIG d   1      10.240   8.814  -0.831  0.00  0.00    -0.296 N 
ATOM     15  C   LIG d   1      10.700   9.551   0.354  0.00  0.00     0.049 C 
ATOM     16  C   LIG d   1      10.119   9.759  -1.957  0.00  0.00     0.015 C 
ATOM     17  H   LIG d   1       9.965   9.462   1.155  0.00  0.00     0.052 H 
ATOM     18  C   LIG d   1      10.855  11.031  -0.056  0.00  0.00    -0.031 C 
ATOM     19  C   LIG d   1       9.925  11.145  -1.293  0.00  0.00    -0.035 C 
ATOM     20  H   LIG d   1      11.886  11.253  -0.328  0.00  0.00     0.028 H 
ATOM     21  H   LIG d   1      10.515  11.688   0.744  0.00  0.00     0.028 H 
ATOM     22  H   LIG d   1      10.254  11.945  -1.956  0.00  0.00     0.028 H 
ATOM     23  H   LIG d   1       8.888  11.291  -0.990  0.00  0.00     0.028 H 
ATOM     24  H   LIG d   1      11.028   9.750  -2.558  0.00  0.00     0.046 H 
ATOM     25  H   LIG d   1       9.256   9.506  -2.573  0.00  0.00     0.046 H 
ATOM     26  O   LIG d   1      10.104   6.811   0.112  0.00  0.00    -0.276 OA
BRANCH  15  27
ATOM     27  C   LIG d   1      12.049   8.999   0.819  0.00  0.00     0.066 C 
ATOM     28  H   LIG d   1      12.274   8.082   0.275  0.00  0.00     0.058 H 
ATOM     29  H   LIG d   1      12.829   9.737   0.625  0.00  0.00     0.058 H 
BRANCH  27  30
ATOM     30  O   LIG d   1      11.994   8.722   2.219  0.00  0.00    -0.381 OA
BRANCH  30  31
ATOM     31  C   LIG d   1      12.471   9.787   3.043  0.00  0.00     0.036 C 
ATOM     32  H   LIG d   1      12.663   9.411   4.048  0.00  0.00     0.052 H 
ATOM     33  H   LIG d   1      13.394  10.187   2.622  0.00  0.00     0.052 H 
ATOM     34  H   LIG d   1      11.720  10.577   3.088  0.00  0.00     0.052 H 
ENDBRANCH  30  31
ENDBRANCH  27  30
ENDBRANCH  15  27
ENDBRANCH  10  13
ENDBRANCH   1  10
BRANCH   3  35
ATOM     35  O   LIG d   1      11.907   4.470  -1.288  0.00  0.00    -0.387 OA
ATOM     36  H   LIG d   1      12.294   5.288  -0.949  0.00  0.00     0.210 HD
ENDBRANCH   3  35
BRANCH   7  37
ATOM     37  C   LIG d   1      10.040   3.585  -5.455  0.00  0.00     0.046 C 
ATOM     38  H   LIG d   1      10.741   2.950  -5.996  0.00  0.00     0.047 H 
ATOM     39  H   LIG d   1       9.661   4.359  -6.122  0.00  0.00     0.047 H 
BRANCH  37  40
ATOM     40  N   LIG d   1       8.923   2.773  -4.966  0.00  0.00    -0.187 N 
ATOM     41  H   LIG d   1       8.218   3.184  -4.441  0.00  0.00     0.148 HD
BRANCH  40  42
ATOM     42  S   LIG d   1       8.860   1.156  -5.314  0.00  0.00     0.059 S 
ATOM     43  O   LIG d   1       8.434   1.047  -6.665  0.00  0.00    -0.153 OA
ATOM     44  O   LIG d   1      10.080   0.593  -4.851  0.00  0.00    -0.153 OA
BRANCH  42  45
ATOM     45  C   LIG d   1       7.577   0.460  -4.324  0.00  0.00     0.105 A 
ATOM     46  C   LIG d   1       7.410  -0.911  -4.275  0.00  0.00    -0.034 A 
ATOM     47  C   LIG d   1       6.406  -1.458  -3.499  0.00  0.00    -0.042 A 
ATOM     48  H   LIG d   1       8.065  -1.556  -4.842  0.00  0.00     0.064 H 
ATOM     49  C   LIG d   1       5.567  -0.633  -2.772  0.00  0.00     0.041 A 
ATOM     50  H   LIG d   1       6.276  -2.529  -3.460  0.00  0.00     0.063 H 
ATOM     51  C   LIG d   1       5.735   0.740  -2.823  0.00  0.00    -0.042 A 
ATOM     52 CL   LIG d   1       4.305  -1.318  -1.797  0.00  0.00    -0.084 Cl
ATOM     53  C   LIG d   1       6.743   1.285  -3.594  0.00  0.00    -0.034 A 
ATOM     54  H   LIG d   1       5.080   1.386  -2.256  0.00  0.00     0.063 H 
ATOM     55  H   LIG d   1       6.877   2.356  -3.630  0.00  0.00     0.064 H 
ENDBRANCH  42  45
ENDBRANCH  40  42
ENDBRANCH  37  40
ENDBRANCH   7  37
BRANCH   5  56
ATOM     56  O   LIG d   1      11.217   2.402  -2.708  0.00  0.00    -0.387 OA
ATOM     57  H   LIG d   1      11.925   2.297  -3.359  0.00  0.00     0.210 HD
ENDBRANCH   5  56
TORSDOF 11
ENDMDL
MODEL 7
REMARK VINA RESULT:      -6.2      7.635      9.817
REMARK  11 active torsions:
REMARK  status: ('A' for Active; 'I' for Inactive)
REMARK    1  A    between atoms: C_1  and  O_2 
REMARK    2  A    between atoms: O_2  and  C_3 
REMARK    3  A    between atoms: C_3  and  C_4 
REMARK       I    between atoms: N_9  and  C_10 
REMARK    4  A    between atoms: C_10  and  C_12 
REMARK    5  A    between atoms: C_12  and  C_13 
REMARK    6  A    between atoms: C_15  and  O_35 
REMARK    7  A    between atoms: C_17  and  O_34 
REMARK    8  A    between atoms: C_19  and  C_22 
REMARK    9  A    between atoms: C_22  and  N_23 
REMARK   10  A    between atoms: N_23  and  S_24 
REMARK   11  A    between atoms: S_24  and  C_27 
ROOT
ATOM      1  C   LIG d   1      10.686   5.895  -1.649  0.00  0.00     0.096 C 
ATOM      2  H   LIG d   1       9.916   6.071  -0.897  0.00  0.00     0.063 H 
ATOM      3  C   LIG d   1      10.241   6.481  -3.002  0.00  0.00     0.110 C 
ATOM      4  H   LIG d   1      10.981   7.189  -3.373  0.00  0.00     0.065 H 
ATOM      5  C   LIG d   1      10.152   5.249  -3.937  0.00  0.00     0.111 C 
ATOM      6  H   LIG d   1      11.059   5.145  -4.532  0.00  0.00     0.065 H 
ATOM      7  C   LIG d   1      10.016   4.083  -2.926  0.00  0.00     0.102 C 
ATOM      8  H   LIG d   1       8.985   3.984  -2.586  0.00  0.00     0.064 H 
ATOM      9  O   LIG d   1      10.873   4.482  -1.835  0.00  0.00    -0.366 OA
ENDROOT
BRANCH   1  10
ATOM     10  C   LIG d   1      12.002   6.541  -1.209  0.00  0.00     0.053 C 
ATOM     11  H   LIG d   1      12.754   5.767  -1.059  0.00  0.00     0.038 H 
ATOM     12  H   LIG d   1      12.342   7.233  -1.980  0.00  0.00     0.038 H 
BRANCH  10  13
ATOM     13  C   LIG d   1      11.787   7.290   0.081  0.00  0.00     0.218 C 
ATOM     14  N   LIG d   1      11.491   8.605   0.055  0.00  0.00    -0.296 N 
ATOM     15  C   LIG d   1      11.253   9.452   1.232  0.00  0.00     0.049 C 
ATOM     16  C   LIG d   1      11.348   9.430  -1.159  0.00  0.00     0.015 C 
ATOM     17  H   LIG d   1      10.412   9.063   1.805  0.00  0.00     0.052 H 
ATOM     18  C   LIG d   1      10.928  10.871   0.717  0.00  0.00    -0.031 C 
ATOM     19  C   LIG d   1      10.439  10.609  -0.732  0.00  0.00    -0.035 C 
ATOM     20  H   LIG d   1      11.820  11.497   0.716  0.00  0.00     0.028 H 
ATOM     21  H   LIG d   1      10.138  11.324   1.316  0.00  0.00     0.028 H 
ATOM     22  H   LIG d   1      10.608  11.481  -1.364  0.00  0.00     0.028 H 
ATOM     23  H   LIG d   1       9.389  10.317  -0.743  0.00  0.00     0.028 H 
ATOM     24  H   LIG d   1      12.321   9.799  -1.483  0.00  0.00     0.046 H 
ATOM     25  H   LIG d   1      10.877   8.854  -1.955  0.00  0.00     0.046 H 
ATOM     26  O   LIG d   1      11.879   6.710   1.142  0.00  0.00    -0.276 OA
BRANCH  15  27
ATOM     27  C   LIG d   1      12.507   9.493   2.107  0.00  0.00     0.066 C 
ATOM     28  H   LIG d   1      13.280   8.865   1.664  0.00  0.00     0.058 H 
ATOM     29  H   LIG d   1      12.869  10.520   2.175  0.00  0.00     0.058 H 
BRANCH  27  30
ATOM     30  O   LIG d   1      12.192   9.013   3.415  0.00  0.00    -0.381 OA
BRANCH  30  31
ATOM     31  C   LIG d   1      12.568   9.902   4.468  0.00  0.00     0.036 C 
ATOM     32  H   LIG d   1      11.719  10.054   5.134  0.00  0.00     0.052 H 
ATOM     33  H   LIG d   1      13.398   9.472   5.029  0.00  0.00     0.052 H 
ATOM     34  H   LIG d   1      12.873  10.860   4.044  0.00  0.00     0.052 H 
ENDBRANCH  30  31
ENDBRANCH  27  30
ENDBRANCH  15  27
ENDBRANCH  10  13
ENDBRANCH   1  10
BRANCH   3  35
ATOM     35  O   LIG d   1       8.964   7.109  -2.880  0.00  0.00    -0.387 OA
ATOM     36  H   LIG d   1       8.982   7.947  -2.398  0.00  0.00     0.210 HD
ENDBRANCH   3  35
BRANCH   7  37
ATOM     37  C   LIG d   1      10.506   2.773  -3.545  0.00  0.00     0.046 C 
ATOM     38  H   LIG d   1      11.439   2.472  -3.068  0.00  0.00     0.047 H 
ATOM     39  H   LIG d   1      10.674   2.915  -4.613  0.00  0.00     0.047 H 
BRANCH  37  40
ATOM     40  N   LIG d   1       9.497   1.730  -3.345  0.00  0.00    -0.187 N 
ATOM     41  H   LIG d   1       9.427   1.282  -2.487  0.00  0.00     0.148 HD
BRANCH  40  42
ATOM     42  S   LIG d   1       8.473   1.319  -4.580  0.00  0.00     0.059 S 
ATOM     43  O   LIG d   1       7.882   2.528  -5.036  0.00  0.00    -0.153 OA
ATOM     44  O   LIG d   1       9.201   0.455  -5.440  0.00  0.00    -0.153 OA
BRANCH  42  45
ATOM     45  C   LIG d   1       7.173   0.356  -3.880  0.00  0.00     0.105 A 
ATOM     46  C   LIG d   1       6.142   0.976  -3.201  0.00  0.00    -0.034 A 
ATOM     47  C   LIG d   1       5.122   0.222  -2.652  0.00  0.00    -0.042 A 
ATOM     48  H   LIG d   1       6.133   2.051  -3.099  0.00  0.00     0.064 H 
ATOM     49  C   LIG d   1       5.135  -1.155  -2.782  0.00  0.00     0.041 A 
ATOM     50  H   LIG d   1       4.317   0.707  -2.122  0.00  0.00     0.063 H 
ATOM     51  C   LIG d   1       6.168  -1.776  -3.462  0.00  0.00    -0.042 A 
ATOM     52 CL   LIG d   1       3.855  -2.104  -2.094  0.00  0.00    -0.084 Cl
ATOM     53  C   LIG d   1       7.184  -1.020  -4.015  0.00  0.00    -0.034 A 
ATOM     54  H   LIG d   1       6.178  -2.852  -3.564  0.00  0.00     0.063 H 
ATOM     55  H   LIG d   1       7.987  -1.504  -4.550  0.00  0.00     0.064 H 
ENDBRANCH  42  45
ENDBRANCH  40  42
ENDBRANCH  37  40
ENDBRANCH   7  37
BRANCH   5  56
ATOM     56  O   LIG d   1       8.999   5.330  -4.778  0.00  0.00    -0.387 OA
ATOM     57  H   LIG d   1       9.190   5.631  -5.678  0.00  0.00     0.210 HD
ENDBRANCH   5  56
TORSDOF 11
ENDMDL
MODEL 8
REMARK VINA RESULT:      -6.1      3.322      6.272
REMARK  11 active torsions:
REMARK  status: ('A' for Active; 'I' for Inactive)
REMARK    1  A    between atoms: C_1  and  O_2 
REMARK    2  A    between atoms: O_2  and  C_3 
REMARK    3  A    between atoms: C_3  and  C_4 
REMARK       I    between atoms: N_9  and  C_10 
REMARK    4  A    between atoms: C_10  and  C_12 
REMARK    5  A    between atoms: C_12  and  C_13 
REMARK    6  A    between atoms: C_15  and  O_35 
REMARK    7  A    between atoms: C_17  and  O_34 
REMARK    8  A    between atoms: C_19  and  C_22 
REMARK    9  A    between atoms: C_22  and  N_23 
REMARK   10  A    between atoms: N_23  and  S_24 
REMARK   11  A    between atoms: S_24  and  C_27 
ROOT
ATOM      1  C   LIG d   1       3.568   0.281  -5.572  0.00  0.00     0.096 C 
ATOM      2  H   LIG d   1       4.231   1.115  -5.803  0.00  0.00     0.063 H 
ATOM      3  C   LIG d   1       2.978   0.456  -4.160  0.00  0.00     0.110 C 
ATOM      4  H   LIG d   1       1.890   0.443  -4.197  0.00  0.00     0.065 H 
ATOM      5  C   LIG d   1       3.511  -0.766  -3.372  0.00  0.00     0.111 C 
ATOM      6  H   LIG d   1       2.768  -1.563  -3.342  0.00  0.00     0.065 H 
ATOM      7  C   LIG d   1       4.740  -1.187  -4.217  0.00  0.00     0.102 C 
ATOM      8  H   LIG d   1       5.605  -0.570  -3.973  0.00  0.00     0.064 H 
ATOM      9  O   LIG d   1       4.312  -0.949  -5.575  0.00  0.00    -0.366 OA
ENDROOT
BRANCH   1  10
ATOM     10  C   LIG d   1       2.440   0.209  -6.602  0.00  0.00     0.053 C 
ATOM     11  H   LIG d   1       2.184  -0.833  -6.789  0.00  0.00     0.038 H 
ATOM     12  H   LIG d   1       1.564   0.735  -6.219  0.00  0.00     0.038 H 
BRANCH  10  13
ATOM     13  C   LIG d   1       2.891   0.853  -7.888  0.00  0.00     0.218 C 
ATOM     14  N   LIG d   1       2.836   0.162  -9.043  0.00  0.00    -0.296 N 
ATOM     15  C   LIG d   1       3.237   0.668 -10.364  0.00  0.00     0.049 C 
ATOM     16  C   LIG d   1       2.358  -1.225  -9.193  0.00  0.00     0.015 C 
ATOM     17  H   LIG d   1       2.645   1.547 -10.620  0.00  0.00     0.052 H 
ATOM     18  C   LIG d   1       2.977  -0.459 -11.385  0.00  0.00    -0.031 C 
ATOM     19  C   LIG d   1       1.910  -1.332 -10.673  0.00  0.00    -0.035 C 
ATOM     20  H   LIG d   1       3.884  -1.034 -11.569  0.00  0.00     0.028 H 
ATOM     21  H   LIG d   1       2.583  -0.050 -12.315  0.00  0.00     0.028 H 
ATOM     22  H   LIG d   1       1.954  -2.364 -11.020  0.00  0.00     0.028 H 
ATOM     23  H   LIG d   1       0.911  -0.917 -10.809  0.00  0.00     0.028 H 
ATOM     24  H   LIG d   1       3.166  -1.928  -8.990  0.00  0.00     0.046 H 
ATOM     25  H   LIG d   1       1.517  -1.410  -8.526  0.00  0.00     0.046 H 
ATOM     26  O   LIG d   1       3.303   1.994  -7.882  0.00  0.00    -0.276 OA
BRANCH  15  27
ATOM     27  C   LIG d   1       4.725   1.025 -10.355  0.00  0.00     0.066 C 
ATOM     28  H   LIG d   1       4.995   1.477 -11.309  0.00  0.00     0.058 H 
ATOM     29  H   LIG d   1       4.924   1.733  -9.549  0.00  0.00     0.058 H 
BRANCH  27  30
ATOM     30  O   LIG d   1       5.498  -0.158 -10.150  0.00  0.00    -0.381 OA
BRANCH  30  31
ATOM     31  C   LIG d   1       6.388  -0.086  -9.035  0.00  0.00     0.036 C 
ATOM     32  H   LIG d   1       7.264  -0.706  -9.229  0.00  0.00     0.052 H 
ATOM     33  H   LIG d   1       6.700   0.947  -8.885  0.00  0.00     0.052 H 
ATOM     34  H   LIG d   1       5.880  -0.447  -8.140  0.00  0.00     0.052 H 
ENDBRANCH  30  31
ENDBRANCH  27  30
ENDBRANCH  15  27
ENDBRANCH  10  13
ENDBRANCH   1  10
BRANCH   3  35
ATOM     35  O   LIG d   1       3.444   1.672  -3.570  0.00  0.00    -0.387 OA
ATOM     36  H   LIG d   1       4.194   2.070  -4.031  0.00  0.00     0.210 HD
ENDBRANCH   3  35
BRANCH   7  37
ATOM     37  C   LIG d   1       5.059  -2.668  -4.003  0.00  0.00     0.046 C 
ATOM     38  H   LIG d   1       4.865  -2.935  -2.964  0.00  0.00     0.047 H 
ATOM     39  H   LIG d   1       6.108  -2.851  -4.236  0.00  0.00     0.047 H 
BRANCH  37  40
ATOM     40  N   LIG d   1       4.215  -3.481  -4.882  0.00  0.00    -0.187 N 
ATOM     41  H   LIG d   1       3.289  -3.233  -5.030  0.00  0.00     0.148 HD
BRANCH  40  42
ATOM     42  S   LIG d   1       4.842  -4.821  -5.626  0.00  0.00     0.059 S 
ATOM     43  O   LIG d   1       6.244  -4.789  -5.404  0.00  0.00    -0.153 OA
ATOM     44  O   LIG d   1       4.032  -5.920  -5.233  0.00  0.00    -0.153 OA
BRANCH  42  45
ATOM     45  C   LIG d   1       4.602  -4.614  -7.360  0.00  0.00     0.105 A 
ATOM     46  C   LIG d   1       3.584  -5.293  -8.002  0.00  0.00    -0.034 A 
ATOM     47  C   LIG d   1       3.394  -5.131  -9.362  0.00  0.00    -0.042 A 
ATOM     48  H   LIG d   1       2.936  -5.951  -7.442  0.00  0.00     0.064 H 
ATOM     49  C   LIG d   1       4.224  -4.289 -10.080  0.00  0.00     0.041 A 
ATOM     50  H   LIG d   1       2.599  -5.662  -9.863  0.00  0.00     0.063 H 
ATOM     51  C   LIG d   1       5.243  -3.610  -9.436  0.00  0.00    -0.042 A 
ATOM     52 CL   LIG d   1       3.988  -4.085 -11.787  0.00  0.00    -0.084 Cl
ATOM     53  C   LIG d   1       5.428  -3.768  -8.076  0.00  0.00    -0.034 A 
ATOM     54  H   LIG d   1       5.892  -2.952  -9.996  0.00  0.00     0.063 H 
ATOM     55  H   LIG d   1       6.220  -3.234  -7.573  0.00  0.00     0.064 H 
ENDBRANCH  42  45
ENDBRANCH  40  42
ENDBRANCH  37  40
ENDBRANCH   7  37
BRANCH   5  56
ATOM     56  O   LIG d   1       3.905  -0.390  -2.051  0.00  0.00    -0.387 OA
ATOM     57  H   LIG d   1       4.441  -1.054  -1.596  0.00  0.00     0.210 HD
ENDBRANCH   5  56
TORSDOF 11
ENDMDL
MODEL 9
REMARK VINA RESULT:      -6.1      4.294      5.586
REMARK  11 active torsions:
REMARK  status: ('A' for Active; 'I' for Inactive)
REMARK    1  A    between atoms: C_1  and  O_2 
REMARK    2  A    between atoms: O_2  and  C_3 
REMARK    3  A    between atoms: C_3  and  C_4 
REMARK       I    between atoms: N_9  and  C_10 
REMARK    4  A    between atoms: C_10  and  C_12 
REMARK    5  A    between atoms: C_12  and  C_13 
REMARK    6  A    between atoms: C_15  and  O_35 
REMARK    7  A    between atoms: C_17  and  O_34 
REMARK    8  A    between atoms: C_19  and  C_22 
REMARK    9  A    between atoms: C_22  and  N_23 
REMARK   10  A    between atoms: N_23  and  S_24 
REMARK   11  A    between atoms: S_24  and  C_27 
ROOT
ATOM      1  C   LIG d   1       4.532  -3.135  -5.636  0.00  0.00     0.096 C 
ATOM      2  H   LIG d   1       3.510  -3.494  -5.764  0.00  0.00     0.063 H 
ATOM      3  C   LIG d   1       4.583  -2.094  -4.501  0.00  0.00     0.110 C 
ATOM      4  H   LIG d   1       5.302  -2.395  -3.740  0.00  0.00     0.065 H 
ATOM      5  C   LIG d   1       5.045  -0.793  -5.201  0.00  0.00     0.111 C 
ATOM      6  H   LIG d   1       6.119  -0.647  -5.083  0.00  0.00     0.065 H 
ATOM      7  C   LIG d   1       4.685  -1.075  -6.682  0.00  0.00     0.102 C 
ATOM      8  H   LIG d   1       3.629  -0.877  -6.866  0.00  0.00     0.064 H 
ATOM      9  O   LIG d   1       4.974  -2.480  -6.837  0.00  0.00    -0.366 OA
ENDROOT
BRANCH   1  10
ATOM     10  C   LIG d   1       5.460  -4.306  -5.310  0.00  0.00     0.053 C 
ATOM     11  H   LIG d   1       6.377  -4.216  -5.891  0.00  0.00     0.038 H 
ATOM     12  H   LIG d   1       5.702  -4.293  -4.247  0.00  0.00     0.038 H 
BRANCH  10  13
ATOM     13  C   LIG d   1       4.772  -5.603  -5.653  0.00  0.00     0.218 C 
ATOM     14  N   LIG d   1       5.465  -6.759  -5.635  0.00  0.00    -0.296 N 
ATOM     15  C   LIG d   1       4.921  -8.089  -5.942  0.00  0.00     0.049 C 
ATOM     16  C   LIG d   1       6.894  -6.899  -5.299  0.00  0.00     0.015 C 
ATOM     17  H   LIG d   1       4.109  -8.324  -5.255  0.00  0.00     0.052 H 
ATOM     18  C   LIG d   1       6.069  -9.106  -5.769  0.00  0.00    -0.031 C 
ATOM     19  C   LIG d   1       7.048  -8.364  -4.820  0.00  0.00    -0.035 C 
ATOM     20  H   LIG d   1       6.547  -9.318  -6.726  0.00  0.00     0.028 H 
ATOM     21  H   LIG d   1       5.703 -10.022  -5.307  0.00  0.00     0.028 H 
ATOM     22  H   LIG d   1       8.069  -8.715  -4.961  0.00  0.00     0.028 H 
ATOM     23  H   LIG d   1       6.738  -8.469  -3.780  0.00  0.00     0.028 H 
ATOM     24  H   LIG d   1       7.510  -6.721  -6.181  0.00  0.00     0.046 H 
ATOM     25  H   LIG d   1       7.166  -6.206  -4.502  0.00  0.00     0.046 H 
ATOM     26  O   LIG d   1       3.595  -5.606  -5.945  0.00  0.00    -0.276 OA
BRANCH  15  27
ATOM     27  C   LIG d   1       4.412  -8.123  -7.384  0.00  0.00     0.066 C 
ATOM     28  H   LIG d   1       3.746  -8.977  -7.514  0.00  0.00     0.058 H 
ATOM     29  H   LIG d   1       3.868  -7.203  -7.600  0.00  0.00     0.058 H 
BRANCH  27  30
ATOM     30  O   LIG d   1       5.520  -8.242  -8.278  0.00  0.00    -0.381 OA
BRANCH  30  31
ATOM     31  C   LIG d   1       5.335  -7.571  -9.526  0.00  0.00     0.036 C 
ATOM     32  H   LIG d   1       4.898  -6.588  -9.349  0.00  0.00     0.052 H 
ATOM     33  H   LIG d   1       6.298  -7.457 -10.024  0.00  0.00     0.052 H 
ATOM     34  H   LIG d   1       4.666  -8.157 -10.159  0.00  0.00     0.052 H 
ENDBRANCH  30  31
ENDBRANCH  27  30
ENDBRANCH  15  27
ENDBRANCH  10  13
ENDBRANCH   1  10
BRANCH   3  35
ATOM     35  O   LIG d   1       3.288  -1.918  -3.924  0.00  0.00    -0.387 OA
ATOM     36  H   LIG d   1       2.776  -2.735  -3.850  0.00  0.00     0.210 HD
ENDBRANCH   3  35
BRANCH   7  37
ATOM     37  C   LIG d   1       5.559  -0.238  -7.618  0.00  0.00     0.046 C 
ATOM     38  H   LIG d   1       5.644  -0.740  -8.581  0.00  0.00     0.047 H 
ATOM     39  H   LIG d   1       6.551  -0.120  -7.181  0.00  0.00     0.047 H 
BRANCH  37  40
ATOM     40  N   LIG d   1       4.950   1.081  -7.807  0.00  0.00    -0.187 N 
ATOM     41  H   LIG d   1       4.685   1.608  -7.037  0.00  0.00     0.148 HD
BRANCH  40  42
ATOM     42  S   LIG d   1       4.719   1.675  -9.335  0.00  0.00     0.059 S 
ATOM     43  O   LIG d   1       4.084   2.938  -9.188  0.00  0.00    -0.153 OA
ATOM     44  O   LIG d   1       5.953   1.518 -10.022  0.00  0.00    -0.153 OA
BRANCH  42  45
ATOM     45  C   LIG d   1       3.558   0.618 -10.136  0.00  0.00     0.105 A 
ATOM     46  C   LIG d   1       3.830   0.123 -11.397  0.00  0.00    -0.034 A 
ATOM     47  C   LIG d   1       2.921  -0.707 -12.026  0.00  0.00    -0.042 A 
ATOM     48  H   LIG d   1       4.753   0.385 -11.892  0.00  0.00     0.064 H 
ATOM     49  C   LIG d   1       1.737  -1.041 -11.392  0.00  0.00     0.041 A 
ATOM     50  H   LIG d   1       3.134  -1.093 -13.011  0.00  0.00     0.063 H 
ATOM     51  C   LIG d   1       1.466  -0.545 -10.129  0.00  0.00    -0.042 A 
ATOM     52 CL   LIG d   1       0.595  -2.083 -12.179  0.00  0.00    -0.084 Cl
ATOM     53  C   LIG d   1       2.378   0.280  -9.499  0.00  0.00    -0.034 A 
ATOM     54  H   LIG d   1       0.542  -0.806  -9.633  0.00  0.00     0.063 H 
ATOM     55  H   LIG d   1       2.169   0.663  -8.512  0.00  0.00     0.064 H 
ENDBRANCH  42  45
ENDBRANCH  40  42
ENDBRANCH  37  40
ENDBRANCH   7  37
BRANCH   5  56
ATOM     56  O   LIG d   1       4.323   0.336  -4.707  0.00  0.00    -0.387 OA
ATOM     57  H   LIG d   1       3.455   0.459  -5.119  0.00  0.00     0.210 HD
ENDBRANCH   5  56
TORSDOF 11
ENDMDL
