MODEL 1
REMARK VINA RESULT:      -6.3      0.000      0.000
REMARK  9 active torsions:
REMARK  status: ('A' for Active; 'I' for Inactive)
REMARK    1  A    between atoms: C_1  and  C_2 
REMARK    2  A    between atoms: C_6  and  C_7 
REMARK    3  A    between atoms: C_7  and  C_8 
REMARK    4  A    between atoms: C_14  and  O_28 
REMARK    5  A    between atoms: C_15  and  C_18 
REMARK    6  A    between atoms: C_18  and  N_19 
REMARK    7  A    between atoms: N_22  and  C_25 
REMARK    8  A    between atoms: C_25  and  C_26 
REMARK    9  A    between atoms: C_26  and  O_27 
ROOT
ATOM      1  C   LIG d   1       3.329   0.452  -6.277  0.00  0.00     0.177 A 
ATOM      2  C   LIG d   1       2.752  -0.050  -5.080  0.00  0.00     0.232 A 
ATOM      3  O   LIG d   1       1.581   0.004  -4.743  0.00  0.00    -0.283 OA
ATOM      4  C   LIG d   1       3.871  -0.650  -4.334  0.00  0.00     0.068 A 
ATOM      5  C   LIG d   1       3.967  -1.299  -3.103  0.00  0.00    -0.044 A 
ATOM      6  C   LIG d   1       5.179  -1.757  -2.668  0.00  0.00    -0.019 A 
ATOM      7  C   LIG d   1       6.318  -1.576  -3.448  0.00  0.00     0.125 A 
ATOM      8  C   LIG d   1       6.238  -0.934  -4.673  0.00  0.00     0.051 A 
ATOM      9  C   LIG d   1       5.015  -0.463  -5.129  0.00  0.00     0.147 A 
ATOM     10  O   LIG d   1       4.656   0.180  -6.261  0.00  0.00    -0.451 OA
ATOM     11  H   LIG d   1       3.086  -1.441  -2.495  0.00  0.00     0.063 H 
ATOM     12  H   LIG d   1       5.253  -2.260  -1.715  0.00  0.00     0.065 H 
ENDROOT
BRANCH   8  13
ATOM     13  C   LIG d   1       7.478  -0.745  -5.508  0.00  0.00     0.031 C 
ATOM     14  H   LIG d   1       8.021  -1.688  -5.571  0.00  0.00     0.048 H 
ATOM     15  H   LIG d   1       7.197  -0.420  -6.509  0.00  0.00     0.048 H 
BRANCH  13  16
ATOM     16  N   LIG d   1       8.336   0.272  -4.886  0.00  0.00    -0.295 N 
ATOM     17  C   LIG d   1       9.741   0.086  -5.277  0.00  0.00     0.012 C 
ATOM     18  C   LIG d   1      10.611   1.114  -4.547  0.00  0.00     0.012 C 
ATOM     19  H   LIG d   1      10.063  -0.920  -5.007  0.00  0.00     0.044 H 
ATOM     20  H   LIG d   1       9.840   0.225  -6.353  0.00  0.00     0.044 H 
ATOM     21  N   LIG d   1      10.149   2.468  -4.882  0.00  0.00    -0.298 N 
ATOM     22  H   LIG d   1      11.649   0.996  -4.858  0.00  0.00     0.044 H 
ATOM     23  H   LIG d   1      10.533   0.958  -3.471  0.00  0.00     0.044 H 
ATOM     24  C   LIG d   1       8.744   2.653  -4.491  0.00  0.00     0.012 C 
ATOM     25  C   LIG d   1       7.874   1.627  -5.220  0.00  0.00     0.012 C 
ATOM     26  H   LIG d   1       8.422   3.660  -4.760  0.00  0.00     0.044 H 
ATOM     27  H   LIG d   1       8.645   2.515  -3.414  0.00  0.00     0.044 H 
ATOM     28  H   LIG d   1       7.953   1.783  -6.296  0.00  0.00     0.044 H 
ATOM     29  H   LIG d   1       6.836   1.744  -4.910  0.00  0.00     0.044 H 
BRANCH  21  30
ATOM     30  C   LIG d   1      11.007   3.485  -4.259  0.00  0.00     0.022 C 
ATOM     31  H   LIG d   1      11.992   3.061  -4.068  0.00  0.00     0.045 H 
ATOM     32  H   LIG d   1      11.102   4.339  -4.929  0.00  0.00     0.045 H 
BRANCH  30  33
ATOM     33  C   LIG d   1      10.382   3.941  -2.939  0.00  0.00     0.057 C 
ATOM     34  H   LIG d   1      10.483   5.022  -2.843  0.00  0.00     0.057 H 
ATOM     35  H   LIG d   1       9.326   3.672  -2.924  0.00  0.00     0.057 H 
BRANCH  33  36
ATOM     36  O   LIG d   1      11.051   3.302  -1.850  0.00  0.00    -0.394 OA
ATOM     37  H   LIG d   1      11.687   3.868  -1.392  0.00  0.00     0.209 HD
ENDBRANCH  33  36
ENDBRANCH  30  33
ENDBRANCH  21  30
ENDBRANCH  13  16
ENDBRANCH   8  13
BRANCH   7  38
ATOM     38  O   LIG d   1       7.517  -2.035  -3.005  0.00  0.00    -0.506 OA
ATOM     39  H   LIG d   1       7.862  -1.556  -2.239  0.00  0.00     0.292 HD
ENDBRANCH   7  38
BRANCH   1  40
ATOM     40  C   LIG d   1       2.660   1.095  -7.276  0.00  0.00    -0.002 C 
ATOM     41  H   LIG d   1       1.929   1.853  -7.037  0.00  0.00     0.067 H 
BRANCH  40  42
ATOM     42  C   LIG d   1       2.921   0.768  -8.626  0.00  0.00     0.019 A 
ATOM     43  C   LIG d   1       3.621   1.495  -9.585  0.00  0.00    -0.036 A 
ATOM     44  C   LIG d   1       3.714   0.908 -10.823  0.00  0.00    -0.051 A 
ATOM     45  C   LIG d   1       3.132  -0.300 -11.027  0.00  0.00    -0.024 A 
ATOM     46  H   LIG d   1       4.243   1.402 -11.624  0.00  0.00     0.063 H 
ATOM     47  S   LIG d   1       2.439  -0.681  -9.545  0.00  0.00    -0.097 SA
ATOM     48  H   LIG d   1       3.116  -0.885 -11.936  0.00  0.00     0.069 H 
BRANCH  43  49
ATOM     49  C   LIG d   1       4.243   2.834  -9.283  0.00  0.00    -0.039 C 
ATOM     50  H   LIG d   1       4.183   3.470 -10.166  0.00  0.00     0.028 H 
ATOM     51  H   LIG d   1       3.708   3.305  -8.459  0.00  0.00     0.028 H 
ATOM     52  H   LIG d   1       5.288   2.695  -9.006  0.00  0.00     0.028 H 
ENDBRANCH  43  49
ENDBRANCH  40  42
ENDBRANCH   1  40
TORSDOF 9
ENDMDL
MODEL 2
REMARK VINA RESULT:      -6.2      3.426      7.315
REMARK  9 active torsions:
REMARK  status: ('A' for Active; 'I' for Inactive)
REMARK    1  A    between atoms: C_1  and  C_2 
REMARK    2  A    between atoms: C_6  and  C_7 
REMARK    3  A    between atoms: C_7  and  C_8 
REMARK    4  A    between atoms: C_14  and  O_28 
REMARK    5  A    between atoms: C_15  and  C_18 
REMARK    6  A    between atoms: C_18  and  N_19 
REMARK    7  A    between atoms: N_22  and  C_25 
REMARK    8  A    between atoms: C_25  and  C_26 
REMARK    9  A    between atoms: C_26  and  O_27 
ROOT
ATOM      1  C   LIG d   1       7.499   1.095  -4.419  0.00  0.00     0.177 A 
ATOM      2  C   LIG d   1       8.848   1.500  -4.602  0.00  0.00     0.232 A 
ATOM      3  O   LIG d   1       9.700   1.649  -3.741  0.00  0.00    -0.283 OA
ATOM      4  C   LIG d   1       8.997   1.702  -6.053  0.00  0.00     0.068 A 
ATOM      5  C   LIG d   1      10.062   2.097  -6.864  0.00  0.00    -0.044 A 
ATOM      6  C   LIG d   1       9.887   2.195  -8.216  0.00  0.00    -0.019 A 
ATOM      7  C   LIG d   1       8.649   1.906  -8.785  0.00  0.00     0.125 A 
ATOM      8  C   LIG d   1       7.583   1.513  -7.992  0.00  0.00     0.051 A 
ATOM      9  C   LIG d   1       7.745   1.407  -6.618  0.00  0.00     0.147 A 
ATOM     10  O   LIG d   1       6.896   1.050  -5.630  0.00  0.00    -0.451 OA
ATOM     11  H   LIG d   1      11.022   2.322  -6.425  0.00  0.00     0.063 H 
ATOM     12  H   LIG d   1      10.711   2.500  -8.843  0.00  0.00     0.065 H 
ENDROOT
BRANCH   8  13
ATOM     13  C   LIG d   1       6.250   1.202  -8.622  0.00  0.00     0.031 C 
ATOM     14  H   LIG d   1       5.498   1.891  -8.237  0.00  0.00     0.048 H 
ATOM     15  H   LIG d   1       6.323   1.313  -9.703  0.00  0.00     0.048 H 
BRANCH  13  16
ATOM     16  N   LIG d   1       5.863  -0.176  -8.295  0.00  0.00    -0.295 N 
ATOM     17  C   LIG d   1       4.454  -0.244  -7.880  0.00  0.00     0.012 C 
ATOM     18  C   LIG d   1       4.114  -1.680  -7.473  0.00  0.00     0.012 C 
ATOM     19  H   LIG d   1       4.293   0.423  -7.032  0.00  0.00     0.044 H 
ATOM     20  H   LIG d   1       3.817   0.060  -8.710  0.00  0.00     0.044 H 
ATOM     21  N   LIG d   1       4.371  -2.581  -8.605  0.00  0.00    -0.298 N 
ATOM     22  H   LIG d   1       3.062  -1.738  -7.192  0.00  0.00     0.044 H 
ATOM     23  H   LIG d   1       4.733  -1.974  -6.625  0.00  0.00     0.044 H 
ATOM     24  C   LIG d   1       5.779  -2.513  -9.020  0.00  0.00     0.012 C 
ATOM     25  C   LIG d   1       6.120  -1.078  -9.427  0.00  0.00     0.012 C 
ATOM     26  H   LIG d   1       5.941  -3.179  -9.867  0.00  0.00     0.044 H 
ATOM     27  H   LIG d   1       6.418  -2.817  -8.190  0.00  0.00     0.044 H 
ATOM     28  H   LIG d   1       5.499  -0.783 -10.274  0.00  0.00     0.044 H 
ATOM     29  H   LIG d   1       7.171  -1.019  -9.707  0.00  0.00     0.044 H 
BRANCH  21  30
ATOM     30  C   LIG d   1       3.984  -3.960  -8.278  0.00  0.00     0.022 C 
ATOM     31  H   LIG d   1       2.929  -4.106  -8.508  0.00  0.00     0.045 H 
ATOM     32  H   LIG d   1       4.585  -4.655  -8.865  0.00  0.00     0.045 H 
BRANCH  30  33
ATOM     33  C   LIG d   1       4.221  -4.216  -6.788  0.00  0.00     0.057 C 
ATOM     34  H   LIG d   1       5.194  -4.689  -6.650  0.00  0.00     0.057 H 
ATOM     35  H   LIG d   1       4.198  -3.270  -6.248  0.00  0.00     0.057 H 
BRANCH  33  36
ATOM     36  O   LIG d   1       3.198  -5.076  -6.284  0.00  0.00    -0.394 OA
ATOM     37  H   LIG d   1       3.526  -5.793  -5.725  0.00  0.00     0.209 HD
ENDBRANCH  33  36
ENDBRANCH  30  33
ENDBRANCH  21  30
ENDBRANCH  13  16
ENDBRANCH   8  13
BRANCH   7  38
ATOM     38  O   LIG d   1       8.487   2.008 -10.129  0.00  0.00    -0.506 OA
ATOM     39  H   LIG d   1       8.409   2.919 -10.448  0.00  0.00     0.292 HD
ENDBRANCH   7  38
BRANCH   1  40
ATOM     40  C   LIG d   1       6.911   0.796  -3.225  0.00  0.00    -0.002 C 
ATOM     41  H   LIG d   1       7.188   1.340  -2.334  0.00  0.00     0.067 H 
BRANCH  40  42
ATOM     42  C   LIG d   1       5.939  -0.227  -3.152  0.00  0.00     0.019 A 
ATOM     43  C   LIG d   1       4.717  -0.231  -2.485  0.00  0.00    -0.036 A 
ATOM     44  C   LIG d   1       3.978  -1.382  -2.605  0.00  0.00    -0.051 A 
ATOM     45  C   LIG d   1       4.473  -2.410  -3.339  0.00  0.00    -0.024 A 
ATOM     46  H   LIG d   1       3.017  -1.468  -2.122  0.00  0.00     0.063 H 
ATOM     47  S   LIG d   1       5.958  -1.849  -3.891  0.00  0.00    -0.097 SA
ATOM     48  H   LIG d   1       4.017  -3.372  -3.527  0.00  0.00     0.069 H 
BRANCH  43  49
ATOM     49  C   LIG d   1       4.233   0.953  -1.687  0.00  0.00    -0.039 C 
ATOM     50  H   LIG d   1       4.620   0.889  -0.671  0.00  0.00     0.028 H 
ATOM     51  H   LIG d   1       4.586   1.873  -2.153  0.00  0.00     0.028 H 
ATOM     52  H   LIG d   1       3.143   0.953  -1.662  0.00  0.00     0.028 H 
ENDBRANCH  43  49
ENDBRANCH  40  42
ENDBRANCH   1  40
TORSDOF 9
ENDMDL
MODEL 3
REMARK VINA RESULT:      -5.9      7.211     11.212
REMARK  9 active torsions:
REMARK  status: ('A' for Active; 'I' for Inactive)
REMARK    1  A    between atoms: C_1  and  C_2 
REMARK    2  A    between atoms: C_6  and  C_7 
REMARK    3  A    between atoms: C_7  and  C_8 
REMARK    4  A    between atoms: C_14  and  O_28 
REMARK    5  A    between atoms: C_15  and  C_18 
REMARK    6  A    between atoms: C_18  and  N_19 
REMARK    7  A    between atoms: N_22  and  C_25 
REMARK    8  A    between atoms: C_25  and  C_26 
REMARK    9  A    between atoms: C_26  and  O_27 
ROOT
ATOM      1  C   LIG d   1      10.434   6.393  -1.198  0.00  0.00     0.177 A 
ATOM      2  C   LIG d   1      11.232   6.651  -0.052  0.00  0.00     0.232 A 
ATOM      3  O   LIG d   1      11.938   5.860   0.553  0.00  0.00    -0.283 OA
ATOM      4  C   LIG d   1      11.025   8.077   0.251  0.00  0.00     0.068 A 
ATOM      5  C   LIG d   1      11.516   8.931   1.239  0.00  0.00    -0.044 A 
ATOM      6  C   LIG d   1      11.128  10.241   1.259  0.00  0.00    -0.019 A 
ATOM      7  C   LIG d   1      10.243  10.726   0.300  0.00  0.00     0.125 A 
ATOM      8  C   LIG d   1       9.748   9.889  -0.687  0.00  0.00     0.051 A 
ATOM      9  C   LIG d   1      10.132   8.556  -0.722  0.00  0.00     0.147 A 
ATOM     10  O   LIG d   1       9.813   7.542  -1.556  0.00  0.00    -0.451 OA
ATOM     11  H   LIG d   1      12.202   8.558   1.985  0.00  0.00     0.063 H 
ATOM     12  H   LIG d   1      11.509  10.903   2.024  0.00  0.00     0.065 H 
ENDROOT
BRANCH   8  13
ATOM     13  C   LIG d   1       8.791  10.426  -1.720  0.00  0.00     0.031 C 
ATOM     14  H   LIG d   1       8.225   9.602  -2.155  0.00  0.00     0.048 H 
ATOM     15  H   LIG d   1       8.103  11.128  -1.249  0.00  0.00     0.048 H 
BRANCH  13  16
ATOM     16  N   LIG d   1       9.545  11.113  -2.776  0.00  0.00    -0.295 N 
ATOM     17  C   LIG d   1       9.657  10.271  -3.976  0.00  0.00     0.012 C 
ATOM     18  C   LIG d   1      10.515  10.989  -5.021  0.00  0.00     0.012 C 
ATOM     19  H   LIG d   1      10.123   9.322  -3.712  0.00  0.00     0.044 H 
ATOM     20  H   LIG d   1       8.664  10.088  -4.385  0.00  0.00     0.044 H 
ATOM     21  N   LIG d   1       9.904  12.285  -5.346  0.00  0.00    -0.298 N 
ATOM     22  H   LIG d   1      10.576  10.378  -5.922  0.00  0.00     0.044 H 
ATOM     23  H   LIG d   1      11.517  11.148  -4.622  0.00  0.00     0.044 H 
ATOM     24  C   LIG d   1       9.792  13.127  -4.147  0.00  0.00     0.012 C 
ATOM     25  C   LIG d   1       8.934  12.410  -3.101  0.00  0.00     0.012 C 
ATOM     26  H   LIG d   1       9.326  14.076  -4.410  0.00  0.00     0.044 H 
ATOM     27  H   LIG d   1      10.786  13.311  -3.737  0.00  0.00     0.044 H 
ATOM     28  H   LIG d   1       7.933  12.250  -3.501  0.00  0.00     0.044 H 
ATOM     29  H   LIG d   1       8.874  13.019  -2.200  0.00  0.00     0.044 H 
BRANCH  21  30
ATOM     30  C   LIG d   1      10.659  12.973  -6.402  0.00  0.00     0.022 C 
ATOM     31  H   LIG d   1      11.314  13.719  -5.953  0.00  0.00     0.045 H 
ATOM     32  H   LIG d   1      11.258  12.247  -6.952  0.00  0.00     0.045 H 
BRANCH  30  33
ATOM     33  C   LIG d   1       9.684  13.659  -7.361  0.00  0.00     0.057 C 
ATOM     34  H   LIG d   1       9.078  14.378  -6.810  0.00  0.00     0.057 H 
ATOM     35  H   LIG d   1      10.244  14.177  -8.140  0.00  0.00     0.057 H 
BRANCH  33  36
ATOM     36  O   LIG d   1       8.834  12.678  -7.959  0.00  0.00    -0.394 OA
ATOM     37  H   LIG d   1       8.476  12.939  -8.818  0.00  0.00     0.209 HD
ENDBRANCH  33  36
ENDBRANCH  30  33
ENDBRANCH  21  30
ENDBRANCH  13  16
ENDBRANCH   8  13
BRANCH   7  38
ATOM     38  O   LIG d   1       9.865  12.029   0.331  0.00  0.00    -0.506 OA
ATOM     39  H   LIG d   1      10.567  12.637   0.603  0.00  0.00     0.292 HD
ENDBRANCH   7  38
BRANCH   1  40
ATOM     40  C   LIG d   1      10.316   5.193  -1.834  0.00  0.00    -0.002 C 
ATOM     41  H   LIG d   1      10.346   4.275  -1.267  0.00  0.00     0.067 H 
BRANCH  40  42
ATOM     42  C   LIG d   1      10.155   5.149  -3.238  0.00  0.00     0.019 A 
ATOM     43  C   LIG d   1       9.675   4.114  -4.035  0.00  0.00    -0.036 A 
ATOM     44  C   LIG d   1       9.629   4.374  -5.382  0.00  0.00    -0.051 A 
ATOM     45  C   LIG d   1      10.046   5.582  -5.836  0.00  0.00    -0.024 A 
ATOM     46  H   LIG d   1       9.267   3.627  -6.072  0.00  0.00     0.063 H 
ATOM     47  S   LIG d   1      10.514   6.407  -4.449  0.00  0.00    -0.097 SA
ATOM     48  H   LIG d   1      10.073   5.935  -6.857  0.00  0.00     0.069 H 
BRANCH  43  49
ATOM     49  C   LIG d   1       9.228   2.796  -3.456  0.00  0.00    -0.039 C 
ATOM     50  H   LIG d   1       8.167   2.651  -3.657  0.00  0.00     0.028 H 
ATOM     51  H   LIG d   1       9.798   1.987  -3.913  0.00  0.00     0.028 H 
ATOM     52  H   LIG d   1       9.398   2.796  -2.379  0.00  0.00     0.028 H 
ENDBRANCH  43  49
ENDBRANCH  40  42
ENDBRANCH   1  40
TORSDOF 9
ENDMDL
MODEL 4
REMARK VINA RESULT:      -5.9      3.290      6.402
REMARK  9 active torsions:
REMARK  status: ('A' for Active; 'I' for Inactive)
REMARK    1  A    between atoms: C_1  and  C_2 
REMARK    2  A    between atoms: C_6  and  C_7 
REMARK    3  A    between atoms: C_7  and  C_8 
REMARK    4  A    between atoms: C_14  and  O_28 
REMARK    5  A    between atoms: C_15  and  C_18 
REMARK    6  A    between atoms: C_18  and  N_19 
REMARK    7  A    between atoms: N_22  and  C_25 
REMARK    8  A    between atoms: C_25  and  C_26 
REMARK    9  A    between atoms: C_26  and  O_27 
ROOT
ATOM      1  C   LIG d   1       7.907   0.800  -5.108  0.00  0.00     0.177 A 
ATOM      2  C   LIG d   1       7.604   1.508  -3.914  0.00  0.00     0.232 A 
ATOM      3  O   LIG d   1       8.275   2.372  -3.374  0.00  0.00    -0.283 OA
ATOM      4  C   LIG d   1       6.305   0.976  -3.469  0.00  0.00     0.068 A 
ATOM      5  C   LIG d   1       5.476   1.249  -2.380  0.00  0.00    -0.044 A 
ATOM      6  C   LIG d   1       4.299   0.570  -2.234  0.00  0.00    -0.019 A 
ATOM      7  C   LIG d   1       3.926  -0.395  -3.166  0.00  0.00     0.125 A 
ATOM      8  C   LIG d   1       4.739  -0.677  -4.252  0.00  0.00     0.051 A 
ATOM      9  C   LIG d   1       5.937   0.004  -4.416  0.00  0.00     0.147 A 
ATOM     10  O   LIG d   1       6.897  -0.065  -5.362  0.00  0.00    -0.451 OA
ATOM     11  H   LIG d   1       5.763   1.997  -1.656  0.00  0.00     0.063 H 
ATOM     12  H   LIG d   1       3.657   0.782  -1.391  0.00  0.00     0.065 H 
ENDROOT
BRANCH   8  13
ATOM     13  C   LIG d   1       4.323  -1.723  -5.253  0.00  0.00     0.031 C 
ATOM     14  H   LIG d   1       5.064  -2.522  -5.273  0.00  0.00     0.048 H 
ATOM     15  H   LIG d   1       3.354  -2.134  -4.969  0.00  0.00     0.048 H 
BRANCH  13  16
ATOM     16  N   LIG d   1       4.225  -1.114  -6.586  0.00  0.00    -0.295 N 
ATOM     17  C   LIG d   1       4.136  -2.144  -7.631  0.00  0.00     0.012 C 
ATOM     18  C   LIG d   1       4.115  -1.471  -9.006  0.00  0.00     0.012 C 
ATOM     19  H   LIG d   1       5.000  -2.806  -7.563  0.00  0.00     0.044 H 
ATOM     20  H   LIG d   1       3.222  -2.722  -7.495  0.00  0.00     0.044 H 
ATOM     21  N   LIG d   1       2.973  -0.550  -9.080  0.00  0.00    -0.298 N 
ATOM     22  H   LIG d   1       4.021  -2.232  -9.781  0.00  0.00     0.044 H 
ATOM     23  H   LIG d   1       5.041  -0.915  -9.153  0.00  0.00     0.044 H 
ATOM     24  C   LIG d   1       3.061   0.479  -8.036  0.00  0.00     0.012 C 
ATOM     25  C   LIG d   1       3.082  -0.193  -6.661  0.00  0.00     0.012 C 
ATOM     26  H   LIG d   1       2.197   1.142  -8.103  0.00  0.00     0.044 H 
ATOM     27  H   LIG d   1       3.975   1.058  -8.172  0.00  0.00     0.044 H 
ATOM     28  H   LIG d   1       2.156  -0.749  -6.515  0.00  0.00     0.044 H 
ATOM     29  H   LIG d   1       3.177   0.567  -5.886  0.00  0.00     0.044 H 
BRANCH  21  30
ATOM     30  C   LIG d   1       2.874   0.060 -10.413  0.00  0.00     0.022 C 
ATOM     31  H   LIG d   1       3.197  -0.659 -11.166  0.00  0.00     0.045 H 
ATOM     32  H   LIG d   1       1.841   0.349 -10.605  0.00  0.00     0.045 H 
BRANCH  30  33
ATOM     33  C   LIG d   1       3.770   1.299 -10.474  0.00  0.00     0.057 C 
ATOM     34  H   LIG d   1       3.222   2.121 -10.935  0.00  0.00     0.057 H 
ATOM     35  H   LIG d   1       4.068   1.582  -9.465  0.00  0.00     0.057 H 
BRANCH  33  36
ATOM     36  O   LIG d   1       4.934   1.008 -11.250  0.00  0.00    -0.394 OA
ATOM     37  H   LIG d   1       5.765   1.246 -10.817  0.00  0.00     0.209 HD
ENDBRANCH  33  36
ENDBRANCH  30  33
ENDBRANCH  21  30
ENDBRANCH  13  16
ENDBRANCH   8  13
BRANCH   7  38
ATOM     38  O   LIG d   1       2.755  -1.064  -3.009  0.00  0.00    -0.506 OA
ATOM     39  H   LIG d   1       2.299  -0.870  -2.179  0.00  0.00     0.292 HD
ENDBRANCH   7  38
BRANCH   1  40
ATOM     40  C   LIG d   1       9.025   0.967  -5.871  0.00  0.00    -0.002 C 
ATOM     41  H   LIG d   1       9.831   0.251  -5.814  0.00  0.00     0.067 H 
BRANCH  40  42
ATOM     42  C   LIG d   1       9.128   2.078  -6.739  0.00  0.00     0.019 A 
ATOM     43  C   LIG d   1       8.620   2.237  -8.026  0.00  0.00    -0.036 A 
ATOM     44  C   LIG d   1       8.882   3.446  -8.622  0.00  0.00    -0.051 A 
ATOM     45  C   LIG d   1       9.601   4.375  -7.943  0.00  0.00    -0.024 A 
ATOM     46  H   LIG d   1       8.522   3.655  -9.618  0.00  0.00     0.063 H 
ATOM     47  S   LIG d   1       9.945   3.640  -6.472  0.00  0.00    -0.097 SA
ATOM     48  H   LIG d   1       9.888   5.364  -8.272  0.00  0.00     0.069 H 
BRANCH  43  49
ATOM     49  C   LIG d   1       7.829   1.157  -8.716  0.00  0.00    -0.039 C 
ATOM     50  H   LIG d   1       6.801   1.491  -8.854  0.00  0.00     0.028 H 
ATOM     51  H   LIG d   1       8.275   0.944  -9.688  0.00  0.00     0.028 H 
ATOM     52  H   LIG d   1       7.839   0.253  -8.106  0.00  0.00     0.028 H 
ENDBRANCH  43  49
ENDBRANCH  40  42
ENDBRANCH   1  40
TORSDOF 9
ENDMDL
MODEL 5
REMARK VINA RESULT:      -5.9      4.552      9.260
REMARK  9 active torsions:
REMARK  status: ('A' for Active; 'I' for Inactive)
REMARK    1  A    between atoms: C_1  and  C_2 
REMARK    2  A    between atoms: C_6  and  C_7 
REMARK    3  A    between atoms: C_7  and  C_8 
REMARK    4  A    between atoms: C_14  and  O_28 
REMARK    5  A    between atoms: C_15  and  C_18 
REMARK    6  A    between atoms: C_18  and  N_19 
REMARK    7  A    between atoms: N_22  and  C_25 
REMARK    8  A    between atoms: C_25  and  C_26 
REMARK    9  A    between atoms: C_26  and  O_27 
ROOT
ATOM      1  C   LIG d   1       3.154  -0.090  -7.258  0.00  0.00     0.177 A 
ATOM      2  C   LIG d   1       3.181   1.032  -8.129  0.00  0.00     0.232 A 
ATOM      3  O   LIG d   1       2.989   2.201  -7.838  0.00  0.00    -0.283 OA
ATOM      4  C   LIG d   1       3.491   0.481  -9.459  0.00  0.00     0.068 A 
ATOM      5  C   LIG d   1       3.653   1.051 -10.722  0.00  0.00    -0.044 A 
ATOM      6  C   LIG d   1       3.945   0.257 -11.795  0.00  0.00    -0.019 A 
ATOM      7  C   LIG d   1       4.077  -1.120 -11.632  0.00  0.00     0.125 A 
ATOM      8  C   LIG d   1       3.918  -1.700 -10.384  0.00  0.00     0.051 A 
ATOM      9  C   LIG d   1       3.623  -0.907  -9.284  0.00  0.00     0.147 A 
ATOM     10  O   LIG d   1       3.425  -1.202  -7.981  0.00  0.00    -0.451 OA
ATOM     11  H   LIG d   1       3.551   2.119 -10.851  0.00  0.00     0.063 H 
ATOM     12  H   LIG d   1       4.071   0.699 -12.772  0.00  0.00     0.065 H 
ENDROOT
BRANCH   8  13
ATOM     13  C   LIG d   1       4.064  -3.191 -10.222  0.00  0.00     0.031 C 
ATOM     14  H   LIG d   1       4.531  -3.610 -11.114  0.00  0.00     0.048 H 
ATOM     15  H   LIG d   1       4.687  -3.404  -9.353  0.00  0.00     0.048 H 
BRANCH  13  16
ATOM     16  N   LIG d   1       2.739  -3.795 -10.035  0.00  0.00    -0.295 N 
ATOM     17  C   LIG d   1       1.737  -3.144 -10.891  0.00  0.00     0.012 C 
ATOM     18  C   LIG d   1       0.359  -3.747 -10.608  0.00  0.00     0.012 C 
ATOM     19  H   LIG d   1       1.717  -2.075 -10.677  0.00  0.00     0.044 H 
ATOM     20  H   LIG d   1       1.996  -3.302 -11.937  0.00  0.00     0.044 H 
ATOM     21  N   LIG d   1       0.400  -5.195 -10.859  0.00  0.00    -0.298 N 
ATOM     22  H   LIG d   1      -0.381  -3.285 -11.262  0.00  0.00     0.044 H 
ATOM     23  H   LIG d   1       0.088  -3.566  -9.568  0.00  0.00     0.044 H 
ATOM     24  C   LIG d   1       1.402  -5.846 -10.004  0.00  0.00     0.012 C 
ATOM     25  C   LIG d   1       2.780  -5.243 -10.285  0.00  0.00     0.012 C 
ATOM     26  H   LIG d   1       1.422  -6.915 -10.216  0.00  0.00     0.044 H 
ATOM     27  H   LIG d   1       1.143  -5.689  -8.956  0.00  0.00     0.044 H 
ATOM     28  H   LIG d   1       3.049  -5.424 -11.326  0.00  0.00     0.044 H 
ATOM     29  H   LIG d   1       3.520  -5.704  -9.631  0.00  0.00     0.044 H 
BRANCH  21  30
ATOM     30  C   LIG d   1      -0.926  -5.799 -10.671  0.00  0.00     0.022 C 
ATOM     31  H   LIG d   1      -1.654  -5.017 -10.457  0.00  0.00     0.045 H 
ATOM     32  H   LIG d   1      -1.216  -6.328 -11.579  0.00  0.00     0.045 H 
BRANCH  30  33
ATOM     33  C   LIG d   1      -0.876  -6.784  -9.501  0.00  0.00     0.057 C 
ATOM     34  H   LIG d   1      -1.348  -7.722  -9.795  0.00  0.00     0.057 H 
ATOM     35  H   LIG d   1       0.163  -6.971  -9.227  0.00  0.00     0.057 H 
BRANCH  33  36
ATOM     36  O   LIG d   1      -1.570  -6.230  -8.382  0.00  0.00    -0.394 OA
ATOM     37  H   LIG d   1      -1.003  -5.745  -7.768  0.00  0.00     0.209 HD
ENDBRANCH  33  36
ENDBRANCH  30  33
ENDBRANCH  21  30
ENDBRANCH  13  16
ENDBRANCH   8  13
BRANCH   7  38
ATOM     38  O   LIG d   1       4.365  -1.899 -12.706  0.00  0.00    -0.506 OA
ATOM     39  H   LIG d   1       5.294  -2.165 -12.761  0.00  0.00     0.292 HD
ENDBRANCH   7  38
BRANCH   1  40
ATOM     40  C   LIG d   1       2.904  -0.053  -5.918  0.00  0.00    -0.002 C 
ATOM     41  H   LIG d   1       1.931   0.246  -5.558  0.00  0.00     0.067 H 
BRANCH  40  42
ATOM     42  C   LIG d   1       3.918  -0.405  -4.999  0.00  0.00     0.019 A 
ATOM     43  C   LIG d   1       3.804  -0.751  -3.655  0.00  0.00    -0.036 A 
ATOM     44  C   LIG d   1       4.982  -1.053  -3.018  0.00  0.00    -0.051 A 
ATOM     45  C   LIG d   1       6.145  -0.992  -3.715  0.00  0.00    -0.024 A 
ATOM     46  H   LIG d   1       4.984  -1.334  -1.976  0.00  0.00     0.063 H 
ATOM     47  S   LIG d   1       5.678  -0.522  -5.259  0.00  0.00    -0.097 SA
ATOM     48  H   LIG d   1       7.144  -1.197  -3.358  0.00  0.00     0.069 H 
BRANCH  43  49
ATOM     49  C   LIG d   1       2.474  -0.797  -2.948  0.00  0.00    -0.039 C 
ATOM     50  H   LIG d   1       2.241   0.189  -2.548  0.00  0.00     0.028 H 
ATOM     51  H   LIG d   1       1.698  -1.097  -3.652  0.00  0.00     0.028 H 
ATOM     52  H   LIG d   1       2.523  -1.519  -2.132  0.00  0.00     0.028 H 
ENDBRANCH  43  49
ENDBRANCH  40  42
ENDBRANCH   1  40
TORSDOF 9
ENDMDL
MODEL 6
REMARK VINA RESULT:      -5.8      7.787     10.199
REMARK  9 active torsions:
REMARK  status: ('A' for Active; 'I' for Inactive)
REMARK    1  A    between atoms: C_1  and  C_2 
REMARK    2  A    between atoms: C_6  and  C_7 
REMARK    3  A    between atoms: C_7  and  C_8 
REMARK    4  A    between atoms: C_14  and  O_28 
REMARK    5  A    between atoms: C_15  and  C_18 
REMARK    6  A    between atoms: C_18  and  N_19 
REMARK    7  A    between atoms: N_22  and  C_25 
REMARK    8  A    between atoms: C_25  and  C_26 
REMARK    9  A    between atoms: C_26  and  O_27 
ROOT
ATOM      1  C   LIG d   1       9.506   6.433  -3.342  0.00  0.00     0.177 A 
ATOM      2  C   LIG d   1       9.993   5.506  -2.382  0.00  0.00     0.232 A 
ATOM      3  O   LIG d   1      10.049   4.292  -2.486  0.00  0.00    -0.283 OA
ATOM      4  C   LIG d   1      10.416   6.326  -1.234  0.00  0.00     0.068 A 
ATOM      5  C   LIG d   1      10.972   6.024   0.009  0.00  0.00    -0.044 A 
ATOM      6  C   LIG d   1      11.264   7.031   0.886  0.00  0.00    -0.019 A 
ATOM      7  C   LIG d   1      11.006   8.356   0.544  0.00  0.00     0.125 A 
ATOM      8  C   LIG d   1      10.455   8.670  -0.688  0.00  0.00     0.051 A 
ATOM      9  C   LIG d   1      10.153   7.660  -1.590  0.00  0.00     0.147 A 
ATOM     10  O   LIG d   1       9.626   7.682  -2.833  0.00  0.00    -0.451 OA
ATOM     11  H   LIG d   1      11.173   4.998   0.278  0.00  0.00     0.063 H 
ATOM     12  H   LIG d   1      11.695   6.797   1.849  0.00  0.00     0.065 H 
ENDROOT
BRANCH   8  13
ATOM     13  C   LIG d   1      10.181  10.108  -1.046  0.00  0.00     0.031 C 
ATOM     14  H   LIG d   1       9.205  10.400  -0.659  0.00  0.00     0.048 H 
ATOM     15  H   LIG d   1      10.950  10.745  -0.609  0.00  0.00     0.048 H 
BRANCH  13  16
ATOM     16  N   LIG d   1      10.192  10.259  -2.507  0.00  0.00    -0.295 N 
ATOM     17  C   LIG d   1       9.126  11.169  -2.951  0.00  0.00     0.012 C 
ATOM     18  C   LIG d   1       9.121  11.237  -4.480  0.00  0.00     0.012 C 
ATOM     19  H   LIG d   1       8.163  10.798  -2.600  0.00  0.00     0.044 H 
ATOM     20  H   LIG d   1       9.305  12.164  -2.543  0.00  0.00     0.044 H 
ATOM     21  N   LIG d   1      10.434  11.700  -4.951  0.00  0.00    -0.298 N 
ATOM     22  H   LIG d   1       8.350  11.933  -4.810  0.00  0.00     0.044 H 
ATOM     23  H   LIG d   1       8.916  10.247  -4.888  0.00  0.00     0.044 H 
ATOM     24  C   LIG d   1      11.500  10.791  -4.507  0.00  0.00     0.012 C 
ATOM     25  C   LIG d   1      11.505  10.722  -2.978  0.00  0.00     0.012 C 
ATOM     26  H   LIG d   1      12.464  11.161  -4.858  0.00  0.00     0.044 H 
ATOM     27  H   LIG d   1      11.322   9.795  -4.916  0.00  0.00     0.044 H 
ATOM     28  H   LIG d   1      11.710  11.712  -2.571  0.00  0.00     0.044 H 
ATOM     29  H   LIG d   1      12.276  10.025  -2.648  0.00  0.00     0.044 H 
BRANCH  21  30
ATOM     30  C   LIG d   1      10.446  11.850  -6.412  0.00  0.00     0.022 C 
ATOM     31  H   LIG d   1      11.473  11.961  -6.758  0.00  0.00     0.045 H 
ATOM     32  H   LIG d   1      10.000  10.969  -6.872  0.00  0.00     0.045 H 
BRANCH  30  33
ATOM     33  C   LIG d   1       9.640  13.091  -6.803  0.00  0.00     0.057 C 
ATOM     34  H   LIG d   1       8.989  13.377  -5.977  0.00  0.00     0.057 H 
ATOM     35  H   LIG d   1      10.321  13.911  -7.029  0.00  0.00     0.057 H 
BRANCH  33  36
ATOM     36  O   LIG d   1       8.847  12.800  -7.956  0.00  0.00    -0.394 OA
ATOM     37  H   LIG d   1       9.275  12.208  -8.589  0.00  0.00     0.209 HD
ENDBRANCH  33  36
ENDBRANCH  30  33
ENDBRANCH  21  30
ENDBRANCH  13  16
ENDBRANCH   8  13
BRANCH   7  38
ATOM     38  O   LIG d   1      11.299   9.347   1.424  0.00  0.00    -0.506 OA
ATOM     39  H   LIG d   1      12.234   9.597   1.438  0.00  0.00     0.292 HD
ENDBRANCH   7  38
BRANCH   1  40
ATOM     40  C   LIG d   1       9.006   6.118  -4.571  0.00  0.00    -0.002 C 
ATOM     41  H   LIG d   1       7.952   5.913  -4.690  0.00  0.00     0.067 H 
BRANCH  40  42
ATOM     42  C   LIG d   1       9.866   6.062  -5.691  0.00  0.00     0.019 A 
ATOM     43  C   LIG d   1      10.038   6.990  -6.714  0.00  0.00    -0.036 A 
ATOM     44  C   LIG d   1      10.963   6.654  -7.672  0.00  0.00    -0.051 A 
ATOM     45  C   LIG d   1      11.624   5.475  -7.565  0.00  0.00    -0.024 A 
ATOM     46  H   LIG d   1      11.161   7.319  -8.499  0.00  0.00     0.063 H 
ATOM     47  S   LIG d   1      11.014   4.782  -6.162  0.00  0.00    -0.097 SA
ATOM     48  H   LIG d   1      12.373   5.071  -8.232  0.00  0.00     0.069 H 
BRANCH  43  49
ATOM     49  C   LIG d   1       9.264   8.283  -6.764  0.00  0.00    -0.039 C 
ATOM     50  H   LIG d   1       8.445   8.244  -6.047  0.00  0.00     0.028 H 
ATOM     51  H   LIG d   1       9.926   9.112  -6.515  0.00  0.00     0.028 H 
ATOM     52  H   LIG d   1       8.863   8.427  -7.768  0.00  0.00     0.028 H 
ENDBRANCH  43  49
ENDBRANCH  40  42
ENDBRANCH   1  40
TORSDOF 9
ENDMDL
MODEL 7
REMARK VINA RESULT:      -5.8      4.098      6.734
REMARK  9 active torsions:
REMARK  status: ('A' for Active; 'I' for Inactive)
REMARK    1  A    between atoms: C_1  and  C_2 
REMARK    2  A    between atoms: C_6  and  C_7 
REMARK    3  A    between atoms: C_7  and  C_8 
REMARK    4  A    between atoms: C_14  and  O_28 
REMARK    5  A    between atoms: C_15  and  C_18 
REMARK    6  A    between atoms: C_18  and  N_19 
REMARK    7  A    between atoms: N_22  and  C_25 
REMARK    8  A    between atoms: C_25  and  C_26 
REMARK    9  A    between atoms: C_26  and  O_27 
ROOT
ATOM      1  C   LIG d   1       7.659   1.931  -3.987  0.00  0.00     0.177 A 
ATOM      2  C   LIG d   1       7.957   1.581  -5.331  0.00  0.00     0.232 A 
ATOM      3  O   LIG d   1       7.220   1.031  -6.135  0.00  0.00    -0.283 OA
ATOM      4  C   LIG d   1       9.345   2.023  -5.547  0.00  0.00     0.068 A 
ATOM      5  C   LIG d   1      10.212   1.969  -6.639  0.00  0.00    -0.044 A 
ATOM      6  C   LIG d   1      11.476   2.477  -6.529  0.00  0.00    -0.019 A 
ATOM      7  C   LIG d   1      11.902   3.045  -5.331  0.00  0.00     0.125 A 
ATOM      8  C   LIG d   1      11.052   3.105  -4.239  0.00  0.00     0.051 A 
ATOM      9  C   LIG d   1       9.765   2.594  -4.334  0.00  0.00     0.147 A 
ATOM     10  O   LIG d   1       8.748   2.527  -3.447  0.00  0.00    -0.451 OA
ATOM     11  H   LIG d   1       9.884   1.529  -7.569  0.00  0.00     0.063 H 
ATOM     12  H   LIG d   1      12.147   2.435  -7.375  0.00  0.00     0.065 H 
ENDROOT
BRANCH   8  13
ATOM     13  C   LIG d   1      11.525   3.722  -2.948  0.00  0.00     0.031 C 
ATOM     14  H   LIG d   1      11.213   3.098  -2.111  0.00  0.00     0.048 H 
ATOM     15  H   LIG d   1      12.612   3.798  -2.958  0.00  0.00     0.048 H 
BRANCH  13  16
ATOM     16  N   LIG d   1      10.942   5.062  -2.804  0.00  0.00    -0.295 N 
ATOM     17  C   LIG d   1      10.624   5.350  -1.398  0.00  0.00     0.012 C 
ATOM     18  C   LIG d   1       9.947   6.720  -1.301  0.00  0.00     0.012 C 
ATOM     19  H   LIG d   1       9.951   4.583  -1.014  0.00  0.00     0.044 H 
ATOM     20  H   LIG d   1      11.543   5.356  -0.812  0.00  0.00     0.044 H 
ATOM     21  N   LIG d   1      10.841   7.745  -1.856  0.00  0.00    -0.298 N 
ATOM     22  H   LIG d   1       9.736   6.947  -0.255  0.00  0.00     0.044 H 
ATOM     23  H   LIG d   1       9.015   6.706  -1.865  0.00  0.00     0.044 H 
ATOM     24  C   LIG d   1      11.159   7.458  -3.261  0.00  0.00     0.012 C 
ATOM     25  C   LIG d   1      11.836   6.088  -3.359  0.00  0.00     0.012 C 
ATOM     26  H   LIG d   1      11.833   8.224  -3.646  0.00  0.00     0.044 H 
ATOM     27  H   LIG d   1      10.240   7.452  -3.848  0.00  0.00     0.044 H 
ATOM     28  H   LIG d   1      12.768   6.103  -2.794  0.00  0.00     0.044 H 
ATOM     29  H   LIG d   1      12.046   5.860  -4.404  0.00  0.00     0.044 H 
BRANCH  21  30
ATOM     30  C   LIG d   1      10.258   9.086  -1.712  0.00  0.00     0.022 C 
ATOM     31  H   LIG d   1      10.966   9.737  -1.200  0.00  0.00     0.045 H 
ATOM     32  H   LIG d   1      10.036   9.493  -2.698  0.00  0.00     0.045 H 
BRANCH  30  33
ATOM     33  C   LIG d   1       8.966   8.995  -0.896  0.00  0.00     0.057 C 
ATOM     34  H   LIG d   1       8.489   8.032  -1.077  0.00  0.00     0.057 H 
ATOM     35  H   LIG d   1       9.199   9.092   0.164  0.00  0.00     0.057 H 
BRANCH  33  36
ATOM     36  O   LIG d   1       8.081  10.046  -1.287  0.00  0.00    -0.394 OA
ATOM     37  H   LIG d   1       7.217   9.739  -1.593  0.00  0.00     0.209 HD
ENDBRANCH  33  36
ENDBRANCH  30  33
ENDBRANCH  21  30
ENDBRANCH  13  16
ENDBRANCH   8  13
BRANCH   7  38
ATOM     38  O   LIG d   1      13.160   3.545  -5.234  0.00  0.00    -0.506 OA
ATOM     39  H   LIG d   1      13.603   3.336  -4.400  0.00  0.00     0.292 HD
ENDBRANCH   7  38
BRANCH   1  40
ATOM     40  C   LIG d   1       6.474   1.709  -3.350  0.00  0.00    -0.002 C 
ATOM     41  H   LIG d   1       5.880   2.543  -3.007  0.00  0.00     0.067 H 
BRANCH  40  42
ATOM     42  C   LIG d   1       6.022   0.387  -3.137  0.00  0.00     0.019 A 
ATOM     43  C   LIG d   1       4.816  -0.052  -2.598  0.00  0.00    -0.036 A 
ATOM     44  C   LIG d   1       4.660  -1.415  -2.524  0.00  0.00    -0.051 A 
ATOM     45  C   LIG d   1       5.662  -2.218  -2.961  0.00  0.00    -0.024 A 
ATOM     46  H   LIG d   1       3.754  -1.841  -2.122  0.00  0.00     0.063 H 
ATOM     47  S   LIG d   1       6.849  -1.153  -3.488  0.00  0.00    -0.097 SA
ATOM     48  H   LIG d   1       5.691  -3.299  -2.967  0.00  0.00     0.069 H 
BRANCH  43  49
ATOM     49  C   LIG d   1       3.748   0.904  -2.134  0.00  0.00    -0.039 C 
ATOM     50  H   LIG d   1       3.399   0.607  -1.145  0.00  0.00     0.028 H 
ATOM     51  H   LIG d   1       4.158   1.912  -2.087  0.00  0.00     0.028 H 
ATOM     52  H   LIG d   1       2.913   0.884  -2.835  0.00  0.00     0.028 H 
ENDBRANCH  43  49
ENDBRANCH  40  42
ENDBRANCH   1  40
TORSDOF 9
ENDMDL
MODEL 8
REMARK VINA RESULT:      -5.6      3.319      4.017
REMARK  9 active torsions:
REMARK  status: ('A' for Active; 'I' for Inactive)
REMARK    1  A    between atoms: C_1  and  C_2 
REMARK    2  A    between atoms: C_6  and  C_7 
REMARK    3  A    between atoms: C_7  and  C_8 
REMARK    4  A    between atoms: C_14  and  O_28 
REMARK    5  A    between atoms: C_15  and  C_18 
REMARK    6  A    between atoms: C_18  and  N_19 
REMARK    7  A    between atoms: N_22  and  C_25 
REMARK    8  A    between atoms: C_25  and  C_26 
REMARK    9  A    between atoms: C_26  and  O_27 
ROOT
ATOM      1  C   LIG d   1       4.227  -0.720  -7.649  0.00  0.00     0.177 A 
ATOM      2  C   LIG d   1       3.474   0.270  -6.964  0.00  0.00     0.232 A 
ATOM      3  O   LIG d   1       2.973   1.278  -7.435  0.00  0.00    -0.283 OA
ATOM      4  C   LIG d   1       3.427  -0.181  -5.563  0.00  0.00     0.068 A 
ATOM      5  C   LIG d   1       2.850   0.340  -4.404  0.00  0.00    -0.044 A 
ATOM      6  C   LIG d   1       2.983  -0.328  -3.219  0.00  0.00    -0.019 A 
ATOM      7  C   LIG d   1       3.693  -1.524  -3.164  0.00  0.00     0.125 A 
ATOM      8  C   LIG d   1       4.271  -2.053  -4.307  0.00  0.00     0.051 A 
ATOM      9  C   LIG d   1       4.145  -1.388  -5.518  0.00  0.00     0.147 A 
ATOM     10  O   LIG d   1       4.593  -1.674  -6.760  0.00  0.00    -0.451 OA
ATOM     11  H   LIG d   1       2.299   1.268  -4.444  0.00  0.00     0.063 H 
ATOM     12  H   LIG d   1       2.536   0.076  -2.322  0.00  0.00     0.065 H 
ENDROOT
BRANCH   8  13
ATOM     13  C   LIG d   1       5.037  -3.349  -4.233  0.00  0.00     0.031 C 
ATOM     14  H   LIG d   1       5.029  -3.718  -3.208  0.00  0.00     0.048 H 
ATOM     15  H   LIG d   1       4.570  -4.086  -4.887  0.00  0.00     0.048 H 
BRANCH  13  16
ATOM     16  N   LIG d   1       6.423  -3.123  -4.661  0.00  0.00    -0.295 N 
ATOM     17  C   LIG d   1       7.160  -2.332  -3.664  0.00  0.00     0.012 C 
ATOM     18  C   LIG d   1       8.573  -2.052  -4.182  0.00  0.00     0.012 C 
ATOM     19  H   LIG d   1       6.641  -1.389  -3.493  0.00  0.00     0.044 H 
ATOM     20  H   LIG d   1       7.219  -2.891  -2.730  0.00  0.00     0.044 H 
ATOM     21  N   LIG d   1       9.255  -3.326  -4.449  0.00  0.00    -0.298 N 
ATOM     22  H   LIG d   1       9.130  -1.490  -3.432  0.00  0.00     0.044 H 
ATOM     23  H   LIG d   1       8.514  -1.471  -5.102  0.00  0.00     0.044 H 
ATOM     24  C   LIG d   1       8.519  -4.116  -5.445  0.00  0.00     0.012 C 
ATOM     25  C   LIG d   1       7.106  -4.397  -4.928  0.00  0.00     0.012 C 
ATOM     26  H   LIG d   1       9.038  -5.059  -5.617  0.00  0.00     0.044 H 
ATOM     27  H   LIG d   1       8.460  -3.558  -6.381  0.00  0.00     0.044 H 
ATOM     28  H   LIG d   1       7.166  -4.977  -4.007  0.00  0.00     0.044 H 
ATOM     29  H   LIG d   1       6.549  -4.957  -5.678  0.00  0.00     0.044 H 
BRANCH  21  30
ATOM     30  C   LIG d   1      10.642  -3.099  -4.877  0.00  0.00     0.022 C 
ATOM     31  H   LIG d   1      10.773  -3.469  -5.894  0.00  0.00     0.045 H 
ATOM     32  H   LIG d   1      10.862  -2.033  -4.847  0.00  0.00     0.045 H 
BRANCH  30  33
ATOM     33  C   LIG d   1      11.594  -3.843  -3.937  0.00  0.00     0.057 C 
ATOM     34  H   LIG d   1      11.903  -4.780  -4.399  0.00  0.00     0.057 H 
ATOM     35  H   LIG d   1      12.471  -3.225  -3.745  0.00  0.00     0.057 H 
BRANCH  33  36
ATOM     36  O   LIG d   1      10.926  -4.116  -2.704  0.00  0.00    -0.394 OA
ATOM     37  H   LIG d   1      11.516  -4.405  -1.993  0.00  0.00     0.209 HD
ENDBRANCH  33  36
ENDBRANCH  30  33
ENDBRANCH  21  30
ENDBRANCH  13  16
ENDBRANCH   8  13
BRANCH   7  38
ATOM     38  O   LIG d   1       3.819  -2.178  -1.981  0.00  0.00    -0.506 OA
ATOM     39  H   LIG d   1       4.349  -1.704  -1.324  0.00  0.00     0.292 HD
ENDBRANCH   7  38
BRANCH   1  40
ATOM     40  C   LIG d   1       4.527  -0.715  -8.980  0.00  0.00    -0.002 C 
ATOM     41  H   LIG d   1       5.523  -0.459  -9.308  0.00  0.00     0.067 H 
BRANCH  40  42
ATOM     42  C   LIG d   1       3.534  -1.045  -9.930  0.00  0.00     0.019 A 
ATOM     43  C   LIG d   1       3.165  -0.365 -11.086  0.00  0.00    -0.036 A 
ATOM     44  C   LIG d   1       2.158  -0.943 -11.819  0.00  0.00    -0.051 A 
ATOM     45  C   LIG d   1       1.602  -2.100 -11.381  0.00  0.00    -0.024 A 
ATOM     46  H   LIG d   1       1.812  -0.482 -12.733  0.00  0.00     0.063 H 
ATOM     47  S   LIG d   1       2.427  -2.443  -9.958  0.00  0.00    -0.097 SA
ATOM     48  H   LIG d   1       0.808  -2.671 -11.840  0.00  0.00     0.069 H 
BRANCH  43  49
ATOM     49  C   LIG d   1       3.831   0.919 -11.510  0.00  0.00    -0.039 C 
ATOM     50  H   LIG d   1       3.554   1.717 -10.822  0.00  0.00     0.028 H 
ATOM     51  H   LIG d   1       4.913   0.788 -11.499  0.00  0.00     0.028 H 
ATOM     52  H   LIG d   1       3.507   1.180 -12.518  0.00  0.00     0.028 H 
ENDBRANCH  43  49
ENDBRANCH  40  42
ENDBRANCH   1  40
TORSDOF 9
ENDMDL
MODEL 9
REMARK VINA RESULT:      -5.5      8.292     11.013
REMARK  9 active torsions:
REMARK  status: ('A' for Active; 'I' for Inactive)
REMARK    1  A    between atoms: C_1  and  C_2 
REMARK    2  A    between atoms: C_6  and  C_7 
REMARK    3  A    between atoms: C_7  and  C_8 
REMARK    4  A    between atoms: C_14  and  O_28 
REMARK    5  A    between atoms: C_15  and  C_18 
REMARK    6  A    between atoms: C_18  and  N_19 
REMARK    7  A    between atoms: N_22  and  C_25 
REMARK    8  A    between atoms: C_25  and  C_26 
REMARK    9  A    between atoms: C_26  and  O_27 
ROOT
ATOM      1  C   LIG d   1       9.598   9.869  -1.534  0.00  0.00     0.177 A 
ATOM      2  C   LIG d   1      10.148   9.813  -0.226  0.00  0.00     0.232 A 
ATOM      3  O   LIG d   1      10.255  10.729   0.573  0.00  0.00    -0.283 OA
ATOM      4  C   LIG d   1      10.561   8.412  -0.040  0.00  0.00     0.068 A 
ATOM      5  C   LIG d   1      11.161   7.718   1.011  0.00  0.00    -0.044 A 
ATOM      6  C   LIG d   1      11.428   6.384   0.881  0.00  0.00    -0.019 A 
ATOM      7  C   LIG d   1      11.107   5.716  -0.298  0.00  0.00     0.125 A 
ATOM      8  C   LIG d   1      10.511   6.393  -1.350  0.00  0.00     0.051 A 
ATOM      9  C   LIG d   1      10.232   7.747  -1.234  0.00  0.00     0.147 A 
ATOM     10  O   LIG d   1       9.665   8.632  -2.082  0.00  0.00    -0.451 OA
ATOM     11  H   LIG d   1      11.411   8.233   1.927  0.00  0.00     0.063 H 
ATOM     12  H   LIG d   1      11.892   5.847   1.695  0.00  0.00     0.065 H 
ENDROOT
BRANCH   8  13
ATOM     13  C   LIG d   1      10.168   5.658  -2.621  0.00  0.00     0.031 C 
ATOM     14  H   LIG d   1      10.881   4.849  -2.776  0.00  0.00     0.048 H 
ATOM     15  H   LIG d   1       9.162   5.245  -2.542  0.00  0.00     0.048 H 
BRANCH  13  16
ATOM     16  N   LIG d   1      10.228   6.589  -3.755  0.00  0.00    -0.295 N 
ATOM     17  C   LIG d   1      11.480   6.420  -4.509  0.00  0.00     0.012 C 
ATOM     18  C   LIG d   1      11.539   7.458  -5.632  0.00  0.00     0.012 C 
ATOM     19  H   LIG d   1      12.328   6.558  -3.839  0.00  0.00     0.044 H 
ATOM     20  H   LIG d   1      11.513   5.418  -4.938  0.00  0.00     0.044 H 
ATOM     21  N   LIG d   1      10.373   7.293  -6.510  0.00  0.00    -0.298 N 
ATOM     22  H   LIG d   1      12.453   7.316  -6.210  0.00  0.00     0.044 H 
ATOM     23  H   LIG d   1      11.533   8.460  -5.202  0.00  0.00     0.044 H 
ATOM     24  C   LIG d   1       9.123   7.462  -5.757  0.00  0.00     0.012 C 
ATOM     25  C   LIG d   1       9.062   6.424  -4.634  0.00  0.00     0.012 C 
ATOM     26  H   LIG d   1       8.273   7.324  -6.427  0.00  0.00     0.044 H 
ATOM     27  H   LIG d   1       9.088   8.465  -5.329  0.00  0.00     0.044 H 
ATOM     28  H   LIG d   1       9.069   5.423  -5.065  0.00  0.00     0.044 H 
ATOM     29  H   LIG d   1       8.149   6.567  -4.056  0.00  0.00     0.044 H 
BRANCH  21  30
ATOM     30  C   LIG d   1      10.433   8.224  -7.646  0.00  0.00     0.022 C 
ATOM     31  H   LIG d   1      10.426   9.250  -7.275  0.00  0.00     0.045 H 
ATOM     32  H   LIG d   1      11.347   8.048  -8.212  0.00  0.00     0.045 H 
BRANCH  30  33
ATOM     33  C   LIG d   1       9.221   8.001  -8.553  0.00  0.00     0.057 C 
ATOM     34  H   LIG d   1       9.560   7.691  -9.541  0.00  0.00     0.057 H 
ATOM     35  H   LIG d   1       8.585   7.226  -8.126  0.00  0.00     0.057 H 
BRANCH  33  36
ATOM     36  O   LIG d   1       8.479   9.218  -8.663  0.00  0.00    -0.394 OA
ATOM     37  H   LIG d   1       8.272   9.471  -9.573  0.00  0.00     0.209 HD
ENDBRANCH  33  36
ENDBRANCH  30  33
ENDBRANCH  21  30
ENDBRANCH  13  16
ENDBRANCH   8  13
BRANCH   7  38
ATOM     38  O   LIG d   1      11.378   4.392  -0.417  0.00  0.00    -0.506 OA
ATOM     39  H   LIG d   1      10.972   3.974  -1.189  0.00  0.00     0.292 HD
ENDBRANCH   7  38
BRANCH   1  40
ATOM     40  C   LIG d   1       9.084  10.980  -2.136  0.00  0.00    -0.002 C 
ATOM     41  H   LIG d   1       8.024  11.179  -2.088  0.00  0.00     0.067 H 
BRANCH  40  42
ATOM     42  C   LIG d   1       9.938  11.871  -2.824  0.00  0.00     0.019 A 
ATOM     43  C   LIG d   1      10.176  11.980  -4.191  0.00  0.00    -0.036 A 
ATOM     44  C   LIG d   1      11.065  12.958  -4.563  0.00  0.00    -0.051 A 
ATOM     45  C   LIG d   1      11.641  13.727  -3.604  0.00  0.00    -0.024 A 
ATOM     46  H   LIG d   1      11.304  13.114  -5.604  0.00  0.00     0.063 H 
ATOM     47  S   LIG d   1      10.994  13.148  -2.165  0.00  0.00    -0.097 SA
ATOM     48  H   LIG d   1      12.354  14.528  -3.735  0.00  0.00     0.069 H 
BRANCH  43  49
ATOM     49  C   LIG d   1       9.496  11.089  -5.198  0.00  0.00    -0.039 C 
ATOM     50  H   LIG d   1       8.493  11.463  -5.396  0.00  0.00     0.028 H 
ATOM     51  H   LIG d   1      10.071  11.083  -6.124  0.00  0.00     0.028 H 
ATOM     52  H   LIG d   1       9.435  10.075  -4.802  0.00  0.00     0.028 H 
ENDBRANCH  43  49
ENDBRANCH  40  42
ENDBRANCH   1  40
TORSDOF 9
ENDMDL
MODEL 10
REMARK VINA RESULT:      -5.5      3.121      7.169
REMARK  9 active torsions:
REMARK  status: ('A' for Active; 'I' for Inactive)
REMARK    1  A    between atoms: C_1  and  C_2 
REMARK    2  A    between atoms: C_6  and  C_7 
REMARK    3  A    between atoms: C_7  and  C_8 
REMARK    4  A    between atoms: C_14  and  O_28 
REMARK    5  A    between atoms: C_15  and  C_18 
REMARK    6  A    between atoms: C_18  and  N_19 
REMARK    7  A    between atoms: N_22  and  C_25 
REMARK    8  A    between atoms: C_25  and  C_26 
REMARK    9  A    between atoms: C_26  and  O_27 
ROOT
ATOM      1  C   LIG d   1       7.984   0.557  -4.975  0.00  0.00     0.177 A 
ATOM      2  C   LIG d   1       7.640   1.415  -3.896  0.00  0.00     0.232 A 
ATOM      3  O   LIG d   1       8.313   2.316  -3.422  0.00  0.00    -0.283 OA
ATOM      4  C   LIG d   1       6.297   0.984  -3.473  0.00  0.00     0.068 A 
ATOM      5  C   LIG d   1       5.418   1.415  -2.479  0.00  0.00    -0.044 A 
ATOM      6  C   LIG d   1       4.208   0.797  -2.327  0.00  0.00    -0.019 A 
ATOM      7  C   LIG d   1       3.852  -0.261  -3.159  0.00  0.00     0.125 A 
ATOM      8  C   LIG d   1       4.715  -0.699  -4.150  0.00  0.00     0.051 A 
ATOM      9  C   LIG d   1       5.947  -0.083  -4.318  0.00  0.00     0.147 A 
ATOM     10  O   LIG d   1       6.957  -0.299  -5.187  0.00  0.00    -0.451 OA
ATOM     11  H   LIG d   1       5.692   2.235  -1.833  0.00  0.00     0.063 H 
ATOM     12  H   LIG d   1       3.527   1.132  -1.558  0.00  0.00     0.065 H 
ENDROOT
BRANCH   8  13
ATOM     13  C   LIG d   1       4.316  -1.846  -5.043  0.00  0.00     0.031 C 
ATOM     14  H   LIG d   1       5.011  -2.674  -4.903  0.00  0.00     0.048 H 
ATOM     15  H   LIG d   1       3.307  -2.172  -4.789  0.00  0.00     0.048 H 
BRANCH  13  16
ATOM     16  N   LIG d   1       4.352  -1.410  -6.445  0.00  0.00    -0.295 N 
ATOM     17  C   LIG d   1       4.293  -2.561  -7.357  0.00  0.00     0.012 C 
ATOM     18  C   LIG d   1       4.413  -2.070  -8.802  0.00  0.00     0.012 C 
ATOM     19  H   LIG d   1       5.114  -3.243  -7.135  0.00  0.00     0.044 H 
ATOM     20  H   LIG d   1       3.343  -3.079  -7.226  0.00  0.00     0.044 H 
ATOM     21  N   LIG d   1       3.327  -1.121  -9.086  0.00  0.00    -0.298 N 
ATOM     22  H   LIG d   1       4.340  -2.921  -9.481  0.00  0.00     0.044 H 
ATOM     23  H   LIG d   1       5.374  -1.576  -8.940  0.00  0.00     0.044 H 
ATOM     24  C   LIG d   1       3.386   0.029  -8.174  0.00  0.00     0.012 C 
ATOM     25  C   LIG d   1       3.267  -0.460  -6.729  0.00  0.00     0.012 C 
ATOM     26  H   LIG d   1       2.565   0.712  -8.396  0.00  0.00     0.044 H 
ATOM     27  H   LIG d   1       4.336   0.549  -8.305  0.00  0.00     0.044 H 
ATOM     28  H   LIG d   1       2.305  -0.956  -6.592  0.00  0.00     0.044 H 
ATOM     29  H   LIG d   1       3.340   0.389  -6.050  0.00  0.00     0.044 H 
BRANCH  21  30
ATOM     30  C   LIG d   1       3.363  -0.685 -10.488  0.00  0.00     0.022 C 
ATOM     31  H   LIG d   1       3.390  -1.558 -11.140  0.00  0.00     0.045 H 
ATOM     32  H   LIG d   1       2.474  -0.094 -10.708  0.00  0.00     0.045 H 
BRANCH  30  33
ATOM     33  C   LIG d   1       4.612   0.168 -10.724  0.00  0.00     0.057 C 
ATOM     34  H   LIG d   1       5.112   0.352  -9.773  0.00  0.00     0.057 H 
ATOM     35  H   LIG d   1       5.289  -0.358 -11.396  0.00  0.00     0.057 H 
BRANCH  33  36
ATOM     36  O   LIG d   1       4.233   1.414 -11.312  0.00  0.00    -0.394 OA
ATOM     37  H   LIG d   1       4.737   1.645 -12.104  0.00  0.00     0.209 HD
ENDBRANCH  33  36
ENDBRANCH  30  33
ENDBRANCH  21  30
ENDBRANCH  13  16
ENDBRANCH   8  13
BRANCH   7  38
ATOM     38  O   LIG d   1       2.648  -0.867  -2.997  0.00  0.00    -0.506 OA
ATOM     39  H   LIG d   1       2.689  -1.834  -3.008  0.00  0.00     0.292 HD
ENDBRANCH   7  38
BRANCH   1  40
ATOM     40  C   LIG d   1       9.150   0.593  -5.682  0.00  0.00    -0.002 C 
ATOM     41  H   LIG d   1       9.219   1.185  -6.582  0.00  0.00     0.067 H 
BRANCH  40  42
ATOM     42  C   LIG d   1      10.271  -0.144  -5.235  0.00  0.00     0.019 A 
ATOM     43  C   LIG d   1      11.434   0.312  -4.622  0.00  0.00    -0.036 A 
ATOM     44  C   LIG d   1      12.351  -0.656  -4.294  0.00  0.00    -0.051 A 
ATOM     45  C   LIG d   1      12.075  -1.952  -4.585  0.00  0.00    -0.024 A 
ATOM     46  H   LIG d   1      13.280  -0.389  -3.813  0.00  0.00     0.063 H 
ATOM     47  S   LIG d   1      10.562  -1.901  -5.312  0.00  0.00    -0.097 SA
ATOM     48  H   LIG d   1      12.689  -2.820  -4.393  0.00  0.00     0.069 H 
BRANCH  43  49
ATOM     49  C   LIG d   1      11.669   1.772  -4.331  0.00  0.00    -0.039 C 
ATOM     50  H   LIG d   1      11.686   1.930  -3.253  0.00  0.00     0.028 H 
ATOM     51  H   LIG d   1      12.624   2.079  -4.758  0.00  0.00     0.028 H 
ATOM     52  H   LIG d   1      10.867   2.364  -4.773  0.00  0.00     0.028 H 
ENDBRANCH  43  49
ENDBRANCH  40  42
ENDBRANCH   1  40
TORSDOF 9
ENDMDL
