MODEL 1
REMARK VINA RESULT:      -7.2      0.000      0.000
REMARK  8 active torsions:
REMARK  status: ('A' for Active; 'I' for Inactive)
REMARK    1  A    between atoms: C_3  and  C_25 
REMARK    2  A    between atoms: C_5  and  N_7 
REMARK    3  A    between atoms: N_7  and  C_8 
REMARK    4  A    between atoms: C_9  and  C_14 
REMARK    5  A    between atoms: C_14  and  O_16 
REMARK    6  A    between atoms: O_16  and  C_17 
REMARK    7  A    between atoms: C_17  and  C_18 
REMARK    8  A    between atoms: C_18  and  N_19 
ROOT
ATOM      1  C   LIG d   1       3.591  -0.202  -4.282  0.00  0.00     0.137 A 
ATOM      2  C   LIG d   1       4.252  -0.930  -3.278  0.00  0.00     0.099 A 
ATOM      3  C   LIG d   1       4.577  -0.284  -2.079  0.00  0.00    -0.043 A 
ATOM      4  C   LIG d   1       4.232   1.048  -1.935  0.00  0.00    -0.043 A 
ATOM      5  C   LIG d   1       3.577   1.696  -2.968  0.00  0.00     0.030 A 
ATOM      6  N   LIG d   1       3.284   1.072  -4.091  0.00  0.00    -0.239 NA
ATOM      7  H   LIG d   1       5.084  -0.812  -1.286  0.00  0.00     0.063 H 
ATOM      8  H   LIG d   1       4.467   1.575  -1.024  0.00  0.00     0.063 H 
ATOM      9  H   LIG d   1       3.303   2.735  -2.852  0.00  0.00     0.083 H 
ENDROOT
BRANCH   2  10
ATOM     10  C   LIG d   1       4.597  -2.348  -3.483  0.00  0.00     0.343 C 
ATOM     11  O   LIG d   1       3.916  -3.217  -2.974  0.00  0.00    -0.245 OA
BRANCH  10  12
ATOM     12  O   LIG d   1       5.665  -2.681  -4.233  0.00  0.00    -0.460 OA
BRANCH  12  13
ATOM     13  C   LIG d   1       6.976  -2.420  -3.667  0.00  0.00     0.105 C 
ATOM     14  H   LIG d   1       6.884  -1.687  -2.851  0.00  0.00     0.071 H 
ATOM     15  H   LIG d   1       7.399  -3.356  -3.271  0.00  0.00     0.071 H 
BRANCH  13  16
ATOM     16  C   LIG d   1       7.899  -1.863  -4.753  0.00  0.00     0.033 C 
ATOM     17  H   LIG d   1       8.945  -1.942  -4.421  0.00  0.00     0.046 H 
ATOM     18  H   LIG d   1       7.764  -2.439  -5.680  0.00  0.00     0.046 H 
BRANCH  16  19
ATOM     19  N   LIG d   1       7.569  -0.453  -4.999  0.00  0.00    -0.295 N 
ATOM     20  C   LIG d   1       7.674   0.337  -3.763  0.00  0.00     0.022 C 
ATOM     21  C   LIG d   1       7.266   1.784  -4.053  0.00  0.00     0.060 C 
ATOM     22  H   LIG d   1       7.008  -0.088  -2.999  0.00  0.00     0.045 H 
ATOM     23  H   LIG d   1       8.711   0.313  -3.399  0.00  0.00     0.045 H 
ATOM     24  O   LIG d   1       8.088   2.306  -5.099  0.00  0.00    -0.377 OA
ATOM     25  H   LIG d   1       7.397   2.392  -3.145  0.00  0.00     0.057 H 
ATOM     26  H   LIG d   1       6.211   1.814  -4.364  0.00  0.00     0.057 H 
ATOM     27  C   LIG d   1       8.009   1.561  -6.318  0.00  0.00     0.060 C 
ATOM     28  C   LIG d   1       8.426   0.112  -6.052  0.00  0.00     0.022 C 
ATOM     29  H   LIG d   1       8.684   2.005  -7.066  0.00  0.00     0.057 H 
ATOM     30  H   LIG d   1       6.977   1.583  -6.698  0.00  0.00     0.057 H 
ATOM     31  H   LIG d   1       9.475   0.085  -5.725  0.00  0.00     0.045 H 
ATOM     32  H   LIG d   1       8.313  -0.479  -6.973  0.00  0.00     0.045 H 
ENDBRANCH  16  19
ENDBRANCH  13  16
ENDBRANCH  12  13
ENDBRANCH  10  12
ENDBRANCH   2  10
BRANCH   1  33
ATOM     33  N   LIG d   1       3.260  -0.819  -5.475  0.00  0.00    -0.299 N 
ATOM     34  H   LIG d   1       2.504  -1.618  -5.491  0.00  0.00     0.154 HD
BRANCH  33  35
ATOM     35  C   LIG d   1       3.886  -0.426  -6.662  0.00  0.00     0.033 A 
ATOM     36  C   LIG d   1       3.374   0.631  -7.403  0.00  0.00    -0.029 A 
ATOM     37  C   LIG d   1       3.998   1.019  -8.572  0.00  0.00     0.057 A 
ATOM     38  H   LIG d   1       2.491   1.152  -7.063  0.00  0.00     0.064 H 
ATOM     39  C   LIG d   1       5.125   0.350  -9.011  0.00  0.00    -0.050 A 
ATOM     40  C   LIG d   1       5.635  -0.707  -8.279  0.00  0.00    -0.059 A 
ATOM     41  H   LIG d   1       5.608   0.652  -9.928  0.00  0.00     0.062 H 
ATOM     42  C   LIG d   1       5.019  -1.097  -7.106  0.00  0.00    -0.041 A 
ATOM     43  H   LIG d   1       6.516  -1.229  -8.624  0.00  0.00     0.062 H 
ATOM     44  H   LIG d   1       5.417  -1.922  -6.534  0.00  0.00     0.064 H 
BRANCH  37  45
ATOM     45  C   LIG d   1       3.445   2.169  -9.375  0.00  0.00     0.417 C 
ATOM     46  F   LIG d   1       4.124   3.343  -9.034  0.00  0.00    -0.166 F 
ATOM     47  F   LIG d   1       3.615   1.910 -10.739  0.00  0.00    -0.166 F 
ATOM     48  F   LIG d   1       2.083   2.321  -9.094  0.00  0.00    -0.166 F 
ENDBRANCH  37  45
ENDBRANCH  33  35
ENDBRANCH   1  33
TORSDOF 8
ENDMDL
MODEL 2
REMARK VINA RESULT:      -7.1      3.472      5.626
REMARK  8 active torsions:
REMARK  status: ('A' for Active; 'I' for Inactive)
REMARK    1  A    between atoms: C_3  and  C_25 
REMARK    2  A    between atoms: C_5  and  N_7 
REMARK    3  A    between atoms: N_7  and  C_8 
REMARK    4  A    between atoms: C_9  and  C_14 
REMARK    5  A    between atoms: C_14  and  O_16 
REMARK    6  A    between atoms: O_16  and  C_17 
REMARK    7  A    between atoms: C_17  and  C_18 
REMARK    8  A    between atoms: C_18  and  N_19 
ROOT
ATOM      1  C   LIG d   1       3.300   0.332  -8.306  0.00  0.00     0.137 A 
ATOM      2  C   LIG d   1       4.103   0.934  -9.291  0.00  0.00     0.099 A 
ATOM      3  C   LIG d   1       3.813   0.691 -10.639  0.00  0.00    -0.043 A 
ATOM      4  C   LIG d   1       2.747  -0.136 -10.943  0.00  0.00    -0.043 A 
ATOM      5  C   LIG d   1       2.000  -0.689  -9.917  0.00  0.00     0.030 A 
ATOM      6  N   LIG d   1       2.291  -0.451  -8.654  0.00  0.00    -0.239 NA
ATOM      7  H   LIG d   1       4.407   1.137 -11.422  0.00  0.00     0.063 H 
ATOM      8  H   LIG d   1       2.496  -0.345 -11.972  0.00  0.00     0.063 H 
ATOM      9  H   LIG d   1       1.164  -1.330 -10.156  0.00  0.00     0.083 H 
ENDROOT
BRANCH   2  10
ATOM     10  C   LIG d   1       5.227   1.808  -8.912  0.00  0.00     0.343 C 
ATOM     11  O   LIG d   1       5.358   2.893  -9.444  0.00  0.00    -0.245 OA
BRANCH  10  12
ATOM     12  O   LIG d   1       6.108   1.406  -7.977  0.00  0.00    -0.460 OA
BRANCH  12  13
ATOM     13  C   LIG d   1       7.184   0.534  -8.414  0.00  0.00     0.105 C 
ATOM     14  H   LIG d   1       6.760  -0.338  -8.935  0.00  0.00     0.071 H 
ATOM     15  H   LIG d   1       7.845   1.084  -9.101  0.00  0.00     0.071 H 
BRANCH  13  16
ATOM     16  C   LIG d   1       7.987   0.064  -7.200  0.00  0.00     0.033 C 
ATOM     17  H   LIG d   1       7.715  -0.975  -6.961  0.00  0.00     0.046 H 
ATOM     18  H   LIG d   1       9.061   0.120  -7.426  0.00  0.00     0.046 H 
BRANCH  16  19
ATOM     19  N   LIG d   1       7.683   0.926  -6.049  0.00  0.00    -0.295 N 
ATOM     20  C   LIG d   1       7.374   0.124  -4.856  0.00  0.00     0.022 C 
ATOM     21  C   LIG d   1       7.006   1.058  -3.701  0.00  0.00     0.060 C 
ATOM     22  H   LIG d   1       6.529  -0.545  -5.073  0.00  0.00     0.045 H 
ATOM     23  H   LIG d   1       8.254  -0.475  -4.580  0.00  0.00     0.045 H 
ATOM     24  O   LIG d   1       8.081   1.974  -3.474  0.00  0.00    -0.377 OA
ATOM     25  H   LIG d   1       6.831   0.466  -2.790  0.00  0.00     0.057 H 
ATOM     26  H   LIG d   1       6.094   1.618  -3.956  0.00  0.00     0.057 H 
ATOM     27  C   LIG d   1       8.407   2.772  -4.615  0.00  0.00     0.060 C 
ATOM     28  C   LIG d   1       8.790   1.855  -5.780  0.00  0.00     0.022 C 
ATOM     29  H   LIG d   1       9.255   3.432  -4.374  0.00  0.00     0.057 H 
ATOM     30  H   LIG d   1       7.537   3.383  -4.899  0.00  0.00     0.057 H 
ATOM     31  H   LIG d   1       9.692   1.284  -5.518  0.00  0.00     0.045 H 
ATOM     32  H   LIG d   1       8.986   2.462  -6.677  0.00  0.00     0.045 H 
ENDBRANCH  16  19
ENDBRANCH  13  16
ENDBRANCH  12  13
ENDBRANCH  10  12
ENDBRANCH   2  10
BRANCH   1  33
ATOM     33  N   LIG d   1       3.567   0.559  -6.968  0.00  0.00    -0.299 N 
ATOM     34  H   LIG d   1       3.484   1.574  -6.554  0.00  0.00     0.154 HD
BRANCH  33  35
ATOM     35  C   LIG d   1       3.943  -0.504  -6.141  0.00  0.00     0.033 A 
ATOM     36  C   LIG d   1       3.609  -0.489  -4.793  0.00  0.00    -0.029 A 
ATOM     37  C   LIG d   1       3.978  -1.543  -3.980  0.00  0.00     0.057 A 
ATOM     38  H   LIG d   1       3.056   0.343  -4.382  0.00  0.00     0.064 H 
ATOM     39  C   LIG d   1       4.689  -2.607  -4.504  0.00  0.00    -0.050 A 
ATOM     40  C   LIG d   1       5.028  -2.622  -5.845  0.00  0.00    -0.059 A 
ATOM     41  H   LIG d   1       4.981  -3.427  -3.866  0.00  0.00     0.062 H 
ATOM     42  C   LIG d   1       4.658  -1.574  -6.665  0.00  0.00    -0.041 A 
ATOM     43  H   LIG d   1       5.585  -3.454  -6.252  0.00  0.00     0.062 H 
ATOM     44  H   LIG d   1       4.923  -1.587  -7.711  0.00  0.00     0.064 H 
BRANCH  37  45
ATOM     45  C   LIG d   1       3.612  -1.530  -2.518  0.00  0.00     0.417 C 
ATOM     46  F   LIG d   1       2.363  -0.921  -2.356  0.00  0.00    -0.166 F 
ATOM     47  F   LIG d   1       3.557  -2.843  -2.039  0.00  0.00    -0.166 F 
ATOM     48  F   LIG d   1       4.576  -0.812  -1.802  0.00  0.00    -0.166 F 
ENDBRANCH  37  45
ENDBRANCH  33  35
ENDBRANCH   1  33
TORSDOF 8
ENDMDL
MODEL 3
REMARK VINA RESULT:      -7.0      4.448      6.910
REMARK  8 active torsions:
REMARK  status: ('A' for Active; 'I' for Inactive)
REMARK    1  A    between atoms: C_3  and  C_25 
REMARK    2  A    between atoms: C_5  and  N_7 
REMARK    3  A    between atoms: N_7  and  C_8 
REMARK    4  A    between atoms: C_9  and  C_14 
REMARK    5  A    between atoms: C_14  and  O_16 
REMARK    6  A    between atoms: O_16  and  C_17 
REMARK    7  A    between atoms: C_17  and  C_18 
REMARK    8  A    between atoms: C_18  and  N_19 
ROOT
ATOM      1  C   LIG d   1       4.422   0.208  -8.255  0.00  0.00     0.137 A 
ATOM      2  C   LIG d   1       3.671  -0.334  -9.312  0.00  0.00     0.099 A 
ATOM      3  C   LIG d   1       3.334   0.490 -10.392  0.00  0.00    -0.043 A 
ATOM      4  C   LIG d   1       3.756   1.807 -10.370  0.00  0.00    -0.043 A 
ATOM      5  C   LIG d   1       4.497   2.267  -9.296  0.00  0.00     0.030 A 
ATOM      6  N   LIG d   1       4.801   1.476  -8.285  0.00  0.00    -0.239 NA
ATOM      7  H   LIG d   1       2.758   0.108 -11.221  0.00  0.00     0.063 H 
ATOM      8  H   LIG d   1       3.514   2.470 -11.187  0.00  0.00     0.063 H 
ATOM      9  H   LIG d   1       4.831   3.295  -9.283  0.00  0.00     0.083 H 
ENDROOT
BRANCH   2  10
ATOM     10  C   LIG d   1       3.247  -1.745  -9.285  0.00  0.00     0.343 C 
ATOM     11  O   LIG d   1       2.079  -2.031  -9.462  0.00  0.00    -0.245 OA
BRANCH  10  12
ATOM     12  O   LIG d   1       4.152  -2.718  -9.066  0.00  0.00    -0.460 OA
BRANCH  12  13
ATOM     13  C   LIG d   1       3.669  -3.947  -8.465  0.00  0.00     0.105 C 
ATOM     14  H   LIG d   1       2.584  -3.869  -8.292  0.00  0.00     0.071 H 
ATOM     15  H   LIG d   1       3.871  -4.791  -9.142  0.00  0.00     0.071 H 
BRANCH  13  16
ATOM     16  C   LIG d   1       4.383  -4.180  -7.133  0.00  0.00     0.033 C 
ATOM     17  H   LIG d   1       5.286  -3.552  -7.087  0.00  0.00     0.046 H 
ATOM     18  H   LIG d   1       3.710  -3.915  -6.304  0.00  0.00     0.046 H 
BRANCH  16  19
ATOM     19  N   LIG d   1       4.765  -5.594  -7.022  0.00  0.00    -0.295 N 
ATOM     20  C   LIG d   1       4.569  -6.088  -5.651  0.00  0.00     0.022 C 
ATOM     21  C   LIG d   1       5.035  -7.543  -5.568  0.00  0.00     0.060 C 
ATOM     22  H   LIG d   1       5.156  -5.472  -4.953  0.00  0.00     0.045 H 
ATOM     23  H   LIG d   1       3.504  -6.026  -5.388  0.00  0.00     0.045 H 
ATOM     24  O   LIG d   1       4.322  -8.323  -6.530  0.00  0.00    -0.377 OA
ATOM     25  H   LIG d   1       4.838  -7.936  -4.559  0.00  0.00     0.057 H 
ATOM     26  H   LIG d   1       6.114  -7.598  -5.777  0.00  0.00     0.057 H 
ATOM     27  C   LIG d   1       4.491  -7.870  -7.876  0.00  0.00     0.060 C 
ATOM     28  C   LIG d   1       4.019  -6.418  -7.984  0.00  0.00     0.022 C 
ATOM     29  H   LIG d   1       3.896  -8.500  -8.555  0.00  0.00     0.057 H 
ATOM     30  H   LIG d   1       5.553  -7.933  -8.156  0.00  0.00     0.057 H 
ATOM     31  H   LIG d   1       2.944  -6.362  -7.758  0.00  0.00     0.045 H 
ATOM     32  H   LIG d   1       4.200  -6.046  -9.004  0.00  0.00     0.045 H 
ENDBRANCH  16  19
ENDBRANCH  13  16
ENDBRANCH  12  13
ENDBRANCH  10  12
ENDBRANCH   2  10
BRANCH   1  33
ATOM     33  N   LIG d   1       4.768  -0.588  -7.177  0.00  0.00    -0.299 N 
ATOM     34  H   LIG d   1       5.592  -1.310  -7.267  0.00  0.00     0.154 HD
BRANCH  33  35
ATOM     35  C   LIG d   1       4.067  -0.475  -5.972  0.00  0.00     0.033 A 
ATOM     36  C   LIG d   1       4.560  -1.076  -4.821  0.00  0.00    -0.029 A 
ATOM     37  C   LIG d   1       3.867  -0.958  -3.632  0.00  0.00     0.057 A 
ATOM     38  H   LIG d   1       5.485  -1.632  -4.855  0.00  0.00     0.064 H 
ATOM     39  C   LIG d   1       2.680  -0.251  -3.588  0.00  0.00    -0.050 A 
ATOM     40  C   LIG d   1       2.184   0.345  -4.734  0.00  0.00    -0.059 A 
ATOM     41  H   LIG d   1       2.138  -0.164  -2.659  0.00  0.00     0.062 H 
ATOM     42  C   LIG d   1       2.874   0.235  -5.925  0.00  0.00    -0.041 A 
ATOM     43  H   LIG d   1       1.256   0.896  -4.697  0.00  0.00     0.062 H 
ATOM     44  H   LIG d   1       2.486   0.701  -6.819  0.00  0.00     0.064 H 
BRANCH  37  45
ATOM     45  C   LIG d   1       4.403  -1.607  -2.382  0.00  0.00     0.417 C 
ATOM     46  F   LIG d   1       4.376  -0.686  -1.330  0.00  0.00    -0.166 F 
ATOM     47  F   LIG d   1       3.612  -2.714  -2.054  0.00  0.00    -0.166 F 
ATOM     48  F   LIG d   1       5.721  -2.024  -2.601  0.00  0.00    -0.166 F 
ENDBRANCH  37  45
ENDBRANCH  33  35
ENDBRANCH   1  33
TORSDOF 8
ENDMDL
MODEL 4
REMARK VINA RESULT:      -7.0      2.208      3.681
REMARK  8 active torsions:
REMARK  status: ('A' for Active; 'I' for Inactive)
REMARK    1  A    between atoms: C_3  and  C_25 
REMARK    2  A    between atoms: C_5  and  N_7 
REMARK    3  A    between atoms: N_7  and  C_8 
REMARK    4  A    between atoms: C_9  and  C_14 
REMARK    5  A    between atoms: C_14  and  O_16 
REMARK    6  A    between atoms: O_16  and  C_17 
REMARK    7  A    between atoms: C_17  and  C_18 
REMARK    8  A    between atoms: C_18  and  N_19 
ROOT
ATOM      1  C   LIG d   1       3.850  -0.254  -4.305  0.00  0.00     0.137 A 
ATOM      2  C   LIG d   1       4.574  -1.039  -3.391  0.00  0.00     0.099 A 
ATOM      3  C   LIG d   1       4.811  -0.533  -2.107  0.00  0.00    -0.043 A 
ATOM      4  C   LIG d   1       4.321   0.723  -1.794  0.00  0.00    -0.043 A 
ATOM      5  C   LIG d   1       3.613   1.433  -2.747  0.00  0.00     0.030 A 
ATOM      6  N   LIG d   1       3.404   0.942  -3.953  0.00  0.00    -0.239 NA
ATOM      7  H   LIG d   1       5.362  -1.108  -1.379  0.00  0.00     0.063 H 
ATOM      8  H   LIG d   1       4.486   1.142  -0.814  0.00  0.00     0.063 H 
ATOM      9  H   LIG d   1       3.226   2.412  -2.500  0.00  0.00     0.083 H 
ENDROOT
BRANCH   2  10
ATOM     10  C   LIG d   1       5.073  -2.371  -3.775  0.00  0.00     0.343 C 
ATOM     11  O   LIG d   1       4.320  -3.325  -3.771  0.00  0.00    -0.245 OA
BRANCH  10  12
ATOM     12  O   LIG d   1       6.361  -2.531  -4.132  0.00  0.00    -0.460 OA
BRANCH  12  13
ATOM     13  C   LIG d   1       6.738  -3.820  -4.684  0.00  0.00     0.105 C 
ATOM     14  H   LIG d   1       7.717  -4.120  -4.280  0.00  0.00     0.071 H 
ATOM     15  H   LIG d   1       5.983  -4.572  -4.410  0.00  0.00     0.071 H 
BRANCH  13  16
ATOM     16  C   LIG d   1       6.825  -3.716  -6.208  0.00  0.00     0.033 C 
ATOM     17  H   LIG d   1       6.570  -2.692  -6.521  0.00  0.00     0.046 H 
ATOM     18  H   LIG d   1       7.847  -3.956  -6.535  0.00  0.00     0.046 H 
BRANCH  16  19
ATOM     19  N   LIG d   1       5.880  -4.662  -6.818  0.00  0.00    -0.295 N 
ATOM     20  C   LIG d   1       5.608  -5.791  -5.916  0.00  0.00     0.022 C 
ATOM     21  C   LIG d   1       4.670  -6.779  -6.613  0.00  0.00     0.060 C 
ATOM     22  H   LIG d   1       6.553  -6.295  -5.665  0.00  0.00     0.045 H 
ATOM     23  H   LIG d   1       5.135  -5.420  -4.996  0.00  0.00     0.045 H 
ATOM     24  O   LIG d   1       3.474  -6.099  -7.003  0.00  0.00    -0.377 OA
ATOM     25  H   LIG d   1       4.417  -7.597  -5.922  0.00  0.00     0.057 H 
ATOM     26  H   LIG d   1       5.165  -7.192  -7.505  0.00  0.00     0.057 H 
ATOM     27  C   LIG d   1       3.702  -4.994  -7.882  0.00  0.00     0.060 C 
ATOM     28  C   LIG d   1       4.631  -3.987  -7.198  0.00  0.00     0.022 C 
ATOM     29  H   LIG d   1       2.744  -4.506  -8.119  0.00  0.00     0.057 H 
ATOM     30  H   LIG d   1       4.169  -5.351  -8.812  0.00  0.00     0.057 H 
ATOM     31  H   LIG d   1       4.141  -3.587  -6.299  0.00  0.00     0.045 H 
ATOM     32  H   LIG d   1       4.855  -3.162  -7.891  0.00  0.00     0.045 H 
ENDBRANCH  16  19
ENDBRANCH  13  16
ENDBRANCH  12  13
ENDBRANCH  10  12
ENDBRANCH   2  10
BRANCH   1  33
ATOM     33  N   LIG d   1       3.603  -0.733  -5.579  0.00  0.00    -0.299 N 
ATOM     34  H   LIG d   1       2.895  -1.561  -5.728  0.00  0.00     0.154 HD
BRANCH  33  35
ATOM     35  C   LIG d   1       4.254  -0.164  -6.678  0.00  0.00     0.033 A 
ATOM     36  C   LIG d   1       3.571   0.705  -7.518  0.00  0.00    -0.029 A 
ATOM     37  C   LIG d   1       4.219   1.269  -8.600  0.00  0.00     0.057 A 
ATOM     38  H   LIG d   1       2.536   0.944  -7.324  0.00  0.00     0.064 H 
ATOM     39  C   LIG d   1       5.543   0.961  -8.853  0.00  0.00    -0.050 A 
ATOM     40  C   LIG d   1       6.224   0.091  -8.020  0.00  0.00    -0.059 A 
ATOM     41  H   LIG d   1       6.046   1.399  -9.701  0.00  0.00     0.062 H 
ATOM     42  C   LIG d   1       5.584  -0.473  -6.934  0.00  0.00    -0.041 A 
ATOM     43  H   LIG d   1       7.259  -0.149  -8.221  0.00  0.00     0.062 H 
ATOM     44  H   LIG d   1       6.117  -1.151  -6.285  0.00  0.00     0.064 H 
BRANCH  37  45
ATOM     45  C   LIG d   1       3.480   2.216  -9.510  0.00  0.00     0.417 C 
ATOM     46  F   LIG d   1       3.671   1.828 -10.840  0.00  0.00    -0.166 F 
ATOM     47  F   LIG d   1       2.115   2.185  -9.206  0.00  0.00    -0.166 F 
ATOM     48  F   LIG d   1       3.970   3.514  -9.329  0.00  0.00    -0.166 F 
ENDBRANCH  37  45
ENDBRANCH  33  35
ENDBRANCH   1  33
TORSDOF 8
ENDMDL
MODEL 5
REMARK VINA RESULT:      -6.8      5.254      8.014
REMARK  8 active torsions:
REMARK  status: ('A' for Active; 'I' for Inactive)
REMARK    1  A    between atoms: C_3  and  C_25 
REMARK    2  A    between atoms: C_5  and  N_7 
REMARK    3  A    between atoms: N_7  and  C_8 
REMARK    4  A    between atoms: C_9  and  C_14 
REMARK    5  A    between atoms: C_14  and  O_16 
REMARK    6  A    between atoms: O_16  and  C_17 
REMARK    7  A    between atoms: C_17  and  C_18 
REMARK    8  A    between atoms: C_18  and  N_19 
ROOT
ATOM      1  C   LIG d   1       3.090   0.357  -7.959  0.00  0.00     0.137 A 
ATOM      2  C   LIG d   1       2.992  -0.324  -9.185  0.00  0.00     0.099 A 
ATOM      3  C   LIG d   1       3.234   0.382 -10.370  0.00  0.00    -0.043 A 
ATOM      4  C   LIG d   1       3.560   1.723 -10.281  0.00  0.00    -0.043 A 
ATOM      5  C   LIG d   1       3.643   2.323  -9.036  0.00  0.00     0.030 A 
ATOM      6  N   LIG d   1       3.406   1.643  -7.932  0.00  0.00    -0.239 NA
ATOM      7  H   LIG d   1       3.169  -0.109 -11.329  0.00  0.00     0.063 H 
ATOM      8  H   LIG d   1       3.754   2.296 -11.174  0.00  0.00     0.063 H 
ATOM      9  H   LIG d   1       3.902   3.370  -8.968  0.00  0.00     0.083 H 
ENDROOT
BRANCH   2  10
ATOM     10  C   LIG d   1       2.642  -1.754  -9.223  0.00  0.00     0.343 C 
ATOM     11  O   LIG d   1       3.330  -2.563  -8.631  0.00  0.00    -0.245 OA
BRANCH  10  12
ATOM     12  O   LIG d   1       1.560  -2.166  -9.911  0.00  0.00    -0.460 OA
BRANCH  12  13
ATOM     13  C   LIG d   1       1.679  -3.413 -10.645  0.00  0.00     0.105 C 
ATOM     14  H   LIG d   1       2.499  -3.331 -11.375  0.00  0.00     0.071 H 
ATOM     15  H   LIG d   1       1.894  -4.233  -9.944  0.00  0.00     0.071 H 
BRANCH  13  16
ATOM     16  C   LIG d   1       0.369  -3.700 -11.380  0.00  0.00     0.033 C 
ATOM     17  H   LIG d   1      -0.396  -2.976 -11.062  0.00  0.00     0.046 H 
ATOM     18  H   LIG d   1       0.529  -3.613 -12.464  0.00  0.00     0.046 H 
BRANCH  16  19
ATOM     19  N   LIG d   1      -0.084  -5.060 -11.059  0.00  0.00    -0.295 N 
ATOM     20  C   LIG d   1       1.016  -5.867 -10.509  0.00  0.00     0.022 C 
ATOM     21  C   LIG d   1       0.517  -7.290 -10.247  0.00  0.00     0.060 C 
ATOM     22  H   LIG d   1       1.846  -5.894 -11.231  0.00  0.00     0.045 H 
ATOM     23  H   LIG d   1       1.364  -5.419  -9.568  0.00  0.00     0.045 H 
ATOM     24  O   LIG d   1      -0.609  -7.240  -9.367  0.00  0.00    -0.377 OA
ATOM     25  H   LIG d   1       1.319  -7.882  -9.782  0.00  0.00     0.057 H 
ATOM     26  H   LIG d   1       0.220  -7.758 -11.197  0.00  0.00     0.057 H 
ATOM     27  C   LIG d   1      -1.699  -6.463  -9.872  0.00  0.00     0.060 C 
ATOM     28  C   LIG d   1      -1.223  -5.032 -10.131  0.00  0.00     0.022 C 
ATOM     29  H   LIG d   1      -2.516  -6.450  -9.134  0.00  0.00     0.057 H 
ATOM     30  H   LIG d   1      -2.063  -6.905 -10.812  0.00  0.00     0.057 H 
ATOM     31  H   LIG d   1      -0.911  -4.570  -9.182  0.00  0.00     0.045 H 
ATOM     32  H   LIG d   1      -2.042  -4.445 -10.573  0.00  0.00     0.045 H 
ENDBRANCH  16  19
ENDBRANCH  13  16
ENDBRANCH  12  13
ENDBRANCH  10  12
ENDBRANCH   2  10
BRANCH   1  33
ATOM     33  N   LIG d   1       2.855  -0.319  -6.775  0.00  0.00    -0.299 N 
ATOM     34  H   LIG d   1       1.883  -0.802  -6.600  0.00  0.00     0.154 HD
BRANCH  33  35
ATOM     35  C   LIG d   1       3.855  -0.388  -5.800  0.00  0.00     0.033 A 
ATOM     36  C   LIG d   1       3.570  -0.043  -4.485  0.00  0.00    -0.029 A 
ATOM     37  C   LIG d   1       4.559  -0.117  -3.524  0.00  0.00     0.057 A 
ATOM     38  H   LIG d   1       2.576   0.280  -4.214  0.00  0.00     0.064 H 
ATOM     39  C   LIG d   1       5.834  -0.525  -3.871  0.00  0.00    -0.050 A 
ATOM     40  C   LIG d   1       6.122  -0.866  -5.180  0.00  0.00    -0.059 A 
ATOM     41  H   LIG d   1       6.606  -0.578  -3.118  0.00  0.00     0.062 H 
ATOM     42  C   LIG d   1       5.136  -0.798  -6.146  0.00  0.00    -0.041 A 
ATOM     43  H   LIG d   1       7.119  -1.184  -5.449  0.00  0.00     0.062 H 
ATOM     44  H   LIG d   1       5.362  -1.065  -7.167  0.00  0.00     0.064 H 
BRANCH  37  45
ATOM     45  C   LIG d   1       4.250   0.255  -2.096  0.00  0.00     0.417 C 
ATOM     46  F   LIG d   1       5.176   1.204  -1.651  0.00  0.00    -0.166 F 
ATOM     47  F   LIG d   1       2.960   0.790  -2.022  0.00  0.00    -0.166 F 
ATOM     48  F   LIG d   1       4.329  -0.886  -1.290  0.00  0.00    -0.166 F 
ENDBRANCH  37  45
ENDBRANCH  33  35
ENDBRANCH   1  33
TORSDOF 8
ENDMDL
MODEL 6
REMARK VINA RESULT:      -6.7      3.714      6.011
REMARK  8 active torsions:
REMARK  status: ('A' for Active; 'I' for Inactive)
REMARK    1  A    between atoms: C_3  and  C_25 
REMARK    2  A    between atoms: C_5  and  N_7 
REMARK    3  A    between atoms: N_7  and  C_8 
REMARK    4  A    between atoms: C_9  and  C_14 
REMARK    5  A    between atoms: C_14  and  O_16 
REMARK    6  A    between atoms: O_16  and  C_17 
REMARK    7  A    between atoms: C_17  and  C_18 
REMARK    8  A    between atoms: C_18  and  N_19 
ROOT
ATOM      1  C   LIG d   1       3.787  -0.798  -8.445  0.00  0.00     0.137 A 
ATOM      2  C   LIG d   1       3.672   0.225  -9.403  0.00  0.00     0.099 A 
ATOM      3  C   LIG d   1       2.888  -0.000 -10.540  0.00  0.00    -0.043 A 
ATOM      4  C   LIG d   1       2.259  -1.225 -10.673  0.00  0.00    -0.043 A 
ATOM      5  C   LIG d   1       2.416  -2.181  -9.684  0.00  0.00     0.030 A 
ATOM      6  N   LIG d   1       3.163  -1.952  -8.623  0.00  0.00    -0.239 NA
ATOM      7  H   LIG d   1       2.777   0.763 -11.296  0.00  0.00     0.063 H 
ATOM      8  H   LIG d   1       1.647  -1.432 -11.537  0.00  0.00     0.063 H 
ATOM      9  H   LIG d   1       1.920  -3.136  -9.786  0.00  0.00     0.083 H 
ENDROOT
BRANCH   2  10
ATOM     10  C   LIG d   1       4.364   1.512  -9.212  0.00  0.00     0.343 C 
ATOM     11  O   LIG d   1       3.848   2.384  -8.541  0.00  0.00    -0.245 OA
BRANCH  10  12
ATOM     12  O   LIG d   1       5.567   1.722  -9.780  0.00  0.00    -0.460 OA
BRANCH  12  13
ATOM     13  C   LIG d   1       6.707   1.838  -8.889  0.00  0.00     0.105 C 
ATOM     14  H   LIG d   1       7.272   2.751  -9.133  0.00  0.00     0.071 H 
ATOM     15  H   LIG d   1       6.354   1.894  -7.848  0.00  0.00     0.071 H 
BRANCH  13  16
ATOM     16  C   LIG d   1       7.612   0.617  -9.056  0.00  0.00     0.033 C 
ATOM     17  H   LIG d   1       7.052  -0.189  -9.555  0.00  0.00     0.046 H 
ATOM     18  H   LIG d   1       8.485   0.888  -9.666  0.00  0.00     0.046 H 
BRANCH  16  19
ATOM     19  N   LIG d   1       8.060   0.155  -7.736  0.00  0.00    -0.295 N 
ATOM     20  C   LIG d   1       9.522  -0.003  -7.700  0.00  0.00     0.022 C 
ATOM     21  C   LIG d   1       9.937  -0.542  -6.329  0.00  0.00     0.060 C 
ATOM     22  H   LIG d   1       9.833  -0.709  -8.484  0.00  0.00     0.045 H 
ATOM     23  H   LIG d   1       9.999   0.972  -7.874  0.00  0.00     0.045 H 
ATOM     24  O   LIG d   1       9.464   0.343  -5.311  0.00  0.00    -0.377 OA
ATOM     25  H   LIG d   1      11.035  -0.607  -6.277  0.00  0.00     0.057 H 
ATOM     26  H   LIG d   1       9.503  -1.541  -6.178  0.00  0.00     0.057 H 
ATOM     27  C   LIG d   1       8.044   0.518  -5.316  0.00  0.00     0.060 C 
ATOM     28  C   LIG d   1       7.609   1.069  -6.677  0.00  0.00     0.022 C 
ATOM     29  H   LIG d   1       7.757   1.228  -4.525  0.00  0.00     0.057 H 
ATOM     30  H   LIG d   1       7.552  -0.449  -5.136  0.00  0.00     0.057 H 
ATOM     31  H   LIG d   1       8.056   2.061  -6.833  0.00  0.00     0.045 H 
ATOM     32  H   LIG d   1       6.512   1.152  -6.707  0.00  0.00     0.045 H 
ENDBRANCH  16  19
ENDBRANCH  13  16
ENDBRANCH  12  13
ENDBRANCH  10  12
ENDBRANCH   2  10
BRANCH   1  33
ATOM     33  N   LIG d   1       4.556  -0.598  -7.313  0.00  0.00    -0.299 N 
ATOM     34  H   LIG d   1       5.651  -0.539  -7.394  0.00  0.00     0.154 HD
BRANCH  33  35
ATOM     35  C   LIG d   1       3.941  -0.470  -6.064  0.00  0.00     0.033 A 
ATOM     36  C   LIG d   1       4.467  -1.125  -4.959  0.00  0.00    -0.029 A 
ATOM     37  C   LIG d   1       3.859  -0.993  -3.725  0.00  0.00     0.057 A 
ATOM     38  H   LIG d   1       5.354  -1.734  -5.061  0.00  0.00     0.064 H 
ATOM     39  C   LIG d   1       2.722  -0.219  -3.593  0.00  0.00    -0.050 A 
ATOM     40  C   LIG d   1       2.192   0.431  -4.693  0.00  0.00    -0.059 A 
ATOM     41  H   LIG d   1       2.246  -0.121  -2.629  0.00  0.00     0.062 H 
ATOM     42  C   LIG d   1       2.798   0.307  -5.928  0.00  0.00    -0.041 A 
ATOM     43  H   LIG d   1       1.303   1.035  -4.586  0.00  0.00     0.062 H 
ATOM     44  H   LIG d   1       2.384   0.815  -6.786  0.00  0.00     0.064 H 
BRANCH  37  45
ATOM     45  C   LIG d   1       4.432  -1.701  -2.524  0.00  0.00     0.417 C 
ATOM     46  F   LIG d   1       3.673  -2.843  -2.251  0.00  0.00    -0.166 F 
ATOM     47  F   LIG d   1       5.755  -2.071  -2.788  0.00  0.00    -0.166 F 
ATOM     48  F   LIG d   1       4.399  -0.844  -1.418  0.00  0.00    -0.166 F 
ENDBRANCH  37  45
ENDBRANCH  33  35
ENDBRANCH   1  33
TORSDOF 8
ENDMDL
MODEL 7
REMARK VINA RESULT:      -6.6      4.033      6.469
REMARK  8 active torsions:
REMARK  status: ('A' for Active; 'I' for Inactive)
REMARK    1  A    between atoms: C_3  and  C_25 
REMARK    2  A    between atoms: C_5  and  N_7 
REMARK    3  A    between atoms: N_7  and  C_8 
REMARK    4  A    between atoms: C_9  and  C_14 
REMARK    5  A    between atoms: C_14  and  O_16 
REMARK    6  A    between atoms: O_16  and  C_17 
REMARK    7  A    between atoms: C_17  and  C_18 
REMARK    8  A    between atoms: C_18  and  N_19 
ROOT
ATOM      1  C   LIG d   1       3.099   0.425  -8.014  0.00  0.00     0.137 A 
ATOM      2  C   LIG d   1       2.999  -0.246  -9.245  0.00  0.00     0.099 A 
ATOM      3  C   LIG d   1       3.270   0.461 -10.423  0.00  0.00    -0.043 A 
ATOM      4  C   LIG d   1       3.626   1.794 -10.321  0.00  0.00    -0.043 A 
ATOM      5  C   LIG d   1       3.709   2.384  -9.072  0.00  0.00     0.030 A 
ATOM      6  N   LIG d   1       3.444   1.702  -7.975  0.00  0.00    -0.239 NA
ATOM      7  H   LIG d   1       3.204  -0.021 -11.386  0.00  0.00     0.063 H 
ATOM      8  H   LIG d   1       3.842   2.369 -11.209  0.00  0.00     0.063 H 
ATOM      9  H   LIG d   1       3.992   3.424  -8.994  0.00  0.00     0.083 H 
ENDROOT
BRANCH   2  10
ATOM     10  C   LIG d   1       2.616  -1.668  -9.297  0.00  0.00     0.343 C 
ATOM     11  O   LIG d   1       1.561  -1.994  -9.805  0.00  0.00    -0.245 OA
BRANCH  10  12
ATOM     12  O   LIG d   1       3.435  -2.606  -8.782  0.00  0.00    -0.460 OA
BRANCH  12  13
ATOM     13  C   LIG d   1       4.681  -2.851  -9.485  0.00  0.00     0.105 C 
ATOM     14  H   LIG d   1       4.487  -3.476 -10.370  0.00  0.00     0.071 H 
ATOM     15  H   LIG d   1       5.118  -1.892  -9.803  0.00  0.00     0.071 H 
BRANCH  13  16
ATOM     16  C   LIG d   1       5.658  -3.573  -8.555  0.00  0.00     0.033 C 
ATOM     17  H   LIG d   1       6.454  -4.042  -9.152  0.00  0.00     0.046 H 
ATOM     18  H   LIG d   1       6.101  -2.850  -7.855  0.00  0.00     0.046 H 
BRANCH  16  19
ATOM     19  N   LIG d   1       4.940  -4.609  -7.800  0.00  0.00    -0.295 N 
ATOM     20  C   LIG d   1       5.135  -5.934  -8.406  0.00  0.00     0.022 C 
ATOM     21  C   LIG d   1       4.323  -6.970  -7.624  0.00  0.00     0.060 C 
ATOM     22  H   LIG d   1       4.795  -5.912  -9.451  0.00  0.00     0.045 H 
ATOM     23  H   LIG d   1       6.201  -6.199  -8.372  0.00  0.00     0.045 H 
ATOM     24  O   LIG d   1       4.717  -6.941  -6.251  0.00  0.00    -0.377 OA
ATOM     25  H   LIG d   1       4.510  -7.973  -8.038  0.00  0.00     0.057 H 
ATOM     26  H   LIG d   1       3.251  -6.736  -7.704  0.00  0.00     0.057 H 
ATOM     27  C   LIG d   1       4.540  -5.665  -5.629  0.00  0.00     0.060 C 
ATOM     28  C   LIG d   1       5.354  -4.615  -6.389  0.00  0.00     0.022 C 
ATOM     29  H   LIG d   1       4.887  -5.712  -4.585  0.00  0.00     0.057 H 
ATOM     30  H   LIG d   1       3.476  -5.389  -5.649  0.00  0.00     0.057 H 
ATOM     31  H   LIG d   1       6.424  -4.860  -6.323  0.00  0.00     0.045 H 
ATOM     32  H   LIG d   1       5.177  -3.622  -5.950  0.00  0.00     0.045 H 
ENDBRANCH  16  19
ENDBRANCH  13  16
ENDBRANCH  12  13
ENDBRANCH  10  12
ENDBRANCH   2  10
BRANCH   1  33
ATOM     33  N   LIG d   1       2.836  -0.254  -6.837  0.00  0.00    -0.299 N 
ATOM     34  H   LIG d   1       1.848  -0.706  -6.672  0.00  0.00     0.154 HD
BRANCH  33  35
ATOM     35  C   LIG d   1       3.828  -0.364  -5.858  0.00  0.00     0.033 A 
ATOM     36  C   LIG d   1       3.544  -0.031  -4.540  0.00  0.00    -0.029 A 
ATOM     37  C   LIG d   1       4.525  -0.146  -3.574  0.00  0.00     0.057 A 
ATOM     38  H   LIG d   1       2.557   0.313  -4.269  0.00  0.00     0.064 H 
ATOM     39  C   LIG d   1       5.790  -0.581  -3.919  0.00  0.00    -0.050 A 
ATOM     40  C   LIG d   1       6.078  -0.909  -5.232  0.00  0.00    -0.059 A 
ATOM     41  H   LIG d   1       6.557  -0.666  -3.164  0.00  0.00     0.062 H 
ATOM     42  C   LIG d   1       5.100  -0.802  -6.202  0.00  0.00    -0.041 A 
ATOM     43  H   LIG d   1       7.068  -1.249  -5.500  0.00  0.00     0.062 H 
ATOM     44  H   LIG d   1       5.325  -1.058  -7.226  0.00  0.00     0.064 H 
BRANCH  37  45
ATOM     45  C   LIG d   1       4.217   0.212  -2.142  0.00  0.00     0.417 C 
ATOM     46  F   LIG d   1       2.924   0.739  -2.062  0.00  0.00    -0.166 F 
ATOM     47  F   LIG d   1       4.304  -0.935  -1.346  0.00  0.00    -0.166 F 
ATOM     48  F   LIG d   1       5.137   1.164  -1.691  0.00  0.00    -0.166 F 
ENDBRANCH  37  45
ENDBRANCH  33  35
ENDBRANCH   1  33
TORSDOF 8
ENDMDL
MODEL 8
REMARK VINA RESULT:      -6.6      3.547      5.955
REMARK  8 active torsions:
REMARK  status: ('A' for Active; 'I' for Inactive)
REMARK    1  A    between atoms: C_3  and  C_25 
REMARK    2  A    between atoms: C_5  and  N_7 
REMARK    3  A    between atoms: N_7  and  C_8 
REMARK    4  A    between atoms: C_9  and  C_14 
REMARK    5  A    between atoms: C_14  and  O_16 
REMARK    6  A    between atoms: O_16  and  C_17 
REMARK    7  A    between atoms: C_17  and  C_18 
REMARK    8  A    between atoms: C_18  and  N_19 
ROOT
ATOM      1  C   LIG d   1       7.748  -0.764  -4.452  0.00  0.00     0.137 A 
ATOM      2  C   LIG d   1       8.499   0.217  -5.122  0.00  0.00     0.099 A 
ATOM      3  C   LIG d   1       9.208  -0.145  -6.274  0.00  0.00    -0.043 A 
ATOM      4  C   LIG d   1       9.137  -1.458  -6.702  0.00  0.00    -0.043 A 
ATOM      5  C   LIG d   1       8.371  -2.366  -5.992  0.00  0.00     0.030 A 
ATOM      6  N   LIG d   1       7.715  -2.007  -4.906  0.00  0.00    -0.239 NA
ATOM      7  H   LIG d   1       9.794   0.582  -6.814  0.00  0.00     0.063 H 
ATOM      8  H   LIG d   1       9.670  -1.772  -7.587  0.00  0.00     0.063 H 
ATOM      9  H   LIG d   1       8.313  -3.391  -6.331  0.00  0.00     0.083 H 
ENDROOT
BRANCH   2  10
ATOM     10  C   LIG d   1       8.540   1.603  -4.622  0.00  0.00     0.343 C 
ATOM     11  O   LIG d   1       7.504   2.212  -4.438  0.00  0.00    -0.245 OA
BRANCH  10  12
ATOM     12  O   LIG d   1       9.723   2.194  -4.368  0.00  0.00    -0.460 OA
BRANCH  12  13
ATOM     13  C   LIG d   1       9.744   3.214  -3.336  0.00  0.00     0.105 C 
ATOM     14  H   LIG d   1       8.728   3.348  -2.932  0.00  0.00     0.071 H 
ATOM     15  H   LIG d   1      10.421   2.904  -2.526  0.00  0.00     0.071 H 
BRANCH  13  16
ATOM     16  C   LIG d   1      10.233   4.535  -3.933  0.00  0.00     0.033 C 
ATOM     17  H   LIG d   1      11.166   4.362  -4.489  0.00  0.00     0.046 H 
ATOM     18  H   LIG d   1       9.469   4.936  -4.614  0.00  0.00     0.046 H 
BRANCH  16  19
ATOM     19  N   LIG d   1      10.481   5.499  -2.852  0.00  0.00    -0.295 N 
ATOM     20  C   LIG d   1       9.356   6.436  -2.712  0.00  0.00     0.022 C 
ATOM     21  C   LIG d   1       9.682   7.456  -1.618  0.00  0.00     0.060 C 
ATOM     22  H   LIG d   1       9.194   6.957  -3.666  0.00  0.00     0.045 H 
ATOM     23  H   LIG d   1       8.448   5.879  -2.439  0.00  0.00     0.045 H 
ATOM     24  O   LIG d   1       9.966   6.766  -0.399  0.00  0.00    -0.377 OA
ATOM     25  H   LIG d   1       8.821   8.124  -1.470  0.00  0.00     0.057 H 
ATOM     26  H   LIG d   1      10.559   8.049  -1.917  0.00  0.00     0.057 H 
ATOM     27  C   LIG d   1      11.057   5.846  -0.499  0.00  0.00     0.060 C 
ATOM     28  C   LIG d   1      10.745   4.809  -1.581  0.00  0.00     0.022 C 
ATOM     29  H   LIG d   1      11.200   5.337   0.467  0.00  0.00     0.057 H 
ATOM     30  H   LIG d   1      11.975   6.390  -0.765  0.00  0.00     0.057 H 
ATOM     31  H   LIG d   1       9.859   4.227  -1.289  0.00  0.00     0.045 H 
ATOM     32  H   LIG d   1      11.605   4.133  -1.702  0.00  0.00     0.045 H 
ENDBRANCH  16  19
ENDBRANCH  13  16
ENDBRANCH  12  13
ENDBRANCH  10  12
ENDBRANCH   2  10
BRANCH   1  33
ATOM     33  N   LIG d   1       7.039  -0.428  -3.311  0.00  0.00    -0.299 N 
ATOM     34  H   LIG d   1       7.555   0.040  -2.461  0.00  0.00     0.154 HD
BRANCH  33  35
ATOM     35  C   LIG d   1       5.667  -0.686  -3.241  0.00  0.00     0.033 A 
ATOM     36  C   LIG d   1       4.788  -0.008  -4.075  0.00  0.00    -0.029 A 
ATOM     37  C   LIG d   1       3.433  -0.268  -4.006  0.00  0.00     0.057 A 
ATOM     38  H   LIG d   1       5.163   0.719  -4.781  0.00  0.00     0.064 H 
ATOM     39  C   LIG d   1       2.950  -1.194  -3.101  0.00  0.00    -0.050 A 
ATOM     40  C   LIG d   1       3.822  -1.868  -2.265  0.00  0.00    -0.059 A 
ATOM     41  H   LIG d   1       1.891  -1.392  -3.046  0.00  0.00     0.062 H 
ATOM     42  C   LIG d   1       5.179  -1.616  -2.332  0.00  0.00    -0.041 A 
ATOM     43  H   LIG d   1       3.443  -2.591  -1.558  0.00  0.00     0.062 H 
ATOM     44  H   LIG d   1       5.859  -2.143  -1.679  0.00  0.00     0.064 H 
BRANCH  37  45
ATOM     45  C   LIG d   1       2.479   0.465  -4.914  0.00  0.00     0.417 C 
ATOM     46  F   LIG d   1       1.186  -0.038  -4.735  0.00  0.00    -0.166 F 
ATOM     47  F   LIG d   1       2.496   1.830  -4.605  0.00  0.00    -0.166 F 
ATOM     48  F   LIG d   1       2.869   0.283  -6.246  0.00  0.00    -0.166 F 
ENDBRANCH  37  45
ENDBRANCH  33  35
ENDBRANCH   1  33
TORSDOF 8
ENDMDL
MODEL 9
REMARK VINA RESULT:      -6.5      4.442      6.909
REMARK  8 active torsions:
REMARK  status: ('A' for Active; 'I' for Inactive)
REMARK    1  A    between atoms: C_3  and  C_25 
REMARK    2  A    between atoms: C_5  and  N_7 
REMARK    3  A    between atoms: N_7  and  C_8 
REMARK    4  A    between atoms: C_9  and  C_14 
REMARK    5  A    between atoms: C_14  and  O_16 
REMARK    6  A    between atoms: O_16  and  C_17 
REMARK    7  A    between atoms: C_17  and  C_18 
REMARK    8  A    between atoms: C_18  and  N_19 
ROOT
ATOM      1  C   LIG d   1       8.626   1.000  -5.413  0.00  0.00     0.137 A 
ATOM      2  C   LIG d   1       9.243   2.260  -5.321  0.00  0.00     0.099 A 
ATOM      3  C   LIG d   1       9.271   3.081  -6.455  0.00  0.00    -0.043 A 
ATOM      4  C   LIG d   1       8.688   2.614  -7.619  0.00  0.00    -0.043 A 
ATOM      5  C   LIG d   1       8.095   1.364  -7.630  0.00  0.00     0.030 A 
ATOM      6  N   LIG d   1       8.083   0.603  -6.554  0.00  0.00    -0.239 NA
ATOM      7  H   LIG d   1       9.736   4.055  -6.421  0.00  0.00     0.063 H 
ATOM      8  H   LIG d   1       8.692   3.222  -8.511  0.00  0.00     0.063 H 
ATOM      9  H   LIG d   1       7.636   1.003  -8.539  0.00  0.00     0.083 H 
ENDROOT
BRANCH   2  10
ATOM     10  C   LIG d   1       9.848   2.709  -4.055  0.00  0.00     0.343 C 
ATOM     11  O   LIG d   1       9.157   2.830  -3.062  0.00  0.00    -0.245 OA
BRANCH  10  12
ATOM     12  O   LIG d   1      11.165   2.984  -3.997  0.00  0.00    -0.460 OA
BRANCH  12  13
ATOM     13  C   LIG d   1      11.621   3.800  -2.887  0.00  0.00     0.105 C 
ATOM     14  H   LIG d   1      10.847   3.820  -2.104  0.00  0.00     0.071 H 
ATOM     15  H   LIG d   1      12.548   3.374  -2.474  0.00  0.00     0.071 H 
BRANCH  13  16
ATOM     16  C   LIG d   1      11.888   5.225  -3.377  0.00  0.00     0.033 C 
ATOM     17  H   LIG d   1      12.973   5.381  -3.475  0.00  0.00     0.046 H 
ATOM     18  H   LIG d   1      11.407   5.373  -4.354  0.00  0.00     0.046 H 
BRANCH  16  19
ATOM     19  N   LIG d   1      11.341   6.186  -2.410  0.00  0.00    -0.295 N 
ATOM     20  C   LIG d   1       9.888   6.335  -2.578  0.00  0.00     0.022 C 
ATOM     21  C   LIG d   1       9.371   7.387  -1.594  0.00  0.00     0.060 C 
ATOM     22  H   LIG d   1       9.670   6.654  -3.607  0.00  0.00     0.045 H 
ATOM     23  H   LIG d   1       9.396   5.372  -2.381  0.00  0.00     0.045 H 
ATOM     24  O   LIG d   1       9.724   7.002  -0.263  0.00  0.00    -0.377 OA
ATOM     25  H   LIG d   1       8.276   7.461  -1.675  0.00  0.00     0.057 H 
ATOM     26  H   LIG d   1       9.823   8.363  -1.826  0.00  0.00     0.057 H 
ATOM     27  C   LIG d   1      11.133   6.848  -0.064  0.00  0.00     0.060 C 
ATOM     28  C   LIG d   1      11.667   5.790  -1.032  0.00  0.00     0.022 C 
ATOM     29  H   LIG d   1      11.326   6.528   0.972  0.00  0.00     0.057 H 
ATOM     30  H   LIG d   1      11.638   7.807  -0.251  0.00  0.00     0.057 H 
ATOM     31  H   LIG d   1      11.204   4.819  -0.809  0.00  0.00     0.045 H 
ATOM     32  H   LIG d   1      12.760   5.709  -0.922  0.00  0.00     0.045 H 
ENDBRANCH  16  19
ENDBRANCH  13  16
ENDBRANCH  12  13
ENDBRANCH  10  12
ENDBRANCH   2  10
BRANCH   1  33
ATOM     33  N   LIG d   1       8.585   0.171  -4.306  0.00  0.00    -0.299 N 
ATOM     34  H   LIG d   1       9.516  -0.101  -3.787  0.00  0.00     0.154 HD
BRANCH  33  35
ATOM     35  C   LIG d   1       7.360  -0.321  -3.846  0.00  0.00     0.033 A 
ATOM     36  C   LIG d   1       6.426   0.545  -3.291  0.00  0.00    -0.029 A 
ATOM     37  C   LIG d   1       5.215   0.056  -2.842  0.00  0.00     0.057 A 
ATOM     38  H   LIG d   1       6.645   1.600  -3.214  0.00  0.00     0.064 H 
ATOM     39  C   LIG d   1       4.935  -1.295  -2.935  0.00  0.00    -0.050 A 
ATOM     40  C   LIG d   1       5.865  -2.161  -3.483  0.00  0.00    -0.059 A 
ATOM     41  H   LIG d   1       3.990  -1.675  -2.579  0.00  0.00     0.062 H 
ATOM     42  C   LIG d   1       7.076  -1.678  -3.938  0.00  0.00    -0.041 A 
ATOM     43  H   LIG d   1       5.644  -3.216  -3.554  0.00  0.00     0.062 H 
ATOM     44  H   LIG d   1       7.801  -2.354  -4.366  0.00  0.00     0.064 H 
BRANCH  37  45
ATOM     45  C   LIG d   1       4.200   0.995  -2.243  0.00  0.00     0.417 C 
ATOM     46  F   LIG d   1       2.947   0.373  -2.220  0.00  0.00    -0.166 F 
ATOM     47  F   LIG d   1       4.582   1.325  -0.939  0.00  0.00    -0.166 F 
ATOM     48  F   LIG d   1       4.127   2.159  -3.017  0.00  0.00    -0.166 F 
ENDBRANCH  37  45
ENDBRANCH  33  35
ENDBRANCH   1  33
TORSDOF 8
ENDMDL
MODEL 10
REMARK VINA RESULT:      -6.4      3.851      6.425
REMARK  8 active torsions:
REMARK  status: ('A' for Active; 'I' for Inactive)
REMARK    1  A    between atoms: C_3  and  C_25 
REMARK    2  A    between atoms: C_5  and  N_7 
REMARK    3  A    between atoms: N_7  and  C_8 
REMARK    4  A    between atoms: C_9  and  C_14 
REMARK    5  A    between atoms: C_14  and  O_16 
REMARK    6  A    between atoms: O_16  and  C_17 
REMARK    7  A    between atoms: C_17  and  C_18 
REMARK    8  A    between atoms: C_18  and  N_19 
ROOT
ATOM      1  C   LIG d   1       6.296  -3.647  -5.544  0.00  0.00     0.137 A 
ATOM      2  C   LIG d   1       5.707  -4.844  -5.986  0.00  0.00     0.099 A 
ATOM      3  C   LIG d   1       6.471  -6.017  -5.972  0.00  0.00    -0.043 A 
ATOM      4  C   LIG d   1       7.778  -5.945  -5.523  0.00  0.00    -0.043 A 
ATOM      5  C   LIG d   1       8.286  -4.729  -5.100  0.00  0.00     0.030 A 
ATOM      6  N   LIG d   1       7.552  -3.635  -5.125  0.00  0.00    -0.239 NA
ATOM      7  H   LIG d   1       6.051  -6.955  -6.303  0.00  0.00     0.063 H 
ATOM      8  H   LIG d   1       8.395  -6.830  -5.499  0.00  0.00     0.063 H 
ATOM      9  H   LIG d   1       9.305  -4.676  -4.745  0.00  0.00     0.083 H 
ENDROOT
BRANCH   2  10
ATOM     10  C   LIG d   1       4.310  -4.865  -6.453  0.00  0.00     0.343 C 
ATOM     11  O   LIG d   1       3.560  -5.748  -6.084  0.00  0.00    -0.245 OA
BRANCH  10  12
ATOM     12  O   LIG d   1       3.863  -3.907  -7.287  0.00  0.00    -0.460 OA
BRANCH  12  13
ATOM     13  C   LIG d   1       4.222  -4.031  -8.688  0.00  0.00     0.105 C 
ATOM     14  H   LIG d   1       4.950  -4.848  -8.809  0.00  0.00     0.071 H 
ATOM     15  H   LIG d   1       3.322  -4.254  -9.280  0.00  0.00     0.071 H 
BRANCH  13  16
ATOM     16  C   LIG d   1       4.842  -2.720  -9.175  0.00  0.00     0.033 C 
ATOM     17  H   LIG d   1       5.337  -2.214  -8.333  0.00  0.00     0.046 H 
ATOM     18  H   LIG d   1       5.580  -2.932  -9.961  0.00  0.00     0.046 H 
BRANCH  16  19
ATOM     19  N   LIG d   1       3.787  -1.851  -9.714  0.00  0.00    -0.295 N 
ATOM     20  C   LIG d   1       2.638  -2.642 -10.180  0.00  0.00     0.022 C 
ATOM     21  C   LIG d   1       1.592  -1.704 -10.787  0.00  0.00     0.060 C 
ATOM     22  H   LIG d   1       2.974  -3.361 -10.941  0.00  0.00     0.045 H 
ATOM     23  H   LIG d   1       2.199  -3.185  -9.331  0.00  0.00     0.045 H 
ATOM     24  O   LIG d   1       1.216  -0.725  -9.815  0.00  0.00    -0.377 OA
ATOM     25  H   LIG d   1       0.706  -2.284 -11.085  0.00  0.00     0.057 H 
ATOM     26  H   LIG d   1       2.015  -1.201 -11.670  0.00  0.00     0.057 H 
ATOM     27  C   LIG d   1       2.310   0.064  -9.340  0.00  0.00     0.060 C 
ATOM     28  C   LIG d   1       3.364  -0.856  -8.718  0.00  0.00     0.022 C 
ATOM     29  H   LIG d   1       1.950   0.775  -8.581  0.00  0.00     0.057 H 
ATOM     30  H   LIG d   1       2.756   0.619 -10.179  0.00  0.00     0.057 H 
ATOM     31  H   LIG d   1       2.935  -1.370  -7.846  0.00  0.00     0.045 H 
ATOM     32  H   LIG d   1       4.233  -0.260  -8.402  0.00  0.00     0.045 H 
ENDBRANCH  16  19
ENDBRANCH  13  16
ENDBRANCH  12  13
ENDBRANCH  10  12
ENDBRANCH   2  10
BRANCH   1  33
ATOM     33  N   LIG d   1       5.560  -2.475  -5.548  0.00  0.00    -0.299 N 
ATOM     34  H   LIG d   1       5.394  -1.932  -6.490  0.00  0.00     0.154 HD
BRANCH  33  35
ATOM     35  C   LIG d   1       5.028  -1.980  -4.354  0.00  0.00     0.033 A 
ATOM     36  C   LIG d   1       5.202  -0.645  -4.014  0.00  0.00    -0.029 A 
ATOM     37  C   LIG d   1       4.671  -0.159  -2.836  0.00  0.00     0.057 A 
ATOM     38  H   LIG d   1       5.749   0.014  -4.672  0.00  0.00     0.064 H 
ATOM     39  C   LIG d   1       3.974  -1.002  -1.990  0.00  0.00    -0.050 A 
ATOM     40  C   LIG d   1       3.803  -2.334  -2.323  0.00  0.00    -0.059 A 
ATOM     41  H   LIG d   1       3.564  -0.621  -1.067  0.00  0.00     0.062 H 
ATOM     42  C   LIG d   1       4.328  -2.826  -3.502  0.00  0.00    -0.041 A 
ATOM     43  H   LIG d   1       3.259  -2.991  -1.660  0.00  0.00     0.062 H 
ATOM     44  H   LIG d   1       4.193  -3.865  -3.761  0.00  0.00     0.064 H 
BRANCH  37  45
ATOM     45  C   LIG d   1       4.856   1.291  -2.468  0.00  0.00     0.417 C 
ATOM     46  F   LIG d   1       6.099   1.734  -2.933  0.00  0.00    -0.166 F 
ATOM     47  F   LIG d   1       3.839   2.054  -3.052  0.00  0.00    -0.166 F 
ATOM     48  F   LIG d   1       4.804   1.429  -1.076  0.00  0.00    -0.166 F 
ENDBRANCH  37  45
ENDBRANCH  33  35
ENDBRANCH   1  33
TORSDOF 8
ENDMDL
