MODEL 1
REMARK VINA RESULT:      -5.8      0.000      0.000
REMARK  23 active torsions:
REMARK  status: ('A' for Active; 'I' for Inactive)
REMARK    1  A    between atoms: C_1  and  C_2 
REMARK    2  A    between atoms: C_2  and  C_4 
REMARK    3  A    between atoms: C_2  and  C_40 
REMARK    4  A    between atoms: C_6  and  C_9 
REMARK    5  A    between atoms: C_9  and  C_10 
REMARK    6  A    between atoms: C_14  and  C_22 
REMARK    7  A    between atoms: C_16  and  O_21 
REMARK    8  A    between atoms: C_18  and  O_20 
REMARK    9  A    between atoms: C_22  and  C_23 
REMARK   10  A    between atoms: C_23  and  C_39 
REMARK   11  A    between atoms: C_24  and  C_25 
REMARK   12  A    between atoms: C_25  and  O_27 
REMARK   13  A    between atoms: O_27  and  C_28 
REMARK   14  A    between atoms: C_28  and  C_29 
REMARK   15  A    between atoms: C_29  and  C_30 
REMARK   16  A    between atoms: C_30  and  C_31 
REMARK   17  A    between atoms: C_31  and  C_32 
REMARK   18  A    between atoms: C_32  and  C_33 
REMARK   19  A    between atoms: C_33  and  C_34 
REMARK   20  A    between atoms: C_34  and  C_35 
REMARK   21  A    between atoms: C_35  and  C_36 
REMARK   22  A    between atoms: C_40  and  C_42 
REMARK   23  A    between atoms: C_40  and  O_43 
ROOT
ATOM      1  C   LIG d   1       7.716   1.960  -3.844  0.00  0.00    -0.003 C 
ATOM      2  H   LIG d   1       7.797   1.962  -2.747  0.00  0.00     0.034 H 
ATOM      3  H   LIG d   1       6.963   2.699  -4.157  0.00  0.00     0.034 H 
ENDROOT
BRANCH   1   4
ATOM      4  C   LIG d   1       9.071   2.320  -4.455  0.00  0.00     0.091 C 
ATOM      5  O   LIG d   1       8.950   3.535  -5.199  0.00  0.00    -0.373 OA
ATOM      6  C   LIG d   1      10.159   3.952  -5.837  0.00  0.00     0.053 C 
ATOM      7  C   LIG d   1      11.233   4.204  -4.776  0.00  0.00     0.013 C 
ATOM      8  H   LIG d   1       9.976   4.877  -6.401  0.00  0.00     0.056 H 
ATOM      9  H   LIG d   1      10.501   3.165  -6.525  0.00  0.00     0.056 H 
ATOM     10  H   LIG d   1      12.177   4.487  -5.265  0.00  0.00     0.035 H 
ATOM     11  C   LIG d   1      11.440   2.928  -3.955  0.00  0.00     0.088 C 
ATOM     12  C   LIG d   1      10.101   2.508  -3.338  0.00  0.00     0.108 C 
ATOM     13  H   LIG d   1      11.875   2.122  -4.564  0.00  0.00     0.062 H 
ATOM     14  H   LIG d   1      10.206   1.598  -2.731  0.00  0.00     0.065 H 
ATOM     15  H   LIG d   1       9.398   1.557  -5.177  0.00  0.00     0.063 H 
BRANCH   7  16
ATOM     16  C   LIG d   1      10.783   5.338  -3.853  0.00  0.00    -0.017 C 
ATOM     17  H   LIG d   1      10.487   4.922  -2.878  0.00  0.00     0.029 H 
ATOM     18  H   LIG d   1       9.927   5.861  -4.304  0.00  0.00     0.029 H 
BRANCH  16  19
ATOM     19  C   LIG d   1      11.937   6.325  -3.656  0.00  0.00     0.086 A 
ATOM     20  C   LIG d   1      12.072   7.002  -2.292  0.00  0.00     0.090 A 
ATOM     21  H   LIG d   1      12.206   8.033  -1.930  0.00  0.00     0.062 H 
ATOM     22  O   LIG d   1      12.964   5.972  -2.728  0.00  0.00    -0.368 OA
ATOM     23  H   LIG d   1      11.933   6.655  -4.706  0.00  0.00     0.062 H 
BRANCH  20  24
ATOM     24  C   LIG d   1      11.043   6.648  -1.216  0.00  0.00     0.011 C 
ATOM     25  H   LIG d   1      10.207   6.098  -1.675  0.00  0.00     0.035 H 
BRANCH  24  26
ATOM     26  C   LIG d   1      10.516   7.931  -0.571  0.00  0.00    -0.058 C 
ATOM     27  H   LIG d   1       9.612   8.265  -1.103  0.00  0.00     0.023 H 
ATOM     28  H   LIG d   1      11.286   8.715  -0.631  0.00  0.00     0.023 H 
ATOM     29  H   LIG d   1      10.271   7.739   0.484  0.00  0.00     0.023 H 
ENDBRANCH  24  26
BRANCH  24  30
ATOM     30  C   LIG d   1      11.702   5.775  -0.147  0.00  0.00     0.057 C 
ATOM     31  H   LIG d   1      12.788   5.947  -0.105  0.00  0.00     0.059 H 
BRANCH  30  32
ATOM     32  C   LIG d   1      11.044   6.042   1.208  0.00  0.00    -0.039 C 
ATOM     33  H   LIG d   1      10.189   5.364   1.341  0.00  0.00     0.025 H 
ATOM     34  H   LIG d   1      10.695   7.084   1.247  0.00  0.00     0.025 H 
ATOM     35  H   LIG d   1      11.776   5.870   2.012  0.00  0.00     0.025 H 
ENDBRANCH  30  32
BRANCH  30  36
ATOM     36  O   LIG d   1      11.540   4.397  -0.491  0.00  0.00    -0.392 OA
ATOM     37  H   LIG d   1      12.418   3.735  -0.536  0.00  0.00     0.210 HD
ENDBRANCH  30  36
ENDBRANCH  24  30
ENDBRANCH  20  24
ENDBRANCH  16  19
ENDBRANCH   7  16
BRANCH  11  38
ATOM     38  O   LIG d   1      12.388   3.176  -2.915  0.00  0.00    -0.389 OA
ATOM     39  H   LIG d   1      12.332   4.105  -2.329  0.00  0.00     0.210 HD
ENDBRANCH  11  38
BRANCH  12  40
ATOM     40  O   LIG d   1       9.651   3.522  -2.439  0.00  0.00    -0.387 OA
ATOM     41  H   LIG d   1       9.054   3.248  -1.556  0.00  0.00     0.210 HD
ENDBRANCH  12  40
ENDBRANCH   1   4
BRANCH   1  42
ATOM     42  C   LIG d   1       7.301   0.589  -4.314  0.00  0.00    -0.063 C 
ATOM     43  C   LIG d   1       6.893  -0.321  -3.433  0.00  0.00     0.022 C 
ATOM     44  H   LIG d   1       6.801  -0.055  -2.370  0.00  0.00     0.069 H 
BRANCH  43  45
ATOM     45  C   LIG d   1       6.564  -1.682  -3.881  0.00  0.00     0.332 C 
ATOM     46  O   LIG d   1       7.391  -2.568  -3.787  0.00  0.00    -0.246 OA
BRANCH  45  47
ATOM     47  O   LIG d   1       5.348  -1.946  -4.397  0.00  0.00    -0.462 OA
BRANCH  47  48
ATOM     48  C   LIG d   1       4.487  -2.832  -3.633  0.00  0.00     0.093 C 
ATOM     49  H   LIG d   1       3.624  -3.123  -4.250  0.00  0.00     0.070 H 
ATOM     50  H   LIG d   1       5.049  -3.730  -3.342  0.00  0.00     0.070 H 
BRANCH  48  51
ATOM     51  C   LIG d   1       3.994  -2.107  -2.378  0.00  0.00    -0.018 C 
ATOM     52  H   LIG d   1       3.594  -2.842  -1.665  0.00  0.00     0.030 H 
ATOM     53  H   LIG d   1       4.832  -1.565  -1.915  0.00  0.00     0.030 H 
BRANCH  51  54
ATOM     54  C   LIG d   1       2.895  -1.115  -2.762  0.00  0.00    -0.050 C 
ATOM     55  H   LIG d   1       2.632  -1.249  -3.821  0.00  0.00     0.027 H 
ATOM     56  H   LIG d   1       2.006  -1.293  -2.138  0.00  0.00     0.027 H 
BRANCH  54  57
ATOM     57  C   LIG d   1       3.395   0.313  -2.537  0.00  0.00    -0.053 C 
ATOM     58  H   LIG d   1       2.809   0.785  -1.734  0.00  0.00     0.026 H 
ATOM     59  H   LIG d   1       4.457   0.288  -2.248  0.00  0.00     0.026 H 
BRANCH  57  60
ATOM     60  C   LIG d   1       3.236   1.119  -3.827  0.00  0.00    -0.053 C 
ATOM     61  H   LIG d   1       2.681   2.046  -3.614  0.00  0.00     0.026 H 
ATOM     62  H   LIG d   1       4.229   1.371  -4.226  0.00  0.00     0.026 H 
BRANCH  60  63
ATOM     63  C   LIG d   1       2.467   0.289  -4.856  0.00  0.00    -0.053 C 
ATOM     64  H   LIG d   1       2.697  -0.777  -4.714  0.00  0.00     0.026 H 
ATOM     65  H   LIG d   1       1.387   0.451  -4.725  0.00  0.00     0.026 H 
BRANCH  63  66
ATOM     66  C   LIG d   1       2.879   0.716  -6.267  0.00  0.00    -0.048 C 
ATOM     67  H   LIG d   1       1.980   0.959  -6.853  0.00  0.00     0.027 H 
ATOM     68  H   LIG d   1       3.527   1.602  -6.207  0.00  0.00     0.027 H 
BRANCH  66  69
ATOM     69  C   LIG d   1       3.636  -0.427  -6.945  0.00  0.00    -0.013 C 
ATOM     70  H   LIG d   1       4.346  -0.871  -6.232  0.00  0.00     0.033 H 
ATOM     71  H   LIG d   1       2.922  -1.194  -7.278  0.00  0.00     0.033 H 
BRANCH  69  72
ATOM     72  C   LIG d   1       4.390   0.107  -8.136  0.00  0.00     0.042 C 
ATOM     73  O   LIG d   1       4.646  -0.622  -9.065  0.00  0.00    -0.550 OA
ATOM     74  O   LIG d   1       4.776   1.391  -8.165  0.00  0.00    -0.550 OA
ENDBRANCH  69  72
ENDBRANCH  66  69
ENDBRANCH  63  66
ENDBRANCH  60  63
ENDBRANCH  57  60
ENDBRANCH  54  57
ENDBRANCH  51  54
ENDBRANCH  48  51
ENDBRANCH  47  48
ENDBRANCH  45  47
ENDBRANCH  43  45
BRANCH  42  75
ATOM     75  C   LIG d   1       7.349   0.250  -5.781  0.00  0.00    -0.043 C 
ATOM     76  H   LIG d   1       8.238  -0.364  -5.987  0.00  0.00     0.027 H 
ATOM     77  H   LIG d   1       7.399   1.177  -6.371  0.00  0.00     0.027 H 
ATOM     78  H   LIG d   1       6.444  -0.311  -6.057  0.00  0.00     0.027 H 
ENDBRANCH  42  75
ENDBRANCH   1  42
TORSDOF 23
ENDMDL
MODEL 2
REMARK VINA RESULT:      -5.6      2.757      4.564
REMARK  23 active torsions:
REMARK  status: ('A' for Active; 'I' for Inactive)
REMARK    1  A    between atoms: C_1  and  C_2 
REMARK    2  A    between atoms: C_2  and  C_4 
REMARK    3  A    between atoms: C_2  and  C_40 
REMARK    4  A    between atoms: C_6  and  C_9 
REMARK    5  A    between atoms: C_9  and  C_10 
REMARK    6  A    between atoms: C_14  and  C_22 
REMARK    7  A    between atoms: C_16  and  O_21 
REMARK    8  A    between atoms: C_18  and  O_20 
REMARK    9  A    between atoms: C_22  and  C_23 
REMARK   10  A    between atoms: C_23  and  C_39 
REMARK   11  A    between atoms: C_24  and  C_25 
REMARK   12  A    between atoms: C_25  and  O_27 
REMARK   13  A    between atoms: O_27  and  C_28 
REMARK   14  A    between atoms: C_28  and  C_29 
REMARK   15  A    between atoms: C_29  and  C_30 
REMARK   16  A    between atoms: C_30  and  C_31 
REMARK   17  A    between atoms: C_31  and  C_32 
REMARK   18  A    between atoms: C_32  and  C_33 
REMARK   19  A    between atoms: C_33  and  C_34 
REMARK   20  A    between atoms: C_34  and  C_35 
REMARK   21  A    between atoms: C_35  and  C_36 
REMARK   22  A    between atoms: C_40  and  C_42 
REMARK   23  A    between atoms: C_40  and  O_43 
ROOT
ATOM      1  C   LIG d   1      11.034   4.632  -3.687  0.00  0.00    -0.003 C 
ATOM      2  H   LIG d   1      11.143   5.493  -4.362  0.00  0.00     0.034 H 
ATOM      3  H   LIG d   1      11.995   4.101  -3.613  0.00  0.00     0.034 H 
ENDROOT
BRANCH   1   4
ATOM      4  C   LIG d   1      10.612   5.121  -2.300  0.00  0.00     0.091 C 
ATOM      5  O   LIG d   1      11.772   5.490  -1.552  0.00  0.00    -0.373 OA
ATOM      6  C   LIG d   1      11.491   5.940  -0.225  0.00  0.00     0.053 C 
ATOM      7  C   LIG d   1      10.607   7.187  -0.286  0.00  0.00     0.013 C 
ATOM      8  H   LIG d   1      12.433   6.183   0.287  0.00  0.00     0.056 H 
ATOM      9  H   LIG d   1      10.968   5.146   0.329  0.00  0.00     0.056 H 
ATOM     10  H   LIG d   1      10.356   7.514   0.733  0.00  0.00     0.035 H 
ATOM     11  C   LIG d   1       9.323   6.857  -1.053  0.00  0.00     0.088 C 
ATOM     12  C   LIG d   1       9.693   6.337  -2.446  0.00  0.00     0.108 C 
ATOM     13  H   LIG d   1       8.700   6.136  -0.505  0.00  0.00     0.062 H 
ATOM     14  H   LIG d   1       8.796   6.095  -3.036  0.00  0.00     0.065 H 
ATOM     15  H   LIG d   1      10.126   4.318  -1.726  0.00  0.00     0.063 H 
BRANCH   7  16
ATOM     16  C   LIG d   1      11.357   8.310  -1.007  0.00  0.00    -0.017 C 
ATOM     17  H   LIG d   1      10.888   8.496  -1.985  0.00  0.00     0.029 H 
ATOM     18  H   LIG d   1      12.407   8.015  -1.153  0.00  0.00     0.029 H 
BRANCH  16  19
ATOM     19  C   LIG d   1      11.300   9.586  -0.163  0.00  0.00     0.086 A 
ATOM     20  C   LIG d   1      10.832  10.872  -0.845  0.00  0.00     0.090 A 
ATOM     21  H   LIG d   1      11.196  11.908  -0.913  0.00  0.00     0.062 H 
ATOM     22  O   LIG d   1      10.015  10.160   0.089  0.00  0.00    -0.368 OA
ATOM     23  H   LIG d   1      12.145   9.292   0.476  0.00  0.00     0.062 H 
BRANCH  20  24
ATOM     24  C   LIG d   1      10.456  10.797  -2.327  0.00  0.00     0.011 C 
ATOM     25  H   LIG d   1      10.421   9.743  -2.642  0.00  0.00     0.035 H 
BRANCH  24  26
ATOM     26  C   LIG d   1      11.500  11.544  -3.158  0.00  0.00    -0.058 C 
ATOM     27  H   LIG d   1      12.239  10.828  -3.547  0.00  0.00     0.023 H 
ATOM     28  H   LIG d   1      12.008  12.288  -2.526  0.00  0.00     0.023 H 
ATOM     29  H   LIG d   1      11.005  12.054  -3.997  0.00  0.00     0.023 H 
ENDBRANCH  24  26
BRANCH  24  30
ATOM     30  C   LIG d   1       9.083  11.438  -2.537  0.00  0.00     0.057 C 
ATOM     31  H   LIG d   1       9.018  12.416  -2.038  0.00  0.00     0.059 H 
BRANCH  30  32
ATOM     32  C   LIG d   1       8.801  11.560  -4.036  0.00  0.00    -0.039 C 
ATOM     33  H   LIG d   1       9.743  11.746  -4.572  0.00  0.00     0.025 H 
ATOM     34  H   LIG d   1       8.107  12.394  -4.213  0.00  0.00     0.025 H 
ATOM     35  H   LIG d   1       8.351  10.625  -4.402  0.00  0.00     0.025 H 
ENDBRANCH  30  32
BRANCH  30  36
ATOM     36  O   LIG d   1       8.078  10.624  -1.928  0.00  0.00    -0.392 OA
ATOM     37  H   LIG d   1       7.425   9.997  -2.553  0.00  0.00     0.210 HD
ENDBRANCH  30  36
ENDBRANCH  24  30
ENDBRANCH  20  24
ENDBRANCH  16  19
ENDBRANCH   7  16
BRANCH  11  38
ATOM     38  O   LIG d   1       8.524   8.035  -1.180  0.00  0.00    -0.389 OA
ATOM     39  H   LIG d   1       8.551   8.806  -0.396  0.00  0.00     0.210 HD
ENDBRANCH  11  38
BRANCH  12  40
ATOM     40  O   LIG d   1      10.369   7.362  -3.175  0.00  0.00    -0.387 OA
ATOM     41  H   LIG d   1      11.016   8.077  -2.646  0.00  0.00     0.210 HD
ENDBRANCH  12  40
ENDBRANCH   1   4
BRANCH   1  42
ATOM     42  C   LIG d   1       9.984   3.696  -4.231  0.00  0.00    -0.063 C 
ATOM     43  C   LIG d   1       9.469   2.749  -3.452  0.00  0.00     0.022 C 
ATOM     44  H   LIG d   1       9.764   2.686  -2.394  0.00  0.00     0.069 H 
BRANCH  43  45
ATOM     45  C   LIG d   1       8.505   1.787  -4.004  0.00  0.00     0.332 C 
ATOM     46  O   LIG d   1       8.900   0.821  -4.627  0.00  0.00    -0.246 OA
BRANCH  45  47
ATOM     47  O   LIG d   1       7.183   1.977  -3.821  0.00  0.00    -0.462 OA
BRANCH  47  48
ATOM     48  C   LIG d   1       6.460   0.937  -3.110  0.00  0.00     0.093 C 
ATOM     49  H   LIG d   1       6.431   0.026  -3.725  0.00  0.00     0.070 H 
ATOM     50  H   LIG d   1       6.968   0.721  -2.159  0.00  0.00     0.070 H 
BRANCH  48  51
ATOM     51  C   LIG d   1       5.032   1.410  -2.830  0.00  0.00    -0.018 C 
ATOM     52  H   LIG d   1       5.057   2.438  -2.439  0.00  0.00     0.030 H 
ATOM     53  H   LIG d   1       4.449   1.386  -3.763  0.00  0.00     0.030 H 
BRANCH  51  54
ATOM     54  C   LIG d   1       4.383   0.486  -1.799  0.00  0.00    -0.050 C 
ATOM     55  H   LIG d   1       5.165  -0.024  -1.219  0.00  0.00     0.027 H 
ATOM     56  H   LIG d   1       3.751   1.079  -1.120  0.00  0.00     0.027 H 
BRANCH  54  57
ATOM     57  C   LIG d   1       3.520  -0.554  -2.516  0.00  0.00    -0.053 C 
ATOM     58  H   LIG d   1       2.489  -0.501  -2.136  0.00  0.00     0.026 H 
ATOM     59  H   LIG d   1       3.521  -0.348  -3.597  0.00  0.00     0.026 H 
BRANCH  57  60
ATOM     60  C   LIG d   1       4.087  -1.951  -2.263  0.00  0.00    -0.053 C 
ATOM     61  H   LIG d   1       5.086  -1.865  -1.810  0.00  0.00     0.026 H 
ATOM     62  H   LIG d   1       3.421  -2.498  -1.579  0.00  0.00     0.026 H 
BRANCH  60  63
ATOM     63  C   LIG d   1       4.191  -2.708  -3.588  0.00  0.00    -0.053 C 
ATOM     64  H   LIG d   1       4.309  -3.783  -3.389  0.00  0.00     0.026 H 
ATOM     65  H   LIG d   1       3.277  -2.543  -4.177  0.00  0.00     0.026 H 
BRANCH  63  66
ATOM     66  C   LIG d   1       5.402  -2.199  -4.373  0.00  0.00    -0.048 C 
ATOM     67  H   LIG d   1       5.755  -1.255  -3.930  0.00  0.00     0.027 H 
ATOM     68  H   LIG d   1       6.207  -2.947  -4.330  0.00  0.00     0.027 H 
BRANCH  66  69
ATOM     69  C   LIG d   1       5.003  -1.961  -5.830  0.00  0.00    -0.013 C 
ATOM     70  H   LIG d   1       5.747  -2.422  -6.494  0.00  0.00     0.033 H 
ATOM     71  H   LIG d   1       4.016  -2.409  -6.018  0.00  0.00     0.033 H 
BRANCH  69  72
ATOM     72  C   LIG d   1       4.940  -0.479  -6.098  0.00  0.00     0.042 C 
ATOM     73  O   LIG d   1       3.903   0.121  -5.937  0.00  0.00    -0.550 OA
ATOM     74  O   LIG d   1       6.035   0.174  -6.517  0.00  0.00    -0.550 OA
ENDBRANCH  69  72
ENDBRANCH  66  69
ENDBRANCH  63  66
ENDBRANCH  60  63
ENDBRANCH  57  60
ENDBRANCH  54  57
ENDBRANCH  51  54
ENDBRANCH  48  51
ENDBRANCH  47  48
ENDBRANCH  45  47
ENDBRANCH  43  45
BRANCH  42  75
ATOM     75  C   LIG d   1       9.519   3.835  -5.658  0.00  0.00    -0.043 C 
ATOM     76  H   LIG d   1       8.911   4.746  -5.759  0.00  0.00     0.027 H 
ATOM     77  H   LIG d   1       8.914   2.958  -5.933  0.00  0.00     0.027 H 
ATOM     78  H   LIG d   1      10.392   3.901  -6.323  0.00  0.00     0.027 H 
ENDBRANCH  42  75
ENDBRANCH   1  42
TORSDOF 23
ENDMDL
MODEL 3
REMARK VINA RESULT:      -5.6      1.310      2.091
REMARK  23 active torsions:
REMARK  status: ('A' for Active; 'I' for Inactive)
REMARK    1  A    between atoms: C_1  and  C_2 
REMARK    2  A    between atoms: C_2  and  C_4 
REMARK    3  A    between atoms: C_2  and  C_40 
REMARK    4  A    between atoms: C_6  and  C_9 
REMARK    5  A    between atoms: C_9  and  C_10 
REMARK    6  A    between atoms: C_14  and  C_22 
REMARK    7  A    between atoms: C_16  and  O_21 
REMARK    8  A    between atoms: C_18  and  O_20 
REMARK    9  A    between atoms: C_22  and  C_23 
REMARK   10  A    between atoms: C_23  and  C_39 
REMARK   11  A    between atoms: C_24  and  C_25 
REMARK   12  A    between atoms: C_25  and  O_27 
REMARK   13  A    between atoms: O_27  and  C_28 
REMARK   14  A    between atoms: C_28  and  C_29 
REMARK   15  A    between atoms: C_29  and  C_30 
REMARK   16  A    between atoms: C_30  and  C_31 
REMARK   17  A    between atoms: C_31  and  C_32 
REMARK   18  A    between atoms: C_32  and  C_33 
REMARK   19  A    between atoms: C_33  and  C_34 
REMARK   20  A    between atoms: C_34  and  C_35 
REMARK   21  A    between atoms: C_35  and  C_36 
REMARK   22  A    between atoms: C_40  and  C_42 
REMARK   23  A    between atoms: C_40  and  O_43 
ROOT
ATOM      1  C   LIG d   1       7.827   1.542  -4.203  0.00  0.00    -0.003 C 
ATOM      2  H   LIG d   1       7.843   1.524  -3.103  0.00  0.00     0.034 H 
ATOM      3  H   LIG d   1       7.016   2.202  -4.548  0.00  0.00     0.034 H 
ENDROOT
BRANCH   1   4
ATOM      4  C   LIG d   1       9.167   2.065  -4.724  0.00  0.00     0.091 C 
ATOM      5  O   LIG d   1       8.958   3.285  -5.438  0.00  0.00    -0.373 OA
ATOM      6  C   LIG d   1      10.149   3.849  -5.991  0.00  0.00     0.053 C 
ATOM      7  C   LIG d   1      11.129   4.176  -4.863  0.00  0.00     0.013 C 
ATOM      8  H   LIG d   1       9.899   4.769  -6.539  0.00  0.00     0.056 H 
ATOM      9  H   LIG d   1      10.610   3.127  -6.681  0.00  0.00     0.056 H 
ATOM     10  H   LIG d   1      12.062   4.574  -5.288  0.00  0.00     0.035 H 
ATOM     11  C   LIG d   1      11.426   2.901  -4.068  0.00  0.00     0.088 C 
ATOM     12  C   LIG d   1      10.108   2.321  -3.543  0.00  0.00     0.108 C 
ATOM     13  H   LIG d   1      11.977   2.167  -4.673  0.00  0.00     0.062 H 
ATOM     14  H   LIG d   1      10.276   1.406  -2.957  0.00  0.00     0.065 H 
ATOM     15  H   LIG d   1       9.613   1.366  -5.447  0.00  0.00     0.063 H 
BRANCH   7  16
ATOM     16  C   LIG d   1      10.509   5.223  -3.935  0.00  0.00    -0.017 C 
ATOM     17  H   LIG d   1      10.315   4.773  -2.951  0.00  0.00     0.029 H 
ATOM     18  H   LIG d   1       9.563   5.582  -4.367  0.00  0.00     0.029 H 
BRANCH  16  19
ATOM     19  C   LIG d   1      11.475   6.400  -3.776  0.00  0.00     0.086 A 
ATOM     20  C   LIG d   1      11.560   7.074  -2.406  0.00  0.00     0.090 A 
ATOM     21  H   LIG d   1      11.526   8.107  -2.029  0.00  0.00     0.062 H 
ATOM     22  O   LIG d   1      12.597   6.227  -2.909  0.00  0.00    -0.368 OA
ATOM     23  H   LIG d   1      11.356   6.736  -4.817  0.00  0.00     0.062 H 
BRANCH  20  24
ATOM     24  C   LIG d   1      10.671   6.526  -1.286  0.00  0.00     0.011 C 
ATOM     25  H   LIG d   1       9.893   5.879  -1.720  0.00  0.00     0.035 H 
BRANCH  24  26
ATOM     26  C   LIG d   1      10.010   7.689  -0.544  0.00  0.00    -0.058 C 
ATOM     27  H   LIG d   1      10.781   8.407  -0.226  0.00  0.00     0.023 H 
ATOM     28  H   LIG d   1       9.479   7.306   0.340  0.00  0.00     0.023 H 
ATOM     29  H   LIG d   1       9.294   8.191  -1.212  0.00  0.00     0.023 H 
ENDBRANCH  24  26
BRANCH  24  30
ATOM     30  C   LIG d   1      11.523   5.715  -0.309  0.00  0.00     0.057 C 
ATOM     31  H   LIG d   1      12.591   5.957  -0.414  0.00  0.00     0.059 H 
BRANCH  30  32
ATOM     32  C   LIG d   1      11.035   5.963   1.120  0.00  0.00    -0.039 C 
ATOM     33  H   LIG d   1      11.611   5.337   1.818  0.00  0.00     0.025 H 
ATOM     34  H   LIG d   1       9.968   5.708   1.193  0.00  0.00     0.025 H 
ATOM     35  H   LIG d   1      11.177   7.023   1.377  0.00  0.00     0.025 H 
ENDBRANCH  30  32
BRANCH  30  36
ATOM     36  O   LIG d   1      11.407   4.324  -0.617  0.00  0.00    -0.392 OA
ATOM     37  H   LIG d   1      11.972   3.583  -0.033  0.00  0.00     0.210 HD
ENDBRANCH  30  36
ENDBRANCH  24  30
ENDBRANCH  20  24
ENDBRANCH  16  19
ENDBRANCH   7  16
BRANCH  11  38
ATOM     38  O   LIG d   1      12.282   3.211  -2.968  0.00  0.00    -0.389 OA
ATOM     39  H   LIG d   1      12.917   4.110  -2.999  0.00  0.00     0.210 HD
ENDBRANCH  11  38
BRANCH  12  40
ATOM     40  O   LIG d   1       9.502   3.250  -2.643  0.00  0.00    -0.387 OA
ATOM     41  H   LIG d   1       9.887   3.351  -1.617  0.00  0.00     0.210 HD
ENDBRANCH  12  40
ENDBRANCH   1   4
BRANCH   1  42
ATOM     42  C   LIG d   1       7.595   0.147  -4.725  0.00  0.00    -0.063 C 
ATOM     43  C   LIG d   1       8.181  -0.891  -4.133  0.00  0.00     0.022 C 
ATOM     44  H   LIG d   1       8.786  -0.738  -3.227  0.00  0.00     0.069 H 
BRANCH  43  45
ATOM     45  C   LIG d   1       8.019  -2.242  -4.688  0.00  0.00     0.332 C 
ATOM     46  O   LIG d   1       8.711  -2.602  -5.621  0.00  0.00    -0.246 OA
BRANCH  45  47
ATOM     47  O   LIG d   1       7.103  -3.081  -4.165  0.00  0.00    -0.462 OA
BRANCH  47  48
ATOM     48  C   LIG d   1       6.177  -3.707  -5.091  0.00  0.00     0.093 C 
ATOM     49  H   LIG d   1       6.177  -3.151  -6.040  0.00  0.00     0.070 H 
ATOM     50  H   LIG d   1       6.486  -4.746  -5.274  0.00  0.00     0.070 H 
BRANCH  48  51
ATOM     51  C   LIG d   1       4.769  -3.691  -4.492  0.00  0.00    -0.018 C 
ATOM     52  H   LIG d   1       4.044  -4.014  -5.253  0.00  0.00     0.030 H 
ATOM     53  H   LIG d   1       4.728  -4.377  -3.632  0.00  0.00     0.030 H 
BRANCH  51  54
ATOM     54  C   LIG d   1       4.427  -2.273  -4.031  0.00  0.00    -0.050 C 
ATOM     55  H   LIG d   1       5.335  -1.654  -4.046  0.00  0.00     0.027 H 
ATOM     56  H   LIG d   1       3.675  -1.839  -4.706  0.00  0.00     0.027 H 
BRANCH  54  57
ATOM     57  C   LIG d   1       3.866  -2.320  -2.608  0.00  0.00    -0.053 C 
ATOM     58  H   LIG d   1       2.792  -2.084  -2.629  0.00  0.00     0.026 H 
ATOM     59  H   LIG d   1       4.010  -3.329  -2.191  0.00  0.00     0.026 H 
BRANCH  57  60
ATOM     60  C   LIG d   1       4.597  -1.298  -1.736  0.00  0.00    -0.053 C 
ATOM     61  H   LIG d   1       4.005  -1.100  -0.830  0.00  0.00     0.026 H 
ATOM     62  H   LIG d   1       5.580  -1.698  -1.450  0.00  0.00     0.026 H 
BRANCH  60  63
ATOM     63  C   LIG d   1       4.782   0.002  -2.520  0.00  0.00    -0.053 C 
ATOM     64  H   LIG d   1       5.682   0.522  -2.163  0.00  0.00     0.026 H 
ATOM     65  H   LIG d   1       4.892  -0.227  -3.590  0.00  0.00     0.026 H 
BRANCH  63  66
ATOM     66  C   LIG d   1       3.559   0.900  -2.315  0.00  0.00    -0.048 C 
ATOM     67  H   LIG d   1       2.689   0.280  -2.053  0.00  0.00     0.027 H 
ATOM     68  H   LIG d   1       3.760   1.611  -1.501  0.00  0.00     0.027 H 
BRANCH  66  69
ATOM     69  C   LIG d   1       3.268   1.669  -3.605  0.00  0.00    -0.013 C 
ATOM     70  H   LIG d   1       2.530   2.457  -3.403  0.00  0.00     0.033 H 
ATOM     71  H   LIG d   1       4.198   2.123  -3.979  0.00  0.00     0.033 H 
BRANCH  69  72
ATOM     72  C   LIG d   1       2.721   0.722  -4.642  0.00  0.00     0.042 C 
ATOM     73  O   LIG d   1       1.787   0.004  -4.371  0.00  0.00    -0.550 OA
ATOM     74  O   LIG d   1       3.271   0.675  -5.865  0.00  0.00    -0.550 OA
ENDBRANCH  69  72
ENDBRANCH  66  69
ENDBRANCH  63  66
ENDBRANCH  60  63
ENDBRANCH  57  60
ENDBRANCH  54  57
ENDBRANCH  51  54
ENDBRANCH  48  51
ENDBRANCH  47  48
ENDBRANCH  45  47
ENDBRANCH  43  45
BRANCH  42  75
ATOM     75  C   LIG d   1       6.699  -0.072  -5.916  0.00  0.00    -0.043 C 
ATOM     76  H   LIG d   1       6.815   0.764  -6.622  0.00  0.00     0.027 H 
ATOM     77  H   LIG d   1       5.652  -0.129  -5.583  0.00  0.00     0.027 H 
ATOM     78  H   LIG d   1       6.976  -1.013  -6.415  0.00  0.00     0.027 H 
ENDBRANCH  42  75
ENDBRANCH   1  42
TORSDOF 23
ENDMDL
MODEL 4
REMARK VINA RESULT:      -5.5      3.034      5.366
REMARK  23 active torsions:
REMARK  status: ('A' for Active; 'I' for Inactive)
REMARK    1  A    between atoms: C_1  and  C_2 
REMARK    2  A    between atoms: C_2  and  C_4 
REMARK    3  A    between atoms: C_2  and  C_40 
REMARK    4  A    between atoms: C_6  and  C_9 
REMARK    5  A    between atoms: C_9  and  C_10 
REMARK    6  A    between atoms: C_14  and  C_22 
REMARK    7  A    between atoms: C_16  and  O_21 
REMARK    8  A    between atoms: C_18  and  O_20 
REMARK    9  A    between atoms: C_22  and  C_23 
REMARK   10  A    between atoms: C_23  and  C_39 
REMARK   11  A    between atoms: C_24  and  C_25 
REMARK   12  A    between atoms: C_25  and  O_27 
REMARK   13  A    between atoms: O_27  and  C_28 
REMARK   14  A    between atoms: C_28  and  C_29 
REMARK   15  A    between atoms: C_29  and  C_30 
REMARK   16  A    between atoms: C_30  and  C_31 
REMARK   17  A    between atoms: C_31  and  C_32 
REMARK   18  A    between atoms: C_32  and  C_33 
REMARK   19  A    between atoms: C_33  and  C_34 
REMARK   20  A    between atoms: C_34  and  C_35 
REMARK   21  A    between atoms: C_35  and  C_36 
REMARK   22  A    between atoms: C_40  and  C_42 
REMARK   23  A    between atoms: C_40  and  O_43 
ROOT
ATOM      1  C   LIG d   1      11.028   5.666  -3.688  0.00  0.00    -0.003 C 
ATOM      2  H   LIG d   1      10.799   6.511  -4.353  0.00  0.00     0.034 H 
ATOM      3  H   LIG d   1      12.101   5.430  -3.750  0.00  0.00     0.034 H 
ENDROOT
BRANCH   1   4
ATOM      4  C   LIG d   1      10.671   6.041  -2.248  0.00  0.00     0.091 C 
ATOM      5  O   LIG d   1      11.843   6.500  -1.570  0.00  0.00    -0.373 OA
ATOM      6  C   LIG d   1      11.626   6.854  -0.203  0.00  0.00     0.053 C 
ATOM      7  C   LIG d   1      10.613   7.998  -0.128  0.00  0.00     0.013 C 
ATOM      8  H   LIG d   1      12.575   7.175   0.248  0.00  0.00     0.056 H 
ATOM      9  H   LIG d   1      11.236   5.983   0.344  0.00  0.00     0.056 H 
ATOM     10  H   LIG d   1      10.413   8.248   0.924  0.00  0.00     0.035 H 
ATOM     11  C   LIG d   1       9.312   7.566  -0.812  0.00  0.00     0.088 C 
ATOM     12  C   LIG d   1       9.620   7.154  -2.256  0.00  0.00     0.108 C 
ATOM     13  H   LIG d   1       8.815   6.755  -0.259  0.00  0.00     0.062 H 
ATOM     14  H   LIG d   1       8.709   6.843  -2.788  0.00  0.00     0.065 H 
ATOM     15  H   LIG d   1      10.321   5.164  -1.683  0.00  0.00     0.063 H 
BRANCH   7  16
ATOM     16  C   LIG d   1      11.178   9.229  -0.840  0.00  0.00    -0.017 C 
ATOM     17  H   LIG d   1      10.652   9.375  -1.796  0.00  0.00     0.029 H 
ATOM     18  H   LIG d   1      12.252   9.081  -1.033  0.00  0.00     0.029 H 
BRANCH  16  19
ATOM     19  C   LIG d   1      10.984  10.464   0.042  0.00  0.00     0.086 A 
ATOM     20  C   LIG d   1      10.704  11.799  -0.650  0.00  0.00     0.090 A 
ATOM     21  H   LIG d   1      11.103  12.822  -0.585  0.00  0.00     0.062 H 
ATOM     22  O   LIG d   1       9.693  11.075   0.057  0.00  0.00    -0.368 OA
ATOM     23  H   LIG d   1      11.672  10.107   0.823  0.00  0.00     0.062 H 
BRANCH  20  24
ATOM     24  C   LIG d   1      10.638  11.809  -2.179  0.00  0.00     0.011 C 
ATOM     25  H   LIG d   1      10.976  10.836  -2.566  0.00  0.00     0.035 H 
BRANCH  24  26
ATOM     26  C   LIG d   1      11.545  12.915  -2.721  0.00  0.00    -0.058 C 
ATOM     27  H   LIG d   1      12.596  12.601  -2.641  0.00  0.00     0.023 H 
ATOM     28  H   LIG d   1      11.391  13.835  -2.137  0.00  0.00     0.023 H 
ATOM     29  H   LIG d   1      11.299  13.107  -3.776  0.00  0.00     0.023 H 
ENDBRANCH  24  26
BRANCH  24  30
ATOM     30  C   LIG d   1       9.198  12.064  -2.626  0.00  0.00     0.057 C 
ATOM     31  H   LIG d   1       8.735  12.870  -2.037  0.00  0.00     0.059 H 
BRANCH  30  32
ATOM     32  C   LIG d   1       9.178  12.386  -4.121  0.00  0.00    -0.039 C 
ATOM     33  H   LIG d   1       8.590  13.301  -4.292  0.00  0.00     0.025 H 
ATOM     34  H   LIG d   1       8.722  11.550  -4.671  0.00  0.00     0.025 H 
ATOM     35  H   LIG d   1      10.207  12.542  -4.477  0.00  0.00     0.025 H 
ENDBRANCH  30  32
BRANCH  30  36
ATOM     36  O   LIG d   1       8.409  10.899  -2.378  0.00  0.00    -0.392 OA
ATOM     37  H   LIG d   1       8.675   9.943  -2.854  0.00  0.00     0.210 HD
ENDBRANCH  30  36
ENDBRANCH  24  30
ENDBRANCH  20  24
ENDBRANCH  16  19
ENDBRANCH   7  16
BRANCH  11  38
ATOM     38  O   LIG d   1       8.386   8.653  -0.813  0.00  0.00    -0.389 OA
ATOM     39  H   LIG d   1       7.400   8.537  -1.288  0.00  0.00     0.210 HD
ENDBRANCH  11  38
BRANCH  12  40
ATOM     40  O   LIG d   1      10.122   8.280  -2.977  0.00  0.00    -0.387 OA
ATOM     41  H   LIG d   1      11.123   8.677  -2.749  0.00  0.00     0.210 HD
ENDBRANCH  12  40
ENDBRANCH   1   4
BRANCH   1  42
ATOM     42  C   LIG d   1      10.224   4.463  -4.108  0.00  0.00    -0.063 C 
ATOM     43  C   LIG d   1      10.099   3.425  -3.284  0.00  0.00     0.022 C 
ATOM     44  H   LIG d   1      10.531   3.470  -2.274  0.00  0.00     0.069 H 
BRANCH  43  45
ATOM     45  C   LIG d   1       9.382   2.220  -3.723  0.00  0.00     0.332 C 
ATOM     46  O   LIG d   1       9.969   1.358  -4.348  0.00  0.00    -0.246 OA
BRANCH  45  47
ATOM     47  O   LIG d   1       8.074   2.070  -3.434  0.00  0.00    -0.462 OA
BRANCH  47  48
ATOM     48  C   LIG d   1       7.315   1.156  -4.268  0.00  0.00     0.093 C 
ATOM     49  H   LIG d   1       6.400   1.655  -4.620  0.00  0.00     0.070 H 
ATOM     50  H   LIG d   1       7.924   0.855  -5.132  0.00  0.00     0.070 H 
BRANCH  48  51
ATOM     51  C   LIG d   1       6.937  -0.083  -3.453  0.00  0.00    -0.018 C 
ATOM     52  H   LIG d   1       7.777  -0.360  -2.798  0.00  0.00     0.030 H 
ATOM     53  H   LIG d   1       6.050   0.137  -2.840  0.00  0.00     0.030 H 
BRANCH  51  54
ATOM     54  C   LIG d   1       6.627  -1.242  -4.402  0.00  0.00    -0.050 C 
ATOM     55  H   LIG d   1       5.847  -0.935  -5.114  0.00  0.00     0.027 H 
ATOM     56  H   LIG d   1       7.538  -1.519  -4.954  0.00  0.00     0.027 H 
BRANCH  54  57
ATOM     57  C   LIG d   1       6.136  -2.446  -3.595  0.00  0.00    -0.053 C 
ATOM     58  H   LIG d   1       6.639  -3.356  -3.951  0.00  0.00     0.026 H 
ATOM     59  H   LIG d   1       6.369  -2.292  -2.530  0.00  0.00     0.026 H 
BRANCH  57  60
ATOM     60  C   LIG d   1       4.624  -2.596  -3.770  0.00  0.00    -0.053 C 
ATOM     61  H   LIG d   1       4.285  -1.953  -4.596  0.00  0.00     0.026 H 
ATOM     62  H   LIG d   1       4.385  -3.644  -4.001  0.00  0.00     0.026 H 
BRANCH  60  63
ATOM     63  C   LIG d   1       3.918  -2.183  -2.478  0.00  0.00    -0.053 C 
ATOM     64  H   LIG d   1       3.410  -3.055  -2.041  0.00  0.00     0.026 H 
ATOM     65  H   LIG d   1       4.658  -1.794  -1.763  0.00  0.00     0.026 H 
BRANCH  63  66
ATOM     66  C   LIG d   1       2.886  -1.095  -2.785  0.00  0.00    -0.048 C 
ATOM     67  H   LIG d   1       2.646  -1.111  -3.859  0.00  0.00     0.027 H 
ATOM     68  H   LIG d   1       1.972  -1.281  -2.203  0.00  0.00     0.027 H 
BRANCH  66  69
ATOM     69  C   LIG d   1       3.460   0.273  -2.411  0.00  0.00    -0.013 C 
ATOM     70  H   LIG d   1       2.827   0.738  -1.642  0.00  0.00     0.033 H 
ATOM     71  H   LIG d   1       4.481   0.148  -2.020  0.00  0.00     0.033 H 
BRANCH  69  72
ATOM     72  C   LIG d   1       3.495   1.155  -3.633  0.00  0.00     0.042 C 
ATOM     73  O   LIG d   1       3.482   2.357  -3.511  0.00  0.00    -0.550 OA
ATOM     74  O   LIG d   1       3.540   0.605  -4.856  0.00  0.00    -0.550 OA
ENDBRANCH  69  72
ENDBRANCH  66  69
ENDBRANCH  63  66
ENDBRANCH  60  63
ENDBRANCH  57  60
ENDBRANCH  54  57
ENDBRANCH  51  54
ENDBRANCH  48  51
ENDBRANCH  47  48
ENDBRANCH  45  47
ENDBRANCH  43  45
BRANCH  42  75
ATOM     75  C   LIG d   1       9.562   4.434  -5.461  0.00  0.00    -0.043 C 
ATOM     76  H   LIG d   1       8.841   3.604  -5.500  0.00  0.00     0.027 H 
ATOM     77  H   LIG d   1      10.325   4.293  -6.240  0.00  0.00     0.027 H 
ATOM     78  H   LIG d   1       9.035   5.385  -5.631  0.00  0.00     0.027 H 
ENDBRANCH  42  75
ENDBRANCH   1  42
TORSDOF 23
ENDMDL
MODEL 5
REMARK VINA RESULT:      -5.5      2.958      4.869
REMARK  23 active torsions:
REMARK  status: ('A' for Active; 'I' for Inactive)
REMARK    1  A    between atoms: C_1  and  C_2 
REMARK    2  A    between atoms: C_2  and  C_4 
REMARK    3  A    between atoms: C_2  and  C_40 
REMARK    4  A    between atoms: C_6  and  C_9 
REMARK    5  A    between atoms: C_9  and  C_10 
REMARK    6  A    between atoms: C_14  and  C_22 
REMARK    7  A    between atoms: C_16  and  O_21 
REMARK    8  A    between atoms: C_18  and  O_20 
REMARK    9  A    between atoms: C_22  and  C_23 
REMARK   10  A    between atoms: C_23  and  C_39 
REMARK   11  A    between atoms: C_24  and  C_25 
REMARK   12  A    between atoms: C_25  and  O_27 
REMARK   13  A    between atoms: O_27  and  C_28 
REMARK   14  A    between atoms: C_28  and  C_29 
REMARK   15  A    between atoms: C_29  and  C_30 
REMARK   16  A    between atoms: C_30  and  C_31 
REMARK   17  A    between atoms: C_31  and  C_32 
REMARK   18  A    between atoms: C_32  and  C_33 
REMARK   19  A    between atoms: C_33  and  C_34 
REMARK   20  A    between atoms: C_34  and  C_35 
REMARK   21  A    between atoms: C_35  and  C_36 
REMARK   22  A    between atoms: C_40  and  C_42 
REMARK   23  A    between atoms: C_40  and  O_43 
ROOT
ATOM      1  C   LIG d   1      10.706   4.608  -4.003  0.00  0.00    -0.003 C 
ATOM      2  H   LIG d   1      10.655   5.471  -4.683  0.00  0.00     0.034 H 
ATOM      3  H   LIG d   1      11.708   4.156  -4.060  0.00  0.00     0.034 H 
ENDROOT
BRANCH   1   4
ATOM      4  C   LIG d   1      10.436   5.071  -2.570  0.00  0.00     0.091 C 
ATOM      5  O   LIG d   1      11.676   5.358  -1.920  0.00  0.00    -0.373 OA
ATOM      6  C   LIG d   1      11.539   5.777  -0.561  0.00  0.00     0.053 C 
ATOM      7  C   LIG d   1      10.719   7.068  -0.506  0.00  0.00     0.013 C 
ATOM      8  H   LIG d   1      12.535   5.956  -0.130  0.00  0.00     0.056 H 
ATOM      9  H   LIG d   1      11.027   4.992   0.015  0.00  0.00     0.056 H 
ATOM     10  H   LIG d   1      10.579   7.373   0.541  0.00  0.00     0.035 H 
ATOM     11  C   LIG d   1       9.357   6.827  -1.162  0.00  0.00     0.088 C 
ATOM     12  C   LIG d   1       9.572   6.335  -2.597  0.00  0.00     0.108 C 
ATOM     13  H   LIG d   1       8.748   6.120  -0.580  0.00  0.00     0.062 H 
ATOM     14  H   LIG d   1       8.615   6.158  -3.110  0.00  0.00     0.065 H 
ATOM     15  H   LIG d   1       9.962   4.276  -1.977  0.00  0.00     0.063 H 
BRANCH   7  16
ATOM     16  C   LIG d   1      11.460   8.175  -1.259  0.00  0.00    -0.017 C 
ATOM     17  H   LIG d   1      10.923   8.408  -2.191  0.00  0.00     0.029 H 
ATOM     18  H   LIG d   1      12.479   7.838  -1.499  0.00  0.00     0.029 H 
BRANCH  16  19
ATOM     19  C   LIG d   1      11.530   9.429  -0.384  0.00  0.00     0.086 A 
ATOM     20  C   LIG d   1      11.089  10.757  -1.002  0.00  0.00     0.090 A 
ATOM     21  H   LIG d   1      11.503  11.773  -1.072  0.00  0.00     0.062 H 
ATOM     22  O   LIG d   1      10.299  10.064  -0.031  0.00  0.00    -0.368 OA
ATOM     23  H   LIG d   1      12.400   9.073   0.187  0.00  0.00     0.062 H 
BRANCH  20  24
ATOM     24  C   LIG d   1      10.608  10.741  -2.456  0.00  0.00     0.011 C 
ATOM     25  H   LIG d   1      10.514   9.700  -2.799  0.00  0.00     0.035 H 
BRANCH  24  26
ATOM     26  C   LIG d   1      11.619  11.478  -3.335  0.00  0.00    -0.058 C 
ATOM     27  H   LIG d   1      12.623  11.057  -3.173  0.00  0.00     0.023 H 
ATOM     28  H   LIG d   1      11.623  12.547  -3.074  0.00  0.00     0.023 H 
ATOM     29  H   LIG d   1      11.339  11.362  -4.393  0.00  0.00     0.023 H 
ENDBRANCH  24  26
BRANCH  24  30
ATOM     30  C   LIG d   1       9.248  11.434  -2.551  0.00  0.00     0.057 C 
ATOM     31  H   LIG d   1       9.263  12.413  -2.048  0.00  0.00     0.059 H 
BRANCH  30  32
ATOM     32  C   LIG d   1       8.848  11.572  -4.021  0.00  0.00    -0.039 C 
ATOM     33  H   LIG d   1       9.609  12.161  -4.555  0.00  0.00     0.025 H 
ATOM     34  H   LIG d   1       7.876  12.082  -4.091  0.00  0.00     0.025 H 
ATOM     35  H   LIG d   1       8.772  10.574  -4.476  0.00  0.00     0.025 H 
ENDBRANCH  30  32
BRANCH  30  36
ATOM     36  O   LIG d   1       8.268  10.657  -1.861  0.00  0.00    -0.392 OA
ATOM     37  H   LIG d   1       8.562   9.726  -1.354  0.00  0.00     0.210 HD
ENDBRANCH  30  36
ENDBRANCH  24  30
ENDBRANCH  20  24
ENDBRANCH  16  19
ENDBRANCH   7  16
BRANCH  11  38
ATOM     38  O   LIG d   1       8.613   8.047  -1.182  0.00  0.00    -0.389 OA
ATOM     39  H   LIG d   1       8.933   8.877  -1.829  0.00  0.00     0.210 HD
ENDBRANCH  11  38
BRANCH  12  40
ATOM     40  O   LIG d   1      10.233   7.350  -3.355  0.00  0.00    -0.387 OA
ATOM     41  H   LIG d   1      10.201   7.323  -4.454  0.00  0.00     0.210 HD
ENDBRANCH  12  40
ENDBRANCH   1   4
BRANCH   1  42
ATOM     42  C   LIG d   1       9.671   3.589  -4.405  0.00  0.00    -0.063 C 
ATOM     43  C   LIG d   1       9.153   2.771  -3.493  0.00  0.00     0.022 C 
ATOM     44  H   LIG d   1       9.435   2.878  -2.435  0.00  0.00     0.069 H 
BRANCH  43  45
ATOM     45  C   LIG d   1       8.203   1.725  -3.898  0.00  0.00     0.332 C 
ATOM     46  O   LIG d   1       8.606   0.720  -4.449  0.00  0.00    -0.246 OA
BRANCH  45  47
ATOM     47  O   LIG d   1       6.886   1.881  -3.659  0.00  0.00    -0.462 OA
BRANCH  47  48
ATOM     48  C   LIG d   1       6.177   0.743  -3.103  0.00  0.00     0.093 C 
ATOM     49  H   LIG d   1       5.927   0.038  -3.910  0.00  0.00     0.070 H 
ATOM     50  H   LIG d   1       6.815   0.240  -2.362  0.00  0.00     0.070 H 
BRANCH  48  51
ATOM     51  C   LIG d   1       4.890   1.223  -2.428  0.00  0.00    -0.018 C 
ATOM     52  H   LIG d   1       5.089   1.431  -1.366  0.00  0.00     0.030 H 
ATOM     53  H   LIG d   1       4.538   2.141  -2.922  0.00  0.00     0.030 H 
BRANCH  51  54
ATOM     54  C   LIG d   1       3.819   0.138  -2.545  0.00  0.00    -0.050 C 
ATOM     55  H   LIG d   1       2.903   0.470  -2.034  0.00  0.00     0.027 H 
ATOM     56  H   LIG d   1       3.599  -0.049  -3.606  0.00  0.00     0.027 H 
BRANCH  54  57
ATOM     57  C   LIG d   1       4.326  -1.151  -1.896  0.00  0.00    -0.053 C 
ATOM     58  H   LIG d   1       5.411  -1.079  -1.733  0.00  0.00     0.026 H 
ATOM     59  H   LIG d   1       3.820  -1.298  -0.929  0.00  0.00     0.026 H 
BRANCH  57  60
ATOM     60  C   LIG d   1       4.025  -2.338  -2.813  0.00  0.00    -0.053 C 
ATOM     61  H   LIG d   1       3.869  -3.241  -2.205  0.00  0.00     0.026 H 
ATOM     62  H   LIG d   1       3.118  -2.128  -3.397  0.00  0.00     0.026 H 
BRANCH  60  63
ATOM     63  C   LIG d   1       5.204  -2.560  -3.762  0.00  0.00    -0.053 C 
ATOM     64  H   LIG d   1       5.660  -1.591  -4.016  0.00  0.00     0.026 H 
ATOM     65  H   LIG d   1       5.953  -3.200  -3.274  0.00  0.00     0.026 H 
BRANCH  63  66
ATOM     66  C   LIG d   1       4.709  -3.240  -5.041  0.00  0.00    -0.048 C 
ATOM     67  H   LIG d   1       3.622  -3.394  -4.976  0.00  0.00     0.027 H 
ATOM     68  H   LIG d   1       4.937  -2.602  -5.907  0.00  0.00     0.027 H 
BRANCH  66  69
ATOM     69  C   LIG d   1       5.407  -4.591  -5.204  0.00  0.00    -0.013 C 
ATOM     70  H   LIG d   1       6.176  -4.514  -5.986  0.00  0.00     0.033 H 
ATOM     71  H   LIG d   1       5.879  -4.877  -4.252  0.00  0.00     0.033 H 
BRANCH  69  72
ATOM     72  C   LIG d   1       4.395  -5.636  -5.596  0.00  0.00     0.042 C 
ATOM     73  O   LIG d   1       4.553  -6.786  -5.262  0.00  0.00    -0.550 OA
ATOM     74  O   LIG d   1       3.318  -5.289  -6.317  0.00  0.00    -0.550 OA
ENDBRANCH  69  72
ENDBRANCH  66  69
ENDBRANCH  63  66
ENDBRANCH  60  63
ENDBRANCH  57  60
ENDBRANCH  54  57
ENDBRANCH  51  54
ENDBRANCH  48  51
ENDBRANCH  47  48
ENDBRANCH  45  47
ENDBRANCH  43  45
BRANCH  42  75
ATOM     75  C   LIG d   1       9.223   3.497  -5.841  0.00  0.00    -0.043 C 
ATOM     76  H   LIG d   1       9.657   4.328  -6.416  0.00  0.00     0.027 H 
ATOM     77  H   LIG d   1       8.125   3.554  -5.887  0.00  0.00     0.027 H 
ATOM     78  H   LIG d   1       9.559   2.541  -6.269  0.00  0.00     0.027 H 
ENDBRANCH  42  75
ENDBRANCH   1  42
TORSDOF 23
ENDMDL
MODEL 6
REMARK VINA RESULT:      -5.4      6.199     12.009
REMARK  23 active torsions:
REMARK  status: ('A' for Active; 'I' for Inactive)
REMARK    1  A    between atoms: C_1  and  C_2 
REMARK    2  A    between atoms: C_2  and  C_4 
REMARK    3  A    between atoms: C_2  and  C_40 
REMARK    4  A    between atoms: C_6  and  C_9 
REMARK    5  A    between atoms: C_9  and  C_10 
REMARK    6  A    between atoms: C_14  and  C_22 
REMARK    7  A    between atoms: C_16  and  O_21 
REMARK    8  A    between atoms: C_18  and  O_20 
REMARK    9  A    between atoms: C_22  and  C_23 
REMARK   10  A    between atoms: C_23  and  C_39 
REMARK   11  A    between atoms: C_24  and  C_25 
REMARK   12  A    between atoms: C_25  and  O_27 
REMARK   13  A    between atoms: O_27  and  C_28 
REMARK   14  A    between atoms: C_28  and  C_29 
REMARK   15  A    between atoms: C_29  and  C_30 
REMARK   16  A    between atoms: C_30  and  C_31 
REMARK   17  A    between atoms: C_31  and  C_32 
REMARK   18  A    between atoms: C_32  and  C_33 
REMARK   19  A    between atoms: C_33  and  C_34 
REMARK   20  A    between atoms: C_34  and  C_35 
REMARK   21  A    between atoms: C_35  and  C_36 
REMARK   22  A    between atoms: C_40  and  C_42 
REMARK   23  A    between atoms: C_40  and  O_43 
ROOT
ATOM      1  C   LIG d   1       1.855  -0.086  -9.493  0.00  0.00    -0.003 C 
ATOM      2  H   LIG d   1       1.622   0.752 -10.166  0.00  0.00     0.034 H 
ATOM      3  H   LIG d   1       0.921  -0.493  -9.077  0.00  0.00     0.034 H 
ENDROOT
BRANCH   1   4
ATOM      4  C   LIG d   1       2.585  -1.180 -10.275  0.00  0.00     0.091 C 
ATOM      5  O   LIG d   1       3.089  -2.160  -9.366  0.00  0.00    -0.373 OA
ATOM      6  C   LIG d   1       3.815  -3.220  -9.994  0.00  0.00     0.053 C 
ATOM      7  C   LIG d   1       2.891  -3.967 -10.958  0.00  0.00     0.013 C 
ATOM      8  H   LIG d   1       4.184  -3.916  -9.227  0.00  0.00     0.056 H 
ATOM      9  H   LIG d   1       4.666  -2.802 -10.550  0.00  0.00     0.056 H 
ATOM     10  H   LIG d   1       3.455  -4.758 -11.473  0.00  0.00     0.035 H 
ATOM     11  C   LIG d   1       2.332  -2.979 -11.987  0.00  0.00     0.088 C 
ATOM     12  C   LIG d   1       1.610  -1.846 -11.251  0.00  0.00     0.108 C 
ATOM     13  H   LIG d   1       3.123  -2.593 -12.647  0.00  0.00     0.062 H 
ATOM     14  H   LIG d   1       1.185  -1.116 -11.955  0.00  0.00     0.065 H 
ATOM     15  H   LIG d   1       3.463  -0.776 -10.800  0.00  0.00     0.063 H 
BRANCH   7  16
ATOM     16  C   LIG d   1       1.736  -4.596 -10.176  0.00  0.00    -0.017 C 
ATOM     17  H   LIG d   1       0.828  -3.992 -10.313  0.00  0.00     0.029 H 
ATOM     18  H   LIG d   1       1.995  -4.634  -9.107  0.00  0.00     0.029 H 
BRANCH  16  19
ATOM     19  C   LIG d   1       1.486  -6.016 -10.690  0.00  0.00     0.086 A 
ATOM     20  C   LIG d   1       0.056  -6.555 -10.629  0.00  0.00     0.090 A 
ATOM     21  H   LIG d   1      -0.428  -7.476 -10.269  0.00  0.00     0.062 H 
ATOM     22  O   LIG d   1       0.677  -6.168 -11.858  0.00  0.00    -0.368 OA
ATOM     23  H   LIG d   1       2.481  -6.380 -10.395  0.00  0.00     0.062 H 
BRANCH  20  24
ATOM     24  C   LIG d   1      -1.027  -5.638 -10.056  0.00  0.00     0.011 C 
ATOM     25  H   LIG d   1      -0.554  -4.783  -9.552  0.00  0.00     0.035 H 
BRANCH  24  26
ATOM     26  C   LIG d   1      -1.876  -6.417  -9.051  0.00  0.00    -0.058 C 
ATOM     27  H   LIG d   1      -1.407  -7.393  -8.852  0.00  0.00     0.023 H 
ATOM     28  H   LIG d   1      -2.885  -6.572  -9.463  0.00  0.00     0.023 H 
ATOM     29  H   LIG d   1      -1.949  -5.848  -8.112  0.00  0.00     0.023 H 
ENDBRANCH  24  26
BRANCH  24  30
ATOM     30  C   LIG d   1      -1.919  -5.131 -11.192  0.00  0.00     0.057 C 
ATOM     31  H   LIG d   1      -1.979  -5.865 -12.009  0.00  0.00     0.059 H 
BRANCH  30  32
ATOM     32  C   LIG d   1      -3.306  -4.798 -10.641  0.00  0.00    -0.039 C 
ATOM     33  H   LIG d   1      -3.958  -4.468 -11.463  0.00  0.00     0.025 H 
ATOM     34  H   LIG d   1      -3.222  -3.994  -9.895  0.00  0.00     0.025 H 
ATOM     35  H   LIG d   1      -3.738  -5.693 -10.168  0.00  0.00     0.025 H 
ENDBRANCH  30  32
BRANCH  30  36
ATOM     36  O   LIG d   1      -1.339  -3.957 -11.764  0.00  0.00    -0.392 OA
ATOM     37  H   LIG d   1      -1.639  -3.631 -12.771  0.00  0.00     0.210 HD
ENDBRANCH  30  36
ENDBRANCH  24  30
ENDBRANCH  20  24
ENDBRANCH  16  19
ENDBRANCH   7  16
BRANCH  11  38
ATOM     38  O   LIG d   1       1.412  -3.652 -12.847  0.00  0.00    -0.389 OA
ATOM     39  H   LIG d   1       0.547  -3.111 -13.260  0.00  0.00     0.210 HD
ENDBRANCH  11  38
BRANCH  12  40
ATOM     40  O   LIG d   1       0.499  -2.377 -10.528  0.00  0.00    -0.387 OA
ATOM     41  H   LIG d   1       0.038  -1.791  -9.720  0.00  0.00     0.210 HD
ENDBRANCH  12  40
ENDBRANCH   1   4
BRANCH   1  42
ATOM     42  C   LIG d   1       2.735   0.400  -8.370  0.00  0.00    -0.063 C 
ATOM     43  C   LIG d   1       2.810  -0.291  -7.235  0.00  0.00     0.022 C 
ATOM     44  H   LIG d   1       2.278  -1.249  -7.139  0.00  0.00     0.069 H 
BRANCH  43  45
ATOM     45  C   LIG d   1       3.605   0.223  -6.112  0.00  0.00     0.332 C 
ATOM     46  O   LIG d   1       4.811   0.071  -6.101  0.00  0.00    -0.246 OA
BRANCH  45  47
ATOM     47  O   LIG d   1       2.997   0.864  -5.094  0.00  0.00    -0.462 OA
BRANCH  47  48
ATOM     48  C   LIG d   1       2.875   0.143  -3.840  0.00  0.00     0.093 C 
ATOM     49  H   LIG d   1       1.822   0.137  -3.522  0.00  0.00     0.070 H 
ATOM     50  H   LIG d   1       3.224  -0.891  -3.975  0.00  0.00     0.070 H 
BRANCH  48  51
ATOM     51  C   LIG d   1       3.725   0.833  -2.770  0.00  0.00    -0.018 C 
ATOM     52  H   LIG d   1       4.522   1.415  -3.256  0.00  0.00     0.030 H 
ATOM     53  H   LIG d   1       3.090   1.505  -2.174  0.00  0.00     0.030 H 
BRANCH  51  54
ATOM     54  C   LIG d   1       4.349  -0.223  -1.856  0.00  0.00    -0.050 C 
ATOM     55  H   LIG d   1       5.330   0.128  -1.505  0.00  0.00     0.027 H 
ATOM     56  H   LIG d   1       3.691  -0.396  -0.992  0.00  0.00     0.027 H 
BRANCH  54  57
ATOM     57  C   LIG d   1       4.523  -1.531  -2.632  0.00  0.00    -0.053 C 
ATOM     58  H   LIG d   1       4.232  -2.378  -1.994  0.00  0.00     0.026 H 
ATOM     59  H   LIG d   1       3.884  -1.512  -3.528  0.00  0.00     0.026 H 
BRANCH  57  60
ATOM     60  C   LIG d   1       5.986  -1.686  -3.051  0.00  0.00    -0.053 C 
ATOM     61  H   LIG d   1       6.406  -0.697  -3.288  0.00  0.00     0.026 H 
ATOM     62  H   LIG d   1       6.557  -2.138  -2.227  0.00  0.00     0.026 H 
BRANCH  60  63
ATOM     63  C   LIG d   1       6.071  -2.585  -4.285  0.00  0.00    -0.053 C 
ATOM     64  H   LIG d   1       6.405  -1.993  -5.149  0.00  0.00     0.026 H 
ATOM     65  H   LIG d   1       6.788  -3.397  -4.099  0.00  0.00     0.026 H 
BRANCH  63  66
ATOM     66  C   LIG d   1       4.692  -3.181  -4.579  0.00  0.00    -0.048 C 
ATOM     67  H   LIG d   1       4.513  -4.037  -3.911  0.00  0.00     0.027 H 
ATOM     68  H   LIG d   1       3.919  -2.417  -4.409  0.00  0.00     0.027 H 
BRANCH  66  69
ATOM     69  C   LIG d   1       4.637  -3.649  -6.034  0.00  0.00    -0.013 C 
ATOM     70  H   LIG d   1       4.017  -2.955  -6.619  0.00  0.00     0.033 H 
ATOM     71  H   LIG d   1       5.655  -3.672  -6.450  0.00  0.00     0.033 H 
BRANCH  69  72
ATOM     72  C   LIG d   1       4.038  -5.031  -6.095  0.00  0.00     0.042 C 
ATOM     73  O   LIG d   1       4.082  -5.752  -5.127  0.00  0.00    -0.550 OA
ATOM     74  O   LIG d   1       3.457  -5.460  -7.225  0.00  0.00    -0.550 OA
ENDBRANCH  69  72
ENDBRANCH  66  69
ENDBRANCH  63  66
ENDBRANCH  60  63
ENDBRANCH  57  60
ENDBRANCH  54  57
ENDBRANCH  51  54
ENDBRANCH  48  51
ENDBRANCH  47  48
ENDBRANCH  45  47
ENDBRANCH  43  45
BRANCH  42  75
ATOM     75  C   LIG d   1       3.529   1.670  -8.532  0.00  0.00    -0.043 C 
ATOM     76  H   LIG d   1       3.000   2.500  -8.039  0.00  0.00     0.027 H 
ATOM     77  H   LIG d   1       3.648   1.895  -9.602  0.00  0.00     0.027 H 
ATOM     78  H   LIG d   1       4.520   1.544  -8.072  0.00  0.00     0.027 H 
ENDBRANCH  42  75
ENDBRANCH   1  42
TORSDOF 23
ENDMDL
MODEL 7
REMARK VINA RESULT:      -5.3      6.007     11.123
REMARK  23 active torsions:
REMARK  status: ('A' for Active; 'I' for Inactive)
REMARK    1  A    between atoms: C_1  and  C_2 
REMARK    2  A    between atoms: C_2  and  C_4 
REMARK    3  A    between atoms: C_2  and  C_40 
REMARK    4  A    between atoms: C_6  and  C_9 
REMARK    5  A    between atoms: C_9  and  C_10 
REMARK    6  A    between atoms: C_14  and  C_22 
REMARK    7  A    between atoms: C_16  and  O_21 
REMARK    8  A    between atoms: C_18  and  O_20 
REMARK    9  A    between atoms: C_22  and  C_23 
REMARK   10  A    between atoms: C_23  and  C_39 
REMARK   11  A    between atoms: C_24  and  C_25 
REMARK   12  A    between atoms: C_25  and  O_27 
REMARK   13  A    between atoms: O_27  and  C_28 
REMARK   14  A    between atoms: C_28  and  C_29 
REMARK   15  A    between atoms: C_29  and  C_30 
REMARK   16  A    between atoms: C_30  and  C_31 
REMARK   17  A    between atoms: C_31  and  C_32 
REMARK   18  A    between atoms: C_32  and  C_33 
REMARK   19  A    between atoms: C_33  and  C_34 
REMARK   20  A    between atoms: C_34  and  C_35 
REMARK   21  A    between atoms: C_35  and  C_36 
REMARK   22  A    between atoms: C_40  and  C_42 
REMARK   23  A    between atoms: C_40  and  O_43 
ROOT
ATOM      1  C   LIG d   1       4.180  -0.381  -8.417  0.00  0.00    -0.003 C 
ATOM      2  H   LIG d   1       4.582  -1.353  -8.096  0.00  0.00     0.034 H 
ATOM      3  H   LIG d   1       5.000   0.248  -8.796  0.00  0.00     0.034 H 
ENDROOT
BRANCH   1   4
ATOM      4  C   LIG d   1       3.149  -0.598  -9.527  0.00  0.00     0.091 C 
ATOM      5  O   LIG d   1       3.820  -0.729 -10.782  0.00  0.00    -0.373 OA
ATOM      6  C   LIG d   1       2.943  -0.911 -11.896  0.00  0.00     0.053 C 
ATOM      7  C   LIG d   1       2.138  -2.198 -11.705  0.00  0.00     0.013 C 
ATOM      8  H   LIG d   1       3.535  -0.982 -12.820  0.00  0.00     0.056 H 
ATOM      9  H   LIG d   1       2.256  -0.055 -11.966  0.00  0.00     0.056 H 
ATOM     10  H   LIG d   1       1.435  -2.322 -12.541  0.00  0.00     0.035 H 
ATOM     11  C   LIG d   1       1.364  -2.117 -10.386  0.00  0.00     0.088 C 
ATOM     12  C   LIG d   1       2.353  -1.874  -9.240  0.00  0.00     0.108 C 
ATOM     13  H   LIG d   1       0.587  -1.339 -10.421  0.00  0.00     0.062 H 
ATOM     14  H   LIG d   1       1.838  -1.818  -8.270  0.00  0.00     0.065 H 
ATOM     15  H   LIG d   1       2.485   0.273  -9.630  0.00  0.00     0.063 H 
BRANCH   7  16
ATOM     16  C   LIG d   1       3.091  -3.395 -11.665  0.00  0.00    -0.017 C 
ATOM     17  H   LIG d   1       3.158  -3.776 -10.635  0.00  0.00     0.029 H 
ATOM     18  H   LIG d   1       4.089  -3.082 -12.006  0.00  0.00     0.029 H 
BRANCH  16  19
ATOM     19  C   LIG d   1       2.562  -4.499 -12.584  0.00  0.00     0.086 A 
ATOM     20  C   LIG d   1       2.852  -5.950 -12.196  0.00  0.00     0.090 A 
ATOM     21  H   LIG d   1       3.248  -6.841 -12.706  0.00  0.00     0.062 H 
ATOM     22  O   LIG d   1       1.552  -5.368 -12.066  0.00  0.00    -0.368 OA
ATOM     23  H   LIG d   1       2.655  -3.890 -13.495  0.00  0.00     0.062 H 
BRANCH  20  24
ATOM     24  C   LIG d   1       3.654  -6.199 -10.917  0.00  0.00     0.011 C 
ATOM     25  H   LIG d   1       4.087  -5.250 -10.565  0.00  0.00     0.035 H 
BRANCH  24  26
ATOM     26  C   LIG d   1       4.778  -7.196 -11.204  0.00  0.00    -0.058 C 
ATOM     27  H   LIG d   1       4.911  -7.860 -10.337  0.00  0.00     0.023 H 
ATOM     28  H   LIG d   1       5.714  -6.649 -11.394  0.00  0.00     0.023 H 
ATOM     29  H   LIG d   1       4.520  -7.795 -12.090  0.00  0.00     0.023 H 
ENDBRANCH  24  26
BRANCH  24  30
ATOM     30  C   LIG d   1       2.731  -6.769  -9.838  0.00  0.00     0.057 C 
ATOM     31  H   LIG d   1       1.871  -7.291 -10.285  0.00  0.00     0.059 H 
BRANCH  30  32
ATOM     32  C   LIG d   1       3.529  -7.698  -8.922  0.00  0.00    -0.039 C 
ATOM     33  H   LIG d   1       4.148  -8.373  -9.533  0.00  0.00     0.025 H 
ATOM     34  H   LIG d   1       2.837  -8.291  -8.308  0.00  0.00     0.025 H 
ATOM     35  H   LIG d   1       4.179  -7.098  -8.267  0.00  0.00     0.025 H 
ENDBRANCH  30  32
BRANCH  30  36
ATOM     36  O   LIG d   1       2.180  -5.698  -9.069  0.00  0.00    -0.392 OA
ATOM     37  H   LIG d   1       1.908  -5.861  -8.015  0.00  0.00     0.210 HD
ENDBRANCH  30  36
ENDBRANCH  24  30
ENDBRANCH  20  24
ENDBRANCH  16  19
ENDBRANCH   7  16
BRANCH  11  38
ATOM     38  O   LIG d   1       0.668  -3.344 -10.163  0.00  0.00    -0.389 OA
ATOM     39  H   LIG d   1      -0.363  -3.331  -9.777  0.00  0.00     0.210 HD
ENDBRANCH  11  38
BRANCH  12  40
ATOM     40  O   LIG d   1       3.247  -2.983  -9.138  0.00  0.00    -0.387 OA
ATOM     41  H   LIG d   1       4.282  -2.824  -8.801  0.00  0.00     0.210 HD
ENDBRANCH  12  40
ENDBRANCH   1   4
BRANCH   1  42
ATOM     42  C   LIG d   1       3.522   0.303  -7.247  0.00  0.00    -0.063 C 
ATOM     43  C   LIG d   1       3.593  -0.238  -6.033  0.00  0.00     0.022 C 
ATOM     44  H   LIG d   1       4.182  -1.153  -5.873  0.00  0.00     0.069 H 
BRANCH  43  45
ATOM     45  C   LIG d   1       2.885   0.386  -4.907  0.00  0.00     0.332 C 
ATOM     46  O   LIG d   1       1.741   0.063  -4.654  0.00  0.00    -0.246 OA
BRANCH  45  47
ATOM     47  O   LIG d   1       3.504   1.317  -4.155  0.00  0.00    -0.462 OA
BRANCH  47  48
ATOM     48  C   LIG d   1       4.630   0.875  -3.352  0.00  0.00     0.093 C 
ATOM     49  H   LIG d   1       5.152   0.059  -3.873  0.00  0.00     0.070 H 
ATOM     50  H   LIG d   1       5.322   1.714  -3.197  0.00  0.00     0.070 H 
BRANCH  48  51
ATOM     51  C   LIG d   1       4.124   0.373  -1.997  0.00  0.00    -0.018 C 
ATOM     52  H   LIG d   1       4.738   0.808  -1.194  0.00  0.00     0.030 H 
ATOM     53  H   LIG d   1       3.075   0.677  -1.862  0.00  0.00     0.030 H 
BRANCH  51  54
ATOM     54  C   LIG d   1       4.225  -1.152  -1.949  0.00  0.00    -0.050 C 
ATOM     55  H   LIG d   1       4.363  -1.479  -0.909  0.00  0.00     0.027 H 
ATOM     56  H   LIG d   1       3.302  -1.594  -2.352  0.00  0.00     0.027 H 
BRANCH  54  57
ATOM     57  C   LIG d   1       5.417  -1.611  -2.791  0.00  0.00    -0.053 C 
ATOM     58  H   LIG d   1       5.799  -0.765  -3.380  0.00  0.00     0.026 H 
ATOM     59  H   LIG d   1       6.213  -1.983  -2.127  0.00  0.00     0.026 H 
BRANCH  57  60
ATOM     60  C   LIG d   1       4.976  -2.732  -3.734  0.00  0.00    -0.053 C 
ATOM     61  H   LIG d   1       4.751  -3.636  -3.149  0.00  0.00     0.026 H 
ATOM     62  H   LIG d   1       4.075  -2.417  -4.280  0.00  0.00     0.026 H 
BRANCH  60  63
ATOM     63  C   LIG d   1       6.098  -3.033  -4.729  0.00  0.00    -0.053 C 
ATOM     64  H   LIG d   1       6.645  -2.107  -4.957  0.00  0.00     0.026 H 
ATOM     65  H   LIG d   1       6.789  -3.768  -4.291  0.00  0.00     0.026 H 
BRANCH  63  66
ATOM     66  C   LIG d   1       5.499  -3.602  -6.017  0.00  0.00    -0.048 C 
ATOM     67  H   LIG d   1       4.413  -3.423  -6.027  0.00  0.00     0.027 H 
ATOM     68  H   LIG d   1       5.959  -3.107  -6.885  0.00  0.00     0.027 H 
BRANCH  66  69
ATOM     69  C   LIG d   1       5.769  -5.106  -6.084  0.00  0.00    -0.013 C 
ATOM     70  H   LIG d   1       6.171  -5.362  -7.075  0.00  0.00     0.033 H 
ATOM     71  H   LIG d   1       6.498  -5.383  -5.309  0.00  0.00     0.033 H 
BRANCH  69  72
ATOM     72  C   LIG d   1       4.483  -5.858  -5.855  0.00  0.00     0.042 C 
ATOM     73  O   LIG d   1       4.498  -6.919  -5.276  0.00  0.00    -0.550 OA
ATOM     74  O   LIG d   1       3.322  -5.351  -6.295  0.00  0.00    -0.550 OA
ENDBRANCH  69  72
ENDBRANCH  66  69
ENDBRANCH  63  66
ENDBRANCH  60  63
ENDBRANCH  57  60
ENDBRANCH  54  57
ENDBRANCH  51  54
ENDBRANCH  48  51
ENDBRANCH  47  48
ENDBRANCH  45  47
ENDBRANCH  43  45
BRANCH  42  75
ATOM     75  C   LIG d   1       2.783   1.601  -7.450  0.00  0.00    -0.043 C 
ATOM     76  H   LIG d   1       2.030   1.723  -6.659  0.00  0.00     0.027 H 
ATOM     77  H   LIG d   1       2.286   1.589  -8.431  0.00  0.00     0.027 H 
ATOM     78  H   LIG d   1       3.495   2.438  -7.411  0.00  0.00     0.027 H 
ENDBRANCH  42  75
ENDBRANCH   1  42
TORSDOF 23
ENDMDL
MODEL 8
REMARK VINA RESULT:      -5.3      2.884      4.624
REMARK  23 active torsions:
REMARK  status: ('A' for Active; 'I' for Inactive)
REMARK    1  A    between atoms: C_1  and  C_2 
REMARK    2  A    between atoms: C_2  and  C_4 
REMARK    3  A    between atoms: C_2  and  C_40 
REMARK    4  A    between atoms: C_6  and  C_9 
REMARK    5  A    between atoms: C_9  and  C_10 
REMARK    6  A    between atoms: C_14  and  C_22 
REMARK    7  A    between atoms: C_16  and  O_21 
REMARK    8  A    between atoms: C_18  and  O_20 
REMARK    9  A    between atoms: C_22  and  C_23 
REMARK   10  A    between atoms: C_23  and  C_39 
REMARK   11  A    between atoms: C_24  and  C_25 
REMARK   12  A    between atoms: C_25  and  O_27 
REMARK   13  A    between atoms: O_27  and  C_28 
REMARK   14  A    between atoms: C_28  and  C_29 
REMARK   15  A    between atoms: C_29  and  C_30 
REMARK   16  A    between atoms: C_30  and  C_31 
REMARK   17  A    between atoms: C_31  and  C_32 
REMARK   18  A    between atoms: C_32  and  C_33 
REMARK   19  A    between atoms: C_33  and  C_34 
REMARK   20  A    between atoms: C_34  and  C_35 
REMARK   21  A    between atoms: C_35  and  C_36 
REMARK   22  A    between atoms: C_40  and  C_42 
REMARK   23  A    between atoms: C_40  and  O_43 
ROOT
ATOM      1  C   LIG d   1      10.447   4.741  -4.471  0.00  0.00    -0.003 C 
ATOM      2  H   LIG d   1       9.757   5.279  -5.138  0.00  0.00     0.034 H 
ATOM      3  H   LIG d   1      11.394   4.552  -4.999  0.00  0.00     0.034 H 
ENDROOT
BRANCH   1   4
ATOM      4  C   LIG d   1      10.717   5.588  -3.226  0.00  0.00     0.091 C 
ATOM      5  O   LIG d   1      11.690   6.589  -3.532  0.00  0.00    -0.373 OA
ATOM      6  C   LIG d   1      12.035   7.424  -2.425  0.00  0.00     0.053 C 
ATOM      7  C   LIG d   1      10.790   8.171  -1.942  0.00  0.00     0.013 C 
ATOM      8  H   LIG d   1      12.800   8.150  -2.738  0.00  0.00     0.056 H 
ATOM      9  H   LIG d   1      12.432   6.805  -1.608  0.00  0.00     0.056 H 
ATOM     10  H   LIG d   1      11.044   8.785  -1.066  0.00  0.00     0.035 H 
ATOM     11  C   LIG d   1       9.708   7.155  -1.565  0.00  0.00     0.088 C 
ATOM     12  C   LIG d   1       9.418   6.261  -2.776  0.00  0.00     0.108 C 
ATOM     13  H   LIG d   1      10.001   6.561  -0.686  0.00  0.00     0.062 H 
ATOM     14  H   LIG d   1       8.638   5.520  -2.550  0.00  0.00     0.065 H 
ATOM     15  H   LIG d   1      11.154   4.981  -2.419  0.00  0.00     0.063 H 
BRANCH   7  16
ATOM     16  C   LIG d   1      10.271   9.077  -3.061  0.00  0.00    -0.017 C 
ATOM     17  H   LIG d   1       9.476   9.728  -2.667  0.00  0.00     0.029 H 
ATOM     18  H   LIG d   1       9.868   8.459  -3.877  0.00  0.00     0.029 H 
BRANCH  16  19
ATOM     19  C   LIG d   1      11.418   9.938  -3.594  0.00  0.00     0.086 A 
ATOM     20  C   LIG d   1      11.698   9.904  -5.097  0.00  0.00     0.090 A 
ATOM     21  H   LIG d   1      12.585   9.771  -5.734  0.00  0.00     0.062 H 
ATOM     22  O   LIG d   1      11.087  11.028  -4.457  0.00  0.00    -0.368 OA
ATOM     23  H   LIG d   1      12.017   9.843  -2.676  0.00  0.00     0.062 H 
BRANCH  20  24
ATOM     24  C   LIG d   1      10.812   9.008  -5.967  0.00  0.00     0.011 C 
ATOM     25  H   LIG d   1      10.019   8.564  -5.345  0.00  0.00     0.035 H 
BRANCH  24  26
ATOM     26  C   LIG d   1      11.660   7.896  -6.584  0.00  0.00    -0.058 C 
ATOM     27  H   LIG d   1      12.534   7.703  -5.944  0.00  0.00     0.023 H 
ATOM     28  H   LIG d   1      11.998   8.204  -7.584  0.00  0.00     0.023 H 
ATOM     29  H   LIG d   1      11.058   6.979  -6.669  0.00  0.00     0.023 H 
ENDBRANCH  24  26
BRANCH  24  30
ATOM     30  C   LIG d   1      10.177   9.844  -7.080  0.00  0.00     0.057 C 
ATOM     31  H   LIG d   1      10.938  10.418  -7.630  0.00  0.00     0.059 H 
BRANCH  30  32
ATOM     32  C   LIG d   1       9.388   8.929  -8.018  0.00  0.00    -0.039 C 
ATOM     33  H   LIG d   1       8.564   8.457  -7.462  0.00  0.00     0.025 H 
ATOM     34  H   LIG d   1      10.053   8.150  -8.417  0.00  0.00     0.025 H 
ATOM     35  H   LIG d   1       8.976   9.522  -8.848  0.00  0.00     0.025 H 
ENDBRANCH  30  32
BRANCH  30  36
ATOM     36  O   LIG d   1       9.298  10.813  -6.506  0.00  0.00    -0.392 OA
ATOM     37  H   LIG d   1       8.974  11.681  -7.099  0.00  0.00     0.210 HD
ENDBRANCH  30  36
ENDBRANCH  24  30
ENDBRANCH  20  24
ENDBRANCH  16  19
ENDBRANCH   7  16
BRANCH  11  38
ATOM     38  O   LIG d   1       8.516   7.843  -1.183  0.00  0.00    -0.389 OA
ATOM     39  H   LIG d   1       8.147   8.684  -1.789  0.00  0.00     0.210 HD
ENDBRANCH  11  38
BRANCH  12  40
ATOM     40  O   LIG d   1       8.898   7.056  -3.842  0.00  0.00    -0.387 OA
ATOM     41  H   LIG d   1       8.013   7.689  -3.675  0.00  0.00     0.210 HD
ENDBRANCH  12  40
ENDBRANCH   1   4
BRANCH   1  42
ATOM     42  C   LIG d   1       9.829   3.428  -4.062  0.00  0.00    -0.063 C 
ATOM     43  C   LIG d   1       8.731   2.991  -4.673  0.00  0.00     0.022 C 
ATOM     44  H   LIG d   1       8.308   3.556  -5.516  0.00  0.00     0.069 H 
BRANCH  43  45
ATOM     45  C   LIG d   1       8.083   1.751  -4.222  0.00  0.00     0.332 C 
ATOM     46  O   LIG d   1       8.354   0.695  -4.758  0.00  0.00    -0.246 OA
BRANCH  45  47
ATOM     47  O   LIG d   1       7.189   1.786  -3.215  0.00  0.00    -0.462 OA
BRANCH  47  48
ATOM     48  C   LIG d   1       6.069   0.865  -3.295  0.00  0.00     0.093 C 
ATOM     49  H   LIG d   1       5.539   1.016  -4.247  0.00  0.00     0.070 H 
ATOM     50  H   LIG d   1       6.439  -0.168  -3.241  0.00  0.00     0.070 H 
BRANCH  48  51
ATOM     51  C   LIG d   1       5.110   1.126  -2.131  0.00  0.00    -0.018 C 
ATOM     52  H   LIG d   1       5.680   1.484  -1.261  0.00  0.00     0.030 H 
ATOM     53  H   LIG d   1       4.374   1.889  -2.426  0.00  0.00     0.030 H 
BRANCH  51  54
ATOM     54  C   LIG d   1       4.384  -0.171  -1.769  0.00  0.00    -0.050 C 
ATOM     55  H   LIG d   1       4.645  -0.463  -0.741  0.00  0.00     0.027 H 
ATOM     56  H   LIG d   1       3.298  -0.016  -1.841  0.00  0.00     0.027 H 
BRANCH  54  57
ATOM     57  C   LIG d   1       4.805  -1.279  -2.736  0.00  0.00    -0.053 C 
ATOM     58  H   LIG d   1       5.672  -0.943  -3.324  0.00  0.00     0.026 H 
ATOM     59  H   LIG d   1       5.078  -2.179  -2.165  0.00  0.00     0.026 H 
BRANCH  57  60
ATOM     60  C   LIG d   1       3.645  -1.603  -3.678  0.00  0.00    -0.053 C 
ATOM     61  H   LIG d   1       3.995  -1.558  -4.720  0.00  0.00     0.026 H 
ATOM     62  H   LIG d   1       3.269  -2.614  -3.462  0.00  0.00     0.026 H 
BRANCH  60  63
ATOM     63  C   LIG d   1       2.521  -0.585  -3.473  0.00  0.00    -0.053 C 
ATOM     64  H   LIG d   1       1.571  -1.115  -3.314  0.00  0.00     0.026 H 
ATOM     65  H   LIG d   1       2.746   0.036  -2.594  0.00  0.00     0.026 H 
BRANCH  63  66
ATOM     66  C   LIG d   1       2.407   0.306  -4.711  0.00  0.00    -0.048 C 
ATOM     67  H   LIG d   1       1.383   0.248  -5.111  0.00  0.00     0.027 H 
ATOM     68  H   LIG d   1       2.634   1.346  -4.437  0.00  0.00     0.027 H 
BRANCH  66  69
ATOM     69  C   LIG d   1       3.397  -0.170  -5.776  0.00  0.00    -0.013 C 
ATOM     70  H   LIG d   1       4.395   0.234  -5.554  0.00  0.00     0.033 H 
ATOM     71  H   LIG d   1       3.437  -1.269  -5.774  0.00  0.00     0.033 H 
BRANCH  69  72
ATOM     72  C   LIG d   1       2.950   0.315  -7.131  0.00  0.00     0.042 C 
ATOM     73  O   LIG d   1       2.510  -0.470  -7.938  0.00  0.00    -0.550 OA
ATOM     74  O   LIG d   1       3.039   1.617  -7.441  0.00  0.00    -0.550 OA
ENDBRANCH  69  72
ENDBRANCH  66  69
ENDBRANCH  63  66
ENDBRANCH  60  63
ENDBRANCH  57  60
ENDBRANCH  54  57
ENDBRANCH  51  54
ENDBRANCH  48  51
ENDBRANCH  47  48
ENDBRANCH  45  47
ENDBRANCH  43  45
BRANCH  42  75
ATOM     75  C   LIG d   1      10.455   2.612  -2.962  0.00  0.00    -0.043 C 
ATOM     76  H   LIG d   1      10.355   3.146  -2.005  0.00  0.00     0.027 H 
ATOM     77  H   LIG d   1      11.521   2.453  -3.183  0.00  0.00     0.027 H 
ATOM     78  H   LIG d   1       9.947   1.639  -2.893  0.00  0.00     0.027 H 
ENDBRANCH  42  75
ENDBRANCH   1  42
TORSDOF 23
ENDMDL
MODEL 9
REMARK VINA RESULT:      -5.2      4.590     10.650
REMARK  23 active torsions:
REMARK  status: ('A' for Active; 'I' for Inactive)
REMARK    1  A    between atoms: C_1  and  C_2 
REMARK    2  A    between atoms: C_2  and  C_4 
REMARK    3  A    between atoms: C_2  and  C_40 
REMARK    4  A    between atoms: C_6  and  C_9 
REMARK    5  A    between atoms: C_9  and  C_10 
REMARK    6  A    between atoms: C_14  and  C_22 
REMARK    7  A    between atoms: C_16  and  O_21 
REMARK    8  A    between atoms: C_18  and  O_20 
REMARK    9  A    between atoms: C_22  and  C_23 
REMARK   10  A    between atoms: C_23  and  C_39 
REMARK   11  A    between atoms: C_24  and  C_25 
REMARK   12  A    between atoms: C_25  and  O_27 
REMARK   13  A    between atoms: O_27  and  C_28 
REMARK   14  A    between atoms: C_28  and  C_29 
REMARK   15  A    between atoms: C_29  and  C_30 
REMARK   16  A    between atoms: C_30  and  C_31 
REMARK   17  A    between atoms: C_31  and  C_32 
REMARK   18  A    between atoms: C_32  and  C_33 
REMARK   19  A    between atoms: C_33  and  C_34 
REMARK   20  A    between atoms: C_34  and  C_35 
REMARK   21  A    between atoms: C_35  and  C_36 
REMARK   22  A    between atoms: C_40  and  C_42 
REMARK   23  A    between atoms: C_40  and  O_43 
ROOT
ATOM      1  C   LIG d   1       5.893  -3.978  -4.935  0.00  0.00    -0.003 C 
ATOM      2  H   LIG d   1       5.001  -3.386  -4.684  0.00  0.00     0.034 H 
ATOM      3  H   LIG d   1       5.994  -4.810  -4.220  0.00  0.00     0.034 H 
ENDROOT
BRANCH   1   4
ATOM      4  C   LIG d   1       5.751  -4.537  -6.352  0.00  0.00     0.091 C 
ATOM      5  O   LIG d   1       6.415  -5.800  -6.435  0.00  0.00    -0.373 OA
ATOM      6  C   LIG d   1       6.365  -6.401  -7.730  0.00  0.00     0.053 C 
ATOM      7  C   LIG d   1       4.907  -6.658  -8.116  0.00  0.00     0.013 C 
ATOM      8  H   LIG d   1       6.914  -7.354  -7.714  0.00  0.00     0.056 H 
ATOM      9  H   LIG d   1       6.826  -5.726  -8.467  0.00  0.00     0.056 H 
ATOM     10  H   LIG d   1       4.862  -7.085  -9.129  0.00  0.00     0.035 H 
ATOM     11  C   LIG d   1       4.135  -5.336  -8.078  0.00  0.00     0.088 C 
ATOM     12  C   LIG d   1       4.267  -4.720  -6.681  0.00  0.00     0.108 C 
ATOM     13  H   LIG d   1       4.482  -4.644  -8.859  0.00  0.00     0.062 H 
ATOM     14  H   LIG d   1       3.718  -3.770  -6.607  0.00  0.00     0.065 H 
ATOM     15  H   LIG d   1       6.247  -3.887  -7.088  0.00  0.00     0.063 H 
BRANCH   7  16
ATOM     16  C   LIG d   1       4.282  -7.643  -7.125  0.00  0.00    -0.017 C 
ATOM     17  H   LIG d   1       3.192  -7.668  -7.271  0.00  0.00     0.029 H 
ATOM     18  H   LIG d   1       4.507  -7.321  -6.097  0.00  0.00     0.029 H 
BRANCH  16  19
ATOM     19  C   LIG d   1       4.861  -9.040  -7.359  0.00  0.00     0.086 A 
ATOM     20  C   LIG d   1       5.317  -9.838  -6.137  0.00  0.00     0.090 A 
ATOM     21  H   LIG d   1       6.218 -10.403  -5.852  0.00  0.00     0.062 H 
ATOM     22  O   LIG d   1       4.124 -10.158  -6.859  0.00  0.00    -0.368 OA
ATOM     23  H   LIG d   1       5.288  -8.781  -8.339  0.00  0.00     0.062 H 
BRANCH  20  24
ATOM     24  C   LIG d   1       5.167  -9.183  -4.762  0.00  0.00     0.011 C 
ATOM     25  H   LIG d   1       4.627  -8.230  -4.868  0.00  0.00     0.035 H 
BRANCH  24  26
ATOM     26  C   LIG d   1       6.551  -8.922  -4.166  0.00  0.00    -0.058 C 
ATOM     27  H   LIG d   1       7.278  -9.620  -4.608  0.00  0.00     0.023 H 
ATOM     28  H   LIG d   1       6.516  -9.071  -3.076  0.00  0.00     0.023 H 
ATOM     29  H   LIG d   1       6.856  -7.888  -4.384  0.00  0.00     0.023 H 
ENDBRANCH  24  26
BRANCH  24  30
ATOM     30  C   LIG d   1       4.380 -10.114  -3.837  0.00  0.00     0.057 C 
ATOM     31  H   LIG d   1       4.061 -11.025  -4.365  0.00  0.00     0.059 H 
BRANCH  30  32
ATOM     32  C   LIG d   1       5.230 -10.452  -2.611  0.00  0.00    -0.039 C 
ATOM     33  H   LIG d   1       5.774 -11.391  -2.789  0.00  0.00     0.025 H 
ATOM     34  H   LIG d   1       4.579 -10.567  -1.733  0.00  0.00     0.025 H 
ATOM     35  H   LIG d   1       5.951  -9.641  -2.429  0.00  0.00     0.025 H 
ENDBRANCH  30  32
BRANCH  30  36
ATOM     36  O   LIG d   1       3.177  -9.465  -3.419  0.00  0.00    -0.392 OA
ATOM     37  H   LIG d   1       3.151  -8.370  -3.313  0.00  0.00     0.210 HD
ENDBRANCH  30  36
ENDBRANCH  24  30
ENDBRANCH  20  24
ENDBRANCH  16  19
ENDBRANCH   7  16
BRANCH  11  38
ATOM     38  O   LIG d   1       2.756  -5.578  -8.365  0.00  0.00    -0.389 OA
ATOM     39  H   LIG d   1       2.345  -6.595  -8.276  0.00  0.00     0.210 HD
ENDBRANCH  11  38
BRANCH  12  40
ATOM     40  O   LIG d   1       3.667  -5.588  -5.718  0.00  0.00    -0.387 OA
ATOM     41  H   LIG d   1       3.982  -5.541  -4.665  0.00  0.00     0.210 HD
ENDBRANCH  12  40
ENDBRANCH   1   4
BRANCH   1  42
ATOM     42  C   LIG d   1       7.117  -3.101  -4.861  0.00  0.00    -0.063 C 
ATOM     43  C   LIG d   1       7.279  -2.111  -5.734  0.00  0.00     0.022 C 
ATOM     44  H   LIG d   1       6.493  -1.894  -6.472  0.00  0.00     0.069 H 
BRANCH  43  45
ATOM     45  C   LIG d   1       8.508  -1.306  -5.713  0.00  0.00     0.332 C 
ATOM     46  O   LIG d   1       9.411  -1.555  -6.489  0.00  0.00    -0.246 OA
BRANCH  45  47
ATOM     47  O   LIG d   1       8.636  -0.293  -4.834  0.00  0.00    -0.462 OA
BRANCH  47  48
ATOM     48  C   LIG d   1       7.495   0.591  -4.675  0.00  0.00     0.093 C 
ATOM     49  H   LIG d   1       7.838   1.636  -4.680  0.00  0.00     0.070 H 
ATOM     50  H   LIG d   1       6.790   0.432  -5.503  0.00  0.00     0.070 H 
BRANCH  48  51
ATOM     51  C   LIG d   1       6.799   0.290  -3.345  0.00  0.00    -0.018 C 
ATOM     52  H   LIG d   1       6.306  -0.692  -3.404  0.00  0.00     0.030 H 
ATOM     53  H   LIG d   1       7.543   0.279  -2.536  0.00  0.00     0.030 H 
BRANCH  51  54
ATOM     54  C   LIG d   1       5.753   1.370  -3.062  0.00  0.00    -0.050 C 
ATOM     55  H   LIG d   1       6.258   2.315  -2.817  0.00  0.00     0.027 H 
ATOM     56  H   LIG d   1       5.122   1.512  -3.952  0.00  0.00     0.027 H 
BRANCH  54  57
ATOM     57  C   LIG d   1       4.879   0.938  -1.884  0.00  0.00    -0.053 C 
ATOM     58  H   LIG d   1       5.227  -0.035  -1.506  0.00  0.00     0.026 H 
ATOM     59  H   LIG d   1       4.949   1.688  -1.082  0.00  0.00     0.026 H 
BRANCH  57  60
ATOM     60  C   LIG d   1       3.425   0.816  -2.343  0.00  0.00    -0.053 C 
ATOM     61  H   LIG d   1       2.755   1.116  -1.523  0.00  0.00     0.026 H 
ATOM     62  H   LIG d   1       3.259   1.473  -3.210  0.00  0.00     0.026 H 
BRANCH  60  63
ATOM     63  C   LIG d   1       3.133  -0.633  -2.737  0.00  0.00    -0.053 C 
ATOM     64  H   LIG d   1       4.079  -1.154  -2.946  0.00  0.00     0.026 H 
ATOM     65  H   LIG d   1       2.611  -1.138  -1.911  0.00  0.00     0.026 H 
BRANCH  63  66
ATOM     66  C   LIG d   1       2.251  -0.655  -3.987  0.00  0.00    -0.048 C 
ATOM     67  H   LIG d   1       2.477  -1.555  -4.578  0.00  0.00     0.027 H 
ATOM     68  H   LIG d   1       1.193  -0.670  -3.689  0.00  0.00     0.027 H 
BRANCH  66  69
ATOM     69  C   LIG d   1       2.528   0.592  -4.829  0.00  0.00    -0.013 C 
ATOM     70  H   LIG d   1       1.579   1.099  -5.055  0.00  0.00     0.033 H 
ATOM     71  H   LIG d   1       3.185   1.273  -4.270  0.00  0.00     0.033 H 
BRANCH  69  72
ATOM     72  C   LIG d   1       3.200   0.189  -6.116  0.00  0.00     0.042 C 
ATOM     73  O   LIG d   1       4.399   0.043  -6.152  0.00  0.00    -0.550 OA
ATOM     74  O   LIG d   1       2.468  -0.006  -7.223  0.00  0.00    -0.550 OA
ENDBRANCH  69  72
ENDBRANCH  66  69
ENDBRANCH  63  66
ENDBRANCH  60  63
ENDBRANCH  57  60
ENDBRANCH  54  57
ENDBRANCH  51  54
ENDBRANCH  48  51
ENDBRANCH  47  48
ENDBRANCH  45  47
ENDBRANCH  43  45
BRANCH  42  75
ATOM     75  C   LIG d   1       8.156  -3.346  -3.798  0.00  0.00    -0.043 C 
ATOM     76  H   LIG d   1       7.857  -4.208  -3.184  0.00  0.00     0.027 H 
ATOM     77  H   LIG d   1       8.245  -2.455  -3.159  0.00  0.00     0.027 H 
ATOM     78  H   LIG d   1       9.125  -3.554  -4.274  0.00  0.00     0.027 H 
ENDBRANCH  42  75
ENDBRANCH   1  42
TORSDOF 23
ENDMDL
