MODEL 1
REMARK VINA RESULT:      -7.2      0.000      0.000
REMARK  9 active torsions:
REMARK  status: ('A' for Active; 'I' for Inactive)
REMARK    1  A    between atoms: C_1  and  C_2 
REMARK    2  A    between atoms: C_2  and  C_4 
REMARK    3  A    between atoms: C_2  and  N_12 
REMARK    4  A    between atoms: C_4  and  C_5 
REMARK    5  A    between atoms: C_5  and  C_6 
REMARK    6  A    between atoms: C_15  and  C_22 
REMARK    7  A    between atoms: C_29  and  O_30 
REMARK    8  A    between atoms: O_30  and  C_31 
REMARK    9  A    between atoms: N_37  and  C_38 
ROOT
ATOM      1  N   LIG d   1       5.966  -1.550  -5.312  0.00  0.00    -0.258 N 
ATOM      2  C   LIG d   1       5.293  -1.800  -6.452  0.00  0.00     0.265 A 
ATOM      3  O   LIG d   1       4.695  -2.852  -6.595  0.00  0.00    -0.267 OA
ATOM      4  C   LIG d   1       5.283  -0.836  -7.477  0.00  0.00     0.078 A 
ATOM      5  C   LIG d   1       5.959   0.333  -7.294  0.00  0.00    -0.020 A 
ATOM      6  N   LIG d   1       6.631   0.547  -6.118  0.00  0.00    -0.320 N 
ATOM      7  H   LIG d   1       7.114   1.377  -5.982  0.00  0.00     0.169 HD
ATOM      8  C   LIG d   1       6.623  -0.386  -5.148  0.00  0.00     0.329 A 
ATOM      9  O   LIG d   1       7.221  -0.178  -4.110  0.00  0.00    -0.246 OA
ATOM     10  O   LIG d   1       5.967   1.274  -8.262  0.00  0.00    -0.861 OA
ENDROOT
BRANCH   4  11
ATOM     11  C   LIG d   1       4.538  -1.094  -8.762  0.00  0.00     0.041 C 
ATOM     12  H   LIG d   1       4.040  -2.061  -8.700  0.00  0.00     0.096 H 
ATOM     13  N   LIG d   1       3.535  -0.044  -8.958  0.00  0.00     0.242 N 
ATOM     14  C   LIG d   1       2.908  -0.221 -10.277  0.00  0.00    -0.027 C 
ATOM     15  H   LIG d   1       3.980   0.861  -8.914  0.00  0.00     0.204 HD
ATOM     16  C   LIG d   1       3.915   0.187 -11.352  0.00  0.00     0.013 C 
ATOM     17  H   LIG d   1       2.021   0.408 -10.348  0.00  0.00     0.082 H 
ATOM     18  H   LIG d   1       2.631  -1.266 -10.413  0.00  0.00     0.082 H 
ATOM     19  C   LIG d   1       5.226  -0.519 -11.118  0.00  0.00    -0.026 A 
ATOM     20  H   LIG d   1       4.071   1.265 -11.313  0.00  0.00     0.036 H 
ATOM     21  H   LIG d   1       3.527  -0.085 -12.334  0.00  0.00     0.036 H 
ATOM     22  C   LIG d   1       5.517  -1.113  -9.908  0.00  0.00     0.054 A 
ATOM     23  C   LIG d   1       6.150  -0.560 -12.150  0.00  0.00    -0.012 A 
ATOM     24  C   LIG d   1       6.739  -1.750  -9.726  0.00  0.00     0.174 A 
ATOM     25  C   LIG d   1       7.667  -1.793 -10.757  0.00  0.00     0.208 A 
ATOM     26  C   LIG d   1       7.369  -1.195 -11.977  0.00  0.00     0.170 A 
ATOM     27  O   LIG d   1       8.914  -2.345 -10.834  0.00  0.00    -0.449 OA
ATOM     28  O   LIG d   1       8.428  -1.370 -12.820  0.00  0.00    -0.453 OA
ATOM     29  C   LIG d   1       9.210  -2.433 -12.241  0.00  0.00     0.233 C 
ATOM     30  H   LIG d   1      10.272  -2.269 -12.420  0.00  0.00     0.117 H 
ATOM     31  H   LIG d   1       8.897  -3.398 -12.639  0.00  0.00     0.117 H 
ATOM     32  H   LIG d   1       5.918  -0.095 -13.097  0.00  0.00     0.066 H 
BRANCH  13  33
ATOM     33  C   LIG d   1       2.510  -0.142  -7.910  0.00  0.00    -0.042 C 
ATOM     34  H   LIG d   1       1.520  -0.073  -8.363  0.00  0.00     0.078 H 
ATOM     35  H   LIG d   1       2.608  -1.097  -7.396  0.00  0.00     0.078 H 
ATOM     36  H   LIG d   1       2.641   0.671  -7.197  0.00  0.00     0.078 H 
ENDBRANCH  13  33
BRANCH  24  37
ATOM     37  O   LIG d   1       7.026  -2.334  -8.532  0.00  0.00    -0.491 OA
BRANCH  37  38
ATOM     38  C   LIG d   1       7.336  -3.729  -8.549  0.00  0.00     0.079 C 
ATOM     39  H   LIG d   1       8.293  -3.895  -8.053  0.00  0.00     0.066 H 
ATOM     40  H   LIG d   1       6.556  -4.282  -8.026  0.00  0.00     0.066 H 
ATOM     41  H   LIG d   1       7.397  -4.076  -9.580  0.00  0.00     0.066 H 
ENDBRANCH  37  38
ENDBRANCH  24  37
ENDBRANCH   4  11
BRANCH   1  42
ATOM     42  C   LIG d   1       5.978  -2.549  -4.241  0.00  0.00     0.040 C 
ATOM     43  H   LIG d   1       6.349  -2.094  -3.323  0.00  0.00     0.053 H 
BRANCH  42  44
ATOM     44  C   LIG d   1       6.890  -3.712  -4.639  0.00  0.00    -0.044 C 
ATOM     45  H   LIG d   1       6.805  -4.509  -3.900  0.00  0.00     0.025 H 
ATOM     46  H   LIG d   1       6.593  -4.089  -5.617  0.00  0.00     0.025 H 
ATOM     47  H   LIG d   1       7.923  -3.365  -4.681  0.00  0.00     0.025 H 
ENDBRANCH  42  44
BRANCH  42  48
ATOM     48  C   LIG d   1       4.558  -3.071  -4.015  0.00  0.00    -0.028 C 
ATOM     49  H   LIG d   1       3.906  -2.709  -4.811  0.00  0.00     0.029 H 
ATOM     50  H   LIG d   1       4.566  -4.160  -4.018  0.00  0.00     0.029 H 
BRANCH  48  51
ATOM     51  C   LIG d   1       4.040  -2.569  -2.665  0.00  0.00    -0.026 C 
ATOM     52  H   LIG d   1       3.067  -3.017  -2.460  0.00  0.00     0.031 H 
ATOM     53  H   LIG d   1       4.742  -2.848  -1.880  0.00  0.00     0.031 H 
BRANCH  51  54
ATOM     54  C   LIG d   1       3.902  -1.068  -2.707  0.00  0.00    -0.047 A 
ATOM     55  C   LIG d   1       4.542  -0.289  -1.762  0.00  0.00    -0.059 A 
ATOM     56  C   LIG d   1       4.419   1.088  -1.803  0.00  0.00    -0.061 A 
ATOM     57  H   LIG d   1       5.142  -0.755  -0.994  0.00  0.00     0.062 H 
ATOM     58  C   LIG d   1       3.648   1.684  -2.783  0.00  0.00    -0.062 A 
ATOM     59  H   LIG d   1       4.923   1.696  -1.067  0.00  0.00     0.062 H 
ATOM     60  C   LIG d   1       3.004   0.904  -3.725  0.00  0.00    -0.061 A 
ATOM     61  H   LIG d   1       3.550   2.759  -2.814  0.00  0.00     0.062 H 
ATOM     62  C   LIG d   1       3.130  -0.473  -3.687  0.00  0.00    -0.059 A 
ATOM     63  H   LIG d   1       2.401   1.369  -4.491  0.00  0.00     0.062 H 
ATOM     64  H   LIG d   1       2.627  -1.082  -4.423  0.00  0.00     0.062 H 
ENDBRANCH  51  54
ENDBRANCH  48  51
ENDBRANCH  42  48
ENDBRANCH   1  42
TORSDOF 9
ENDMDL
MODEL 2
REMARK VINA RESULT:      -7.0      2.008      2.760
REMARK  9 active torsions:
REMARK  status: ('A' for Active; 'I' for Inactive)
REMARK    1  A    between atoms: C_1  and  C_2 
REMARK    2  A    between atoms: C_2  and  C_4 
REMARK    3  A    between atoms: C_2  and  N_12 
REMARK    4  A    between atoms: C_4  and  C_5 
REMARK    5  A    between atoms: C_5  and  C_6 
REMARK    6  A    between atoms: C_15  and  C_22 
REMARK    7  A    between atoms: C_29  and  O_30 
REMARK    8  A    between atoms: O_30  and  C_31 
REMARK    9  A    between atoms: N_37  and  C_38 
ROOT
ATOM      1  N   LIG d   1       4.976  -2.411  -5.852  0.00  0.00    -0.258 N 
ATOM      2  C   LIG d   1       4.890  -1.372  -6.706  0.00  0.00     0.265 A 
ATOM      3  O   LIG d   1       5.000  -0.229  -6.297  0.00  0.00    -0.267 OA
ATOM      4  C   LIG d   1       4.673  -1.616  -8.075  0.00  0.00     0.078 A 
ATOM      5  C   LIG d   1       4.553  -2.903  -8.507  0.00  0.00    -0.020 A 
ATOM      6  N   LIG d   1       4.648  -3.930  -7.604  0.00  0.00    -0.320 N 
ATOM      7  H   LIG d   1       4.564  -4.848  -7.907  0.00  0.00     0.169 HD
ATOM      8  C   LIG d   1       4.861  -3.674  -6.300  0.00  0.00     0.329 A 
ATOM      9  O   LIG d   1       4.947  -4.598  -5.514  0.00  0.00    -0.246 OA
ATOM     10  O   LIG d   1       4.344  -3.164  -9.815  0.00  0.00    -0.861 OA
ENDROOT
BRANCH   4  11
ATOM     11  C   LIG d   1       4.572  -0.470  -9.048  0.00  0.00     0.041 C 
ATOM     12  H   LIG d   1       4.433  -0.865 -10.054  0.00  0.00     0.096 H 
ATOM     13  N   LIG d   1       3.421   0.367  -8.693  0.00  0.00     0.242 N 
ATOM     14  C   LIG d   1       3.409   1.556  -9.558  0.00  0.00    -0.027 C 
ATOM     15  H   LIG d   1       3.496   0.651  -7.728  0.00  0.00     0.204 HD
ATOM     16  C   LIG d   1       4.542   2.486  -9.122  0.00  0.00     0.013 C 
ATOM     17  H   LIG d   1       2.454   2.071  -9.459  0.00  0.00     0.082 H 
ATOM     18  H   LIG d   1       3.561   1.257 -10.595  0.00  0.00     0.082 H 
ATOM     19  C   LIG d   1       5.833   1.713  -9.040  0.00  0.00    -0.026 A 
ATOM     20  H   LIG d   1       4.308   2.907  -8.144  0.00  0.00     0.036 H 
ATOM     21  H   LIG d   1       4.647   3.293  -9.846  0.00  0.00     0.036 H 
ATOM     22  C   LIG d   1       5.845   0.334  -9.002  0.00  0.00     0.054 A 
ATOM     23  C   LIG d   1       7.025   2.418  -8.999  0.00  0.00    -0.012 A 
ATOM     24  C   LIG d   1       7.056  -0.345  -8.920  0.00  0.00     0.174 A 
ATOM     25  C   LIG d   1       8.251   0.358  -8.878  0.00  0.00     0.208 A 
ATOM     26  C   LIG d   1       8.235   1.748  -8.919  0.00  0.00     0.170 A 
ATOM     27  O   LIG d   1       9.549  -0.062  -8.800  0.00  0.00    -0.449 OA
ATOM     28  O   LIG d   1       9.522   2.202  -8.866  0.00  0.00    -0.453 OA
ATOM     29  C   LIG d   1      10.344   1.069  -9.204  0.00  0.00     0.233 C 
ATOM     30  H   LIG d   1      11.282   1.097  -8.650  0.00  0.00     0.117 H 
ATOM     31  H   LIG d   1      10.533   1.041 -10.278  0.00  0.00     0.117 H 
ATOM     32  H   LIG d   1       7.012   3.497  -9.030  0.00  0.00     0.066 H 
BRANCH  13  33
ATOM     33  C   LIG d   1       2.180  -0.396  -8.890  0.00  0.00    -0.042 C 
ATOM     34  H   LIG d   1       1.404  -0.001  -8.234  0.00  0.00     0.078 H 
ATOM     35  H   LIG d   1       1.861  -0.305  -9.928  0.00  0.00     0.078 H 
ATOM     36  H   LIG d   1       2.357  -1.445  -8.654  0.00  0.00     0.078 H 
ENDBRANCH  13  33
BRANCH  24  37
ATOM     37  O   LIG d   1       7.067  -1.704  -8.881  0.00  0.00    -0.491 OA
BRANCH  37  38
ATOM     38  C   LIG d   1       7.734  -2.379  -9.950  0.00  0.00     0.079 C 
ATOM     39  H   LIG d   1       7.010  -2.967 -10.515  0.00  0.00     0.066 H 
ATOM     40  H   LIG d   1       8.199  -1.646 -10.609  0.00  0.00     0.066 H 
ATOM     41  H   LIG d   1       8.499  -3.038  -9.543  0.00  0.00     0.066 H 
ENDBRANCH  37  38
ENDBRANCH  24  37
ENDBRANCH   4  11
BRANCH   1  42
ATOM     42  C   LIG d   1       5.203  -2.162  -4.426  0.00  0.00     0.040 C 
ATOM     43  H   LIG d   1       5.040  -1.106  -4.211  0.00  0.00     0.053 H 
BRANCH  42  44
ATOM     44  C   LIG d   1       6.641  -2.541  -4.065  0.00  0.00    -0.044 C 
ATOM     45  H   LIG d   1       7.038  -3.219  -4.821  0.00  0.00     0.025 H 
ATOM     46  H   LIG d   1       7.254  -1.641  -4.024  0.00  0.00     0.025 H 
ATOM     47  H   LIG d   1       6.652  -3.033  -3.093  0.00  0.00     0.025 H 
ENDBRANCH  42  44
BRANCH  42  48
ATOM     48  C   LIG d   1       4.231  -3.007  -3.600  0.00  0.00    -0.028 C 
ATOM     49  H   LIG d   1       3.309  -3.155  -4.163  0.00  0.00     0.029 H 
ATOM     50  H   LIG d   1       4.683  -3.974  -3.383  0.00  0.00     0.029 H 
BRANCH  48  51
ATOM     51  C   LIG d   1       3.916  -2.285  -2.288  0.00  0.00    -0.026 C 
ATOM     52  H   LIG d   1       2.977  -2.662  -1.882  0.00  0.00     0.031 H 
ATOM     53  H   LIG d   1       4.719  -2.465  -1.573  0.00  0.00     0.031 H 
BRANCH  51  54
ATOM     54  C   LIG d   1       3.794  -0.805  -2.546  0.00  0.00    -0.047 A 
ATOM     55  C   LIG d   1       4.539   0.090  -1.802  0.00  0.00    -0.059 A 
ATOM     56  C   LIG d   1       4.429   1.448  -2.041  0.00  0.00    -0.061 A 
ATOM     57  H   LIG d   1       5.210  -0.271  -1.035  0.00  0.00     0.062 H 
ATOM     58  C   LIG d   1       3.568   1.910  -3.018  0.00  0.00    -0.062 A 
ATOM     59  H   LIG d   1       5.016   2.146  -1.463  0.00  0.00     0.062 H 
ATOM     60  C   LIG d   1       2.820   1.014  -3.759  0.00  0.00    -0.061 A 
ATOM     61  H   LIG d   1       3.481   2.970  -3.204  0.00  0.00     0.062 H 
ATOM     62  C   LIG d   1       2.932  -0.343  -3.523  0.00  0.00    -0.059 A 
ATOM     63  H   LIG d   1       2.147   1.376  -4.523  0.00  0.00     0.062 H 
ATOM     64  H   LIG d   1       2.347  -1.043  -4.102  0.00  0.00     0.062 H 
ENDBRANCH  51  54
ENDBRANCH  48  51
ENDBRANCH  42  48
ENDBRANCH   1  42
TORSDOF 9
ENDMDL
MODEL 3
REMARK VINA RESULT:      -6.9      2.925      5.429
REMARK  9 active torsions:
REMARK  status: ('A' for Active; 'I' for Inactive)
REMARK    1  A    between atoms: C_1  and  C_2 
REMARK    2  A    between atoms: C_2  and  C_4 
REMARK    3  A    between atoms: C_2  and  N_12 
REMARK    4  A    between atoms: C_4  and  C_5 
REMARK    5  A    between atoms: C_5  and  C_6 
REMARK    6  A    between atoms: C_15  and  C_22 
REMARK    7  A    between atoms: C_29  and  O_30 
REMARK    8  A    between atoms: O_30  and  C_31 
REMARK    9  A    between atoms: N_37  and  C_38 
ROOT
ATOM      1  N   LIG d   1       4.495   0.511  -7.750  0.00  0.00    -0.258 N 
ATOM      2  C   LIG d   1       5.708  -0.057  -7.603  0.00  0.00     0.265 A 
ATOM      3  O   LIG d   1       5.826  -1.103  -6.989  0.00  0.00    -0.267 OA
ATOM      4  C   LIG d   1       6.838   0.566  -8.162  0.00  0.00     0.078 A 
ATOM      5  C   LIG d   1       6.681   1.735  -8.845  0.00  0.00    -0.020 A 
ATOM      6  N   LIG d   1       5.428   2.279  -8.972  0.00  0.00    -0.320 N 
ATOM      7  H   LIG d   1       5.310   3.111  -9.456  0.00  0.00     0.169 HD
ATOM      8  C   LIG d   1       4.359   1.664  -8.433  0.00  0.00     0.329 A 
ATOM      9  O   LIG d   1       3.256   2.157  -8.559  0.00  0.00    -0.246 OA
ATOM     10  O   LIG d   1       7.749   2.354  -9.391  0.00  0.00    -0.861 OA
ENDROOT
BRANCH   4  11
ATOM     11  C   LIG d   1       8.205  -0.050  -8.009  0.00  0.00     0.041 C 
ATOM     12  H   LIG d   1       8.118  -0.986  -7.458  0.00  0.00     0.096 H 
ATOM     13  N   LIG d   1       8.766  -0.321  -9.336  0.00  0.00     0.242 N 
ATOM     14  C   LIG d   1      10.151  -0.791  -9.184  0.00  0.00    -0.027 C 
ATOM     15  H   LIG d   1       8.754   0.525  -9.886  0.00  0.00     0.204 HD
ATOM     16  C   LIG d   1      11.025   0.396  -8.777  0.00  0.00     0.013 C 
ATOM     17  H   LIG d   1      10.506  -1.199 -10.130  0.00  0.00     0.082 H 
ATOM     18  H   LIG d   1      10.195  -1.559  -8.411  0.00  0.00     0.082 H 
ATOM     19  C   LIG d   1      10.410   1.103  -7.597  0.00  0.00    -0.026 A 
ATOM     20  H   LIG d   1      11.106   1.090  -9.614  0.00  0.00     0.036 H 
ATOM     21  H   LIG d   1      12.019   0.039  -8.508  0.00  0.00     0.036 H 
ATOM     22  C   LIG d   1       9.093   0.896  -7.242  0.00  0.00     0.054 A 
ATOM     23  C   LIG d   1      11.195   1.979  -6.865  0.00  0.00    -0.012 A 
ATOM     24  C   LIG d   1       8.556   1.571  -6.151  0.00  0.00     0.174 A 
ATOM     25  C   LIG d   1       9.341   2.448  -5.416  0.00  0.00     0.208 A 
ATOM     26  C   LIG d   1      10.668   2.652  -5.776  0.00  0.00     0.170 A 
ATOM     27  O   LIG d   1       9.061   3.218  -4.322  0.00  0.00    -0.449 OA
ATOM     28  O   LIG d   1      11.223   3.549  -4.909  0.00  0.00    -0.453 OA
ATOM     29  C   LIG d   1      10.341   3.583  -3.771  0.00  0.00     0.233 C 
ATOM     30  H   LIG d   1      10.303   4.585  -3.345  0.00  0.00     0.117 H 
ATOM     31  H   LIG d   1      10.656   2.857  -3.021  0.00  0.00     0.117 H 
ATOM     32  H   LIG d   1      12.226   2.137  -7.145  0.00  0.00     0.066 H 
BRANCH  13  33
ATOM     33  C   LIG d   1       7.967  -1.357 -10.005  0.00  0.00    -0.042 C 
ATOM     34  H   LIG d   1       8.091  -1.270 -11.085  0.00  0.00     0.078 H 
ATOM     35  H   LIG d   1       8.303  -2.340  -9.678  0.00  0.00     0.078 H 
ATOM     36  H   LIG d   1       6.916  -1.228  -9.748  0.00  0.00     0.078 H 
ENDBRANCH  13  33
BRANCH  24  37
ATOM     37  O   LIG d   1       7.258   1.368  -5.802  0.00  0.00    -0.491 OA
BRANCH  37  38
ATOM     38  C   LIG d   1       7.012   0.800  -4.514  0.00  0.00     0.079 C 
ATOM     39  H   LIG d   1       7.512  -0.166  -4.442  0.00  0.00     0.066 H 
ATOM     40  H   LIG d   1       7.399   1.466  -3.742  0.00  0.00     0.066 H 
ATOM     41  H   LIG d   1       5.940   0.666  -4.374  0.00  0.00     0.066 H 
ENDBRANCH  37  38
ENDBRANCH  24  37
ENDBRANCH   4  11
BRANCH   1  42
ATOM     42  C   LIG d   1       3.315  -0.134  -7.170  0.00  0.00     0.040 C 
ATOM     43  H   LIG d   1       3.608  -1.072  -6.700  0.00  0.00     0.053 H 
BRANCH  42  44
ATOM     44  C   LIG d   1       2.293  -0.414  -8.274  0.00  0.00    -0.044 C 
ATOM     45  H   LIG d   1       2.605  -1.289  -8.844  0.00  0.00     0.025 H 
ATOM     46  H   LIG d   1       1.317  -0.602  -7.826  0.00  0.00     0.025 H 
ATOM     47  H   LIG d   1       2.229   0.448  -8.937  0.00  0.00     0.025 H 
ENDBRANCH  42  44
BRANCH  42  48
ATOM     48  C   LIG d   1       2.692   0.790  -6.122  0.00  0.00    -0.028 C 
ATOM     49  H   LIG d   1       3.471   1.405  -5.670  0.00  0.00     0.029 H 
ATOM     50  H   LIG d   1       1.952   1.433  -6.598  0.00  0.00     0.029 H 
BRANCH  48  51
ATOM     51  C   LIG d   1       2.014  -0.051  -5.039  0.00  0.00    -0.026 C 
ATOM     52  H   LIG d   1       1.060   0.403  -4.770  0.00  0.00     0.031 H 
ATOM     53  H   LIG d   1       1.845  -1.060  -5.415  0.00  0.00     0.031 H 
BRANCH  51  54
ATOM     54  C   LIG d   1       2.901  -0.112  -3.821  0.00  0.00    -0.047 A 
ATOM     55  C   LIG d   1       3.333   1.056  -3.222  0.00  0.00    -0.059 A 
ATOM     56  C   LIG d   1       4.143   1.000  -2.102  0.00  0.00    -0.061 A 
ATOM     57  H   LIG d   1       3.033   2.013  -3.625  0.00  0.00     0.062 H 
ATOM     58  C   LIG d   1       4.528  -0.224  -1.589  0.00  0.00    -0.062 A 
ATOM     59  H   LIG d   1       4.475   1.913  -1.631  0.00  0.00     0.062 H 
ATOM     60  C   LIG d   1       4.101  -1.392  -2.192  0.00  0.00    -0.061 A 
ATOM     61  H   LIG d   1       5.163  -0.268  -0.716  0.00  0.00     0.062 H 
ATOM     62  C   LIG d   1       3.287  -1.337  -3.309  0.00  0.00    -0.059 A 
ATOM     63  H   LIG d   1       4.402  -2.349  -1.791  0.00  0.00     0.062 H 
ATOM     64  H   LIG d   1       2.953  -2.249  -3.780  0.00  0.00     0.062 H 
ENDBRANCH  51  54
ENDBRANCH  48  51
ENDBRANCH  42  48
ENDBRANCH   1  42
TORSDOF 9
ENDMDL
MODEL 4
REMARK VINA RESULT:      -6.8      2.383      4.123
REMARK  9 active torsions:
REMARK  status: ('A' for Active; 'I' for Inactive)
REMARK    1  A    between atoms: C_1  and  C_2 
REMARK    2  A    between atoms: C_2  and  C_4 
REMARK    3  A    between atoms: C_2  and  N_12 
REMARK    4  A    between atoms: C_4  and  C_5 
REMARK    5  A    between atoms: C_5  and  C_6 
REMARK    6  A    between atoms: C_15  and  C_22 
REMARK    7  A    between atoms: C_29  and  O_30 
REMARK    8  A    between atoms: O_30  and  C_31 
REMARK    9  A    between atoms: N_37  and  C_38 
ROOT
ATOM      1  N   LIG d   1       5.247  -4.305  -6.938  0.00  0.00    -0.258 N 
ATOM      2  C   LIG d   1       5.814  -3.673  -7.985  0.00  0.00     0.265 A 
ATOM      3  O   LIG d   1       6.999  -3.390  -7.964  0.00  0.00    -0.267 OA
ATOM      4  C   LIG d   1       5.027  -3.342  -9.103  0.00  0.00     0.078 A 
ATOM      5  C   LIG d   1       3.704  -3.669  -9.103  0.00  0.00    -0.020 A 
ATOM      6  N   LIG d   1       3.168  -4.313  -8.016  0.00  0.00    -0.320 N 
ATOM      7  H   LIG d   1       2.227  -4.548  -8.011  0.00  0.00     0.169 HD
ATOM      8  C   LIG d   1       3.940  -4.624  -6.959  0.00  0.00     0.329 A 
ATOM      9  O   LIG d   1       3.449  -5.199  -6.007  0.00  0.00    -0.246 OA
ATOM     10  O   LIG d   1       2.927  -3.363 -10.163  0.00  0.00    -0.861 OA
ENDROOT
BRANCH   4  11
ATOM     11  C   LIG d   1       5.638  -2.634 -10.285  0.00  0.00     0.041 C 
ATOM     12  H   LIG d   1       6.712  -2.538 -10.130  0.00  0.00     0.096 H 
ATOM     13  N   LIG d   1       5.392  -3.418 -11.499  0.00  0.00     0.242 N 
ATOM     14  C   LIG d   1       5.867  -2.658 -12.665  0.00  0.00    -0.027 C 
ATOM     15  H   LIG d   1       4.403  -3.597 -11.591  0.00  0.00     0.204 HD
ATOM     16  C   LIG d   1       4.902  -1.498 -12.913  0.00  0.00     0.013 C 
ATOM     17  H   LIG d   1       5.892  -3.307 -13.540  0.00  0.00     0.082 H 
ATOM     18  H   LIG d   1       6.865  -2.267 -12.466  0.00  0.00     0.082 H 
ATOM     19  C   LIG d   1       4.689  -0.728 -11.635  0.00  0.00    -0.026 A 
ATOM     20  H   LIG d   1       3.948  -1.889 -13.265  0.00  0.00     0.036 H 
ATOM     21  H   LIG d   1       5.320  -0.835 -13.671  0.00  0.00     0.036 H 
ATOM     22  C   LIG d   1       5.030  -1.261 -10.410  0.00  0.00     0.054 A 
ATOM     23  C   LIG d   1       4.135   0.540 -11.710  0.00  0.00    -0.012 A 
ATOM     24  C   LIG d   1       4.813  -0.524  -9.250  0.00  0.00     0.174 A 
ATOM     25  C   LIG d   1       4.258   0.746  -9.322  0.00  0.00     0.208 A 
ATOM     26  C   LIG d   1       3.918   1.281 -10.560  0.00  0.00     0.170 A 
ATOM     27  O   LIG d   1       3.950   1.658  -8.352  0.00  0.00    -0.449 OA
ATOM     28  O   LIG d   1       3.397   2.528 -10.369  0.00  0.00    -0.453 OA
ATOM     29  C   LIG d   1       3.797   2.914  -9.040  0.00  0.00     0.233 C 
ATOM     30  H   LIG d   1       3.024   3.519  -8.567  0.00  0.00     0.117 H 
ATOM     31  H   LIG d   1       4.744   3.453  -9.068  0.00  0.00     0.117 H 
ATOM     32  H   LIG d   1       3.871   0.955 -12.671  0.00  0.00     0.066 H 
BRANCH  13  33
ATOM     33  C   LIG d   1       6.119  -4.693 -11.416  0.00  0.00    -0.042 C 
ATOM     34  H   LIG d   1       6.761  -4.687 -10.535  0.00  0.00     0.078 H 
ATOM     35  H   LIG d   1       5.405  -5.512 -11.340  0.00  0.00     0.078 H 
ATOM     36  H   LIG d   1       6.728  -4.823 -12.309  0.00  0.00     0.078 H 
ENDBRANCH  13  33
BRANCH  24  37
ATOM     37  O   LIG d   1       5.147  -1.050  -8.042  0.00  0.00    -0.491 OA
BRANCH  37  38
ATOM     38  C   LIG d   1       5.946  -0.239  -7.179  0.00  0.00     0.079 C 
ATOM     39  H   LIG d   1       5.933   0.791  -7.534  0.00  0.00     0.066 H 
ATOM     40  H   LIG d   1       5.544  -0.278  -6.167  0.00  0.00     0.066 H 
ATOM     41  H   LIG d   1       6.971  -0.609  -7.177  0.00  0.00     0.066 H 
ENDBRANCH  37  38
ENDBRANCH  24  37
ENDBRANCH   4  11
BRANCH   1  42
ATOM     42  C   LIG d   1       6.062  -4.652  -5.772  0.00  0.00     0.040 C 
ATOM     43  H   LIG d   1       7.108  -4.425  -5.978  0.00  0.00     0.053 H 
BRANCH  42  44
ATOM     44  C   LIG d   1       5.914  -6.146  -5.473  0.00  0.00    -0.044 C 
ATOM     45  H   LIG d   1       6.392  -6.723  -6.265  0.00  0.00     0.025 H 
ATOM     46  H   LIG d   1       6.389  -6.374  -4.519  0.00  0.00     0.025 H 
ATOM     47  H   LIG d   1       4.856  -6.403  -5.423  0.00  0.00     0.025 H 
ENDBRANCH  42  44
BRANCH  42  48
ATOM     48  C   LIG d   1       5.593  -3.842  -4.562  0.00  0.00    -0.028 C 
ATOM     49  H   LIG d   1       4.602  -3.433  -4.760  0.00  0.00     0.029 H 
ATOM     50  H   LIG d   1       5.551  -4.488  -3.685  0.00  0.00     0.029 H 
BRANCH  48  51
ATOM     51  C   LIG d   1       6.574  -2.696  -4.304  0.00  0.00    -0.026 C 
ATOM     52  H   LIG d   1       7.447  -3.078  -3.773  0.00  0.00     0.031 H 
ATOM     53  H   LIG d   1       6.887  -2.265  -5.255  0.00  0.00     0.031 H 
BRANCH  51  54
ATOM     54  C   LIG d   1       5.902  -1.637  -3.469  0.00  0.00    -0.047 A 
ATOM     55  C   LIG d   1       6.392  -0.345  -3.465  0.00  0.00    -0.059 A 
ATOM     56  C   LIG d   1       5.772   0.628  -2.702  0.00  0.00    -0.061 A 
ATOM     57  H   LIG d   1       7.257  -0.094  -4.062  0.00  0.00     0.062 H 
ATOM     58  C   LIG d   1       4.668   0.305  -1.936  0.00  0.00    -0.062 A 
ATOM     59  H   LIG d   1       6.153   1.638  -2.704  0.00  0.00     0.062 H 
ATOM     60  C   LIG d   1       4.181  -0.988  -1.937  0.00  0.00    -0.061 A 
ATOM     61  H   LIG d   1       4.185   1.064  -1.339  0.00  0.00     0.062 H 
ATOM     62  C   LIG d   1       4.797  -1.960  -2.703  0.00  0.00    -0.059 A 
ATOM     63  H   LIG d   1       3.317  -1.240  -1.338  0.00  0.00     0.062 H 
ATOM     64  H   LIG d   1       4.416  -2.971  -2.703  0.00  0.00     0.062 H 
ENDBRANCH  51  54
ENDBRANCH  48  51
ENDBRANCH  42  48
ENDBRANCH   1  42
TORSDOF 9
ENDMDL
MODEL 5
REMARK VINA RESULT:      -6.8      2.029      3.656
REMARK  9 active torsions:
REMARK  status: ('A' for Active; 'I' for Inactive)
REMARK    1  A    between atoms: C_1  and  C_2 
REMARK    2  A    between atoms: C_2  and  C_4 
REMARK    3  A    between atoms: C_2  and  N_12 
REMARK    4  A    between atoms: C_4  and  C_5 
REMARK    5  A    between atoms: C_5  and  C_6 
REMARK    6  A    between atoms: C_15  and  C_22 
REMARK    7  A    between atoms: C_29  and  O_30 
REMARK    8  A    between atoms: O_30  and  C_31 
REMARK    9  A    between atoms: N_37  and  C_38 
ROOT
ATOM      1  N   LIG d   1       6.844  -1.155  -5.277  0.00  0.00    -0.258 N 
ATOM      2  C   LIG d   1       6.893  -1.589  -6.551  0.00  0.00     0.265 A 
ATOM      3  O   LIG d   1       6.708  -2.766  -6.807  0.00  0.00    -0.267 OA
ATOM      4  C   LIG d   1       7.159  -0.674  -7.587  0.00  0.00     0.078 A 
ATOM      5  C   LIG d   1       7.362   0.637  -7.275  0.00  0.00    -0.020 A 
ATOM      6  N   LIG d   1       7.302   1.037  -5.965  0.00  0.00    -0.320 N 
ATOM      7  H   LIG d   1       7.446   1.969  -5.738  0.00  0.00     0.169 HD
ATOM      8  C   LIG d   1       7.042   0.146  -4.991  0.00  0.00     0.329 A 
ATOM      9  O   LIG d   1       6.989   0.519  -3.835  0.00  0.00    -0.246 OA
ATOM     10  O   LIG d   1       7.619   1.536  -8.249  0.00  0.00    -0.861 OA
ENDROOT
BRANCH   4  11
ATOM     11  C   LIG d   1       7.220  -1.137  -9.019  0.00  0.00     0.041 C 
ATOM     12  H   LIG d   1       7.461  -0.291  -9.661  0.00  0.00     0.096 H 
ATOM     13  N   LIG d   1       8.262  -2.160  -9.153  0.00  0.00     0.242 N 
ATOM     14  C   LIG d   1       8.224  -2.707 -10.518  0.00  0.00    -0.027 C 
ATOM     15  H   LIG d   1       8.097  -2.899  -8.487  0.00  0.00     0.204 HD
ATOM     16  C   LIG d   1       6.983  -3.592 -10.651  0.00  0.00     0.013 C 
ATOM     17  H   LIG d   1       9.118  -3.301 -10.699  0.00  0.00     0.082 H 
ATOM     18  H   LIG d   1       8.170  -1.891 -11.239  0.00  0.00     0.082 H 
ATOM     19  C   LIG d   1       5.765  -2.838 -10.182  0.00  0.00    -0.026 A 
ATOM     20  H   LIG d   1       7.111  -4.488 -10.045  0.00  0.00     0.036 H 
ATOM     21  H   LIG d   1       6.853  -3.878 -11.695  0.00  0.00     0.036 H 
ATOM     22  C   LIG d   1       5.877  -1.695  -9.418  0.00  0.00     0.054 A 
ATOM     23  C   LIG d   1       4.514  -3.318 -10.532  0.00  0.00    -0.012 A 
ATOM     24  C   LIG d   1       4.731  -1.029  -8.998  0.00  0.00     0.174 A 
ATOM     25  C   LIG d   1       3.476  -1.507  -9.346  0.00  0.00     0.208 A 
ATOM     26  C   LIG d   1       3.368  -2.659 -10.119  0.00  0.00     0.170 A 
ATOM     27  O   LIG d   1       2.220  -1.048  -9.068  0.00  0.00    -0.449 OA
ATOM     28  O   LIG d   1       2.045  -2.923 -10.326  0.00  0.00    -0.453 OA
ATOM     29  C   LIG d   1       1.354  -1.697 -10.018  0.00  0.00     0.233 C 
ATOM     30  H   LIG d   1       0.382  -1.907  -9.570  0.00  0.00     0.117 H 
ATOM     31  H   LIG d   1       1.241  -1.086 -10.914  0.00  0.00     0.117 H 
ATOM     32  H   LIG d   1       4.430  -4.212 -11.132  0.00  0.00     0.066 H 
BRANCH  13  33
ATOM     33  C   LIG d   1       9.578  -1.554  -8.905  0.00  0.00    -0.042 C 
ATOM     34  H   LIG d   1       9.660  -1.286  -7.851  0.00  0.00     0.078 H 
ATOM     35  H   LIG d   1      10.359  -2.269  -9.160  0.00  0.00     0.078 H 
ATOM     36  H   LIG d   1       9.688  -0.660  -9.517  0.00  0.00     0.078 H 
ENDBRANCH  13  33
BRANCH  24  37
ATOM     37  O   LIG d   1       4.842   0.096  -8.243  0.00  0.00    -0.491 OA
BRANCH  37  38
ATOM     38  C   LIG d   1       4.237   1.285  -8.757  0.00  0.00     0.079 C 
ATOM     39  H   LIG d   1       3.297   1.468  -8.236  0.00  0.00     0.066 H 
ATOM     40  H   LIG d   1       4.907   2.130  -8.602  0.00  0.00     0.066 H 
ATOM     41  H   LIG d   1       4.045   1.164  -9.822  0.00  0.00     0.066 H 
ENDBRANCH  37  38
ENDBRANCH  24  37
ENDBRANCH   4  11
BRANCH   1  42
ATOM     42  C   LIG d   1       6.567  -2.103  -4.196  0.00  0.00     0.040 C 
ATOM     43  H   LIG d   1       6.511  -1.568  -3.248  0.00  0.00     0.053 H 
BRANCH  42  44
ATOM     44  C   LIG d   1       7.687  -3.143  -4.130  0.00  0.00    -0.044 C 
ATOM     45  H   LIG d   1       8.341  -3.027  -4.995  0.00  0.00     0.025 H 
ATOM     46  H   LIG d   1       8.263  -3.000  -3.216  0.00  0.00     0.025 H 
ATOM     47  H   LIG d   1       7.255  -4.143  -4.134  0.00  0.00     0.025 H 
ENDBRANCH  42  44
BRANCH  42  48
ATOM     48  C   LIG d   1       5.235  -2.806  -4.464  0.00  0.00    -0.028 C 
ATOM     49  H   LIG d   1       4.760  -2.365  -5.341  0.00  0.00     0.029 H 
ATOM     50  H   LIG d   1       5.413  -3.867  -4.642  0.00  0.00     0.029 H 
BRANCH  48  51
ATOM     51  C   LIG d   1       4.317  -2.641  -3.250  0.00  0.00    -0.026 C 
ATOM     52  H   LIG d   1       3.365  -3.134  -3.445  0.00  0.00     0.031 H 
ATOM     53  H   LIG d   1       4.788  -3.089  -2.376  0.00  0.00     0.031 H 
BRANCH  51  54
ATOM     54  C   LIG d   1       4.080  -1.174  -2.997  0.00  0.00    -0.047 A 
ATOM     55  C   LIG d   1       3.399  -0.413  -3.928  0.00  0.00    -0.059 A 
ATOM     56  C   LIG d   1       3.177   0.931  -3.694  0.00  0.00    -0.061 A 
ATOM     57  H   LIG d   1       3.036  -0.870  -4.838  0.00  0.00     0.062 H 
ATOM     58  C   LIG d   1       3.644   1.517  -2.532  0.00  0.00    -0.062 A 
ATOM     59  H   LIG d   1       2.640   1.524  -4.420  0.00  0.00     0.062 H 
ATOM     60  C   LIG d   1       4.330   0.756  -1.603  0.00  0.00    -0.061 A 
ATOM     61  H   LIG d   1       3.474   2.567  -2.350  0.00  0.00     0.062 H 
ATOM     62  C   LIG d   1       4.548  -0.589  -1.835  0.00  0.00    -0.059 A 
ATOM     63  H   LIG d   1       4.696   1.214  -0.695  0.00  0.00     0.062 H 
ATOM     64  H   LIG d   1       5.084  -1.183  -1.109  0.00  0.00     0.062 H 
ENDBRANCH  51  54
ENDBRANCH  48  51
ENDBRANCH  42  48
ENDBRANCH   1  42
TORSDOF 9
ENDMDL
MODEL 6
REMARK VINA RESULT:      -6.8      2.302      4.043
REMARK  9 active torsions:
REMARK  status: ('A' for Active; 'I' for Inactive)
REMARK    1  A    between atoms: C_1  and  C_2 
REMARK    2  A    between atoms: C_2  and  C_4 
REMARK    3  A    between atoms: C_2  and  N_12 
REMARK    4  A    between atoms: C_4  and  C_5 
REMARK    5  A    between atoms: C_5  and  C_6 
REMARK    6  A    between atoms: C_15  and  C_22 
REMARK    7  A    between atoms: C_29  and  O_30 
REMARK    8  A    between atoms: O_30  and  C_31 
REMARK    9  A    between atoms: N_37  and  C_38 
ROOT
ATOM      1  N   LIG d   1       6.111  -4.011  -7.036  0.00  0.00    -0.258 N 
ATOM      2  C   LIG d   1       5.096  -3.709  -7.870  0.00  0.00     0.265 A 
ATOM      3  O   LIG d   1       3.982  -3.491  -7.427  0.00  0.00    -0.267 OA
ATOM      4  C   LIG d   1       5.331  -3.645  -9.255  0.00  0.00     0.078 A 
ATOM      5  C   LIG d   1       6.586  -3.893  -9.726  0.00  0.00    -0.020 A 
ATOM      6  N   LIG d   1       7.590  -4.196  -8.843  0.00  0.00    -0.320 N 
ATOM      7  H   LIG d   1       8.485  -4.373  -9.173  0.00  0.00     0.169 HD
ATOM      8  C   LIG d   1       7.344  -4.247  -7.521  0.00  0.00     0.329 A 
ATOM      9  O   LIG d   1       8.248  -4.513  -6.752  0.00  0.00    -0.246 OA
ATOM     10  O   LIG d   1       6.838  -3.839 -11.051  0.00  0.00    -0.861 OA
ENDROOT
BRANCH   4  11
ATOM     11  C   LIG d   1       4.211  -3.310 -10.206  0.00  0.00     0.041 C 
ATOM     12  H   LIG d   1       4.590  -3.324 -11.227  0.00  0.00     0.096 H 
ATOM     13  N   LIG d   1       3.146  -4.310 -10.071  0.00  0.00     0.242 N 
ATOM     14  C   LIG d   1       2.000  -3.903 -10.897  0.00  0.00    -0.027 C 
ATOM     15  H   LIG d   1       2.863  -4.372  -9.105  0.00  0.00     0.204 HD
ATOM     16  C   LIG d   1       1.315  -2.712 -10.224  0.00  0.00     0.013 C 
ATOM     17  H   LIG d   1       1.296  -4.730 -10.980  0.00  0.00     0.082 H 
ATOM     18  H   LIG d   1       2.347  -3.612 -11.888  0.00  0.00     0.082 H 
ATOM     19  C   LIG d   1       2.336  -1.651  -9.901  0.00  0.00    -0.026 A 
ATOM     20  H   LIG d   1       0.833  -3.044  -9.304  0.00  0.00     0.036 H 
ATOM     21  H   LIG d   1       0.563  -2.299 -10.896  0.00  0.00     0.036 H 
ATOM     22  C   LIG d   1       3.686  -1.933  -9.890  0.00  0.00     0.054 A 
ATOM     23  C   LIG d   1       1.892  -0.372  -9.608  0.00  0.00    -0.012 A 
ATOM     24  C   LIG d   1       4.599  -0.931  -9.581  0.00  0.00     0.174 A 
ATOM     25  C   LIG d   1       4.158   0.352  -9.287  0.00  0.00     0.208 A 
ATOM     26  C   LIG d   1       2.796   0.632  -9.301  0.00  0.00     0.170 A 
ATOM     27  O   LIG d   1       4.836   1.492  -8.959  0.00  0.00    -0.449 OA
ATOM     28  O   LIG d   1       2.617   1.947  -8.983  0.00  0.00    -0.453 OA
ATOM     29  C   LIG d   1       3.903   2.568  -9.173  0.00  0.00     0.233 C 
ATOM     30  H   LIG d   1       4.057   3.361  -8.441  0.00  0.00     0.117 H 
ATOM     31  H   LIG d   1       3.993   2.958 -10.187  0.00  0.00     0.117 H 
ATOM     32  H   LIG d   1       0.835  -0.155  -9.619  0.00  0.00     0.066 H 
BRANCH  13  33
ATOM     33  C   LIG d   1       3.640  -5.616 -10.528  0.00  0.00    -0.042 C 
ATOM     34  H   LIG d   1       3.362  -5.764 -11.572  0.00  0.00     0.078 H 
ATOM     35  H   LIG d   1       4.725  -5.647 -10.433  0.00  0.00     0.078 H 
ATOM     36  H   LIG d   1       3.199  -6.404  -9.919  0.00  0.00     0.078 H 
ENDBRANCH  13  33
BRANCH  24  37
ATOM     37  O   LIG d   1       5.930  -1.209  -9.568  0.00  0.00    -0.491 OA
BRANCH  37  38
ATOM     38  C   LIG d   1       6.763  -0.437 -10.435  0.00  0.00     0.079 C 
ATOM     39  H   LIG d   1       7.761  -0.877 -10.466  0.00  0.00     0.066 H 
ATOM     40  H   LIG d   1       6.338  -0.432 -11.439  0.00  0.00     0.066 H 
ATOM     41  H   LIG d   1       6.828   0.585 -10.063  0.00  0.00     0.066 H 
ENDBRANCH  37  38
ENDBRANCH  24  37
ENDBRANCH   4  11
BRANCH   1  42
ATOM     42  C   LIG d   1       5.871  -4.077  -5.593  0.00  0.00     0.040 C 
ATOM     43  H   LIG d   1       6.767  -4.445  -5.093  0.00  0.00     0.053 H 
BRANCH  42  44
ATOM     44  C   LIG d   1       4.704  -5.026  -5.313  0.00  0.00    -0.044 C 
ATOM     45  H   LIG d   1       4.276  -5.364  -6.257  0.00  0.00     0.025 H 
ATOM     46  H   LIG d   1       5.062  -5.886  -4.747  0.00  0.00     0.025 H 
ATOM     47  H   LIG d   1       3.942  -4.503  -4.736  0.00  0.00     0.025 H 
ENDBRANCH  42  44
BRANCH  42  48
ATOM     48  C   LIG d   1       5.530  -2.681  -5.069  0.00  0.00    -0.028 C 
ATOM     49  H   LIG d   1       6.446  -2.166  -4.782  0.00  0.00     0.029 H 
ATOM     50  H   LIG d   1       5.023  -2.114  -5.849  0.00  0.00     0.029 H 
BRANCH  48  51
ATOM     51  C   LIG d   1       4.612  -2.805  -3.850  0.00  0.00    -0.026 C 
ATOM     52  H   LIG d   1       3.699  -3.328  -4.135  0.00  0.00     0.031 H 
ATOM     53  H   LIG d   1       5.122  -3.364  -3.067  0.00  0.00     0.031 H 
BRANCH  51  54
ATOM     54  C   LIG d   1       4.264  -1.429  -3.341  0.00  0.00    -0.047 A 
ATOM     55  C   LIG d   1       3.447  -0.602  -4.088  0.00  0.00    -0.059 A 
ATOM     56  C   LIG d   1       3.125   0.658  -3.619  0.00  0.00    -0.061 A 
ATOM     57  H   LIG d   1       3.056  -0.942  -5.036  0.00  0.00     0.062 H 
ATOM     58  C   LIG d   1       3.628   1.094  -2.408  0.00  0.00    -0.062 A 
ATOM     59  H   LIG d   1       2.482   1.302  -4.200  0.00  0.00     0.062 H 
ATOM     60  C   LIG d   1       4.450   0.268  -1.664  0.00  0.00    -0.061 A 
ATOM     61  H   LIG d   1       3.379   2.079  -2.042  0.00  0.00     0.062 H 
ATOM     62  C   LIG d   1       4.769  -0.993  -2.130  0.00  0.00    -0.059 A 
ATOM     63  H   LIG d   1       4.843   0.609  -0.717  0.00  0.00     0.062 H 
ATOM     64  H   LIG d   1       5.411  -1.638  -1.548  0.00  0.00     0.062 H 
ENDBRANCH  51  54
ENDBRANCH  48  51
ENDBRANCH  42  48
ENDBRANCH   1  42
TORSDOF 9
ENDMDL
MODEL 7
REMARK VINA RESULT:      -6.6      2.818      4.066
REMARK  9 active torsions:
REMARK  status: ('A' for Active; 'I' for Inactive)
REMARK    1  A    between atoms: C_1  and  C_2 
REMARK    2  A    between atoms: C_2  and  C_4 
REMARK    3  A    between atoms: C_2  and  N_12 
REMARK    4  A    between atoms: C_4  and  C_5 
REMARK    5  A    between atoms: C_5  and  C_6 
REMARK    6  A    between atoms: C_15  and  C_22 
REMARK    7  A    between atoms: C_29  and  O_30 
REMARK    8  A    between atoms: O_30  and  C_31 
REMARK    9  A    between atoms: N_37  and  C_38 
ROOT
ATOM      1  N   LIG d   1       6.958  -2.449  -7.009  0.00  0.00    -0.258 N 
ATOM      2  C   LIG d   1       5.650  -2.137  -7.099  0.00  0.00     0.265 A 
ATOM      3  O   LIG d   1       4.980  -2.001  -6.090  0.00  0.00    -0.267 OA
ATOM      4  C   LIG d   1       5.063  -1.969  -8.366  0.00  0.00     0.078 A 
ATOM      5  C   LIG d   1       5.833  -2.126  -9.480  0.00  0.00    -0.020 A 
ATOM      6  N   LIG d   1       7.160  -2.443  -9.343  0.00  0.00    -0.320 N 
ATOM      7  H   LIG d   1       7.713  -2.556 -10.132  0.00  0.00     0.169 HD
ATOM      8  C   LIG d   1       7.703  -2.594  -8.121  0.00  0.00     0.329 A 
ATOM      9  O   LIG d   1       8.883  -2.871  -8.018  0.00  0.00    -0.246 OA
ATOM     10  O   LIG d   1       5.294  -1.971 -10.708  0.00  0.00    -0.861 OA
ENDROOT
BRANCH   4  11
ATOM     11  C   LIG d   1       3.601  -1.622  -8.491  0.00  0.00     0.041 C 
ATOM     12  H   LIG d   1       3.171  -1.516  -7.496  0.00  0.00     0.096 H 
ATOM     13  N   LIG d   1       3.466  -0.353  -9.215  0.00  0.00     0.242 N 
ATOM     14  C   LIG d   1       2.039  -0.090  -9.455  0.00  0.00    -0.027 C 
ATOM     15  H   LIG d   1       3.953  -0.414 -10.097  0.00  0.00     0.204 HD
ATOM     16  C   LIG d   1       1.544  -1.051 -10.536  0.00  0.00     0.013 C 
ATOM     17  H   LIG d   1       1.909   0.938  -9.793  0.00  0.00     0.082 H 
ATOM     18  H   LIG d   1       1.476  -0.251  -8.536  0.00  0.00     0.082 H 
ATOM     19  C   LIG d   1       1.927  -2.464 -10.178  0.00  0.00    -0.026 A 
ATOM     20  H   LIG d   1       1.994  -0.785 -11.493  0.00  0.00     0.036 H 
ATOM     21  H   LIG d   1       0.459  -0.979 -10.616  0.00  0.00     0.036 H 
ATOM     22  C   LIG d   1       2.890  -2.728  -9.226  0.00  0.00     0.054 A 
ATOM     23  C   LIG d   1       1.291  -3.509 -10.829  0.00  0.00    -0.012 A 
ATOM     24  C   LIG d   1       3.222  -4.045  -8.925  0.00  0.00     0.174 A 
ATOM     25  C   LIG d   1       2.588  -5.093  -9.576  0.00  0.00     0.208 A 
ATOM     26  C   LIG d   1       1.616  -4.822 -10.533  0.00  0.00     0.170 A 
ATOM     27  O   LIG d   1       2.727  -6.448  -9.466  0.00  0.00    -0.449 OA
ATOM     28  O   LIG d   1       1.144  -6.006 -11.025  0.00  0.00    -0.453 OA
ATOM     29  C   LIG d   1       1.545  -7.006 -10.069  0.00  0.00     0.233 C 
ATOM     30  H   LIG d   1       1.777  -7.945 -10.572  0.00  0.00     0.117 H 
ATOM     31  H   LIG d   1       0.765  -7.154  -9.321  0.00  0.00     0.117 H 
ATOM     32  H   LIG d   1       0.537  -3.298 -11.572  0.00  0.00     0.066 H 
BRANCH  13  33
ATOM     33  C   LIG d   1       4.037   0.735  -8.408  0.00  0.00    -0.042 C 
ATOM     34  H   LIG d   1       4.508   1.465  -9.067  0.00  0.00     0.078 H 
ATOM     35  H   LIG d   1       3.244   1.217  -7.838  0.00  0.00     0.078 H 
ATOM     36  H   LIG d   1       4.781   0.328  -7.725  0.00  0.00     0.078 H 
ENDBRANCH  13  33
BRANCH  24  37
ATOM     37  O   LIG d   1       4.173  -4.305  -7.989  0.00  0.00    -0.491 OA
BRANCH  37  38
ATOM     38  C   LIG d   1       3.786  -5.120  -6.880  0.00  0.00     0.079 C 
ATOM     39  H   LIG d   1       4.078  -4.631  -5.951  0.00  0.00     0.066 H 
ATOM     40  H   LIG d   1       2.705  -5.261  -6.891  0.00  0.00     0.066 H 
ATOM     41  H   LIG d   1       4.279  -6.089  -6.951  0.00  0.00     0.066 H 
ENDBRANCH  37  38
ENDBRANCH  24  37
ENDBRANCH   4  11
BRANCH   1  42
ATOM     42  C   LIG d   1       7.574  -2.624  -5.692  0.00  0.00     0.040 C 
ATOM     43  H   LIG d   1       8.618  -2.915  -5.815  0.00  0.00     0.053 H 
BRANCH  42  44
ATOM     44  C   LIG d   1       6.828  -3.714  -4.921  0.00  0.00    -0.044 C 
ATOM     45  H   LIG d   1       6.993  -3.580  -3.851  0.00  0.00     0.025 H 
ATOM     46  H   LIG d   1       5.761  -3.646  -5.135  0.00  0.00     0.025 H 
ATOM     47  H   LIG d   1       7.198  -4.693  -5.226  0.00  0.00     0.025 H 
ENDBRANCH  42  44
BRANCH  42  48
ATOM     48  C   LIG d   1       7.499  -1.308  -4.915  0.00  0.00    -0.028 C 
ATOM     49  H   LIG d   1       8.455  -0.789  -4.986  0.00  0.00     0.029 H 
ATOM     50  H   LIG d   1       6.713  -0.681  -5.337  0.00  0.00     0.029 H 
BRANCH  48  51
ATOM     51  C   LIG d   1       7.185  -1.601  -3.446  0.00  0.00    -0.026 C 
ATOM     52  H   LIG d   1       6.956  -2.660  -3.328  0.00  0.00     0.031 H 
ATOM     53  H   LIG d   1       8.048  -1.344  -2.832  0.00  0.00     0.031 H 
BRANCH  51  54
ATOM     54  C   LIG d   1       5.997  -0.779  -3.014  0.00  0.00    -0.047 A 
ATOM     55  C   LIG d   1       4.853  -1.406  -2.557  0.00  0.00    -0.059 A 
ATOM     56  C   LIG d   1       3.766  -0.652  -2.156  0.00  0.00    -0.061 A 
ATOM     57  H   LIG d   1       4.810  -2.484  -2.509  0.00  0.00     0.062 H 
ATOM     58  C   LIG d   1       3.819   0.728  -2.220  0.00  0.00    -0.062 A 
ATOM     59  H   LIG d   1       2.874  -1.142  -1.794  0.00  0.00     0.062 H 
ATOM     60  C   LIG d   1       4.962   1.353  -2.682  0.00  0.00    -0.061 A 
ATOM     61  H   LIG d   1       2.969   1.316  -1.910  0.00  0.00     0.062 H 
ATOM     62  C   LIG d   1       6.051   0.601  -3.080  0.00  0.00    -0.059 A 
ATOM     63  H   LIG d   1       5.004   2.432  -2.733  0.00  0.00     0.062 H 
ATOM     64  H   LIG d   1       6.944   1.090  -3.440  0.00  0.00     0.062 H 
ENDBRANCH  51  54
ENDBRANCH  48  51
ENDBRANCH  42  48
ENDBRANCH   1  42
TORSDOF 9
ENDMDL
MODEL 8
REMARK VINA RESULT:      -6.6      2.059      4.979
REMARK  9 active torsions:
REMARK  status: ('A' for Active; 'I' for Inactive)
REMARK    1  A    between atoms: C_1  and  C_2 
REMARK    2  A    between atoms: C_2  and  C_4 
REMARK    3  A    between atoms: C_2  and  N_12 
REMARK    4  A    between atoms: C_4  and  C_5 
REMARK    5  A    between atoms: C_5  and  C_6 
REMARK    6  A    between atoms: C_15  and  C_22 
REMARK    7  A    between atoms: C_29  and  O_30 
REMARK    8  A    between atoms: O_30  and  C_31 
REMARK    9  A    between atoms: N_37  and  C_38 
ROOT
ATOM      1  N   LIG d   1       4.132   0.224  -8.659  0.00  0.00    -0.258 N 
ATOM      2  C   LIG d   1       5.357   0.312  -8.105  0.00  0.00     0.265 A 
ATOM      3  O   LIG d   1       5.478   0.557  -6.917  0.00  0.00    -0.267 OA
ATOM      4  C   LIG d   1       6.496   0.119  -8.907  0.00  0.00     0.078 A 
ATOM      5  C   LIG d   1       6.335  -0.153 -10.233  0.00  0.00    -0.020 A 
ATOM      6  N   LIG d   1       5.069  -0.235 -10.756  0.00  0.00    -0.320 N 
ATOM      7  H   LIG d   1       4.949  -0.429 -11.698  0.00  0.00     0.169 HD
ATOM      8  C   LIG d   1       3.993  -0.051  -9.969  0.00  0.00     0.329 A 
ATOM      9  O   LIG d   1       2.879  -0.132 -10.448  0.00  0.00    -0.246 OA
ATOM     10  O   LIG d   1       7.411  -0.343 -11.025  0.00  0.00    -0.861 OA
ENDROOT
BRANCH   4  11
ATOM     11  C   LIG d   1       7.877   0.214  -8.310  0.00  0.00     0.041 C 
ATOM     12  H   LIG d   1       8.617   0.012  -9.083  0.00  0.00     0.096 H 
ATOM     13  N   LIG d   1       8.084   1.566  -7.783  0.00  0.00     0.242 N 
ATOM     14  C   LIG d   1       9.374   1.614  -7.079  0.00  0.00    -0.027 C 
ATOM     15  H   LIG d   1       7.340   1.796  -7.141  0.00  0.00     0.204 HD
ATOM     16  C   LIG d   1       9.238   0.847  -5.763  0.00  0.00     0.013 C 
ATOM     17  H   LIG d   1       9.641   2.650  -6.873  0.00  0.00     0.082 H 
ATOM     18  H   LIG d   1      10.145   1.149  -7.695  0.00  0.00     0.082 H 
ATOM     19  C   LIG d   1       8.652  -0.516  -6.024  0.00  0.00    -0.026 A 
ATOM     20  H   LIG d   1       8.585   1.400  -5.087  0.00  0.00     0.036 H 
ATOM     21  H   LIG d   1      10.221   0.738  -5.304  0.00  0.00     0.036 H 
ATOM     22  C   LIG d   1       8.014  -0.809  -7.212  0.00  0.00     0.054 A 
ATOM     23  C   LIG d   1       8.761  -1.484  -5.039  0.00  0.00    -0.012 A 
ATOM     24  C   LIG d   1       7.478  -2.076  -7.415  0.00  0.00     0.174 A 
ATOM     25  C   LIG d   1       7.586  -3.048  -6.430  0.00  0.00     0.208 A 
ATOM     26  C   LIG d   1       8.232  -2.749  -5.236  0.00  0.00     0.170 A 
ATOM     27  O   LIG d   1       7.156  -4.344  -6.383  0.00  0.00    -0.449 OA
ATOM     28  O   LIG d   1       8.208  -3.857  -4.438  0.00  0.00    -0.453 OA
ATOM     29  C   LIG d   1       7.901  -4.957  -5.314  0.00  0.00     0.233 C 
ATOM     30  H   LIG d   1       7.293  -5.700  -4.799  0.00  0.00     0.117 H 
ATOM     31  H   LIG d   1       8.818  -5.409  -5.696  0.00  0.00     0.117 H 
ATOM     32  H   LIG d   1       9.262  -1.252  -4.112  0.00  0.00     0.066 H 
BRANCH  13  33
ATOM     33  C   LIG d   1       8.094   2.529  -8.893  0.00  0.00    -0.042 C 
ATOM     34  H   LIG d   1       7.379   2.214  -9.653  0.00  0.00     0.078 H 
ATOM     35  H   LIG d   1       7.818   3.515  -8.520  0.00  0.00     0.078 H 
ATOM     36  H   LIG d   1       9.092   2.572  -9.327  0.00  0.00     0.078 H 
ENDBRANCH  13  33
BRANCH  24  37
ATOM     37  O   LIG d   1       6.848  -2.364  -8.585  0.00  0.00    -0.491 OA
BRANCH  37  38
ATOM     38  C   LIG d   1       7.397  -3.420  -9.376  0.00  0.00     0.079 C 
ATOM     39  H   LIG d   1       7.796  -3.009 -10.303  0.00  0.00     0.066 H 
ATOM     40  H   LIG d   1       8.197  -3.911  -8.823  0.00  0.00     0.066 H 
ATOM     41  H   LIG d   1       6.617  -4.145  -9.606  0.00  0.00     0.066 H 
ENDBRANCH  37  38
ENDBRANCH  24  37
ENDBRANCH   4  11
BRANCH   1  42
ATOM     42  C   LIG d   1       2.942   0.423  -7.827  0.00  0.00     0.040 C 
ATOM     43  H   LIG d   1       2.071   0.012  -8.336  0.00  0.00     0.053 H 
BRANCH  42  44
ATOM     44  C   LIG d   1       2.734   1.920  -7.586  0.00  0.00    -0.044 C 
ATOM     45  H   LIG d   1       3.267   2.219  -6.683  0.00  0.00     0.025 H 
ATOM     46  H   LIG d   1       3.116   2.482  -8.437  0.00  0.00     0.025 H 
ATOM     47  H   LIG d   1       1.670   2.123  -7.463  0.00  0.00     0.025 H 
ENDBRANCH  42  44
BRANCH  42  48
ATOM     48  C   LIG d   1       3.134  -0.287  -6.486  0.00  0.00    -0.028 C 
ATOM     49  H   LIG d   1       2.680  -1.277  -6.531  0.00  0.00     0.029 H 
ATOM     50  H   LIG d   1       4.198  -0.384  -6.274  0.00  0.00     0.029 H 
BRANCH  48  51
ATOM     51  C   LIG d   1       2.466   0.529  -5.377  0.00  0.00    -0.026 C 
ATOM     52  H   LIG d   1       2.561   1.592  -5.601  0.00  0.00     0.031 H 
ATOM     53  H   LIG d   1       1.411   0.263  -5.315  0.00  0.00     0.031 H 
BRANCH  51  54
ATOM     54  C   LIG d   1       3.138   0.232  -4.061  0.00  0.00    -0.047 A 
ATOM     55  C   LIG d   1       3.299  -1.076  -3.647  0.00  0.00    -0.059 A 
ATOM     56  C   LIG d   1       3.920  -1.348  -2.441  0.00  0.00    -0.061 A 
ATOM     57  H   LIG d   1       2.945  -1.887  -4.267  0.00  0.00     0.062 H 
ATOM     58  C   LIG d   1       4.370  -0.311  -1.646  0.00  0.00    -0.062 A 
ATOM     59  H   LIG d   1       4.050  -2.371  -2.121  0.00  0.00     0.062 H 
ATOM     60  C   LIG d   1       4.204   0.997  -2.058  0.00  0.00    -0.061 A 
ATOM     61  H   LIG d   1       4.852  -0.523  -0.704  0.00  0.00     0.062 H 
ATOM     62  C   LIG d   1       3.587   1.270  -3.265  0.00  0.00    -0.059 A 
ATOM     63  H   LIG d   1       4.555   1.808  -1.437  0.00  0.00     0.062 H 
ATOM     64  H   LIG d   1       3.457   2.293  -3.587  0.00  0.00     0.062 H 
ENDBRANCH  51  54
ENDBRANCH  48  51
ENDBRANCH  42  48
ENDBRANCH   1  42
TORSDOF 9
ENDMDL
MODEL 9
REMARK VINA RESULT:      -6.5      5.761      8.485
REMARK  9 active torsions:
REMARK  status: ('A' for Active; 'I' for Inactive)
REMARK    1  A    between atoms: C_1  and  C_2 
REMARK    2  A    between atoms: C_2  and  C_4 
REMARK    3  A    between atoms: C_2  and  N_12 
REMARK    4  A    between atoms: C_4  and  C_5 
REMARK    5  A    between atoms: C_5  and  C_6 
REMARK    6  A    between atoms: C_15  and  C_22 
REMARK    7  A    between atoms: C_29  and  O_30 
REMARK    8  A    between atoms: O_30  and  C_31 
REMARK    9  A    between atoms: N_37  and  C_38 
ROOT
ATOM      1  N   LIG d   1       9.842   1.445  -5.789  0.00  0.00    -0.258 N 
ATOM      2  C   LIG d   1       9.798   2.790  -5.719  0.00  0.00     0.265 A 
ATOM      3  O   LIG d   1       8.754   3.358  -5.449  0.00  0.00    -0.267 OA
ATOM      4  C   LIG d   1      10.966   3.536  -5.960  0.00  0.00     0.078 A 
ATOM      5  C   LIG d   1      12.122   2.879  -6.260  0.00  0.00    -0.020 A 
ATOM      6  N   LIG d   1      12.122   1.508  -6.320  0.00  0.00    -0.320 N 
ATOM      7  H   LIG d   1      12.942   1.035  -6.533  0.00  0.00     0.169 HD
ATOM      8  C   LIG d   1      10.994   0.815  -6.081  0.00  0.00     0.329 A 
ATOM      9  O   LIG d   1      11.014  -0.400  -6.135  0.00  0.00    -0.246 OA
ATOM     10  O   LIG d   1      13.257   3.570  -6.496  0.00  0.00    -0.861 OA
ENDROOT
BRANCH   4  11
ATOM     11  C   LIG d   1      10.941   5.041  -5.888  0.00  0.00     0.041 C 
ATOM     12  H   LIG d   1      11.917   5.431  -6.175  0.00  0.00     0.096 H 
ATOM     13  N   LIG d   1       9.924   5.552  -6.813  0.00  0.00     0.242 N 
ATOM     14  C   LIG d   1       9.806   7.008  -6.639  0.00  0.00    -0.027 C 
ATOM     15  H   LIG d   1       9.037   5.114  -6.615  0.00  0.00     0.204 HD
ATOM     16  C   LIG d   1       9.100   7.282  -5.311  0.00  0.00     0.013 C 
ATOM     17  H   LIG d   1       9.223   7.429  -7.457  0.00  0.00     0.082 H 
ATOM     18  H   LIG d   1      10.800   7.457  -6.624  0.00  0.00     0.082 H 
ATOM     19  C   LIG d   1       9.776   6.513  -4.204  0.00  0.00    -0.026 A 
ATOM     20  H   LIG d   1       8.058   6.972  -5.384  0.00  0.00     0.036 H 
ATOM     21  H   LIG d   1       9.143   8.349  -5.090  0.00  0.00     0.036 H 
ATOM     22  C   LIG d   1      10.632   5.466  -4.476  0.00  0.00     0.054 A 
ATOM     23  C   LIG d   1       9.519   6.877  -2.892  0.00  0.00    -0.012 A 
ATOM     24  C   LIG d   1      11.233   4.775  -3.429  0.00  0.00     0.174 A 
ATOM     25  C   LIG d   1      10.978   5.136  -2.114  0.00  0.00     0.208 A 
ATOM     26  C   LIG d   1      10.116   6.194  -1.845  0.00  0.00     0.170 A 
ATOM     27  O   LIG d   1      11.433   4.631  -0.929  0.00  0.00    -0.449 OA
ATOM     28  O   LIG d   1      10.029   6.354  -0.492  0.00  0.00    -0.453 OA
ATOM     29  C   LIG d   1      11.161   5.649   0.053  0.00  0.00     0.233 C 
ATOM     30  H   LIG d   1      10.906   5.198   1.012  0.00  0.00     0.117 H 
ATOM     31  H   LIG d   1      12.015   6.319   0.158  0.00  0.00     0.117 H 
ATOM     32  H   LIG d   1       8.851   7.698  -2.684  0.00  0.00     0.066 H 
BRANCH  13  33
ATOM     33  C   LIG d   1      10.325   5.255  -8.196  0.00  0.00    -0.042 C 
ATOM     34  H   LIG d   1      11.374   5.518  -8.333  0.00  0.00     0.078 H 
ATOM     35  H   LIG d   1      10.188   4.192  -8.391  0.00  0.00     0.078 H 
ATOM     36  H   LIG d   1       9.711   5.833  -8.884  0.00  0.00     0.078 H 
ENDBRANCH  13  33
BRANCH  24  37
ATOM     37  O   LIG d   1      12.075   3.741  -3.696  0.00  0.00    -0.491 OA
BRANCH  37  38
ATOM     38  C   LIG d   1      13.412   3.849  -3.203  0.00  0.00     0.079 C 
ATOM     39  H   LIG d   1      13.970   2.951  -3.470  0.00  0.00     0.066 H 
ATOM     40  H   LIG d   1      13.894   4.720  -3.644  0.00  0.00     0.066 H 
ATOM     41  H   LIG d   1      13.392   3.955  -2.119  0.00  0.00     0.066 H 
ENDBRANCH  37  38
ENDBRANCH  24  37
ENDBRANCH   4  11
BRANCH   1  42
ATOM     42  C   LIG d   1       8.628   0.665  -5.538  0.00  0.00     0.040 C 
ATOM     43  H   LIG d   1       8.854  -0.398  -5.629  0.00  0.00     0.053 H 
BRANCH  42  44
ATOM     44  C   LIG d   1       7.556   1.047  -6.560  0.00  0.00    -0.044 C 
ATOM     45  H   LIG d   1       6.572   0.781  -6.171  0.00  0.00     0.025 H 
ATOM     46  H   LIG d   1       7.596   2.121  -6.744  0.00  0.00     0.025 H 
ATOM     47  H   LIG d   1       7.735   0.511  -7.492  0.00  0.00     0.025 H 
ENDBRANCH  42  44
BRANCH  42  48
ATOM     48  C   LIG d   1       8.116   0.959  -4.127  0.00  0.00    -0.028 C 
ATOM     49  H   LIG d   1       8.940   1.308  -3.505  0.00  0.00     0.029 H 
ATOM     50  H   LIG d   1       7.345   1.728  -4.173  0.00  0.00     0.029 H 
BRANCH  48  51
ATOM     51  C   LIG d   1       7.526  -0.318  -3.522  0.00  0.00    -0.026 C 
ATOM     52  H   LIG d   1       7.541  -1.113  -4.268  0.00  0.00     0.031 H 
ATOM     53  H   LIG d   1       8.119  -0.618  -2.659  0.00  0.00     0.031 H 
BRANCH  51  54
ATOM     54  C   LIG d   1       6.105  -0.060  -3.092  0.00  0.00    -0.047 A 
ATOM     55  C   LIG d   1       5.630   1.236  -3.015  0.00  0.00    -0.059 A 
ATOM     56  C   LIG d   1       4.325   1.472  -2.624  0.00  0.00    -0.061 A 
ATOM     57  H   LIG d   1       6.278   2.064  -3.264  0.00  0.00     0.062 H 
ATOM     58  C   LIG d   1       3.498   0.412  -2.301  0.00  0.00    -0.062 A 
ATOM     59  H   LIG d   1       3.953   2.484  -2.569  0.00  0.00     0.062 H 
ATOM     60  C   LIG d   1       3.975  -0.883  -2.373  0.00  0.00    -0.061 A 
ATOM     61  H   LIG d   1       2.480   0.596  -1.994  0.00  0.00     0.062 H 
ATOM     62  C   LIG d   1       5.279  -1.120  -2.768  0.00  0.00    -0.059 A 
ATOM     63  H   LIG d   1       3.329  -1.711  -2.121  0.00  0.00     0.062 H 
ATOM     64  H   LIG d   1       5.651  -2.132  -2.824  0.00  0.00     0.062 H 
ENDBRANCH  51  54
ENDBRANCH  48  51
ENDBRANCH  42  48
ENDBRANCH   1  42
TORSDOF 9
ENDMDL
