MODEL 1
REMARK VINA RESULT:      -6.4      0.000      0.000
REMARK  8 active torsions:
REMARK  status: ('A' for Active; 'I' for Inactive)
REMARK    1  A    between atoms: C_4  and  N_7 
REMARK       I    between atoms: N_7  and  C_8 
REMARK    2  A    between atoms: C_8  and  C_10 
REMARK    3  A    between atoms: C_15  and  N_16 
REMARK       I    between atoms: N_16  and  C_17 
REMARK    4  A    between atoms: C_17  and  C_19 
REMARK    5  A    between atoms: C_19  and  C_20 
REMARK    6  A    between atoms: C_20  and  C_21 
REMARK    7  A    between atoms: C_21  and  C_22 
REMARK    8  A    between atoms: C_22  and  C_23 
ROOT
ATOM      1  C   LIG d   1       3.222  -0.586  -7.768  0.00  0.00     0.058 A 
ATOM      2  C   LIG d   1       2.607   0.457  -8.464  0.00  0.00    -0.048 A 
ATOM      3  C   LIG d   1       2.119   0.242  -9.734  0.00  0.00    -0.061 A 
ATOM      4  C   LIG d   1       2.224  -1.009 -10.322  0.00  0.00    -0.060 A 
ATOM      5  C   LIG d   1       2.824  -2.050  -9.644  0.00  0.00    -0.040 A 
ATOM      6  C   LIG d   1       3.326  -1.851  -8.365  0.00  0.00     0.046 A 
ATOM      7  H   LIG d   1       2.520   1.433  -8.009  0.00  0.00     0.063 H 
ATOM      8  H   LIG d   1       1.647   1.051 -10.273  0.00  0.00     0.062 H 
ATOM      9  H   LIG d   1       1.835  -1.169 -11.316  0.00  0.00     0.062 H 
ATOM     10  H   LIG d   1       2.902  -3.023 -10.109  0.00  0.00     0.064 H 
ENDROOT
BRANCH   6  11
ATOM     11  N   LIG d   1       3.931  -2.902  -7.679  0.00  0.00    -0.285 N 
ATOM     12  C   LIG d   1       5.246  -3.147  -7.843  0.00  0.00     0.217 C 
ATOM     13  O   LIG d   1       5.923  -2.395  -8.511  0.00  0.00    -0.276 OA
ATOM     14  H   LIG d   1       3.405  -3.458  -7.082  0.00  0.00     0.155 HD
BRANCH  12  15
ATOM     15  C   LIG d   1       5.875  -4.355  -7.197  0.00  0.00     0.024 C 
ATOM     16  H   LIG d   1       5.103  -4.943  -6.700  0.00  0.00     0.036 H 
ATOM     17  H   LIG d   1       6.359  -4.964  -7.961  0.00  0.00     0.036 H 
BRANCH  15  18
ATOM     18  C   LIG d   1       6.914  -3.901  -6.171  0.00  0.00    -0.045 C 
ATOM     19  H   LIG d   1       7.533  -4.749  -5.881  0.00  0.00     0.027 H 
ATOM     20  H   LIG d   1       7.542  -3.125  -6.609  0.00  0.00     0.027 H 
BRANCH  18  21
ATOM     21  C   LIG d   1       6.203  -3.343  -4.937  0.00  0.00    -0.052 C 
ATOM     22  H   LIG d   1       5.418  -2.654  -5.249  0.00  0.00     0.027 H 
ATOM     23  H   LIG d   1       5.761  -4.163  -4.371  0.00  0.00     0.027 H 
BRANCH  21  24
ATOM     24  C   LIG d   1       7.211  -2.603  -4.057  0.00  0.00    -0.043 C 
ATOM     25  H   LIG d   1       6.709  -2.227  -3.166  0.00  0.00     0.027 H 
ATOM     26  H   LIG d   1       8.008  -3.287  -3.763  0.00  0.00     0.027 H 
BRANCH  24  27
ATOM     27  C   LIG d   1       7.808  -1.431  -4.839  0.00  0.00     0.003 C 
ATOM     28 BR   LIG d   1       7.418   0.251  -3.898  0.00  0.00    -0.092 Br
ATOM     29  H   LIG d   1       8.887  -1.560  -4.920  0.00  0.00     0.038 H 
ATOM     30  H   LIG d   1       7.369  -1.400  -5.836  0.00  0.00     0.038 H 
ENDBRANCH  24  27
ENDBRANCH  21  24
ENDBRANCH  18  21
ENDBRANCH  15  18
ENDBRANCH  12  15
ENDBRANCH   6  11
BRANCH   1  31
ATOM     31  C   LIG d   1       3.751  -0.362  -6.409  0.00  0.00     0.250 C 
ATOM     32  N   LIG d   1       2.947  -0.517  -5.339  0.00  0.00    -0.281 N 
ATOM     33  H   LIG d   1       2.042  -0.849  -5.456  0.00  0.00     0.155 HD
ATOM     34  O   LIG d   1       4.912  -0.036  -6.254  0.00  0.00    -0.270 OA
BRANCH  32  35
ATOM     35  C   LIG d   1       3.414  -0.200  -4.060  0.00  0.00     0.034 A 
ATOM     36  C   LIG d   1       3.432   1.123  -3.634  0.00  0.00    -0.041 A 
ATOM     37  C   LIG d   1       3.894   1.434  -2.370  0.00  0.00    -0.060 A 
ATOM     38  H   LIG d   1       3.085   1.907  -4.291  0.00  0.00     0.064 H 
ATOM     39  C   LIG d   1       4.340   0.430  -1.530  0.00  0.00    -0.062 A 
ATOM     40  H   LIG d   1       3.908   2.461  -2.039  0.00  0.00     0.062 H 
ATOM     41  C   LIG d   1       4.323  -0.887  -1.951  0.00  0.00    -0.060 A 
ATOM     42  H   LIG d   1       4.695   0.676  -0.540  0.00  0.00     0.062 H 
ATOM     43  C   LIG d   1       3.862  -1.204  -3.213  0.00  0.00    -0.041 A 
ATOM     44  H   LIG d   1       4.671  -1.669  -1.291  0.00  0.00     0.062 H 
ATOM     45  H   LIG d   1       3.849  -2.234  -3.541  0.00  0.00     0.064 H 
ENDBRANCH  32  35
ENDBRANCH   1  31
TORSDOF 8
ENDMDL
MODEL 2
REMARK VINA RESULT:      -6.4      3.040      5.849
REMARK  8 active torsions:
REMARK  status: ('A' for Active; 'I' for Inactive)
REMARK    1  A    between atoms: C_4  and  N_7 
REMARK       I    between atoms: N_7  and  C_8 
REMARK    2  A    between atoms: C_8  and  C_10 
REMARK    3  A    between atoms: C_15  and  N_16 
REMARK       I    between atoms: N_16  and  C_17 
REMARK    4  A    between atoms: C_17  and  C_19 
REMARK    5  A    between atoms: C_19  and  C_20 
REMARK    6  A    between atoms: C_20  and  C_21 
REMARK    7  A    between atoms: C_21  and  C_22 
REMARK    8  A    between atoms: C_22  and  C_23 
ROOT
ATOM      1  C   LIG d   1       4.291  -0.319  -4.243  0.00  0.00     0.058 A 
ATOM      2  C   LIG d   1       4.463   0.733  -3.341  0.00  0.00    -0.048 A 
ATOM      3  C   LIG d   1       4.509   0.477  -1.988  0.00  0.00    -0.061 A 
ATOM      4  C   LIG d   1       4.396  -0.821  -1.516  0.00  0.00    -0.060 A 
ATOM      5  C   LIG d   1       4.231  -1.871  -2.397  0.00  0.00    -0.040 A 
ATOM      6  C   LIG d   1       4.178  -1.632  -3.763  0.00  0.00     0.046 A 
ATOM      7  H   LIG d   1       4.555   1.746  -3.703  0.00  0.00     0.063 H 
ATOM      8  H   LIG d   1       4.638   1.293  -1.291  0.00  0.00     0.062 H 
ATOM      9  H   LIG d   1       4.436  -1.012  -0.455  0.00  0.00     0.062 H 
ATOM     10  H   LIG d   1       4.144  -2.881  -2.021  0.00  0.00     0.064 H 
ENDROOT
BRANCH   6  11
ATOM     11  N   LIG d   1       4.013  -2.691  -4.653  0.00  0.00    -0.285 N 
ATOM     12  C   LIG d   1       5.066  -3.464  -4.985  0.00  0.00     0.217 C 
ATOM     13  O   LIG d   1       6.135  -3.299  -4.437  0.00  0.00    -0.276 OA
ATOM     14  H   LIG d   1       3.138  -2.873  -5.034  0.00  0.00     0.155 HD
BRANCH  12  15
ATOM     15  C   LIG d   1       4.915  -4.533  -6.036  0.00  0.00     0.024 C 
ATOM     16  H   LIG d   1       4.145  -4.236  -6.748  0.00  0.00     0.036 H 
ATOM     17  H   LIG d   1       5.862  -4.662  -6.560  0.00  0.00     0.036 H 
BRANCH  15  18
ATOM     18  C   LIG d   1       4.516  -5.851  -5.371  0.00  0.00    -0.045 C 
ATOM     19  H   LIG d   1       4.892  -5.871  -4.349  0.00  0.00     0.027 H 
ATOM     20  H   LIG d   1       3.429  -5.939  -5.361  0.00  0.00     0.027 H 
BRANCH  18  21
ATOM     21  C   LIG d   1       5.112  -7.020  -6.156  0.00  0.00    -0.052 C 
ATOM     22  H   LIG d   1       4.359  -7.429  -6.830  0.00  0.00     0.027 H 
ATOM     23  H   LIG d   1       5.967  -6.670  -6.736  0.00  0.00     0.027 H 
BRANCH  21  24
ATOM     24  C   LIG d   1       5.570  -8.109  -5.184  0.00  0.00    -0.043 C 
ATOM     25  H   LIG d   1       6.614  -8.353  -5.377  0.00  0.00     0.027 H 
ATOM     26  H   LIG d   1       5.465  -7.748  -4.160  0.00  0.00     0.027 H 
BRANCH  24  27
ATOM     27  C   LIG d   1       4.709  -9.359  -5.375  0.00  0.00     0.003 C 
ATOM     28 BR   LIG d   1       4.068  -9.985  -3.624  0.00  0.00    -0.092 Br
ATOM     29  H   LIG d   1       3.856  -9.118  -6.009  0.00  0.00     0.038 H 
ATOM     30  H   LIG d   1       5.304 -10.141  -5.845  0.00  0.00     0.038 H 
ENDBRANCH  24  27
ENDBRANCH  21  24
ENDBRANCH  18  21
ENDBRANCH  15  18
ENDBRANCH  12  15
ENDBRANCH   6  11
BRANCH   1  31
ATOM     31  C   LIG d   1       4.237  -0.052  -5.693  0.00  0.00     0.250 C 
ATOM     32  N   LIG d   1       3.082   0.347  -6.262  0.00  0.00    -0.281 N 
ATOM     33  H   LIG d   1       2.307   0.532  -5.708  0.00  0.00     0.155 HD
ATOM     34  O   LIG d   1       5.233  -0.194  -6.376  0.00  0.00    -0.270 OA
BRANCH  32  35
ATOM     35  C   LIG d   1       3.000   0.494  -7.649  0.00  0.00     0.034 A 
ATOM     36  C   LIG d   1       3.306   1.715  -8.239  0.00  0.00    -0.041 A 
ATOM     37  C   LIG d   1       3.224   1.857  -9.611  0.00  0.00    -0.060 A 
ATOM     38  H   LIG d   1       3.607   2.552  -7.626  0.00  0.00     0.064 H 
ATOM     39  C   LIG d   1       2.838   0.787 -10.397  0.00  0.00    -0.062 A 
ATOM     40  H   LIG d   1       3.462   2.805 -10.069  0.00  0.00     0.062 H 
ATOM     41  C   LIG d   1       2.533  -0.429  -9.813  0.00  0.00    -0.060 A 
ATOM     42  H   LIG d   1       2.780   0.900 -11.469  0.00  0.00     0.062 H 
ATOM     43  C   LIG d   1       2.613  -0.578  -8.442  0.00  0.00    -0.041 A 
ATOM     44  H   LIG d   1       2.232  -1.263 -10.429  0.00  0.00     0.062 H 
ATOM     45  H   LIG d   1       2.376  -1.529  -7.987  0.00  0.00     0.064 H 
ENDBRANCH  32  35
ENDBRANCH   1  31
TORSDOF 8
ENDMDL
MODEL 3
REMARK VINA RESULT:      -6.4      1.957      6.105
REMARK  8 active torsions:
REMARK  status: ('A' for Active; 'I' for Inactive)
REMARK    1  A    between atoms: C_4  and  N_7 
REMARK       I    between atoms: N_7  and  C_8 
REMARK    2  A    between atoms: C_8  and  C_10 
REMARK    3  A    between atoms: C_15  and  N_16 
REMARK       I    between atoms: N_16  and  C_17 
REMARK    4  A    between atoms: C_17  and  C_19 
REMARK    5  A    between atoms: C_19  and  C_20 
REMARK    6  A    between atoms: C_20  and  C_21 
REMARK    7  A    between atoms: C_21  and  C_22 
REMARK    8  A    between atoms: C_22  and  C_23 
ROOT
ATOM      1  C   LIG d   1       4.433  -1.065  -3.387  0.00  0.00     0.058 A 
ATOM      2  C   LIG d   1       4.900  -0.658  -2.135  0.00  0.00    -0.048 A 
ATOM      3  C   LIG d   1       4.513   0.559  -1.619  0.00  0.00    -0.061 A 
ATOM      4  C   LIG d   1       3.652   1.379  -2.331  0.00  0.00    -0.060 A 
ATOM      5  C   LIG d   1       3.178   0.988  -3.567  0.00  0.00    -0.040 A 
ATOM      6  C   LIG d   1       3.562  -0.233  -4.105  0.00  0.00     0.046 A 
ATOM      7  H   LIG d   1       5.568  -1.296  -1.575  0.00  0.00     0.063 H 
ATOM      8  H   LIG d   1       4.878   0.873  -0.652  0.00  0.00     0.062 H 
ATOM      9  H   LIG d   1       3.351   2.329  -1.917  0.00  0.00     0.062 H 
ATOM     10  H   LIG d   1       2.507   1.633  -4.116  0.00  0.00     0.064 H 
ENDROOT
BRANCH   6  11
ATOM     11  N   LIG d   1       3.083  -0.629  -5.352  0.00  0.00    -0.285 N 
ATOM     12  C   LIG d   1       3.785  -0.342  -6.466  0.00  0.00     0.217 C 
ATOM     13  O   LIG d   1       4.878   0.174  -6.377  0.00  0.00    -0.276 OA
ATOM     14  H   LIG d   1       2.244  -1.112  -5.419  0.00  0.00     0.155 HD
BRANCH  12  15
ATOM     15  C   LIG d   1       3.211  -0.663  -7.823  0.00  0.00     0.024 C 
ATOM     16  H   LIG d   1       3.977  -1.136  -8.438  0.00  0.00     0.036 H 
ATOM     17  H   LIG d   1       2.366  -1.342  -7.708  0.00  0.00     0.036 H 
BRANCH  15  18
ATOM     18  C   LIG d   1       2.740   0.628  -8.496  0.00  0.00    -0.045 C 
ATOM     19  H   LIG d   1       1.688   0.795  -8.267  0.00  0.00     0.027 H 
ATOM     20  H   LIG d   1       3.331   1.466  -8.126  0.00  0.00     0.027 H 
BRANCH  18  21
ATOM     21  C   LIG d   1       2.920   0.508 -10.010  0.00  0.00    -0.052 C 
ATOM     22  H   LIG d   1       3.313  -0.479 -10.253  0.00  0.00     0.027 H 
ATOM     23  H   LIG d   1       1.958   0.647 -10.503  0.00  0.00     0.027 H 
BRANCH  21  24
ATOM     24  C   LIG d   1       3.899   1.579 -10.495  0.00  0.00    -0.043 C 
ATOM     25  H   LIG d   1       4.729   1.104 -11.017  0.00  0.00     0.027 H 
ATOM     26  H   LIG d   1       3.385   2.260 -11.174  0.00  0.00     0.027 H 
BRANCH  24  27
ATOM     27  C   LIG d   1       4.433   2.363  -9.295  0.00  0.00     0.003 C 
ATOM     28 BR   LIG d   1       6.321   1.901  -8.999  0.00  0.00    -0.092 Br
ATOM     29  H   LIG d   1       4.347   3.432  -9.492  0.00  0.00     0.038 H 
ATOM     30  H   LIG d   1       3.854   2.109  -8.408  0.00  0.00     0.038 H 
ENDBRANCH  24  27
ENDBRANCH  21  24
ENDBRANCH  18  21
ENDBRANCH  15  18
ENDBRANCH  12  15
ENDBRANCH   6  11
BRANCH   1  31
ATOM     31  C   LIG d   1       4.847  -2.365  -3.948  0.00  0.00     0.250 C 
ATOM     32  N   LIG d   1       5.972  -2.453  -4.686  0.00  0.00    -0.281 N 
ATOM     33  H   LIG d   1       6.548  -1.679  -4.785  0.00  0.00     0.155 HD
ATOM     34  O   LIG d   1       4.174  -3.358  -3.746  0.00  0.00    -0.270 OA
BRANCH  32  35
ATOM     35  C   LIG d   1       6.307  -3.659  -5.309  0.00  0.00     0.034 A 
ATOM     36  C   LIG d   1       5.605  -4.082  -6.430  0.00  0.00    -0.041 A 
ATOM     37  C   LIG d   1       5.939  -5.273  -7.044  0.00  0.00    -0.060 A 
ATOM     38  H   LIG d   1       4.798  -3.480  -6.822  0.00  0.00     0.064 H 
ATOM     39  C   LIG d   1       6.971  -6.045  -6.543  0.00  0.00    -0.062 A 
ATOM     40  H   LIG d   1       5.393  -5.602  -7.915  0.00  0.00     0.062 H 
ATOM     41  C   LIG d   1       7.672  -5.626  -5.427  0.00  0.00    -0.060 A 
ATOM     42  H   LIG d   1       7.234  -6.974  -7.028  0.00  0.00     0.062 H 
ATOM     43  C   LIG d   1       7.343  -4.436  -4.809  0.00  0.00    -0.041 A 
ATOM     44  H   LIG d   1       8.478  -6.231  -5.038  0.00  0.00     0.062 H 
ATOM     45  H   LIG d   1       7.892  -4.110  -3.937  0.00  0.00     0.064 H 
ENDBRANCH  32  35
ENDBRANCH   1  31
TORSDOF 8
ENDMDL
MODEL 4
REMARK VINA RESULT:      -6.3      2.008      5.506
REMARK  8 active torsions:
REMARK  status: ('A' for Active; 'I' for Inactive)
REMARK    1  A    between atoms: C_4  and  N_7 
REMARK       I    between atoms: N_7  and  C_8 
REMARK    2  A    between atoms: C_8  and  C_10 
REMARK    3  A    between atoms: C_15  and  N_16 
REMARK       I    between atoms: N_16  and  C_17 
REMARK    4  A    between atoms: C_17  and  C_19 
REMARK    5  A    between atoms: C_19  and  C_20 
REMARK    6  A    between atoms: C_20  and  C_21 
REMARK    7  A    between atoms: C_21  and  C_22 
REMARK    8  A    between atoms: C_22  and  C_23 
ROOT
ATOM      1  C   LIG d   1       4.262  -0.363  -4.269  0.00  0.00     0.058 A 
ATOM      2  C   LIG d   1       4.428   0.682  -3.358  0.00  0.00    -0.048 A 
ATOM      3  C   LIG d   1       4.466   0.417  -2.007  0.00  0.00    -0.061 A 
ATOM      4  C   LIG d   1       4.352  -0.885  -1.546  0.00  0.00    -0.060 A 
ATOM      5  C   LIG d   1       4.193  -1.929  -2.434  0.00  0.00    -0.040 A 
ATOM      6  C   LIG d   1       4.148  -1.680  -3.799  0.00  0.00     0.046 A 
ATOM      7  H   LIG d   1       4.521   1.698  -3.713  0.00  0.00     0.063 H 
ATOM      8  H   LIG d   1       4.591   1.227  -1.304  0.00  0.00     0.062 H 
ATOM      9  H   LIG d   1       4.387  -1.083  -0.485  0.00  0.00     0.062 H 
ATOM     10  H   LIG d   1       4.106  -2.941  -2.067  0.00  0.00     0.064 H 
ENDROOT
BRANCH   6  11
ATOM     11  N   LIG d   1       3.988  -2.733  -4.697  0.00  0.00    -0.285 N 
ATOM     12  C   LIG d   1       5.055  -3.465  -5.075  0.00  0.00     0.217 C 
ATOM     13  O   LIG d   1       6.136  -3.270  -4.562  0.00  0.00    -0.276 OA
ATOM     14  H   LIG d   1       3.108  -2.941  -5.051  0.00  0.00     0.155 HD
BRANCH  12  15
ATOM     15  C   LIG d   1       4.906  -4.525  -6.136  0.00  0.00     0.024 C 
ATOM     16  H   LIG d   1       5.892  -4.840  -6.476  0.00  0.00     0.036 H 
ATOM     17  H   LIG d   1       4.375  -5.382  -5.720  0.00  0.00     0.036 H 
BRANCH  15  18
ATOM     18  C   LIG d   1       4.114  -3.959  -7.316  0.00  0.00    -0.045 C 
ATOM     19  H   LIG d   1       3.598  -4.769  -7.830  0.00  0.00     0.027 H 
ATOM     20  H   LIG d   1       3.384  -3.236  -6.950  0.00  0.00     0.027 H 
BRANCH  18  21
ATOM     21  C   LIG d   1       5.071  -3.266  -8.287  0.00  0.00    -0.052 C 
ATOM     22  H   LIG d   1       5.036  -2.189  -8.128  0.00  0.00     0.027 H 
ATOM     23  H   LIG d   1       6.086  -3.626  -8.115  0.00  0.00     0.027 H 
BRANCH  21  24
ATOM     24  C   LIG d   1       4.657  -3.582  -9.725  0.00  0.00    -0.043 C 
ATOM     25  H   LIG d   1       4.916  -4.615  -9.959  0.00  0.00     0.027 H 
ATOM     26  H   LIG d   1       3.580  -3.446  -9.831  0.00  0.00     0.027 H 
BRANCH  24  27
ATOM     27  C   LIG d   1       5.388  -2.642 -10.685  0.00  0.00     0.003 C 
ATOM     28 BR   LIG d   1       6.226  -1.186  -9.664  0.00  0.00    -0.092 Br
ATOM     29  H   LIG d   1       6.156  -3.198 -11.223  0.00  0.00     0.038 H 
ATOM     30  H   LIG d   1       4.676  -2.224 -11.396  0.00  0.00     0.038 H 
ENDBRANCH  24  27
ENDBRANCH  21  24
ENDBRANCH  18  21
ENDBRANCH  15  18
ENDBRANCH  12  15
ENDBRANCH   6  11
BRANCH   1  31
ATOM     31  C   LIG d   1       4.216  -0.087  -5.717  0.00  0.00     0.250 C 
ATOM     32  N   LIG d   1       3.056   0.286  -6.295  0.00  0.00    -0.281 N 
ATOM     33  H   LIG d   1       2.271   0.445  -5.748  0.00  0.00     0.155 HD
ATOM     34  O   LIG d   1       5.223  -0.195  -6.391  0.00  0.00    -0.270 OA
BRANCH  32  35
ATOM     35  C   LIG d   1       2.985   0.442  -7.682  0.00  0.00     0.034 A 
ATOM     36  C   LIG d   1       2.529  -0.601  -8.478  0.00  0.00    -0.041 A 
ATOM     37  C   LIG d   1       2.458  -0.444  -9.848  0.00  0.00    -0.060 A 
ATOM     38  H   LIG d   1       2.230  -1.536  -8.025  0.00  0.00     0.064 H 
ATOM     39  C   LIG d   1       2.842   0.751 -10.429  0.00  0.00    -0.062 A 
ATOM     40  H   LIG d   1       2.104  -1.255 -10.466  0.00  0.00     0.062 H 
ATOM     41  C   LIG d   1       3.296   1.792  -9.640  0.00  0.00    -0.060 A 
ATOM     42  H   LIG d   1       2.781   0.873 -11.500  0.00  0.00     0.062 H 
ATOM     43  C   LIG d   1       3.368   1.641  -8.269  0.00  0.00    -0.041 A 
ATOM     44  H   LIG d   1       3.594   2.724 -10.096  0.00  0.00     0.062 H 
ATOM     45  H   LIG d   1       3.723   2.455  -7.654  0.00  0.00     0.064 H 
ENDBRANCH  32  35
ENDBRANCH   1  31
TORSDOF 8
ENDMDL
MODEL 5
REMARK VINA RESULT:      -6.3      2.586      6.443
REMARK  8 active torsions:
REMARK  status: ('A' for Active; 'I' for Inactive)
REMARK    1  A    between atoms: C_4  and  N_7 
REMARK       I    between atoms: N_7  and  C_8 
REMARK    2  A    between atoms: C_8  and  C_10 
REMARK    3  A    between atoms: C_15  and  N_16 
REMARK       I    between atoms: N_16  and  C_17 
REMARK    4  A    between atoms: C_17  and  C_19 
REMARK    5  A    between atoms: C_19  and  C_20 
REMARK    6  A    between atoms: C_20  and  C_21 
REMARK    7  A    between atoms: C_21  and  C_22 
REMARK    8  A    between atoms: C_22  and  C_23 
ROOT
ATOM      1  C   LIG d   1       4.648  -1.446  -3.919  0.00  0.00     0.058 A 
ATOM      2  C   LIG d   1       4.740  -1.727  -2.555  0.00  0.00    -0.048 A 
ATOM      3  C   LIG d   1       4.503  -0.734  -1.630  0.00  0.00    -0.061 A 
ATOM      4  C   LIG d   1       4.163   0.543  -2.047  0.00  0.00    -0.060 A 
ATOM      5  C   LIG d   1       4.063   0.835  -3.392  0.00  0.00    -0.040 A 
ATOM      6  C   LIG d   1       4.303  -0.152  -4.338  0.00  0.00     0.046 A 
ATOM      7  H   LIG d   1       5.001  -2.723  -2.225  0.00  0.00     0.063 H 
ATOM      8  H   LIG d   1       4.578  -0.953  -0.575  0.00  0.00     0.062 H 
ATOM      9  H   LIG d   1       3.976   1.315  -1.315  0.00  0.00     0.062 H 
ATOM     10  H   LIG d   1       3.798   1.834  -3.709  0.00  0.00     0.064 H 
ENDROOT
BRANCH   6  11
ATOM     11  N   LIG d   1       4.202   0.141  -5.696  0.00  0.00    -0.285 N 
ATOM     12  C   LIG d   1       2.989   0.240  -6.276  0.00  0.00     0.217 C 
ATOM     13  O   LIG d   1       1.986   0.170  -5.599  0.00  0.00    -0.276 OA
ATOM     14  H   LIG d   1       5.005   0.275  -6.225  0.00  0.00     0.155 HD
BRANCH  12  15
ATOM     15  C   LIG d   1       2.880   0.438  -7.767  0.00  0.00     0.024 C 
ATOM     16  H   LIG d   1       3.729  -0.037  -8.259  0.00  0.00     0.036 H 
ATOM     17  H   LIG d   1       1.955  -0.013  -8.125  0.00  0.00     0.036 H 
BRANCH  15  18
ATOM     18  C   LIG d   1       2.876   1.934  -8.084  0.00  0.00    -0.045 C 
ATOM     19  H   LIG d   1       1.853   2.266  -8.257  0.00  0.00     0.027 H 
ATOM     20  H   LIG d   1       3.300   2.484  -7.244  0.00  0.00     0.027 H 
BRANCH  18  21
ATOM     21  C   LIG d   1       3.715   2.192  -9.336  0.00  0.00    -0.052 C 
ATOM     22  H   LIG d   1       3.315   1.613 -10.169  0.00  0.00     0.027 H 
ATOM     23  H   LIG d   1       3.682   3.253  -9.584  0.00  0.00     0.027 H 
BRANCH  21  24
ATOM     24  C   LIG d   1       5.164   1.775  -9.075  0.00  0.00    -0.043 C 
ATOM     25  H   LIG d   1       5.808   2.652  -9.123  0.00  0.00     0.027 H 
ATOM     26  H   LIG d   1       5.239   1.323  -8.086  0.00  0.00     0.027 H 
BRANCH  24  27
ATOM     27  C   LIG d   1       5.602   0.761 -10.134  0.00  0.00     0.003 C 
ATOM     28 BR   LIG d   1       4.116   0.431 -11.379  0.00  0.00    -0.092 Br
ATOM     29  H   LIG d   1       6.455   1.157 -10.684  0.00  0.00     0.038 H 
ATOM     30  H   LIG d   1       5.883  -0.172  -9.648  0.00  0.00     0.038 H 
ENDBRANCH  24  27
ENDBRANCH  21  24
ENDBRANCH  18  21
ENDBRANCH  15  18
ENDBRANCH  12  15
ENDBRANCH   6  11
BRANCH   1  31
ATOM     31  C   LIG d   1       4.904  -2.503  -4.915  0.00  0.00     0.250 C 
ATOM     32  N   LIG d   1       3.945  -3.406  -5.201  0.00  0.00    -0.281 N 
ATOM     33  H   LIG d   1       3.062  -3.316  -4.809  0.00  0.00     0.155 HD
ATOM     34  O   LIG d   1       5.981  -2.562  -5.477  0.00  0.00    -0.270 OA
BRANCH  32  35
ATOM     35  C   LIG d   1       4.223  -4.473  -6.061  0.00  0.00     0.034 A 
ATOM     36  C   LIG d   1       4.667  -5.684  -5.546  0.00  0.00    -0.041 A 
ATOM     37  C   LIG d   1       4.940  -6.737  -6.398  0.00  0.00    -0.060 A 
ATOM     38  H   LIG d   1       4.800  -5.804  -4.481  0.00  0.00     0.064 H 
ATOM     39  C   LIG d   1       4.771  -6.585  -7.763  0.00  0.00    -0.062 A 
ATOM     40  H   LIG d   1       5.285  -7.678  -5.999  0.00  0.00     0.062 H 
ATOM     41  C   LIG d   1       4.329  -5.380  -8.278  0.00  0.00    -0.060 A 
ATOM     42  H   LIG d   1       4.980  -7.412  -8.426  0.00  0.00     0.062 H 
ATOM     43  C   LIG d   1       4.054  -4.325  -7.431  0.00  0.00    -0.041 A 
ATOM     44  H   LIG d   1       4.198  -5.265  -9.344  0.00  0.00     0.062 H 
ATOM     45  H   LIG d   1       3.708  -3.384  -7.835  0.00  0.00     0.064 H 
ENDBRANCH  32  35
ENDBRANCH   1  31
TORSDOF 8
ENDMDL
MODEL 6
REMARK VINA RESULT:      -6.1      2.120      5.373
REMARK  8 active torsions:
REMARK  status: ('A' for Active; 'I' for Inactive)
REMARK    1  A    between atoms: C_4  and  N_7 
REMARK       I    between atoms: N_7  and  C_8 
REMARK    2  A    between atoms: C_8  and  C_10 
REMARK    3  A    between atoms: C_15  and  N_16 
REMARK       I    between atoms: N_16  and  C_17 
REMARK    4  A    between atoms: C_17  and  C_19 
REMARK    5  A    between atoms: C_19  and  C_20 
REMARK    6  A    between atoms: C_20  and  C_21 
REMARK    7  A    between atoms: C_21  and  C_22 
REMARK    8  A    between atoms: C_22  and  C_23 
ROOT
ATOM      1  C   LIG d   1       4.261  -0.435  -4.240  0.00  0.00     0.058 A 
ATOM      2  C   LIG d   1       4.476   0.595  -3.322  0.00  0.00    -0.048 A 
ATOM      3  C   LIG d   1       4.532   0.316  -1.974  0.00  0.00    -0.061 A 
ATOM      4  C   LIG d   1       4.386  -0.987  -1.523  0.00  0.00    -0.060 A 
ATOM      5  C   LIG d   1       4.179  -2.016  -2.418  0.00  0.00    -0.040 A 
ATOM      6  C   LIG d   1       4.115  -1.752  -3.780  0.00  0.00     0.046 A 
ATOM      7  H   LIG d   1       4.594   1.612  -3.669  0.00  0.00     0.063 H 
ATOM      8  H   LIG d   1       4.695   1.115  -1.266  0.00  0.00     0.062 H 
ATOM      9  H   LIG d   1       4.435  -1.197  -0.465  0.00  0.00     0.062 H 
ATOM     10  H   LIG d   1       4.067  -3.029  -2.059  0.00  0.00     0.064 H 
ENDROOT
BRANCH   6  11
ATOM     11  N   LIG d   1       3.906  -2.791  -4.685  0.00  0.00    -0.285 N 
ATOM     12  C   LIG d   1       4.946  -3.539  -5.105  0.00  0.00     0.217 C 
ATOM     13  O   LIG d   1       6.046  -3.372  -4.623  0.00  0.00    -0.276 OA
ATOM     14  H   LIG d   1       3.012  -2.977  -5.012  0.00  0.00     0.155 HD
BRANCH  12  15
ATOM     15  C   LIG d   1       4.742  -4.583  -6.172  0.00  0.00     0.024 C 
ATOM     16  H   LIG d   1       3.794  -4.402  -6.681  0.00  0.00     0.036 H 
ATOM     17  H   LIG d   1       5.557  -4.528  -6.894  0.00  0.00     0.036 H 
BRANCH  15  18
ATOM     18  C   LIG d   1       4.720  -5.972  -5.531  0.00  0.00    -0.045 C 
ATOM     19  H   LIG d   1       4.984  -5.890  -4.477  0.00  0.00     0.027 H 
ATOM     20  H   LIG d   1       3.721  -6.399  -5.624  0.00  0.00     0.027 H 
BRANCH  18  21
ATOM     21  C   LIG d   1       5.728  -6.877  -6.240  0.00  0.00    -0.052 C 
ATOM     22  H   LIG d   1       5.263  -7.837  -6.463  0.00  0.00     0.027 H 
ATOM     23  H   LIG d   1       6.049  -6.405  -7.170  0.00  0.00     0.027 H 
BRANCH  21  24
ATOM     24  C   LIG d   1       6.943  -7.096  -5.336  0.00  0.00    -0.043 C 
ATOM     25  H   LIG d   1       6.676  -6.858  -4.306  0.00  0.00     0.027 H 
ATOM     26  H   LIG d   1       7.257  -8.139  -5.397  0.00  0.00     0.027 H 
BRANCH  24  27
ATOM     27  C   LIG d   1       8.088  -6.190  -5.790  0.00  0.00     0.003 C 
ATOM     28 BR   LIG d   1       9.027  -5.483  -4.213  0.00  0.00    -0.092 Br
ATOM     29  H   LIG d   1       8.784  -6.764  -6.401  0.00  0.00     0.038 H 
ATOM     30  H   LIG d   1       7.686  -5.363  -6.374  0.00  0.00     0.038 H 
ENDBRANCH  24  27
ENDBRANCH  21  24
ENDBRANCH  18  21
ENDBRANCH  15  18
ENDBRANCH  12  15
ENDBRANCH   6  11
BRANCH   1  31
ATOM     31  C   LIG d   1       4.196  -0.143  -5.684  0.00  0.00     0.250 C 
ATOM     32  N   LIG d   1       3.016   0.167  -6.256  0.00  0.00    -0.281 N 
ATOM     33  H   LIG d   1       2.223   0.271  -5.706  0.00  0.00     0.155 HD
ATOM     34  O   LIG d   1       5.207  -0.182  -6.359  0.00  0.00    -0.270 OA
BRANCH  32  35
ATOM     35  C   LIG d   1       2.932   0.337  -7.641  0.00  0.00     0.034 A 
ATOM     36  C   LIG d   1       2.653  -0.750  -8.460  0.00  0.00    -0.041 A 
ATOM     37  C   LIG d   1       2.571  -0.579  -9.829  0.00  0.00    -0.060 A 
ATOM     38  H   LIG d   1       2.501  -1.729  -8.028  0.00  0.00     0.064 H 
ATOM     39  C   LIG d   1       2.767   0.672 -10.383  0.00  0.00    -0.062 A 
ATOM     40  H   LIG d   1       2.355  -1.424 -10.465  0.00  0.00     0.062 H 
ATOM     41  C   LIG d   1       3.045   1.756  -9.570  0.00  0.00    -0.060 A 
ATOM     42  H   LIG d   1       2.697   0.804 -11.453  0.00  0.00     0.062 H 
ATOM     43  C   LIG d   1       3.128   1.592  -8.202  0.00  0.00    -0.041 A 
ATOM     44  H   LIG d   1       3.197   2.732 -10.007  0.00  0.00     0.062 H 
ATOM     45  H   LIG d   1       3.344   2.440  -7.568  0.00  0.00     0.064 H 
ENDBRANCH  32  35
ENDBRANCH   1  31
TORSDOF 8
ENDMDL
MODEL 7
REMARK VINA RESULT:      -6.0      3.312      6.400
REMARK  8 active torsions:
REMARK  status: ('A' for Active; 'I' for Inactive)
REMARK    1  A    between atoms: C_4  and  N_7 
REMARK       I    between atoms: N_7  and  C_8 
REMARK    2  A    between atoms: C_8  and  C_10 
REMARK    3  A    between atoms: C_15  and  N_16 
REMARK       I    between atoms: N_16  and  C_17 
REMARK    4  A    between atoms: C_17  and  C_19 
REMARK    5  A    between atoms: C_19  and  C_20 
REMARK    6  A    between atoms: C_20  and  C_21 
REMARK    7  A    between atoms: C_21  and  C_22 
REMARK    8  A    between atoms: C_22  and  C_23 
ROOT
ATOM      1  C   LIG d   1       4.340  -0.546  -4.276  0.00  0.00     0.058 A 
ATOM      2  C   LIG d   1       3.589  -1.632  -3.820  0.00  0.00    -0.048 A 
ATOM      3  C   LIG d   1       3.640  -1.994  -2.492  0.00  0.00    -0.061 A 
ATOM      4  C   LIG d   1       4.426  -1.279  -1.601  0.00  0.00    -0.060 A 
ATOM      5  C   LIG d   1       5.169  -0.201  -2.036  0.00  0.00    -0.040 A 
ATOM      6  C   LIG d   1       5.134   0.175  -3.372  0.00  0.00     0.046 A 
ATOM      7  H   LIG d   1       2.973  -2.190  -4.510  0.00  0.00     0.063 H 
ATOM      8  H   LIG d   1       3.061  -2.836  -2.142  0.00  0.00     0.062 H 
ATOM      9  H   LIG d   1       4.456  -1.569  -0.562  0.00  0.00     0.062 H 
ATOM     10  H   LIG d   1       5.779   0.351  -1.335  0.00  0.00     0.064 H 
ENDROOT
BRANCH   6  11
ATOM     11  N   LIG d   1       5.883   1.264  -3.812  0.00  0.00    -0.285 N 
ATOM     12  C   LIG d   1       7.218   1.149  -3.960  0.00  0.00     0.217 C 
ATOM     13  O   LIG d   1       7.754   0.072  -3.805  0.00  0.00    -0.276 OA
ATOM     14  H   LIG d   1       5.444   2.107  -4.012  0.00  0.00     0.155 HD
BRANCH  12  15
ATOM     15  C   LIG d   1       8.044   2.357  -4.319  0.00  0.00     0.024 C 
ATOM     16  H   LIG d   1       8.232   2.362  -5.393  0.00  0.00     0.036 H 
ATOM     17  H   LIG d   1       7.503   3.262  -4.041  0.00  0.00     0.036 H 
BRANCH  15  18
ATOM     18  C   LIG d   1       9.375   2.307  -3.567  0.00  0.00    -0.045 C 
ATOM     19  H   LIG d   1       9.279   1.654  -2.700  0.00  0.00     0.027 H 
ATOM     20  H   LIG d   1      10.152   1.921  -4.228  0.00  0.00     0.027 H 
BRANCH  18  21
ATOM     21  C   LIG d   1       9.754   3.715  -3.106  0.00  0.00    -0.052 C 
ATOM     22  H   LIG d   1       8.995   4.424  -3.438  0.00  0.00     0.027 H 
ATOM     23  H   LIG d   1       9.818   3.736  -2.017  0.00  0.00     0.027 H 
BRANCH  21  24
ATOM     24  C   LIG d   1      11.108   4.102  -3.703  0.00  0.00    -0.043 C 
ATOM     25  H   LIG d   1      11.893   3.923  -2.968  0.00  0.00     0.027 H 
ATOM     26  H   LIG d   1      11.298   3.498  -4.591  0.00  0.00     0.027 H 
BRANCH  24  27
ATOM     27  C   LIG d   1      11.094   5.582  -4.085  0.00  0.00     0.003 C 
ATOM     28 BR   LIG d   1       9.285   6.090  -4.666  0.00  0.00    -0.092 Br
ATOM     29  H   LIG d   1      11.380   6.183  -3.222  0.00  0.00     0.038 H 
ATOM     30  H   LIG d   1      11.798   5.754  -4.898  0.00  0.00     0.038 H 
ENDBRANCH  24  27
ENDBRANCH  21  24
ENDBRANCH  18  21
ENDBRANCH  15  18
ENDBRANCH  12  15
ENDBRANCH   6  11
BRANCH   1  31
ATOM     31  C   LIG d   1       4.294  -0.155  -5.698  0.00  0.00     0.250 C 
ATOM     32  N   LIG d   1       3.112   0.126  -6.281  0.00  0.00    -0.281 N 
ATOM     33  H   LIG d   1       2.301   0.145  -5.748  0.00  0.00     0.155 HD
ATOM     34  O   LIG d   1       5.322  -0.088  -6.344  0.00  0.00    -0.270 OA
BRANCH  32  35
ATOM     35  C   LIG d   1       3.054   0.389  -7.653  0.00  0.00     0.034 A 
ATOM     36  C   LIG d   1       3.199   1.690  -8.118  0.00  0.00    -0.041 A 
ATOM     37  C   LIG d   1       3.141   1.948  -9.474  0.00  0.00    -0.060 A 
ATOM     38  H   LIG d   1       3.356   2.500  -7.420  0.00  0.00     0.064 H 
ATOM     39  C   LIG d   1       2.939   0.912 -10.368  0.00  0.00    -0.062 A 
ATOM     40  H   LIG d   1       3.254   2.959  -9.836  0.00  0.00     0.062 H 
ATOM     41  C   LIG d   1       2.795  -0.384  -9.907  0.00  0.00    -0.060 A 
ATOM     42  H   LIG d   1       2.900   1.115 -11.428  0.00  0.00     0.062 H 
ATOM     43  C   LIG d   1       2.852  -0.648  -8.553  0.00  0.00    -0.041 A 
ATOM     44  H   LIG d   1       2.638  -1.191 -10.608  0.00  0.00     0.062 H 
ATOM     45  H   LIG d   1       2.740  -1.661  -8.195  0.00  0.00     0.064 H 
ENDBRANCH  32  35
ENDBRANCH   1  31
TORSDOF 8
ENDMDL
MODEL 8
REMARK VINA RESULT:      -6.0      2.880      3.558
REMARK  8 active torsions:
REMARK  status: ('A' for Active; 'I' for Inactive)
REMARK    1  A    between atoms: C_4  and  N_7 
REMARK       I    between atoms: N_7  and  C_8 
REMARK    2  A    between atoms: C_8  and  C_10 
REMARK    3  A    between atoms: C_15  and  N_16 
REMARK       I    between atoms: N_16  and  C_17 
REMARK    4  A    between atoms: C_17  and  C_19 
REMARK    5  A    between atoms: C_19  and  C_20 
REMARK    6  A    between atoms: C_20  and  C_21 
REMARK    7  A    between atoms: C_21  and  C_22 
REMARK    8  A    between atoms: C_22  and  C_23 
ROOT
ATOM      1  C   LIG d   1       3.489   0.032  -8.039  0.00  0.00     0.058 A 
ATOM      2  C   LIG d   1       2.423  -0.730  -8.525  0.00  0.00    -0.048 A 
ATOM      3  C   LIG d   1       2.012  -0.583  -9.832  0.00  0.00    -0.061 A 
ATOM      4  C   LIG d   1       2.658   0.310 -10.672  0.00  0.00    -0.060 A 
ATOM      5  C   LIG d   1       3.716   1.065 -10.208  0.00  0.00    -0.040 A 
ATOM      6  C   LIG d   1       4.140   0.934  -8.892  0.00  0.00     0.046 A 
ATOM      7  H   LIG d   1       1.919  -1.430  -7.874  0.00  0.00     0.063 H 
ATOM      8  H   LIG d   1       1.186  -1.170 -10.204  0.00  0.00     0.062 H 
ATOM      9  H   LIG d   1       2.331   0.416 -11.696  0.00  0.00     0.062 H 
ATOM     10  H   LIG d   1       4.214   1.759 -10.869  0.00  0.00     0.064 H 
ENDROOT
BRANCH   6  11
ATOM     11  N   LIG d   1       5.208   1.695  -8.423  0.00  0.00    -0.285 N 
ATOM     12  C   LIG d   1       6.453   1.472  -8.890  0.00  0.00     0.217 C 
ATOM     13  O   LIG d   1       6.629   0.677  -9.788  0.00  0.00    -0.276 OA
ATOM     14  H   LIG d   1       5.056   2.387  -7.759  0.00  0.00     0.155 HD
BRANCH  12  15
ATOM     15  C   LIG d   1       7.625   2.211  -8.297  0.00  0.00     0.024 C 
ATOM     16  H   LIG d   1       8.465   2.176  -8.992  0.00  0.00     0.036 H 
ATOM     17  H   LIG d   1       7.346   3.250  -8.118  0.00  0.00     0.036 H 
BRANCH  15  18
ATOM     18  C   LIG d   1       8.026   1.555  -6.975  0.00  0.00    -0.045 C 
ATOM     19  H   LIG d   1       7.148   1.452  -6.339  0.00  0.00     0.027 H 
ATOM     20  H   LIG d   1       8.450   0.570  -7.173  0.00  0.00     0.027 H 
BRANCH  18  21
ATOM     21  C   LIG d   1       9.068   2.424  -6.270  0.00  0.00    -0.052 C 
ATOM     22  H   LIG d   1      10.010   1.880  -6.200  0.00  0.00     0.027 H 
ATOM     23  H   LIG d   1       9.221   3.342  -6.839  0.00  0.00     0.027 H 
BRANCH  21  24
ATOM     24  C   LIG d   1       8.575   2.774  -4.864  0.00  0.00    -0.043 C 
ATOM     25  H   LIG d   1       7.542   3.118  -4.917  0.00  0.00     0.027 H 
ATOM     26  H   LIG d   1       8.632   1.889  -4.230  0.00  0.00     0.027 H 
BRANCH  24  27
ATOM     27  C   LIG d   1       9.453   3.881  -4.277  0.00  0.00     0.003 C 
ATOM     28 BR   LIG d   1       9.828   5.224  -5.663  0.00  0.00    -0.092 Br
ATOM     29  H   LIG d   1       8.932   4.353  -3.444  0.00  0.00     0.038 H 
ATOM     30  H   LIG d   1      10.390   3.452  -3.923  0.00  0.00     0.038 H 
ENDBRANCH  24  27
ENDBRANCH  21  24
ENDBRANCH  18  21
ENDBRANCH  15  18
ENDBRANCH  12  15
ENDBRANCH   6  11
BRANCH   1  31
ATOM     31  C   LIG d   1       3.931  -0.117  -6.640  0.00  0.00     0.250 C 
ATOM     32  N   LIG d   1       3.021  -0.168  -5.647  0.00  0.00    -0.281 N 
ATOM     33  H   LIG d   1       2.074  -0.183  -5.858  0.00  0.00     0.155 HD
ATOM     34  O   LIG d   1       5.117  -0.193  -6.381  0.00  0.00    -0.270 OA
BRANCH  32  35
ATOM     35  C   LIG d   1       3.440  -0.199  -4.314  0.00  0.00     0.034 A 
ATOM     36  C   LIG d   1       3.546   0.982  -3.591  0.00  0.00    -0.041 A 
ATOM     37  C   LIG d   1       3.961   0.949  -2.273  0.00  0.00    -0.060 A 
ATOM     38  H   LIG d   1       3.306   1.926  -4.058  0.00  0.00     0.064 H 
ATOM     39  C   LIG d   1       4.271  -0.259  -1.675  0.00  0.00    -0.062 A 
ATOM     40  H   LIG d   1       4.043   1.867  -1.711  0.00  0.00     0.062 H 
ATOM     41  C   LIG d   1       4.165  -1.436  -2.392  0.00  0.00    -0.060 A 
ATOM     42  H   LIG d   1       4.589  -0.282  -0.643  0.00  0.00     0.062 H 
ATOM     43  C   LIG d   1       3.752  -1.410  -3.710  0.00  0.00    -0.041 A 
ATOM     44  H   LIG d   1       4.408  -2.378  -1.922  0.00  0.00     0.062 H 
ATOM     45  H   LIG d   1       3.669  -2.330  -4.269  0.00  0.00     0.064 H 
ENDBRANCH  32  35
ENDBRANCH   1  31
TORSDOF 8
ENDMDL
MODEL 9
REMARK VINA RESULT:      -6.0      2.590      5.969
REMARK  8 active torsions:
REMARK  status: ('A' for Active; 'I' for Inactive)
REMARK    1  A    between atoms: C_4  and  N_7 
REMARK       I    between atoms: N_7  and  C_8 
REMARK    2  A    between atoms: C_8  and  C_10 
REMARK    3  A    between atoms: C_15  and  N_16 
REMARK       I    between atoms: N_16  and  C_17 
REMARK    4  A    between atoms: C_17  and  C_19 
REMARK    5  A    between atoms: C_19  and  C_20 
REMARK    6  A    between atoms: C_20  and  C_21 
REMARK    7  A    between atoms: C_21  and  C_22 
REMARK    8  A    between atoms: C_22  and  C_23 
ROOT
ATOM      1  C   LIG d   1       4.363  -0.499  -4.289  0.00  0.00     0.058 A 
ATOM      2  C   LIG d   1       3.602  -1.590  -3.864  0.00  0.00    -0.048 A 
ATOM      3  C   LIG d   1       3.611  -1.960  -2.537  0.00  0.00    -0.061 A 
ATOM      4  C   LIG d   1       4.364  -1.247  -1.617  0.00  0.00    -0.060 A 
ATOM      5  C   LIG d   1       5.116  -0.163  -2.021  0.00  0.00    -0.040 A 
ATOM      6  C   LIG d   1       5.123   0.221  -3.355  0.00  0.00     0.046 A 
ATOM      7  H   LIG d   1       3.011  -2.147  -4.577  0.00  0.00     0.063 H 
ATOM      8  H   LIG d   1       3.024  -2.807  -2.211  0.00  0.00     0.062 H 
ATOM      9  H   LIG d   1       4.361  -1.542  -0.578  0.00  0.00     0.062 H 
ATOM     10  H   LIG d   1       5.700   0.387  -1.297  0.00  0.00     0.064 H 
ENDROOT
BRANCH   6  11
ATOM     11  N   LIG d   1       5.882   1.315  -3.763  0.00  0.00    -0.285 N 
ATOM     12  C   LIG d   1       7.219   1.202  -3.886  0.00  0.00     0.217 C 
ATOM     13  O   LIG d   1       7.752   0.123  -3.735  0.00  0.00    -0.276 OA
ATOM     14  H   LIG d   1       5.447   2.161  -3.960  0.00  0.00     0.155 HD
BRANCH  12  15
ATOM     15  C   LIG d   1       8.053   2.415  -4.210  0.00  0.00     0.024 C 
ATOM     16  H   LIG d   1       7.409   3.205  -4.597  0.00  0.00     0.036 H 
ATOM     17  H   LIG d   1       8.552   2.764  -3.306  0.00  0.00     0.036 H 
BRANCH  15  18
ATOM     18  C   LIG d   1       9.101   2.047  -5.262  0.00  0.00    -0.045 C 
ATOM     19  H   LIG d   1       9.843   2.842  -5.330  0.00  0.00     0.027 H 
ATOM     20  H   LIG d   1       9.591   1.116  -4.977  0.00  0.00     0.027 H 
BRANCH  18  21
ATOM     21  C   LIG d   1       8.419   1.868  -6.620  0.00  0.00    -0.052 C 
ATOM     22  H   LIG d   1       7.338   1.867  -6.487  0.00  0.00     0.027 H 
ATOM     23  H   LIG d   1       8.703   2.688  -7.280  0.00  0.00     0.027 H 
BRANCH  21  24
ATOM     24  C   LIG d   1       8.858   0.540  -7.240  0.00  0.00    -0.043 C 
ATOM     25  H   LIG d   1       9.940   0.540  -7.369  0.00  0.00     0.027 H 
ATOM     26  H   LIG d   1       8.570  -0.280  -6.582  0.00  0.00     0.027 H 
BRANCH  24  27
ATOM     27  C   LIG d   1       8.181   0.365  -8.601  0.00  0.00     0.003 C 
ATOM     28 BR   LIG d   1       6.927   1.849  -8.905  0.00  0.00    -0.092 Br
ATOM     29  H   LIG d   1       8.938   0.362  -9.385  0.00  0.00     0.038 H 
ATOM     30  H   LIG d   1       7.637  -0.579  -8.617  0.00  0.00     0.038 H 
ENDBRANCH  24  27
ENDBRANCH  21  24
ENDBRANCH  18  21
ENDBRANCH  15  18
ENDBRANCH  12  15
ENDBRANCH   6  11
BRANCH   1  31
ATOM     31  C   LIG d   1       4.362  -0.100  -5.709  0.00  0.00     0.250 C 
ATOM     32  N   LIG d   1       3.204   0.229  -6.315  0.00  0.00    -0.281 N 
ATOM     33  H   LIG d   1       2.383   0.277  -5.799  0.00  0.00     0.155 HD
ATOM     34  O   LIG d   1       5.405  -0.069  -6.333  0.00  0.00    -0.270 OA
BRANCH  32  35
ATOM     35  C   LIG d   1       3.185   0.501  -7.686  0.00  0.00     0.034 A 
ATOM     36  C   LIG d   1       3.170   1.816  -8.135  0.00  0.00    -0.041 A 
ATOM     37  C   LIG d   1       3.151   2.082  -9.490  0.00  0.00    -0.060 A 
ATOM     38  H   LIG d   1       3.171   2.630  -7.424  0.00  0.00     0.064 H 
ATOM     39  C   LIG d   1       3.147   1.041 -10.400  0.00  0.00    -0.062 A 
ATOM     40  H   LIG d   1       3.139   3.103  -9.839  0.00  0.00     0.062 H 
ATOM     41  C   LIG d   1       3.163  -0.269  -9.957  0.00  0.00    -0.060 A 
ATOM     42  H   LIG d   1       3.138   1.251 -11.460  0.00  0.00     0.062 H 
ATOM     43  C   LIG d   1       3.182  -0.541  -8.603  0.00  0.00    -0.041 A 
ATOM     44  H   LIG d   1       3.161  -1.080 -10.670  0.00  0.00     0.062 H 
ATOM     45  H   LIG d   1       3.195  -1.565  -8.258  0.00  0.00     0.064 H 
ENDBRANCH  32  35
ENDBRANCH   1  31
TORSDOF 8
ENDMDL
MODEL 10
REMARK VINA RESULT:      -5.5      3.372      6.185
REMARK  8 active torsions:
REMARK  status: ('A' for Active; 'I' for Inactive)
REMARK    1  A    between atoms: C_4  and  N_7 
REMARK       I    between atoms: N_7  and  C_8 
REMARK    2  A    between atoms: C_8  and  C_10 
REMARK    3  A    between atoms: C_15  and  N_16 
REMARK       I    between atoms: N_16  and  C_17 
REMARK    4  A    between atoms: C_17  and  C_19 
REMARK    5  A    between atoms: C_19  and  C_20 
REMARK    6  A    between atoms: C_20  and  C_21 
REMARK    7  A    between atoms: C_21  and  C_22 
REMARK    8  A    between atoms: C_22  and  C_23 
ROOT
ATOM      1  C   LIG d   1       7.980   1.729  -7.592  0.00  0.00     0.058 A 
ATOM      2  C   LIG d   1       8.917   2.168  -8.530  0.00  0.00    -0.048 A 
ATOM      3  C   LIG d   1      10.048   2.835  -8.113  0.00  0.00    -0.061 A 
ATOM      4  C   LIG d   1      10.267   3.064  -6.764  0.00  0.00    -0.060 A 
ATOM      5  C   LIG d   1       9.353   2.631  -5.824  0.00  0.00    -0.040 A 
ATOM      6  C   LIG d   1       8.206   1.962  -6.227  0.00  0.00     0.046 A 
ATOM      7  H   LIG d   1       8.752   1.989  -9.583  0.00  0.00     0.063 H 
ATOM      8  H   LIG d   1      10.769   3.177  -8.840  0.00  0.00     0.062 H 
ATOM      9  H   LIG d   1      11.159   3.584  -6.446  0.00  0.00     0.062 H 
ATOM     10  H   LIG d   1       9.532   2.813  -4.774  0.00  0.00     0.064 H 
ENDROOT
BRANCH   6  11
ATOM     11  N   LIG d   1       7.283   1.524  -5.280  0.00  0.00    -0.285 N 
ATOM     12  C   LIG d   1       7.511   0.389  -4.590  0.00  0.00     0.217 C 
ATOM     13  O   LIG d   1       8.563  -0.199  -4.722  0.00  0.00    -0.276 OA
ATOM     14  H   LIG d   1       6.475   2.037  -5.116  0.00  0.00     0.155 HD
BRANCH  12  15
ATOM     15  C   LIG d   1       6.460  -0.149  -3.653  0.00  0.00     0.024 C 
ATOM     16  H   LIG d   1       5.674  -0.636  -4.231  0.00  0.00     0.036 H 
ATOM     17  H   LIG d   1       6.914  -0.873  -2.976  0.00  0.00     0.036 H 
BRANCH  15  18
ATOM     18  C   LIG d   1       5.861   1.002  -2.843  0.00  0.00    -0.045 C 
ATOM     19  H   LIG d   1       6.613   1.396  -2.160  0.00  0.00     0.027 H 
ATOM     20  H   LIG d   1       5.535   1.792  -3.520  0.00  0.00     0.027 H 
BRANCH  18  21
ATOM     21  C   LIG d   1       4.662   0.492  -2.042  0.00  0.00    -0.052 C 
ATOM     22  H   LIG d   1       4.812   0.707  -0.984  0.00  0.00     0.027 H 
ATOM     23  H   LIG d   1       3.755   0.989  -2.389  0.00  0.00     0.027 H 
BRANCH  21  24
ATOM     24  C   LIG d   1       4.520  -1.018  -2.240  0.00  0.00    -0.043 C 
ATOM     25  H   LIG d   1       5.265  -1.362  -2.959  0.00  0.00     0.027 H 
ATOM     26  H   LIG d   1       4.675  -1.525  -1.287  0.00  0.00     0.027 H 
BRANCH  24  27
ATOM     27  C   LIG d   1       3.119  -1.335  -2.766  0.00  0.00     0.003 C 
ATOM     28 BR   LIG d   1       2.632  -0.033  -4.156  0.00  0.00    -0.092 Br
ATOM     29  H   LIG d   1       3.109  -2.339  -3.189  0.00  0.00     0.038 H 
ATOM     30  H   LIG d   1       2.403  -1.278  -1.947  0.00  0.00     0.038 H 
ENDBRANCH  24  27
ENDBRANCH  21  24
ENDBRANCH  18  21
ENDBRANCH  15  18
ENDBRANCH  12  15
ENDBRANCH   6  11
BRANCH   1  31
ATOM     31  C   LIG d   1       6.765   1.018  -8.032  0.00  0.00     0.250 C 
ATOM     32  N   LIG d   1       5.712   1.714  -8.506  0.00  0.00    -0.281 N 
ATOM     33  H   LIG d   1       5.781   2.674  -8.629  0.00  0.00     0.155 HD
ATOM     34  O   LIG d   1       6.711  -0.195  -7.965  0.00  0.00    -0.270 OA
BRANCH  32  35
ATOM     35  C   LIG d   1       4.521   1.053  -8.820  0.00  0.00     0.034 A 
ATOM     36  C   LIG d   1       4.192   0.805 -10.147  0.00  0.00    -0.041 A 
ATOM     37  C   LIG d   1       3.014   0.151 -10.455  0.00  0.00    -0.060 A 
ATOM     38  H   LIG d   1       4.855   1.124 -10.938  0.00  0.00     0.064 H 
ATOM     39  C   LIG d   1       2.164  -0.256  -9.443  0.00  0.00    -0.062 A 
ATOM     40  H   LIG d   1       2.758  -0.041 -11.485  0.00  0.00     0.062 H 
ATOM     41  C   LIG d   1       2.489  -0.012  -8.121  0.00  0.00    -0.060 A 
ATOM     42  H   LIG d   1       1.246  -0.772  -9.686  0.00  0.00     0.062 H 
ATOM     43  C   LIG d   1       3.665   0.641  -7.808  0.00  0.00    -0.041 A 
ATOM     44  H   LIG d   1       1.823  -0.332  -7.334  0.00  0.00     0.062 H 
ATOM     45  H   LIG d   1       3.918   0.831  -6.775  0.00  0.00     0.064 H 
ENDBRANCH  32  35
ENDBRANCH   1  31
TORSDOF 8
ENDMDL
