MODEL 1
REMARK VINA RESULT:      -6.0      0.000      0.000
REMARK  11 active torsions:
REMARK  status: ('A' for Active; 'I' for Inactive)
REMARK    1  A    between atoms: C_1  and  C_2 
REMARK    2  A    between atoms: C_2  and  O_3 
REMARK    3  A    between atoms: O_3  and  C_4 
REMARK    4  A    between atoms: C_4  and  C_6 
REMARK    5  A    between atoms: C_8  and  C_22 
REMARK    6  A    between atoms: C_25  and  O_32 
REMARK    7  A    between atoms: C_26  and  O_28 
REMARK    8  A    between atoms: O_28  and  C_29 
REMARK    9  A    between atoms: C_29  and  C_30 
REMARK   10  A    between atoms: C_29  and  C_31 
REMARK   11  A    between atoms: O_32  and  C_33 
ROOT
ATOM      1  C   LIG d   1       9.169   1.811  -3.951  0.00  0.00     0.207 C 
ATOM      2  H   LIG d   1       9.693   1.494  -3.049  0.00  0.00     0.086 H 
ATOM      3  C   LIG d   1       9.100   0.657  -4.981  0.00  0.00     0.067 C 
ATOM      4  H   LIG d   1       9.909  -0.056  -4.822  0.00  0.00     0.044 H 
ATOM      5  C   LIG d   1       7.757   0.034  -4.659  0.00  0.00     0.091 A 
ATOM      6  C   LIG d   1       7.070   0.929  -3.885  0.00  0.00     0.143 A 
ATOM      7  C   LIG d   1       5.725   0.538  -3.429  0.00  0.00     0.059 A 
ATOM      8  C   LIG d   1       4.962   1.393  -2.631  0.00  0.00    -0.048 A 
ATOM      9  C   LIG d   1       3.707   1.001  -2.219  0.00  0.00    -0.061 A 
ATOM     10  C   LIG d   1       3.203  -0.236  -2.594  0.00  0.00    -0.058 A 
ATOM     11  C   LIG d   1       3.945  -1.089  -3.382  0.00  0.00    -0.018 A 
ATOM     12  C   LIG d   1       5.213  -0.712  -3.809  0.00  0.00     0.143 A 
ATOM     13  O   LIG d   1       5.950  -1.538  -4.584  0.00  0.00    -0.422 OA
ATOM     14  C   LIG d   1       7.179  -1.194  -5.002  0.00  0.00     0.345 A 
ATOM     15  O   LIG d   1       7.807  -1.970  -5.701  0.00  0.00    -0.245 OA
ATOM     16  O   LIG d   1       7.779   2.064  -3.673  0.00  0.00    -0.475 OA
ATOM     17  H   LIG d   1       5.354   2.356  -2.338  0.00  0.00     0.063 H 
ATOM     18  H   LIG d   1       3.114   1.659  -1.601  0.00  0.00     0.062 H 
ATOM     19  H   LIG d   1       2.217  -0.533  -2.265  0.00  0.00     0.062 H 
ATOM     20  H   LIG d   1       3.542  -2.049  -3.667  0.00  0.00     0.065 H 
ENDROOT
BRANCH   3  21
ATOM     21  C   LIG d   1       9.124   1.190  -6.391  0.00  0.00    -0.032 A 
ATOM     22  C   LIG d   1       7.951   1.611  -6.988  0.00  0.00    -0.012 A 
ATOM     23  C   LIG d   1       7.972   2.106  -8.283  0.00  0.00     0.163 A 
ATOM     24  H   LIG d   1       7.019   1.558  -6.446  0.00  0.00     0.066 H 
ATOM     25  C   LIG d   1       9.174   2.169  -8.981  0.00  0.00     0.162 A 
ATOM     26  C   LIG d   1      10.346   1.741  -8.377  0.00  0.00    -0.016 A 
ATOM     27  C   LIG d   1      10.319   1.252  -7.085  0.00  0.00    -0.054 A 
ATOM     28  H   LIG d   1      11.280   1.789  -8.917  0.00  0.00     0.066 H 
ATOM     29  H   LIG d   1      11.233   0.918  -6.615  0.00  0.00     0.062 H 
BRANCH  23  30
ATOM     30  O   LIG d   1       6.820   2.525  -8.871  0.00  0.00    -0.486 OA
BRANCH  30  31
ATOM     31  C   LIG d   1       5.734   1.597  -8.902  0.00  0.00     0.095 C 
ATOM     32  H   LIG d   1       5.645   1.108  -7.933  0.00  0.00     0.073 H 
BRANCH  31  33
ATOM     33  C   LIG d   1       4.435   2.342  -9.218  0.00  0.00    -0.028 C 
ATOM     34  H   LIG d   1       4.347   2.476 -10.297  0.00  0.00     0.026 H 
ATOM     35  H   LIG d   1       3.586   1.764  -8.854  0.00  0.00     0.026 H 
ATOM     36  H   LIG d   1       4.447   3.317  -8.731  0.00  0.00     0.026 H 
ENDBRANCH  31  33
BRANCH  31  37
ATOM     37  C   LIG d   1       5.994   0.545  -9.982  0.00  0.00    -0.028 C 
ATOM     38  H   LIG d   1       5.124  -0.107 -10.071  0.00  0.00     0.026 H 
ATOM     39  H   LIG d   1       6.174   1.041 -10.937  0.00  0.00     0.026 H 
ATOM     40  H   LIG d   1       6.866  -0.048  -9.710  0.00  0.00     0.026 H 
ENDBRANCH  31  37
ENDBRANCH  30  31
ENDBRANCH  23  30
BRANCH  25  41
ATOM     41  O   LIG d   1       9.199   2.651 -10.252  0.00  0.00    -0.491 OA
BRANCH  41  42
ATOM     42  C   LIG d   1       9.973   3.829 -10.484  0.00  0.00     0.079 C 
ATOM     43  H   LIG d   1       9.998   4.043 -11.554  0.00  0.00     0.066 H 
ATOM     44  H   LIG d   1       9.522   4.670  -9.958  0.00  0.00     0.066 H 
ATOM     45  H   LIG d   1      10.989   3.675 -10.121  0.00  0.00     0.066 H 
ENDBRANCH  41  42
ENDBRANCH  25  41
ENDBRANCH   3  21
BRANCH   1  46
ATOM     46  C   LIG d   1       9.825   3.026  -4.552  0.00  0.00     0.349 C 
ATOM     47  O   LIG d   1      11.030   3.110  -4.580  0.00  0.00    -0.247 OA
BRANCH  46  48
ATOM     48  O   LIG d   1       9.071   4.016  -5.056  0.00  0.00    -0.462 OA
BRANCH  48  49
ATOM     49  C   LIG d   1       9.753   5.198  -5.482  0.00  0.00     0.090 C 
ATOM     50  H   LIG d   1      10.769   5.194  -5.087  0.00  0.00     0.069 H 
ATOM     51  H   LIG d   1       9.223   6.076  -5.114  0.00  0.00     0.069 H 
BRANCH  49  52
ATOM     52  C   LIG d   1       9.802   5.235  -7.011  0.00  0.00    -0.031 C 
ATOM     53  H   LIG d   1       9.652   6.259  -7.354  0.00  0.00     0.026 H 
ATOM     54  H   LIG d   1      10.774   4.878  -7.352  0.00  0.00     0.026 H 
ATOM     55  H   LIG d   1       9.017   4.597  -7.416  0.00  0.00     0.026 H 
ENDBRANCH  49  52
ENDBRANCH  48  49
ENDBRANCH  46  48
ENDBRANCH   1  46
TORSDOF 11
ENDMDL
MODEL 2
REMARK VINA RESULT:      -5.7      3.407      5.471
REMARK  11 active torsions:
REMARK  status: ('A' for Active; 'I' for Inactive)
REMARK    1  A    between atoms: C_1  and  C_2 
REMARK    2  A    between atoms: C_2  and  O_3 
REMARK    3  A    between atoms: O_3  and  C_4 
REMARK    4  A    between atoms: C_4  and  C_6 
REMARK    5  A    between atoms: C_8  and  C_22 
REMARK    6  A    between atoms: C_25  and  O_32 
REMARK    7  A    between atoms: C_26  and  O_28 
REMARK    8  A    between atoms: O_28  and  C_29 
REMARK    9  A    between atoms: C_29  and  C_30 
REMARK   10  A    between atoms: C_29  and  C_31 
REMARK   11  A    between atoms: O_32  and  C_33 
ROOT
ATOM      1  C   LIG d   1       6.586  -0.236  -7.545  0.00  0.00     0.207 C 
ATOM      2  H   LIG d   1       7.643  -0.404  -7.340  0.00  0.00     0.086 H 
ATOM      3  C   LIG d   1       5.859  -1.576  -7.817  0.00  0.00     0.067 C 
ATOM      4  H   LIG d   1       6.557  -2.333  -8.171  0.00  0.00     0.044 H 
ATOM      5  C   LIG d   1       5.331  -1.926  -6.440  0.00  0.00     0.091 A 
ATOM      6  C   LIG d   1       5.414  -0.795  -5.675  0.00  0.00     0.143 A 
ATOM      7  C   LIG d   1       4.966  -0.891  -4.274  0.00  0.00     0.059 A 
ATOM      8  C   LIG d   1       5.024   0.217  -3.426  0.00  0.00    -0.048 A 
ATOM      9  C   LIG d   1       4.598   0.098  -2.121  0.00  0.00    -0.061 A 
ATOM     10  C   LIG d   1       4.115  -1.114  -1.651  0.00  0.00    -0.058 A 
ATOM     11  C   LIG d   1       4.051  -2.215  -2.478  0.00  0.00    -0.018 A 
ATOM     12  C   LIG d   1       4.475  -2.116  -3.798  0.00  0.00     0.143 A 
ATOM     13  O   LIG d   1       4.415  -3.187  -4.620  0.00  0.00    -0.422 OA
ATOM     14  C   LIG d   1       4.825  -3.113  -5.897  0.00  0.00     0.345 A 
ATOM     15  O   LIG d   1       4.752  -4.104  -6.602  0.00  0.00    -0.245 OA
ATOM     16  O   LIG d   1       5.909   0.255  -6.374  0.00  0.00    -0.475 OA
ATOM     17  H   LIG d   1       5.401   1.161  -3.791  0.00  0.00     0.063 H 
ATOM     18  H   LIG d   1       4.642   0.952  -1.462  0.00  0.00     0.062 H 
ATOM     19  H   LIG d   1       3.783  -1.195  -0.626  0.00  0.00     0.062 H 
ATOM     20  H   LIG d   1       3.672  -3.153  -2.100  0.00  0.00     0.065 H 
ENDROOT
BRANCH   3  21
ATOM     21  C   LIG d   1       4.729  -1.386  -8.797  0.00  0.00    -0.032 A 
ATOM     22  C   LIG d   1       4.934  -1.637 -10.141  0.00  0.00    -0.012 A 
ATOM     23  C   LIG d   1       3.895  -1.468 -11.043  0.00  0.00     0.163 A 
ATOM     24  H   LIG d   1       5.901  -1.968 -10.488  0.00  0.00     0.066 H 
ATOM     25  C   LIG d   1       2.650  -1.037 -10.593  0.00  0.00     0.162 A 
ATOM     26  C   LIG d   1       2.454  -0.782  -9.245  0.00  0.00    -0.016 A 
ATOM     27  C   LIG d   1       3.493  -0.957  -8.350  0.00  0.00    -0.054 A 
ATOM     28  H   LIG d   1       1.489  -0.447  -8.894  0.00  0.00     0.066 H 
ATOM     29  H   LIG d   1       3.339  -0.758  -7.300  0.00  0.00     0.062 H 
BRANCH  23  30
ATOM     30  O   LIG d   1       4.092  -1.719 -12.364  0.00  0.00    -0.486 OA
BRANCH  30  31
ATOM     31  C   LIG d   1       4.729  -0.693 -13.130  0.00  0.00     0.095 C 
ATOM     32  H   LIG d   1       4.615   0.264 -12.622  0.00  0.00     0.073 H 
BRANCH  31  33
ATOM     33  C   LIG d   1       6.216  -1.018 -13.281  0.00  0.00    -0.028 C 
ATOM     34  H   LIG d   1       6.793  -0.407 -12.586  0.00  0.00     0.026 H 
ATOM     35  H   LIG d   1       6.383  -2.073 -13.063  0.00  0.00     0.026 H 
ATOM     36  H   LIG d   1       6.533  -0.804 -14.302  0.00  0.00     0.026 H 
ENDBRANCH  31  33
BRANCH  31  37
ATOM     37  C   LIG d   1       4.081  -0.616 -14.514  0.00  0.00    -0.028 C 
ATOM     38  H   LIG d   1       3.240   0.078 -14.484  0.00  0.00     0.026 H 
ATOM     39  H   LIG d   1       4.815  -0.264 -15.240  0.00  0.00     0.026 H 
ATOM     40  H   LIG d   1       3.727  -1.604 -14.806  0.00  0.00     0.026 H 
ENDBRANCH  31  37
ENDBRANCH  30  31
ENDBRANCH  23  30
BRANCH  25  41
ATOM     41  O   LIG d   1       1.630  -0.865 -11.475  0.00  0.00    -0.491 OA
BRANCH  41  42
ATOM     42  C   LIG d   1       0.863  -2.023 -11.812  0.00  0.00     0.079 C 
ATOM     43  H   LIG d   1       0.239  -1.806 -12.680  0.00  0.00     0.066 H 
ATOM     44  H   LIG d   1       1.534  -2.848 -12.046  0.00  0.00     0.066 H 
ATOM     45  H   LIG d   1       0.228  -2.297 -10.969  0.00  0.00     0.066 H 
ENDBRANCH  41  42
ENDBRANCH  25  41
ENDBRANCH   3  21
BRANCH   1  46
ATOM     46  C   LIG d   1       6.411   0.713  -8.702  0.00  0.00     0.349 C 
ATOM     47  O   LIG d   1       6.961   0.489  -9.755  0.00  0.00    -0.247 OA
BRANCH  46  48
ATOM     48  O   LIG d   1       5.643   1.805  -8.564  0.00  0.00    -0.462 OA
BRANCH  48  49
ATOM     49  C   LIG d   1       4.766   2.121  -9.647  0.00  0.00     0.090 C 
ATOM     50  H   LIG d   1       4.561   1.221 -10.225  0.00  0.00     0.069 H 
ATOM     51  H   LIG d   1       5.235   2.866 -10.290  0.00  0.00     0.069 H 
BRANCH  49  52
ATOM     52  C   LIG d   1       3.453   2.680  -9.094  0.00  0.00    -0.031 C 
ATOM     53  H   LIG d   1       2.715   1.880  -9.032  0.00  0.00     0.026 H 
ATOM     54  H   LIG d   1       3.625   3.092  -8.099  0.00  0.00     0.026 H 
ATOM     55  H   LIG d   1       3.084   3.464  -9.754  0.00  0.00     0.026 H 
ENDBRANCH  49  52
ENDBRANCH  48  49
ENDBRANCH  46  48
ENDBRANCH   1  46
TORSDOF 11
ENDMDL
MODEL 3
REMARK VINA RESULT:      -5.6      3.141      5.263
REMARK  11 active torsions:
REMARK  status: ('A' for Active; 'I' for Inactive)
REMARK    1  A    between atoms: C_1  and  C_2 
REMARK    2  A    between atoms: C_2  and  O_3 
REMARK    3  A    between atoms: O_3  and  C_4 
REMARK    4  A    between atoms: C_4  and  C_6 
REMARK    5  A    between atoms: C_8  and  C_22 
REMARK    6  A    between atoms: C_25  and  O_32 
REMARK    7  A    between atoms: C_26  and  O_28 
REMARK    8  A    between atoms: O_28  and  C_29 
REMARK    9  A    between atoms: C_29  and  C_30 
REMARK   10  A    between atoms: C_29  and  C_31 
REMARK   11  A    between atoms: O_32  and  C_33 
ROOT
ATOM      1  C   LIG d   1       7.322  -1.914  -7.022  0.00  0.00     0.207 C 
ATOM      2  H   LIG d   1       8.264  -2.282  -6.615  0.00  0.00     0.086 H 
ATOM      3  C   LIG d   1       6.216  -2.992  -6.910  0.00  0.00     0.067 C 
ATOM      4  H   LIG d   1       6.649  -3.990  -6.865  0.00  0.00     0.044 H 
ATOM      5  C   LIG d   1       5.560  -2.625  -5.594  0.00  0.00     0.091 A 
ATOM      6  C   LIG d   1       5.973  -1.361  -5.273  0.00  0.00     0.143 A 
ATOM      7  C   LIG d   1       5.472  -0.785  -4.013  0.00  0.00     0.059 A 
ATOM      8  C   LIG d   1       5.852   0.498  -3.611  0.00  0.00    -0.048 A 
ATOM      9  C   LIG d   1       5.368   1.012  -2.428  0.00  0.00    -0.061 A 
ATOM     10  C   LIG d   1       4.510   0.261  -1.639  0.00  0.00    -0.058 A 
ATOM     11  C   LIG d   1       4.126  -1.006  -2.024  0.00  0.00    -0.018 A 
ATOM     12  C   LIG d   1       4.603  -1.543  -3.215  0.00  0.00     0.143 A 
ATOM     13  O   LIG d   1       4.233  -2.782  -3.605  0.00  0.00    -0.422 OA
ATOM     14  C   LIG d   1       4.686  -3.320  -4.750  0.00  0.00     0.345 A 
ATOM     15  O   LIG d   1       4.324  -4.441  -5.062  0.00  0.00    -0.245 OA
ATOM     16  O   LIG d   1       6.798  -0.843  -6.215  0.00  0.00    -0.475 OA
ATOM     17  H   LIG d   1       6.521   1.084  -4.225  0.00  0.00     0.063 H 
ATOM     18  H   LIG d   1       5.660   2.003  -2.113  0.00  0.00     0.062 H 
ATOM     19  H   LIG d   1       4.136   0.674  -0.713  0.00  0.00     0.062 H 
ATOM     20  H   LIG d   1       3.457  -1.581  -1.401  0.00  0.00     0.065 H 
ENDROOT
BRANCH   3  21
ATOM     21  C   LIG d   1       5.238  -2.880  -8.051  0.00  0.00    -0.032 A 
ATOM     22  C   LIG d   1       4.480  -1.734  -8.200  0.00  0.00    -0.012 A 
ATOM     23  C   LIG d   1       3.583  -1.628  -9.251  0.00  0.00     0.163 A 
ATOM     24  H   LIG d   1       4.589  -0.920  -7.499  0.00  0.00     0.066 H 
ATOM     25  C   LIG d   1       3.441  -2.682 -10.149  0.00  0.00     0.162 A 
ATOM     26  C   LIG d   1       4.201  -3.830  -9.991  0.00  0.00    -0.016 A 
ATOM     27  C   LIG d   1       5.096  -3.928  -8.943  0.00  0.00    -0.054 A 
ATOM     28  H   LIG d   1       4.092  -4.649 -10.687  0.00  0.00     0.066 H 
ATOM     29  H   LIG d   1       5.688  -4.823  -8.821  0.00  0.00     0.062 H 
BRANCH  23  30
ATOM     30  O   LIG d   1       2.840  -0.500  -9.402  0.00  0.00    -0.486 OA
BRANCH  30  31
ATOM     31  C   LIG d   1       3.548   0.741  -9.448  0.00  0.00     0.095 C 
ATOM     32  H   LIG d   1       4.467   0.657  -8.870  0.00  0.00     0.073 H 
BRANCH  31  33
ATOM     33  C   LIG d   1       3.887   1.082 -10.900  0.00  0.00    -0.028 C 
ATOM     34  H   LIG d   1       3.380   2.003 -11.185  0.00  0.00     0.026 H 
ATOM     35  H   LIG d   1       4.965   1.214 -11.001  0.00  0.00     0.026 H 
ATOM     36  H   LIG d   1       3.559   0.271 -11.550  0.00  0.00     0.026 H 
ENDBRANCH  31  33
BRANCH  31  37
ATOM     37  C   LIG d   1       2.673   1.848  -8.856  0.00  0.00    -0.028 C 
ATOM     38  H   LIG d   1       2.239   2.439  -9.663  0.00  0.00     0.026 H 
ATOM     39  H   LIG d   1       1.874   1.402  -8.262  0.00  0.00     0.026 H 
ATOM     40  H   LIG d   1       3.281   2.492  -8.220  0.00  0.00     0.026 H 
ENDBRANCH  31  37
ENDBRANCH  30  31
ENDBRANCH  23  30
BRANCH  25  41
ATOM     41  O   LIG d   1       2.560  -2.584 -11.180  0.00  0.00    -0.491 OA
BRANCH  41  42
ATOM     42  C   LIG d   1       1.310  -3.260 -11.031  0.00  0.00     0.079 C 
ATOM     43  H   LIG d   1       0.533  -2.537 -10.781  0.00  0.00     0.066 H 
ATOM     44  H   LIG d   1       1.053  -3.760 -11.964  0.00  0.00     0.066 H 
ATOM     45  H   LIG d   1       1.389  -3.998 -10.232  0.00  0.00     0.066 H 
ENDBRANCH  41  42
ENDBRANCH  25  41
ENDBRANCH   3  21
BRANCH   1  46
ATOM     46  C   LIG d   1       7.495  -1.471  -8.452  0.00  0.00     0.349 C 
ATOM     47  O   LIG d   1       8.126  -2.154  -9.223  0.00  0.00    -0.247 OA
BRANCH  46  48
ATOM     48  O   LIG d   1       6.948  -0.319  -8.868  0.00  0.00    -0.462 OA
BRANCH  48  49
ATOM     49  C   LIG d   1       7.845   0.744  -9.198  0.00  0.00     0.090 C 
ATOM     50  H   LIG d   1       8.022   0.751 -10.273  0.00  0.00     0.069 H 
ATOM     51  H   LIG d   1       8.790   0.597  -8.675  0.00  0.00     0.069 H 
BRANCH  49  52
ATOM     52  C   LIG d   1       7.231   2.080  -8.775  0.00  0.00    -0.031 C 
ATOM     53  H   LIG d   1       6.213   1.915  -8.419  0.00  0.00     0.026 H 
ATOM     54  H   LIG d   1       7.828   2.517  -7.975  0.00  0.00     0.026 H 
ATOM     55  H   LIG d   1       7.212   2.758  -9.628  0.00  0.00     0.026 H 
ENDBRANCH  49  52
ENDBRANCH  48  49
ENDBRANCH  46  48
ENDBRANCH   1  46
TORSDOF 11
ENDMDL
MODEL 4
REMARK VINA RESULT:      -5.5      2.890      5.749
REMARK  11 active torsions:
REMARK  status: ('A' for Active; 'I' for Inactive)
REMARK    1  A    between atoms: C_1  and  C_2 
REMARK    2  A    between atoms: C_2  and  O_3 
REMARK    3  A    between atoms: O_3  and  C_4 
REMARK    4  A    between atoms: C_4  and  C_6 
REMARK    5  A    between atoms: C_8  and  C_22 
REMARK    6  A    between atoms: C_25  and  O_32 
REMARK    7  A    between atoms: C_26  and  O_28 
REMARK    8  A    between atoms: O_28  and  C_29 
REMARK    9  A    between atoms: C_29  and  C_30 
REMARK   10  A    between atoms: C_29  and  C_31 
REMARK   11  A    between atoms: O_32  and  C_33 
ROOT
ATOM      1  C   LIG d   1       4.622  -1.437  -4.206  0.00  0.00     0.207 C 
ATOM      2  H   LIG d   1       4.121  -1.695  -3.273  0.00  0.00     0.086 H 
ATOM      3  C   LIG d   1       6.160  -1.458  -4.028  0.00  0.00     0.067 C 
ATOM      4  H   LIG d   1       6.434  -1.294  -2.987  0.00  0.00     0.044 H 
ATOM      5  C   LIG d   1       6.503  -2.868  -4.465  0.00  0.00     0.091 A 
ATOM      6  C   LIG d   1       5.414  -3.363  -5.127  0.00  0.00     0.143 A 
ATOM      7  C   LIG d   1       5.503  -4.741  -5.642  0.00  0.00     0.059 A 
ATOM      8  C   LIG d   1       4.432  -5.322  -6.324  0.00  0.00    -0.048 A 
ATOM      9  C   LIG d   1       4.543  -6.612  -6.794  0.00  0.00    -0.061 A 
ATOM     10  C   LIG d   1       5.711  -7.332  -6.591  0.00  0.00    -0.058 A 
ATOM     11  C   LIG d   1       6.777  -6.770  -5.920  0.00  0.00    -0.018 A 
ATOM     12  C   LIG d   1       6.685  -5.469  -5.439  0.00  0.00     0.143 A 
ATOM     13  O   LIG d   1       7.722  -4.907  -4.782  0.00  0.00    -0.422 OA
ATOM     14  C   LIG d   1       7.651  -3.652  -4.305  0.00  0.00     0.345 A 
ATOM     15  O   LIG d   1       8.612  -3.185  -3.719  0.00  0.00    -0.245 OA
ATOM     16  O   LIG d   1       4.409  -2.457  -5.200  0.00  0.00    -0.475 OA
ATOM     17  H   LIG d   1       3.521  -4.763  -6.482  0.00  0.00     0.063 H 
ATOM     18  H   LIG d   1       3.717  -7.065  -7.322  0.00  0.00     0.062 H 
ATOM     19  H   LIG d   1       5.788  -8.343  -6.965  0.00  0.00     0.062 H 
ATOM     20  H   LIG d   1       7.681  -7.340  -5.769  0.00  0.00     0.065 H 
ENDROOT
BRANCH   3  21
ATOM     21  C   LIG d   1       6.819  -0.439  -4.923  0.00  0.00    -0.032 A 
ATOM     22  C   LIG d   1       7.359   0.710  -4.377  0.00  0.00    -0.012 A 
ATOM     23  C   LIG d   1       7.969   1.646  -5.198  0.00  0.00     0.163 A 
ATOM     24  H   LIG d   1       7.308   0.878  -3.312  0.00  0.00     0.066 H 
ATOM     25  C   LIG d   1       8.029   1.429  -6.571  0.00  0.00     0.162 A 
ATOM     26  C   LIG d   1       7.482   0.276  -7.112  0.00  0.00    -0.016 A 
ATOM     27  C   LIG d   1       6.878  -0.655  -6.287  0.00  0.00    -0.054 A 
ATOM     28  H   LIG d   1       7.527   0.105  -8.177  0.00  0.00     0.066 H 
ATOM     29  H   LIG d   1       6.451  -1.553  -6.710  0.00  0.00     0.062 H 
BRANCH  23  30
ATOM     30  O   LIG d   1       8.505   2.775  -4.663  0.00  0.00    -0.486 OA
BRANCH  30  31
ATOM     31  C   LIG d   1       9.446   2.606  -3.601  0.00  0.00     0.095 C 
ATOM     32  H   LIG d   1       9.016   1.964  -2.832  0.00  0.00     0.073 H 
BRANCH  31  33
ATOM     33  C   LIG d   1      10.722   1.963  -4.147  0.00  0.00    -0.028 C 
ATOM     34  H   LIG d   1      10.494   0.965  -4.523  0.00  0.00     0.026 H 
ATOM     35  H   LIG d   1      11.120   2.574  -4.957  0.00  0.00     0.026 H 
ATOM     36  H   LIG d   1      11.463   1.891  -3.351  0.00  0.00     0.026 H 
ENDBRANCH  31  33
BRANCH  31  37
ATOM     37  C   LIG d   1       9.782   3.971  -2.996  0.00  0.00    -0.028 C 
ATOM     38  H   LIG d   1      10.661   4.382  -3.493  0.00  0.00     0.026 H 
ATOM     39  H   LIG d   1       8.938   4.647  -3.133  0.00  0.00     0.026 H 
ATOM     40  H   LIG d   1       9.986   3.857  -1.931  0.00  0.00     0.026 H 
ENDBRANCH  31  37
ENDBRANCH  30  31
ENDBRANCH  23  30
BRANCH  25  41
ATOM     41  O   LIG d   1       8.624   2.345  -7.380  0.00  0.00    -0.491 OA
BRANCH  41  42
ATOM     42  C   LIG d   1       8.104   2.475  -8.705  0.00  0.00     0.079 C 
ATOM     43  H   LIG d   1       7.015   2.423  -8.675  0.00  0.00     0.066 H 
ATOM     44  H   LIG d   1       8.409   3.434  -9.123  0.00  0.00     0.066 H 
ATOM     45  H   LIG d   1       8.488   1.667  -9.327  0.00  0.00     0.066 H 
ENDBRANCH  41  42
ENDBRANCH  25  41
ENDBRANCH   3  21
BRANCH   1  46
ATOM     46  C   LIG d   1       4.159  -0.095  -4.709  0.00  0.00     0.349 C 
ATOM     47  O   LIG d   1       3.795   0.028  -5.854  0.00  0.00    -0.247 OA
BRANCH  46  48
ATOM     48  O   LIG d   1       4.149   0.963  -3.883  0.00  0.00    -0.462 OA
BRANCH  48  49
ATOM     49  C   LIG d   1       3.546   0.780  -2.601  0.00  0.00     0.090 C 
ATOM     50  H   LIG d   1       3.105  -0.215  -2.545  0.00  0.00     0.069 H 
ATOM     51  H   LIG d   1       2.769   1.530  -2.453  0.00  0.00     0.069 H 
BRANCH  49  52
ATOM     52  C   LIG d   1       4.610   0.926  -1.511  0.00  0.00    -0.031 C 
ATOM     53  H   LIG d   1       5.032  -0.052  -1.282  0.00  0.00     0.026 H 
ATOM     54  H   LIG d   1       5.400   1.590  -1.862  0.00  0.00     0.026 H 
ATOM     55  H   LIG d   1       4.156   1.345  -0.613  0.00  0.00     0.026 H 
ENDBRANCH  49  52
ENDBRANCH  48  49
ENDBRANCH  46  48
ENDBRANCH   1  46
TORSDOF 11
ENDMDL
MODEL 5
REMARK VINA RESULT:      -5.5      3.574      6.257
REMARK  11 active torsions:
REMARK  status: ('A' for Active; 'I' for Inactive)
REMARK    1  A    between atoms: C_1  and  C_2 
REMARK    2  A    between atoms: C_2  and  O_3 
REMARK    3  A    between atoms: O_3  and  C_4 
REMARK    4  A    between atoms: C_4  and  C_6 
REMARK    5  A    between atoms: C_8  and  C_22 
REMARK    6  A    between atoms: C_25  and  O_32 
REMARK    7  A    between atoms: C_26  and  O_28 
REMARK    8  A    between atoms: O_28  and  C_29 
REMARK    9  A    between atoms: C_29  and  C_30 
REMARK   10  A    between atoms: C_29  and  C_31 
REMARK   11  A    between atoms: O_32  and  C_33 
ROOT
ATOM      1  C   LIG d   1       5.868  -1.508  -3.375  0.00  0.00     0.207 C 
ATOM      2  H   LIG d   1       6.051  -0.803  -2.565  0.00  0.00     0.086 H 
ATOM      3  C   LIG d   1       6.365  -0.934  -4.725  0.00  0.00     0.067 C 
ATOM      4  H   LIG d   1       6.390   0.155  -4.700  0.00  0.00     0.044 H 
ATOM      5  C   LIG d   1       7.765  -1.508  -4.809  0.00  0.00     0.091 A 
ATOM      6  C   LIG d   1       7.847  -2.513  -3.885  0.00  0.00     0.143 A 
ATOM      7  C   LIG d   1       9.133  -3.222  -3.768  0.00  0.00     0.059 A 
ATOM      8  C   LIG d   1       9.299  -4.257  -2.844  0.00  0.00    -0.048 A 
ATOM      9  C   LIG d   1      10.513  -4.902  -2.756  0.00  0.00    -0.061 A 
ATOM     10  C   LIG d   1      11.565  -4.527  -3.579  0.00  0.00    -0.058 A 
ATOM     11  C   LIG d   1      11.415  -3.508  -4.495  0.00  0.00    -0.018 A 
ATOM     12  C   LIG d   1      10.198  -2.845  -4.600  0.00  0.00     0.143 A 
ATOM     13  O   LIG d   1      10.036  -1.847  -5.495  0.00  0.00    -0.422 OA
ATOM     14  C   LIG d   1       8.869  -1.190  -5.609  0.00  0.00     0.345 A 
ATOM     15  O   LIG d   1       8.768  -0.297  -6.431  0.00  0.00    -0.245 OA
ATOM     16  O   LIG d   1       6.679  -2.687  -3.220  0.00  0.00    -0.475 OA
ATOM     17  H   LIG d   1       8.481  -4.549  -2.202  0.00  0.00     0.063 H 
ATOM     18  H   LIG d   1      10.647  -5.702  -2.044  0.00  0.00     0.062 H 
ATOM     19  H   LIG d   1      12.513  -5.041  -3.501  0.00  0.00     0.062 H 
ATOM     20  H   LIG d   1      12.241  -3.226  -5.130  0.00  0.00     0.065 H 
ENDROOT
BRANCH   3  21
ATOM     21  C   LIG d   1       5.511  -1.425  -5.866  0.00  0.00    -0.032 A 
ATOM     22  C   LIG d   1       4.598  -0.574  -6.460  0.00  0.00    -0.012 A 
ATOM     23  C   LIG d   1       3.816  -1.022  -7.512  0.00  0.00     0.163 A 
ATOM     24  H   LIG d   1       4.498   0.442  -6.107  0.00  0.00     0.066 H 
ATOM     25  C   LIG d   1       3.944  -2.333  -7.962  0.00  0.00     0.162 A 
ATOM     26  C   LIG d   1       4.858  -3.183  -7.358  0.00  0.00    -0.016 A 
ATOM     27  C   LIG d   1       5.638  -2.728  -6.312  0.00  0.00    -0.054 A 
ATOM     28  H   LIG d   1       4.959  -4.200  -7.705  0.00  0.00     0.066 H 
ATOM     29  H   LIG d   1       6.349  -3.391  -5.842  0.00  0.00     0.062 H 
BRANCH  23  30
ATOM     30  O   LIG d   1       2.921  -0.185  -8.101  0.00  0.00    -0.486 OA
BRANCH  30  31
ATOM     31  C   LIG d   1       3.449   0.824  -8.965  0.00  0.00     0.095 C 
ATOM     32  H   LIG d   1       4.527   0.894  -8.826  0.00  0.00     0.073 H 
BRANCH  31  33
ATOM     33  C   LIG d   1       3.145   0.461 -10.420  0.00  0.00    -0.028 C 
ATOM     34  H   LIG d   1       2.679  -0.524 -10.458  0.00  0.00     0.026 H 
ATOM     35  H   LIG d   1       2.466   1.201 -10.846  0.00  0.00     0.026 H 
ATOM     36  H   LIG d   1       4.071   0.447 -10.993  0.00  0.00     0.026 H 
ENDBRANCH  31  33
BRANCH  31  37
ATOM     37  C   LIG d   1       2.803   2.170  -8.631  0.00  0.00    -0.028 C 
ATOM     38  H   LIG d   1       1.734   2.030  -8.471  0.00  0.00     0.026 H 
ATOM     39  H   LIG d   1       3.255   2.575  -7.724  0.00  0.00     0.026 H 
ATOM     40  H   LIG d   1       2.960   2.864  -9.456  0.00  0.00     0.026 H 
ENDBRANCH  31  37
ENDBRANCH  30  31
ENDBRANCH  23  30
BRANCH  25  41
ATOM     41  O   LIG d   1       3.176  -2.778  -8.991  0.00  0.00    -0.491 OA
BRANCH  41  42
ATOM     42  C   LIG d   1       3.199  -4.182  -9.258  0.00  0.00     0.079 C 
ATOM     43  H   LIG d   1       3.125  -4.732  -8.319  0.00  0.00     0.066 H 
ATOM     44  H   LIG d   1       2.359  -4.444  -9.900  0.00  0.00     0.066 H 
ATOM     45  H   LIG d   1       4.133  -4.441  -9.757  0.00  0.00     0.066 H 
ENDBRANCH  41  42
ENDBRANCH  25  41
ENDBRANCH   3  21
BRANCH   1  46
ATOM     46  C   LIG d   1       4.407  -1.868  -3.452  0.00  0.00     0.349 C 
ATOM     47  O   LIG d   1       4.076  -3.023  -3.581  0.00  0.00    -0.247 OA
BRANCH  46  48
ATOM     48  O   LIG d   1       3.474  -0.907  -3.375  0.00  0.00    -0.462 OA
BRANCH  48  49
ATOM     49  C   LIG d   1       3.643   0.080  -2.354  0.00  0.00     0.090 C 
ATOM     50  H   LIG d   1       4.582  -0.095  -1.831  0.00  0.00     0.069 H 
ATOM     51  H   LIG d   1       2.816   0.017  -1.647  0.00  0.00     0.069 H 
BRANCH  49  52
ATOM     52  C   LIG d   1       3.665   1.472  -2.989  0.00  0.00    -0.031 C 
ATOM     53  H   LIG d   1       4.035   1.398  -4.012  0.00  0.00     0.026 H 
ATOM     54  H   LIG d   1       2.656   1.884  -2.997  0.00  0.00     0.026 H 
ATOM     55  H   LIG d   1       4.320   2.124  -2.412  0.00  0.00     0.026 H 
ENDBRANCH  49  52
ENDBRANCH  48  49
ENDBRANCH  46  48
ENDBRANCH   1  46
TORSDOF 11
ENDMDL
MODEL 6
REMARK VINA RESULT:      -5.4      2.741      6.311
REMARK  11 active torsions:
REMARK  status: ('A' for Active; 'I' for Inactive)
REMARK    1  A    between atoms: C_1  and  C_2 
REMARK    2  A    between atoms: C_2  and  O_3 
REMARK    3  A    between atoms: O_3  and  C_4 
REMARK    4  A    between atoms: C_4  and  C_6 
REMARK    5  A    between atoms: C_8  and  C_22 
REMARK    6  A    between atoms: C_25  and  O_32 
REMARK    7  A    between atoms: C_26  and  O_28 
REMARK    8  A    between atoms: O_28  and  C_29 
REMARK    9  A    between atoms: C_29  and  C_30 
REMARK   10  A    between atoms: C_29  and  C_31 
REMARK   11  A    between atoms: O_32  and  C_33 
ROOT
ATOM      1  C   LIG d   1       4.047  -1.188  -4.903  0.00  0.00     0.207 C 
ATOM      2  H   LIG d   1       2.999  -1.431  -4.729  0.00  0.00     0.086 H 
ATOM      3  C   LIG d   1       4.739  -2.299  -5.730  0.00  0.00     0.067 C 
ATOM      4  H   LIG d   1       4.223  -3.251  -5.612  0.00  0.00     0.044 H 
ATOM      5  C   LIG d   1       4.590  -1.772  -7.143  0.00  0.00     0.091 A 
ATOM      6  C   LIG d   1       4.247  -0.451  -7.048  0.00  0.00     0.143 A 
ATOM      7  C   LIG d   1       4.030   0.285  -8.306  0.00  0.00     0.059 A 
ATOM      8  C   LIG d   1       3.672   1.635  -8.294  0.00  0.00    -0.048 A 
ATOM      9  C   LIG d   1       3.476   2.297  -9.486  0.00  0.00    -0.061 A 
ATOM     10  C   LIG d   1       3.632   1.629 -10.692  0.00  0.00    -0.058 A 
ATOM     11  C   LIG d   1       3.986   0.297 -10.717  0.00  0.00    -0.018 A 
ATOM     12  C   LIG d   1       4.190  -0.390  -9.526  0.00  0.00     0.143 A 
ATOM     13  O   LIG d   1       4.539  -1.694  -9.538  0.00  0.00    -0.422 OA
ATOM     14  C   LIG d   1       4.736  -2.376  -8.397  0.00  0.00     0.345 A 
ATOM     15  O   LIG d   1       5.051  -3.552  -8.455  0.00  0.00    -0.245 OA
ATOM     16  O   LIG d   1       4.171  -0.038  -5.760  0.00  0.00    -0.475 OA
ATOM     17  H   LIG d   1       3.549   2.156  -7.356  0.00  0.00     0.063 H 
ATOM     18  H   LIG d   1       3.198   3.341  -9.482  0.00  0.00     0.062 H 
ATOM     19  H   LIG d   1       3.476   2.159 -11.620  0.00  0.00     0.062 H 
ATOM     20  H   LIG d   1       4.105  -0.212 -11.662  0.00  0.00     0.065 H 
ENDROOT
BRANCH   3  21
ATOM     21  C   LIG d   1       6.193  -2.426  -5.352  0.00  0.00    -0.032 A 
ATOM     22  C   LIG d   1       7.097  -1.462  -5.757  0.00  0.00    -0.012 A 
ATOM     23  C   LIG d   1       8.433  -1.574  -5.406  0.00  0.00     0.163 A 
ATOM     24  H   LIG d   1       6.761  -0.619  -6.343  0.00  0.00     0.066 H 
ATOM     25  C   LIG d   1       8.863  -2.664  -4.655  0.00  0.00     0.162 A 
ATOM     26  C   LIG d   1       7.951  -3.630  -4.257  0.00  0.00    -0.016 A 
ATOM     27  C   LIG d   1       6.620  -3.509  -4.606  0.00  0.00    -0.054 A 
ATOM     28  H   LIG d   1       8.283  -4.476  -3.674  0.00  0.00     0.066 H 
ATOM     29  H   LIG d   1       5.911  -4.263  -4.296  0.00  0.00     0.062 H 
BRANCH  23  30
ATOM     30  O   LIG d   1       9.323  -0.624  -5.799  0.00  0.00    -0.486 OA
BRANCH  30  31
ATOM     31  C   LIG d   1       9.331   0.600  -5.061  0.00  0.00     0.095 C 
ATOM     32  H   LIG d   1       8.750   0.479  -4.148  0.00  0.00     0.073 H 
BRANCH  31  33
ATOM     33  C   LIG d   1      10.772   0.971  -4.704  0.00  0.00    -0.028 C 
ATOM     34  H   LIG d   1      11.347   1.116  -5.619  0.00  0.00     0.026 H 
ATOM     35  H   LIG d   1      10.777   1.893  -4.122  0.00  0.00     0.026 H 
ATOM     36  H   LIG d   1      11.220   0.169  -4.118  0.00  0.00     0.026 H 
ENDBRANCH  31  33
BRANCH  31  37
ATOM     37  C   LIG d   1       8.716   1.712  -5.913  0.00  0.00    -0.028 C 
ATOM     38  H   LIG d   1       9.336   2.606  -5.848  0.00  0.00     0.026 H 
ATOM     39  H   LIG d   1       8.659   1.385  -6.952  0.00  0.00     0.026 H 
ATOM     40  H   LIG d   1       7.714   1.937  -5.549  0.00  0.00     0.026 H 
ENDBRANCH  31  37
ENDBRANCH  30  31
ENDBRANCH  23  30
BRANCH  25  41
ATOM     41  O   LIG d   1      10.173  -2.781  -4.312  0.00  0.00    -0.491 OA
BRANCH  41  42
ATOM     42  C   LIG d   1      10.525  -3.868  -3.455  0.00  0.00     0.079 C 
ATOM     43  H   LIG d   1      10.620  -3.508  -2.430  0.00  0.00     0.066 H 
ATOM     44  H   LIG d   1       9.749  -4.632  -3.499  0.00  0.00     0.066 H 
ATOM     45  H   LIG d   1      11.474  -4.295  -3.779  0.00  0.00     0.066 H 
ENDBRANCH  41  42
ENDBRANCH  25  41
ENDBRANCH   3  21
BRANCH   1  46
ATOM     46  C   LIG d   1       4.767  -0.965  -3.599  0.00  0.00     0.349 C 
ATOM     47  O   LIG d   1       4.709  -1.799  -2.726  0.00  0.00    -0.247 OA
BRANCH  46  48
ATOM     48  O   LIG d   1       5.472   0.161  -3.406  0.00  0.00    -0.462 OA
BRANCH  48  49
ATOM     49  C   LIG d   1       5.113   0.967  -2.282  0.00  0.00     0.090 C 
ATOM     50  H   LIG d   1       5.792   1.816  -2.211  0.00  0.00     0.069 H 
ATOM     51  H   LIG d   1       5.180   0.372  -1.371  0.00  0.00     0.069 H 
BRANCH  49  52
ATOM     52  C   LIG d   1       3.680   1.474  -2.454  0.00  0.00    -0.031 C 
ATOM     53  H   LIG d   1       3.024   0.636  -2.690  0.00  0.00     0.026 H 
ATOM     54  H   LIG d   1       3.348   1.945  -1.530  0.00  0.00     0.026 H 
ATOM     55  H   LIG d   1       3.647   2.200  -3.266  0.00  0.00     0.026 H 
ENDBRANCH  49  52
ENDBRANCH  48  49
ENDBRANCH  46  48
ENDBRANCH   1  46
TORSDOF 11
ENDMDL
MODEL 7
REMARK VINA RESULT:      -5.4      2.887      5.180
REMARK  11 active torsions:
REMARK  status: ('A' for Active; 'I' for Inactive)
REMARK    1  A    between atoms: C_1  and  C_2 
REMARK    2  A    between atoms: C_2  and  O_3 
REMARK    3  A    between atoms: O_3  and  C_4 
REMARK    4  A    between atoms: C_4  and  C_6 
REMARK    5  A    between atoms: C_8  and  C_22 
REMARK    6  A    between atoms: C_25  and  O_32 
REMARK    7  A    between atoms: C_26  and  O_28 
REMARK    8  A    between atoms: O_28  and  C_29 
REMARK    9  A    between atoms: C_29  and  C_30 
REMARK   10  A    between atoms: C_29  and  C_31 
REMARK   11  A    between atoms: O_32  and  C_33 
ROOT
ATOM      1  C   LIG d   1       4.557  -1.386  -4.208  0.00  0.00     0.207 C 
ATOM      2  H   LIG d   1       4.044  -1.664  -3.287  0.00  0.00     0.086 H 
ATOM      3  C   LIG d   1       6.093  -1.416  -4.012  0.00  0.00     0.067 C 
ATOM      4  H   LIG d   1       6.354  -1.279  -2.963  0.00  0.00     0.044 H 
ATOM      5  C   LIG d   1       6.437  -2.816  -4.479  0.00  0.00     0.091 A 
ATOM      6  C   LIG d   1       5.354  -3.291  -5.167  0.00  0.00     0.143 A 
ATOM      7  C   LIG d   1       5.445  -4.657  -5.714  0.00  0.00     0.059 A 
ATOM      8  C   LIG d   1       4.380  -5.216  -6.423  0.00  0.00    -0.048 A 
ATOM      9  C   LIG d   1       4.493  -6.495  -6.923  0.00  0.00    -0.061 A 
ATOM     10  C   LIG d   1       5.657  -7.224  -6.724  0.00  0.00    -0.058 A 
ATOM     11  C   LIG d   1       6.716  -6.682  -6.026  0.00  0.00    -0.018 A 
ATOM     12  C   LIG d   1       6.622  -5.394  -5.514  0.00  0.00     0.143 A 
ATOM     13  O   LIG d   1       7.653  -4.851  -4.831  0.00  0.00    -0.422 OA
ATOM     14  C   LIG d   1       7.580  -3.608  -4.324  0.00  0.00     0.345 A 
ATOM     15  O   LIG d   1       8.536  -3.159  -3.716  0.00  0.00    -0.245 OA
ATOM     16  O   LIG d   1       4.353  -2.380  -5.229  0.00  0.00    -0.475 OA
ATOM     17  H   LIG d   1       3.473  -4.651  -6.578  0.00  0.00     0.063 H 
ATOM     18  H   LIG d   1       3.672  -6.932  -7.472  0.00  0.00     0.062 H 
ATOM     19  H   LIG d   1       5.734  -8.226  -7.121  0.00  0.00     0.062 H 
ATOM     20  H   LIG d   1       7.616  -7.259  -5.878  0.00  0.00     0.065 H 
ENDROOT
BRANCH   3  21
ATOM     21  C   LIG d   1       6.766  -0.378  -4.873  0.00  0.00    -0.032 A 
ATOM     22  C   LIG d   1       6.755  -0.512  -6.249  0.00  0.00    -0.012 A 
ATOM     23  C   LIG d   1       7.370   0.443  -7.043  0.00  0.00     0.163 A 
ATOM     24  H   LIG d   1       6.264  -1.359  -6.706  0.00  0.00     0.066 H 
ATOM     25  C   LIG d   1       8.006   1.531  -6.451  0.00  0.00     0.162 A 
ATOM     26  C   LIG d   1       8.017   1.656  -5.071  0.00  0.00    -0.016 A 
ATOM     27  C   LIG d   1       7.399   0.701  -4.285  0.00  0.00    -0.054 A 
ATOM     28  H   LIG d   1       8.510   2.499  -4.610  0.00  0.00     0.066 H 
ATOM     29  H   LIG d   1       7.409   0.800  -3.210  0.00  0.00     0.062 H 
BRANCH  23  30
ATOM     30  O   LIG d   1       7.356   0.316  -8.396  0.00  0.00    -0.486 OA
BRANCH  30  31
ATOM     31  C   LIG d   1       6.077   0.330  -9.036  0.00  0.00     0.095 C 
ATOM     32  H   LIG d   1       5.386  -0.302  -8.479  0.00  0.00     0.073 H 
BRANCH  31  33
ATOM     33  C   LIG d   1       5.542   1.762  -9.074  0.00  0.00    -0.028 C 
ATOM     34  H   LIG d   1       5.384   2.119  -8.056  0.00  0.00     0.026 H 
ATOM     35  H   LIG d   1       6.262   2.407  -9.578  0.00  0.00     0.026 H 
ATOM     36  H   LIG d   1       4.596   1.783  -9.616  0.00  0.00     0.026 H 
ENDBRANCH  31  33
BRANCH  31  37
ATOM     37  C   LIG d   1       6.216  -0.201 -10.464  0.00  0.00    -0.028 C 
ATOM     38  H   LIG d   1       7.272  -0.340 -10.698  0.00  0.00     0.026 H 
ATOM     39  H   LIG d   1       5.697  -1.156 -10.549  0.00  0.00     0.026 H 
ATOM     40  H   LIG d   1       5.780   0.513 -11.161  0.00  0.00     0.026 H 
ENDBRANCH  31  37
ENDBRANCH  30  31
ENDBRANCH  23  30
BRANCH  25  41
ATOM     41  O   LIG d   1       8.613   2.468  -7.226  0.00  0.00    -0.491 OA
BRANCH  41  42
ATOM     42  C   LIG d   1       9.827   3.034  -6.727  0.00  0.00     0.079 C 
ATOM     43  H   LIG d   1      10.660   2.370  -6.959  0.00  0.00     0.066 H 
ATOM     44  H   LIG d   1       9.995   4.004  -7.195  0.00  0.00     0.066 H 
ATOM     45  H   LIG d   1       9.753   3.159  -5.646  0.00  0.00     0.066 H 
ENDBRANCH  41  42
ENDBRANCH  25  41
ENDBRANCH   3  21
BRANCH   1  46
ATOM     46  C   LIG d   1       4.104  -0.030  -4.683  0.00  0.00     0.349 C 
ATOM     47  O   LIG d   1       3.707   0.112  -5.815  0.00  0.00    -0.247 OA
BRANCH  46  48
ATOM     48  O   LIG d   1       4.141   1.020  -3.848  0.00  0.00    -0.462 OA
BRANCH  48  49
ATOM     49  C   LIG d   1       3.549   0.844  -2.559  0.00  0.00     0.090 C 
ATOM     50  H   LIG d   1       3.073  -0.135  -2.507  0.00  0.00     0.069 H 
ATOM     51  H   LIG d   1       2.801   1.620  -2.393  0.00  0.00     0.069 H 
BRANCH  49  52
ATOM     52  C   LIG d   1       4.631   0.942  -1.482  0.00  0.00    -0.031 C 
ATOM     53  H   LIG d   1       5.022  -0.053  -1.269  0.00  0.00     0.026 H 
ATOM     54  H   LIG d   1       5.440   1.581  -1.837  0.00  0.00     0.026 H 
ATOM     55  H   LIG d   1       4.204   1.366  -0.574  0.00  0.00     0.026 H 
ENDBRANCH  49  52
ENDBRANCH  48  49
ENDBRANCH  46  48
ENDBRANCH   1  46
TORSDOF 11
ENDMDL
MODEL 8
REMARK VINA RESULT:      -5.2      2.217      6.341
REMARK  11 active torsions:
REMARK  status: ('A' for Active; 'I' for Inactive)
REMARK    1  A    between atoms: C_1  and  C_2 
REMARK    2  A    between atoms: C_2  and  O_3 
REMARK    3  A    between atoms: O_3  and  C_4 
REMARK    4  A    between atoms: C_4  and  C_6 
REMARK    5  A    between atoms: C_8  and  C_22 
REMARK    6  A    between atoms: C_25  and  O_32 
REMARK    7  A    between atoms: C_26  and  O_28 
REMARK    8  A    between atoms: O_28  and  C_29 
REMARK    9  A    between atoms: C_29  and  C_30 
REMARK   10  A    between atoms: C_29  and  C_31 
REMARK   11  A    between atoms: O_32  and  C_33 
ROOT
ATOM      1  C   LIG d   1       7.551   0.794  -7.752  0.00  0.00     0.207 C 
ATOM      2  H   LIG d   1       8.090   1.179  -8.619  0.00  0.00     0.086 H 
ATOM      3  C   LIG d   1       8.275  -0.439  -7.158  0.00  0.00     0.067 C 
ATOM      4  H   LIG d   1       8.886  -0.933  -7.913  0.00  0.00     0.044 H 
ATOM      5  C   LIG d   1       9.140   0.196  -6.088  0.00  0.00     0.091 A 
ATOM      6  C   LIG d   1       8.667   1.463  -5.884  0.00  0.00     0.143 A 
ATOM      7  C   LIG d   1       9.364   2.293  -4.885  0.00  0.00     0.059 A 
ATOM      8  C   LIG d   1       8.946   3.600  -4.622  0.00  0.00    -0.048 A 
ATOM      9  C   LIG d   1       9.617   4.353  -3.684  0.00  0.00    -0.061 A 
ATOM     10  C   LIG d   1      10.701   3.819  -3.004  0.00  0.00    -0.058 A 
ATOM     11  C   LIG d   1      11.124   2.530  -3.253  0.00  0.00    -0.018 A 
ATOM     12  C   LIG d   1      10.461   1.753  -4.196  0.00  0.00     0.143 A 
ATOM     13  O   LIG d   1      10.863   0.489  -4.448  0.00  0.00    -0.422 OA
ATOM     14  C   LIG d   1      10.237  -0.276  -5.358  0.00  0.00     0.345 A 
ATOM     15  O   LIG d   1      10.634  -1.412  -5.552  0.00  0.00    -0.245 OA
ATOM     16  O   LIG d   1       7.594   1.736  -6.664  0.00  0.00    -0.475 OA
ATOM     17  H   LIG d   1       8.102   4.017  -5.152  0.00  0.00     0.063 H 
ATOM     18  H   LIG d   1       9.298   5.364  -3.478  0.00  0.00     0.062 H 
ATOM     19  H   LIG d   1      11.220   4.419  -2.270  0.00  0.00     0.062 H 
ATOM     20  H   LIG d   1      11.969   2.126  -2.717  0.00  0.00     0.065 H 
ENDROOT
BRANCH   3  21
ATOM     21  C   LIG d   1       7.287  -1.403  -6.552  0.00  0.00    -0.032 A 
ATOM     22  C   LIG d   1       6.851  -1.218  -5.254  0.00  0.00    -0.012 A 
ATOM     23  C   LIG d   1       5.940  -2.100  -4.696  0.00  0.00     0.163 A 
ATOM     24  H   LIG d   1       7.218  -0.383  -4.675  0.00  0.00     0.066 H 
ATOM     25  C   LIG d   1       5.473  -3.178  -5.443  0.00  0.00     0.162 A 
ATOM     26  C   LIG d   1       5.918  -3.360  -6.743  0.00  0.00    -0.016 A 
ATOM     27  C   LIG d   1       6.824  -2.474  -7.294  0.00  0.00    -0.054 A 
ATOM     28  H   LIG d   1       5.557  -4.196  -7.325  0.00  0.00     0.066 H 
ATOM     29  H   LIG d   1       7.171  -2.617  -8.307  0.00  0.00     0.062 H 
BRANCH  23  30
ATOM     30  O   LIG d   1       5.506  -1.917  -3.421  0.00  0.00    -0.486 OA
BRANCH  30  31
ATOM     31  C   LIG d   1       4.512  -0.911  -3.213  0.00  0.00     0.095 C 
ATOM     32  H   LIG d   1       4.299  -0.409  -4.156  0.00  0.00     0.073 H 
BRANCH  31  33
ATOM     33  C   LIG d   1       3.232  -1.561  -2.682  0.00  0.00    -0.028 C 
ATOM     34  H   LIG d   1       2.780  -0.912  -1.931  0.00  0.00     0.026 H 
ATOM     35  H   LIG d   1       2.531  -1.710  -3.503  0.00  0.00     0.026 H 
ATOM     36  H   LIG d   1       3.473  -2.524  -2.231  0.00  0.00     0.026 H 
ENDBRANCH  31  33
BRANCH  31  37
ATOM     37  C   LIG d   1       5.025   0.109  -2.195  0.00  0.00    -0.028 C 
ATOM     38  H   LIG d   1       4.286   0.236  -1.403  0.00  0.00     0.026 H 
ATOM     39  H   LIG d   1       5.962  -0.246  -1.765  0.00  0.00     0.026 H 
ATOM     40  H   LIG d   1       5.193   1.065  -2.691  0.00  0.00     0.026 H 
ENDBRANCH  31  37
ENDBRANCH  30  31
ENDBRANCH  23  30
BRANCH  25  41
ATOM     41  O   LIG d   1       4.582  -4.048  -4.899  0.00  0.00    -0.491 OA
BRANCH  41  42
ATOM     42  C   LIG d   1       4.585  -5.383  -5.410  0.00  0.00     0.079 C 
ATOM     43  H   LIG d   1       3.627  -5.857  -5.194  0.00  0.00     0.066 H 
ATOM     44  H   LIG d   1       4.742  -5.360  -6.488  0.00  0.00     0.066 H 
ATOM     45  H   LIG d   1       5.386  -5.951  -4.937  0.00  0.00     0.066 H 
ENDBRANCH  41  42
ENDBRANCH  25  41
ENDBRANCH   3  21
BRANCH   1  46
ATOM     46  C   LIG d   1       6.128   0.457  -8.114  0.00  0.00     0.349 C 
ATOM     47  O   LIG d   1       5.880  -0.042  -9.186  0.00  0.00    -0.247 OA
BRANCH  46  48
ATOM     48  O   LIG d   1       5.137   0.711  -7.245  0.00  0.00    -0.462 OA
BRANCH  48  49
ATOM     49  C   LIG d   1       3.882   0.073  -7.490  0.00  0.00     0.090 C 
ATOM     50  H   LIG d   1       4.048  -0.977  -7.729  0.00  0.00     0.069 H 
ATOM     51  H   LIG d   1       3.382   0.561  -8.326  0.00  0.00     0.069 H 
BRANCH  49  52
ATOM     52  C   LIG d   1       3.005   0.177  -6.240  0.00  0.00    -0.031 C 
ATOM     53  H   LIG d   1       2.135  -0.471  -6.352  0.00  0.00     0.026 H 
ATOM     54  H   LIG d   1       3.579  -0.135  -5.367  0.00  0.00     0.026 H 
ATOM     55  H   LIG d   1       2.676   1.208  -6.111  0.00  0.00     0.026 H 
ENDBRANCH  49  52
ENDBRANCH  48  49
ENDBRANCH  46  48
ENDBRANCH   1  46
TORSDOF 11
ENDMDL
MODEL 9
REMARK VINA RESULT:      -5.0      4.047      7.056
REMARK  11 active torsions:
REMARK  status: ('A' for Active; 'I' for Inactive)
REMARK    1  A    between atoms: C_1  and  C_2 
REMARK    2  A    between atoms: C_2  and  O_3 
REMARK    3  A    between atoms: O_3  and  C_4 
REMARK    4  A    between atoms: C_4  and  C_6 
REMARK    5  A    between atoms: C_8  and  C_22 
REMARK    6  A    between atoms: C_25  and  O_32 
REMARK    7  A    between atoms: C_26  and  O_28 
REMARK    8  A    between atoms: O_28  and  C_29 
REMARK    9  A    between atoms: C_29  and  C_30 
REMARK   10  A    between atoms: C_29  and  C_31 
REMARK   11  A    between atoms: O_32  and  C_33 
ROOT
ATOM      1  C   LIG d   1       3.838  -2.017  -5.289  0.00  0.00     0.207 C 
ATOM      2  H   LIG d   1       2.828  -2.425  -5.329  0.00  0.00     0.086 H 
ATOM      3  C   LIG d   1       4.780  -2.789  -6.245  0.00  0.00     0.067 C 
ATOM      4  H   LIG d   1       4.409  -3.797  -6.429  0.00  0.00     0.044 H 
ATOM      5  C   LIG d   1       4.705  -1.945  -7.502  0.00  0.00     0.091 A 
ATOM      6  C   LIG d   1       4.152  -0.744  -7.151  0.00  0.00     0.143 A 
ATOM      7  C   LIG d   1       3.961   0.252  -8.220  0.00  0.00     0.059 A 
ATOM      8  C   LIG d   1       3.398   1.500  -7.943  0.00  0.00    -0.048 A 
ATOM      9  C   LIG d   1       3.232   2.412  -8.963  0.00  0.00    -0.061 A 
ATOM     10  C   LIG d   1       3.619   2.094 -10.256  0.00  0.00    -0.058 A 
ATOM     11  C   LIG d   1       4.177   0.865 -10.542  0.00  0.00    -0.018 A 
ATOM     12  C   LIG d   1       4.355  -0.068  -9.528  0.00  0.00     0.143 A 
ATOM     13  O   LIG d   1       4.902  -1.274  -9.794  0.00  0.00    -0.422 OA
ATOM     14  C   LIG d   1       5.078  -2.192  -8.828  0.00  0.00     0.345 A 
ATOM     15  O   LIG d   1       5.577  -3.266  -9.114  0.00  0.00    -0.245 OA
ATOM     16  O   LIG d   1       3.874  -0.682  -5.826  0.00  0.00    -0.475 OA
ATOM     17  H   LIG d   1       3.095   1.749  -6.937  0.00  0.00     0.063 H 
ATOM     18  H   LIG d   1       2.797   3.378  -8.754  0.00  0.00     0.062 H 
ATOM     19  H   LIG d   1       3.484   2.817 -11.047  0.00  0.00     0.062 H 
ATOM     20  H   LIG d   1       4.475   0.630 -11.553  0.00  0.00     0.065 H 
ENDROOT
BRANCH   3  21
ATOM     21  C   LIG d   1       6.186  -2.826  -5.703  0.00  0.00    -0.032 A 
ATOM     22  C   LIG d   1       6.676  -3.987  -5.135  0.00  0.00    -0.012 A 
ATOM     23  C   LIG d   1       7.970  -4.024  -4.641  0.00  0.00     0.163 A 
ATOM     24  H   LIG d   1       6.052  -4.866  -5.081  0.00  0.00     0.066 H 
ATOM     25  C   LIG d   1       8.770  -2.887  -4.708  0.00  0.00     0.162 A 
ATOM     26  C   LIG d   1       8.271  -1.725  -5.275  0.00  0.00    -0.016 A 
ATOM     27  C   LIG d   1       6.981  -1.696  -5.770  0.00  0.00    -0.054 A 
ATOM     28  H   LIG d   1       8.890  -0.842  -5.328  0.00  0.00     0.066 H 
ATOM     29  H   LIG d   1       6.593  -0.789  -6.210  0.00  0.00     0.062 H 
BRANCH  23  30
ATOM     30  O   LIG d   1       8.456  -5.166  -4.086  0.00  0.00    -0.486 OA
BRANCH  30  31
ATOM     31  C   LIG d   1       8.851  -6.206  -4.984  0.00  0.00     0.095 C 
ATOM     32  H   LIG d   1       8.616  -5.911  -6.007  0.00  0.00     0.073 H 
BRANCH  31  33
ATOM     33  C   LIG d   1      10.356  -6.447  -4.855  0.00  0.00    -0.028 C 
ATOM     34  H   LIG d   1      10.575  -7.494  -5.065  0.00  0.00     0.026 H 
ATOM     35  H   LIG d   1      10.889  -5.815  -5.566  0.00  0.00     0.026 H 
ATOM     36  H   LIG d   1      10.678  -6.205  -3.842  0.00  0.00     0.026 H 
ENDBRANCH  31  33
BRANCH  31  37
ATOM     37  C   LIG d   1       8.097  -7.491  -4.639  0.00  0.00    -0.028 C 
ATOM     38  H   LIG d   1       7.178  -7.542  -5.224  0.00  0.00     0.026 H 
ATOM     39  H   LIG d   1       8.723  -8.354  -4.870  0.00  0.00     0.026 H 
ATOM     40  H   LIG d   1       7.852  -7.495  -3.577  0.00  0.00     0.026 H 
ENDBRANCH  31  37
ENDBRANCH  30  31
ENDBRANCH  23  30
BRANCH  25  41
ATOM     41  O   LIG d   1      10.039  -2.917  -4.221  0.00  0.00    -0.491 OA
BRANCH  41  42
ATOM     42  C   LIG d   1      11.018  -2.137  -4.910  0.00  0.00     0.079 C 
ATOM     43  H   LIG d   1      11.520  -2.758  -5.653  0.00  0.00     0.066 H 
ATOM     44  H   LIG d   1      10.530  -1.299  -5.407  0.00  0.00     0.066 H 
ATOM     45  H   LIG d   1      11.751  -1.761  -4.197  0.00  0.00     0.066 H 
ENDBRANCH  41  42
ENDBRANCH  25  41
ENDBRANCH   3  21
BRANCH   1  46
ATOM     46  C   LIG d   1       4.369  -2.042  -3.879  0.00  0.00     0.349 C 
ATOM     47  O   LIG d   1       4.312  -3.060  -3.230  0.00  0.00    -0.247 OA
BRANCH  46  48
ATOM     48  O   LIG d   1       4.906  -0.934  -3.345  0.00  0.00    -0.462 OA
BRANCH  48  49
ATOM     49  C   LIG d   1       4.495  -0.588  -2.021  0.00  0.00     0.090 C 
ATOM     50  H   LIG d   1       5.184  -1.028  -1.300  0.00  0.00     0.069 H 
ATOM     51  H   LIG d   1       3.490  -0.968  -1.841  0.00  0.00     0.069 H 
BRANCH  49  52
ATOM     52  C   LIG d   1       4.501   0.934  -1.867  0.00  0.00    -0.031 C 
ATOM     53  H   LIG d   1       3.743   1.228  -1.140  0.00  0.00     0.026 H 
ATOM     54  H   LIG d   1       5.481   1.261  -1.520  0.00  0.00     0.026 H 
ATOM     55  H   LIG d   1       4.281   1.398  -2.828  0.00  0.00     0.026 H 
ENDBRANCH  49  52
ENDBRANCH  48  49
ENDBRANCH  46  48
ENDBRANCH   1  46
TORSDOF 11
ENDMDL
MODEL 10
REMARK VINA RESULT:      -5.0      3.725      5.162
REMARK  11 active torsions:
REMARK  status: ('A' for Active; 'I' for Inactive)
REMARK    1  A    between atoms: C_1  and  C_2 
REMARK    2  A    between atoms: C_2  and  O_3 
REMARK    3  A    between atoms: O_3  and  C_4 
REMARK    4  A    between atoms: C_4  and  C_6 
REMARK    5  A    between atoms: C_8  and  C_22 
REMARK    6  A    between atoms: C_25  and  O_32 
REMARK    7  A    between atoms: C_26  and  O_28 
REMARK    8  A    between atoms: O_28  and  C_29 
REMARK    9  A    between atoms: C_29  and  C_30 
REMARK   10  A    between atoms: C_29  and  C_31 
REMARK   11  A    between atoms: O_32  and  C_33 
ROOT
ATOM      1  C   LIG d   1       8.103  -2.351  -6.055  0.00  0.00     0.207 C 
ATOM      2  H   LIG d   1       8.865  -2.741  -5.381  0.00  0.00     0.086 H 
ATOM      3  C   LIG d   1       6.907  -3.330  -6.156  0.00  0.00     0.067 C 
ATOM      4  H   LIG d   1       7.215  -4.347  -5.916  0.00  0.00     0.044 H 
ATOM      5  C   LIG d   1       5.969  -2.783  -5.100  0.00  0.00     0.091 A 
ATOM      6  C   LIG d   1       6.404  -1.525  -4.784  0.00  0.00     0.143 A 
ATOM      7  C   LIG d   1       5.649  -0.786  -3.756  0.00  0.00     0.059 A 
ATOM      8  C   LIG d   1       6.033   0.502  -3.374  0.00  0.00    -0.048 A 
ATOM      9  C   LIG d   1       5.309   1.169  -2.410  0.00  0.00    -0.061 A 
ATOM     10  C   LIG d   1       4.207   0.567  -1.822  0.00  0.00    -0.058 A 
ATOM     11  C   LIG d   1       3.817  -0.703  -2.191  0.00  0.00    -0.018 A 
ATOM     12  C   LIG d   1       4.533  -1.393  -3.162  0.00  0.00     0.143 A 
ATOM     13  O   LIG d   1       4.160  -2.637  -3.534  0.00  0.00    -0.422 OA
ATOM     14  C   LIG d   1       4.842  -3.322  -4.468  0.00  0.00     0.345 A 
ATOM     15  O   LIG d   1       4.469  -4.441  -4.773  0.00  0.00    -0.245 OA
ATOM     16  O   LIG d   1       7.492  -1.168  -5.508  0.00  0.00    -0.475 OA
ATOM     17  H   LIG d   1       6.892   0.971  -3.830  0.00  0.00     0.063 H 
ATOM     18  H   LIG d   1       5.603   2.164  -2.111  0.00  0.00     0.062 H 
ATOM     19  H   LIG d   1       3.646   1.101  -1.067  0.00  0.00     0.062 H 
ATOM     20  H   LIG d   1       2.956  -1.160  -1.726  0.00  0.00     0.065 H 
ENDROOT
BRANCH   3  21
ATOM     21  C   LIG d   1       6.275  -3.270  -7.524  0.00  0.00    -0.032 A 
ATOM     22  C   LIG d   1       5.443  -2.216  -7.852  0.00  0.00    -0.012 A 
ATOM     23  C   LIG d   1       4.865  -2.156  -9.110  0.00  0.00     0.163 A 
ATOM     24  H   LIG d   1       5.246  -1.437  -7.130  0.00  0.00     0.066 H 
ATOM     25  C   LIG d   1       5.117  -3.163 -10.037  0.00  0.00     0.162 A 
ATOM     26  C   LIG d   1       5.949  -4.219  -9.699  0.00  0.00    -0.016 A 
ATOM     27  C   LIG d   1       6.525  -4.271  -8.444  0.00  0.00    -0.054 A 
ATOM     28  H   LIG d   1       6.145  -5.002 -10.417  0.00  0.00     0.066 H 
ATOM     29  H   LIG d   1       7.173  -5.095  -8.182  0.00  0.00     0.062 H 
BRANCH  23  30
ATOM     30  O   LIG d   1       4.050  -1.118  -9.437  0.00  0.00    -0.486 OA
BRANCH  30  31
ATOM     31  C   LIG d   1       2.786  -1.053  -8.773  0.00  0.00     0.095 C 
ATOM     32  H   LIG d   1       2.707  -1.872  -8.060  0.00  0.00     0.073 H 
BRANCH  31  33
ATOM     33  C   LIG d   1       2.666   0.281  -8.033  0.00  0.00    -0.028 C 
ATOM     34  H   LIG d   1       3.565   0.874  -8.206  0.00  0.00     0.026 H 
ATOM     35  H   LIG d   1       1.796   0.825  -8.401  0.00  0.00     0.026 H 
ATOM     36  H   LIG d   1       2.553   0.096  -6.965  0.00  0.00     0.026 H 
ENDBRANCH  31  33
BRANCH  31  37
ATOM     37  C   LIG d   1       1.662  -1.165  -9.805  0.00  0.00    -0.028 C 
ATOM     38  H   LIG d   1       1.739  -2.122 -10.323  0.00  0.00     0.026 H 
ATOM     39  H   LIG d   1       0.697  -1.103  -9.301  0.00  0.00     0.026 H 
ATOM     40  H   LIG d   1       1.748  -0.353 -10.526  0.00  0.00     0.026 H 
ENDBRANCH  31  37
ENDBRANCH  30  31
ENDBRANCH  23  30
BRANCH  25  41
ATOM     41  O   LIG d   1       4.549  -3.111 -11.271  0.00  0.00    -0.491 OA
BRANCH  41  42
ATOM     42  C   LIG d   1       5.432  -3.141 -12.394  0.00  0.00     0.079 C 
ATOM     43  H   LIG d   1       5.040  -3.826 -13.147  0.00  0.00     0.066 H 
ATOM     44  H   LIG d   1       5.513  -2.142 -12.820  0.00  0.00     0.066 H 
ATOM     45  H   LIG d   1       6.417  -3.482 -12.072  0.00  0.00     0.066 H 
ENDBRANCH  41  42
ENDBRANCH  25  41
ENDBRANCH   3  21
BRANCH   1  46
ATOM     46  C   LIG d   1       8.684  -2.074  -7.417  0.00  0.00     0.349 C 
ATOM     47  O   LIG d   1       8.412  -1.046  -7.992  0.00  0.00    -0.247 OA
BRANCH  46  48
ATOM     48  O   LIG d   1       9.505  -2.967  -7.990  0.00  0.00    -0.462 OA
BRANCH  48  49
ATOM     49  C   LIG d   1       9.780  -2.794  -9.383  0.00  0.00     0.090 C 
ATOM     50  H   LIG d   1       9.227  -1.934  -9.759  0.00  0.00     0.069 H 
ATOM     51  H   LIG d   1       9.474  -3.688  -9.927  0.00  0.00     0.069 H 
BRANCH  49  52
ATOM     52  C   LIG d   1      11.279  -2.563  -9.582  0.00  0.00    -0.031 C 
ATOM     53  H   LIG d   1      11.520  -1.526  -9.350  0.00  0.00     0.026 H 
ATOM     54  H   LIG d   1      11.839  -3.223  -8.920  0.00  0.00     0.026 H 
ATOM     55  H   LIG d   1      11.545  -2.774 -10.618  0.00  0.00     0.026 H 
ENDBRANCH  49  52
ENDBRANCH  48  49
ENDBRANCH  46  48
ENDBRANCH   1  46
TORSDOF 11
ENDMDL
