MODEL 1
REMARK VINA RESULT:      -6.7      0.000      0.000
REMARK  10 active torsions:
REMARK  status: ('A' for Active; 'I' for Inactive)
REMARK    1  A    between atoms: C_1  and  C_2 
REMARK    2  A    between atoms: C_6  and  O_23 
REMARK    3  A    between atoms: C_12  and  C_13 
REMARK    4  A    between atoms: C_13  and  C_14 
REMARK    5  A    between atoms: C_14  and  C_15 
REMARK       I    between atoms: C_15  and  N_17 
REMARK       I    between atoms: N_17  and  CA_18 
REMARK    6  A    between atoms: CA_18  and  CB_20 
REMARK       I    between atoms: CA_18  and  C_21 
REMARK    7  A    between atoms: C_21  and  O_22 
REMARK    8  A    between atoms: O_23  and  C_24 
REMARK    9  A    between atoms: C_24  and  C_25 
REMARK   10  A    between atoms: C_25  and  C_27 
ROOT
ATOM      1  C   UNK d   0       9.333   3.245  -5.947  0.00  0.00    -0.030 A 
ATOM      2  C   UNK d   0       8.454   2.141  -5.559  0.00  0.00     0.021 A 
ATOM      3  C   UNK d   0       7.885   1.300  -6.522  0.00  0.00    -0.047 A 
ATOM      4  C   UNK d   0       7.074   0.274  -6.133  0.00  0.00    -0.019 A 
ATOM      5  C   UNK d   0       6.813   0.055  -4.781  0.00  0.00     0.124 A 
ATOM      6  C   UNK d   0       7.372   0.874  -3.814  0.00  0.00     0.023 A 
ATOM      7  C   UNK d   0       8.198   1.920  -4.192  0.00  0.00     0.143 A 
ATOM      8  O   UNK d   0       8.754   2.731  -3.266  0.00  0.00    -0.422 OA
ATOM      9  C   UNK d   0       9.556   3.748  -3.616  0.00  0.00     0.341 A 
ATOM     10  O   UNK d   0      10.035   4.453  -2.746  0.00  0.00    -0.245 OA
ATOM     11  C   UNK d   0       9.860   4.022  -4.965  0.00  0.00     0.041 A 
ATOM     12  H   UNK d   0       8.082   1.466  -7.571  0.00  0.00     0.063 H 
ATOM     13  H   UNK d   0       6.631  -0.372  -6.876  0.00  0.00     0.065 H 
ATOM     14  H   UNK d   0       7.165   0.697  -2.769  0.00  0.00     0.069 H 
ENDROOT
BRANCH  11  15
ATOM     15  C   UNK d   0      10.765   5.175  -5.318  0.00  0.00    -0.012 C 
ATOM     16  H   UNK d   0      11.531   5.283  -4.549  0.00  0.00     0.032 H 
ATOM     17  H   UNK d   0      11.240   4.982  -6.279  0.00  0.00     0.032 H 
BRANCH  15  18
ATOM     18  C   UNK d   0       9.943   6.462  -5.403  0.00  0.00     0.028 C 
ATOM     19  H   UNK d   0      10.090   6.923  -6.379  0.00  0.00     0.036 H 
ATOM     20  H   UNK d   0       8.887   6.228  -5.267  0.00  0.00     0.036 H 
BRANCH  18  21
ATOM     21  C   UNK d   0      10.390   7.415  -4.324  0.00  0.00     0.214 C 
ATOM     22  O   UNK d   0      11.427   8.031  -4.450  0.00  0.00    -0.276 OA
ATOM     23  N   ALA d   1       9.638   7.581  -3.218  0.00  0.00    -0.310 N 
ATOM     24  CA  ALA d   1      10.071   8.508  -2.169  0.00  0.00     0.043 C 
ATOM     25  H   ALA d   1       8.809   7.088  -3.117  0.00  0.00     0.149 HD
ATOM     26  HA  ALA d   1      11.158   8.486  -2.093  0.00  0.00     0.052 H 
ATOM     27  C   ALA d   1       9.458   8.087  -0.832  0.00  0.00     0.062 C 
ATOM     28  H1  ALA d   1       9.712   7.047  -0.627  0.00  0.00     0.058 H 
ATOM     29  H2  ALA d   1       9.851   8.720  -0.037  0.00  0.00     0.058 H 
BRANCH  24  30
ATOM     30  CB  ALA d   1       9.612   9.925  -2.518  0.00  0.00    -0.044 C 
ATOM     31  HB1 ALA d   1      10.145  10.272  -3.402  0.00  0.00     0.025 H 
ATOM     32  HB2 ALA d   1       8.540   9.920  -2.717  0.00  0.00     0.025 H 
ATOM     33  HB3 ALA d   1       9.822  10.591  -1.680  0.00  0.00     0.025 H 
ENDBRANCH  24  30
BRANCH  27  34
ATOM     34  O   ALA d   1       8.037   8.226  -0.895  0.00  0.00    -0.393 OA
ATOM     35  H   ALA d   1       7.601   7.560  -1.445  0.00  0.00     0.209 HD
ENDBRANCH  27  34
ENDBRANCH  18  21
ENDBRANCH  15  18
ENDBRANCH  11  15
BRANCH   1  36
ATOM     36  C   UNK d   0       9.640   3.516  -7.398  0.00  0.00    -0.039 C 
ATOM     37  H   UNK d   0      10.068   4.513  -7.498  0.00  0.00     0.028 H 
ATOM     38  H   UNK d   0      10.352   2.776  -7.763  0.00  0.00     0.028 H 
ATOM     39  H   UNK d   0       8.721   3.455  -7.981  0.00  0.00     0.028 H 
ENDBRANCH   1  36
BRANCH   5  40
ATOM     40  O   UNK d   0       6.004  -0.971  -4.410  0.00  0.00    -0.488 OA
BRANCH  40  41
ATOM     41  C   UNK d   0       6.058  -1.376  -3.040  0.00  0.00     0.110 C 
ATOM     42  H   UNK d   0       6.310  -2.435  -2.985  0.00  0.00     0.074 H 
ATOM     43  H   UNK d   0       6.817  -0.793  -2.519  0.00  0.00     0.074 H 
BRANCH  41  44
ATOM     44  C   UNK d   0       4.717  -1.145  -2.395  0.00  0.00    -0.043 C 
ATOM     45  C   UNK d   0       3.822  -2.102  -2.382  0.00  0.00    -0.097 C 
ATOM     46  H   UNK d   0       2.861  -1.936  -1.918  0.00  0.00     0.053 H 
ATOM     47  H   UNK d   0       4.046  -3.056  -2.834  0.00  0.00     0.053 H 
BRANCH  44  48
ATOM     48  C   UNK d   0       4.403   0.187  -1.763  0.00  0.00    -0.041 C 
ATOM     49  H   UNK d   0       4.416   0.086  -0.678  0.00  0.00     0.028 H 
ATOM     50  H   UNK d   0       5.149   0.920  -2.070  0.00  0.00     0.028 H 
ATOM     51  H   UNK d   0       3.416   0.518  -2.085  0.00  0.00     0.028 H 
ENDBRANCH  44  48
ENDBRANCH  41  44
ENDBRANCH  40  41
ENDBRANCH   5  40
TORSDOF 12
ENDMDL
MODEL 2
REMARK VINA RESULT:      -6.2      6.972     11.812
REMARK  10 active torsions:
REMARK  status: ('A' for Active; 'I' for Inactive)
REMARK    1  A    between atoms: C_1  and  C_2 
REMARK    2  A    between atoms: C_6  and  O_23 
REMARK    3  A    between atoms: C_12  and  C_13 
REMARK    4  A    between atoms: C_13  and  C_14 
REMARK    5  A    between atoms: C_14  and  C_15 
REMARK       I    between atoms: C_15  and  N_17 
REMARK       I    between atoms: N_17  and  CA_18 
REMARK    6  A    between atoms: CA_18  and  CB_20 
REMARK       I    between atoms: CA_18  and  C_21 
REMARK    7  A    between atoms: C_21  and  O_22 
REMARK    8  A    between atoms: O_23  and  C_24 
REMARK    9  A    between atoms: C_24  and  C_25 
REMARK   10  A    between atoms: C_25  and  C_27 
ROOT
ATOM      1  C   UNK d   0       7.133  -4.780  -5.763  0.00  0.00    -0.030 A 
ATOM      2  C   UNK d   0       6.436  -3.521  -5.496  0.00  0.00     0.021 A 
ATOM      3  C   UNK d   0       7.116  -2.298  -5.533  0.00  0.00    -0.047 A 
ATOM      4  C   UNK d   0       6.440  -1.139  -5.286  0.00  0.00    -0.019 A 
ATOM      5  C   UNK d   0       5.076  -1.163  -5.003  0.00  0.00     0.124 A 
ATOM      6  C   UNK d   0       4.386  -2.363  -4.967  0.00  0.00     0.023 A 
ATOM      7  C   UNK d   0       5.057  -3.551  -5.216  0.00  0.00     0.143 A 
ATOM      8  O   UNK d   0       4.402  -4.733  -5.187  0.00  0.00    -0.422 OA
ATOM      9  C   UNK d   0       5.038  -5.890  -5.425  0.00  0.00     0.341 A 
ATOM     10  O   UNK d   0       4.407  -6.931  -5.388  0.00  0.00    -0.245 OA
ATOM     11  C   UNK d   0       6.416  -5.933  -5.719  0.00  0.00     0.041 A 
ATOM     12  H   UNK d   0       8.173  -2.273  -5.751  0.00  0.00     0.063 H 
ATOM     13  H   UNK d   0       6.966  -0.195  -5.310  0.00  0.00     0.065 H 
ATOM     14  H   UNK d   0       3.329  -2.374  -4.747  0.00  0.00     0.069 H 
ENDROOT
BRANCH  11  15
ATOM     15  C   UNK d   0       7.093  -7.254  -5.981  0.00  0.00    -0.012 C 
ATOM     16  H   UNK d   0       6.349  -7.986  -6.299  0.00  0.00     0.032 H 
ATOM     17  H   UNK d   0       7.839  -7.130  -6.765  0.00  0.00     0.032 H 
BRANCH  15  18
ATOM     18  C   UNK d   0       7.773  -7.742  -4.700  0.00  0.00     0.028 C 
ATOM     19  H   UNK d   0       8.845  -7.835  -4.871  0.00  0.00     0.036 H 
ATOM     20  H   UNK d   0       7.593  -7.026  -3.898  0.00  0.00     0.036 H 
BRANCH  18  21
ATOM     21  C   UNK d   0       7.207  -9.084  -4.312  0.00  0.00     0.214 C 
ATOM     22  O   UNK d   0       7.941 -10.043  -4.201  0.00  0.00    -0.276 OA
ATOM     23  N   ALA d   1       5.885  -9.218  -4.089  0.00  0.00    -0.310 N 
ATOM     24  CA  ALA d   1       5.334 -10.522  -3.711  0.00  0.00     0.043 C 
ATOM     25  H   ALA d   1       5.297  -8.452  -4.179  0.00  0.00     0.149 HD
ATOM     26  HA  ALA d   1       5.885 -11.311  -4.222  0.00  0.00     0.052 H 
ATOM     27  C   ALA d   1       3.859 -10.589  -4.113  0.00  0.00     0.062 C 
ATOM     28  H1  ALA d   1       3.761 -10.367  -5.175  0.00  0.00     0.058 H 
ATOM     29  H2  ALA d   1       3.473 -11.588  -3.914  0.00  0.00     0.058 H 
BRANCH  24  30
ATOM     30  CB  ALA d   1       5.460 -10.710  -2.198  0.00  0.00    -0.044 C 
ATOM     31  HB1 ALA d   1       5.034 -11.673  -1.915  0.00  0.00     0.025 H 
ATOM     32  HB2 ALA d   1       6.511 -10.680  -1.914  0.00  0.00     0.025 H 
ATOM     33  HB3 ALA d   1       4.923  -9.910  -1.687  0.00  0.00     0.025 H 
ENDBRANCH  24  30
BRANCH  27  34
ATOM     34  O   ALA d   1       3.116  -9.631  -3.356  0.00  0.00    -0.393 OA
ATOM     35  H   ALA d   1       2.901  -9.920  -2.458  0.00  0.00     0.209 HD
ENDBRANCH  27  34
ENDBRANCH  18  21
ENDBRANCH  15  18
ENDBRANCH  11  15
BRANCH   1  36
ATOM     36  C   UNK d   0       8.608  -4.797  -6.074  0.00  0.00    -0.039 C 
ATOM     37  H   UNK d   0       8.754  -4.696  -7.149  0.00  0.00     0.028 H 
ATOM     38  H   UNK d   0       9.097  -3.969  -5.561  0.00  0.00     0.028 H 
ATOM     39  H   UNK d   0       9.039  -5.739  -5.735  0.00  0.00     0.028 H 
ENDBRANCH   1  36
BRANCH   5  40
ATOM     40  O   UNK d   0       4.418  -0.001  -4.760  0.00  0.00    -0.488 OA
BRANCH  40  41
ATOM     41  C   UNK d   0       3.434  -0.016  -3.724  0.00  0.00     0.110 C 
ATOM     42  H   UNK d   0       2.787   0.855  -3.825  0.00  0.00     0.074 H 
ATOM     43  H   UNK d   0       2.836  -0.925  -3.806  0.00  0.00     0.074 H 
BRANCH  41  44
ATOM     44  C   UNK d   0       4.116   0.016  -2.382  0.00  0.00    -0.043 C 
ATOM     45  C   UNK d   0       4.430   1.164  -1.834  0.00  0.00    -0.097 C 
ATOM     46  H   UNK d   0       4.919   1.187  -0.871  0.00  0.00     0.053 H 
ATOM     47  H   UNK d   0       4.201   2.087  -2.345  0.00  0.00     0.053 H 
BRANCH  44  48
ATOM     48  C   UNK d   0       4.437  -1.272  -1.667  0.00  0.00    -0.041 C 
ATOM     49  H   UNK d   0       5.313  -1.128  -1.036  0.00  0.00     0.028 H 
ATOM     50  H   UNK d   0       3.589  -1.568  -1.051  0.00  0.00     0.028 H 
ATOM     51  H   UNK d   0       4.643  -2.052  -2.400  0.00  0.00     0.028 H 
ENDBRANCH  44  48
ENDBRANCH  41  44
ENDBRANCH  40  41
ENDBRANCH   5  40
TORSDOF 12
ENDMDL
MODEL 3
REMARK VINA RESULT:      -5.9      7.261     11.970
REMARK  10 active torsions:
REMARK  status: ('A' for Active; 'I' for Inactive)
REMARK    1  A    between atoms: C_1  and  C_2 
REMARK    2  A    between atoms: C_6  and  O_23 
REMARK    3  A    between atoms: C_12  and  C_13 
REMARK    4  A    between atoms: C_13  and  C_14 
REMARK    5  A    between atoms: C_14  and  C_15 
REMARK       I    between atoms: C_15  and  N_17 
REMARK       I    between atoms: N_17  and  CA_18 
REMARK    6  A    between atoms: CA_18  and  CB_20 
REMARK       I    between atoms: CA_18  and  C_21 
REMARK    7  A    between atoms: C_21  and  O_22 
REMARK    8  A    between atoms: O_23  and  C_24 
REMARK    9  A    between atoms: C_24  and  C_25 
REMARK   10  A    between atoms: C_25  and  C_27 
ROOT
ATOM      1  C   UNK d   0       3.248  -2.421  -9.259  0.00  0.00    -0.030 A 
ATOM      2  C   UNK d   0       3.440  -1.604  -8.060  0.00  0.00     0.021 A 
ATOM      3  C   UNK d   0       2.670  -0.456  -7.840  0.00  0.00    -0.047 A 
ATOM      4  C   UNK d   0       2.865   0.285  -6.711  0.00  0.00    -0.019 A 
ATOM      5  C   UNK d   0       3.822  -0.096  -5.773  0.00  0.00     0.124 A 
ATOM      6  C   UNK d   0       4.590  -1.232  -5.972  0.00  0.00     0.023 A 
ATOM      7  C   UNK d   0       4.405  -1.996  -7.114  0.00  0.00     0.143 A 
ATOM      8  O   UNK d   0       5.142  -3.108  -7.327  0.00  0.00    -0.422 OA
ATOM      9  C   UNK d   0       4.974  -3.858  -8.427  0.00  0.00     0.341 A 
ATOM     10  O   UNK d   0       5.662  -4.852  -8.577  0.00  0.00    -0.245 OA
ATOM     11  C   UNK d   0       4.023  -3.527  -9.413  0.00  0.00     0.041 A 
ATOM     12  H   UNK d   0       1.927  -0.154  -8.564  0.00  0.00     0.063 H 
ATOM     13  H   UNK d   0       2.273   1.174  -6.543  0.00  0.00     0.065 H 
ATOM     14  H   UNK d   0       5.329  -1.520  -5.241  0.00  0.00     0.069 H 
ENDROOT
BRANCH  11  15
ATOM     15  C   UNK d   0       3.865  -4.396 -10.634  0.00  0.00    -0.012 C 
ATOM     16  H   UNK d   0       3.227  -3.891 -11.359  0.00  0.00     0.032 H 
ATOM     17  H   UNK d   0       4.843  -4.581 -11.077  0.00  0.00     0.032 H 
BRANCH  15  18
ATOM     18  C   UNK d   0       3.226  -5.727 -10.234  0.00  0.00     0.028 C 
ATOM     19  H   UNK d   0       3.829  -6.550 -10.618  0.00  0.00     0.036 H 
ATOM     20  H   UNK d   0       3.173  -5.792  -9.147  0.00  0.00     0.036 H 
BRANCH  18  21
ATOM     21  C   UNK d   0       1.836  -5.810 -10.811  0.00  0.00     0.214 C 
ATOM     22  O   UNK d   0       1.677  -5.799 -12.013  0.00  0.00    -0.276 OA
ATOM     23  N   ALA d   1       0.770  -5.896  -9.991  0.00  0.00    -0.310 N 
ATOM     24  CA  ALA d   1      -0.581  -5.977 -10.551  0.00  0.00     0.043 C 
ATOM     25  H   ALA d   1       0.898  -5.905  -9.029  0.00  0.00     0.149 HD
ATOM     26  HA  ALA d   1      -0.635  -5.373 -11.457  0.00  0.00     0.052 H 
ATOM     27  C   ALA d   1      -1.590  -5.452  -9.528  0.00  0.00     0.062 C 
ATOM     28  H1  ALA d   1      -1.306  -4.446  -9.221  0.00  0.00     0.058 H 
ATOM     29  H2  ALA d   1      -2.583  -5.428  -9.976  0.00  0.00     0.058 H 
BRANCH  24  30
ATOM     30  CB  ALA d   1      -0.908  -7.433 -10.888  0.00  0.00    -0.044 C 
ATOM     31  HB1 ALA d   1      -1.984  -7.588 -10.824  0.00  0.00     0.025 H 
ATOM     32  HB2 ALA d   1      -0.568  -7.657 -11.900  0.00  0.00     0.025 H 
ATOM     33  HB3 ALA d   1      -0.401  -8.091 -10.182  0.00  0.00     0.025 H 
ENDBRANCH  24  30
BRANCH  27  34
ATOM     34  O   ALA d   1      -1.602  -6.312  -8.387  0.00  0.00    -0.393 OA
ATOM     35  H   ALA d   1      -1.932  -5.892  -7.581  0.00  0.00     0.209 HD
ENDBRANCH  27  34
ENDBRANCH  18  21
ENDBRANCH  15  18
ENDBRANCH  11  15
BRANCH   1  36
ATOM     36  C   UNK d   0       2.223  -2.044 -10.298  0.00  0.00    -0.039 C 
ATOM     37  H   UNK d   0       2.703  -1.472 -11.091  0.00  0.00     0.028 H 
ATOM     38  H   UNK d   0       1.781  -2.947 -10.717  0.00  0.00     0.028 H 
ATOM     39  H   UNK d   0       1.443  -1.439  -9.834  0.00  0.00     0.028 H 
ENDBRANCH   1  36
BRANCH   5  40
ATOM     40  O   UNK d   0       4.004   0.652  -4.654  0.00  0.00    -0.488 OA
BRANCH  40  41
ATOM     41  C   UNK d   0       3.172   0.353  -3.531  0.00  0.00     0.110 C 
ATOM     42  H   UNK d   0       2.588   1.234  -3.268  0.00  0.00     0.074 H 
ATOM     43  H   UNK d   0       2.500  -0.467  -3.786  0.00  0.00     0.074 H 
BRANCH  41  44
ATOM     44  C   UNK d   0       4.033  -0.049  -2.362  0.00  0.00    -0.043 C 
ATOM     45  C   UNK d   0       4.599   0.870  -1.619  0.00  0.00    -0.097 C 
ATOM     46  H   UNK d   0       5.215   0.581  -0.780  0.00  0.00     0.053 H 
ATOM     47  H   UNK d   0       4.450   1.915  -1.845  0.00  0.00     0.053 H 
BRANCH  44  48
ATOM     48  C   UNK d   0       4.242  -1.508  -2.046  0.00  0.00    -0.041 C 
ATOM     49  H   UNK d   0       3.439  -1.857  -1.398  0.00  0.00     0.028 H 
ATOM     50  H   UNK d   0       4.241  -2.084  -2.971  0.00  0.00     0.028 H 
ATOM     51  H   UNK d   0       5.199  -1.636  -1.540  0.00  0.00     0.028 H 
ENDBRANCH  44  48
ENDBRANCH  41  44
ENDBRANCH  40  41
ENDBRANCH   5  40
TORSDOF 12
ENDMDL
MODEL 4
REMARK VINA RESULT:      -5.8      1.568      2.251
REMARK  10 active torsions:
REMARK  status: ('A' for Active; 'I' for Inactive)
REMARK    1  A    between atoms: C_1  and  C_2 
REMARK    2  A    between atoms: C_6  and  O_23 
REMARK    3  A    between atoms: C_12  and  C_13 
REMARK    4  A    between atoms: C_13  and  C_14 
REMARK    5  A    between atoms: C_14  and  C_15 
REMARK       I    between atoms: C_15  and  N_17 
REMARK       I    between atoms: N_17  and  CA_18 
REMARK    6  A    between atoms: CA_18  and  CB_20 
REMARK       I    between atoms: CA_18  and  C_21 
REMARK    7  A    between atoms: C_21  and  O_22 
REMARK    8  A    between atoms: O_23  and  C_24 
REMARK    9  A    between atoms: C_24  and  C_25 
REMARK   10  A    between atoms: C_25  and  C_27 
ROOT
ATOM      1  C   UNK d   0       9.876   5.117  -6.179  0.00  0.00    -0.030 A 
ATOM      2  C   UNK d   0       9.349   3.861  -5.645  0.00  0.00     0.021 A 
ATOM      3  C   UNK d   0       9.036   2.792  -6.494  0.00  0.00    -0.047 A 
ATOM      4  C   UNK d   0       8.551   1.629  -5.969  0.00  0.00    -0.019 A 
ATOM      5  C   UNK d   0       8.370   1.497  -4.594  0.00  0.00     0.124 A 
ATOM      6  C   UNK d   0       8.678   2.542  -3.739  0.00  0.00     0.023 A 
ATOM      7  C   UNK d   0       9.173   3.730  -4.254  0.00  0.00     0.143 A 
ATOM      8  O   UNK d   0       9.481   4.761  -3.438  0.00  0.00    -0.422 OA
ATOM      9  C   UNK d   0       9.960   5.917  -3.923  0.00  0.00     0.341 A 
ATOM     10  O   UNK d   0      10.223   6.820  -3.148  0.00  0.00    -0.245 OA
ATOM     11  C   UNK d   0      10.167   6.115  -5.303  0.00  0.00     0.041 A 
ATOM     12  H   UNK d   0       9.173   2.889  -7.560  0.00  0.00     0.063 H 
ATOM     13  H   UNK d   0       8.306   0.806  -6.625  0.00  0.00     0.065 H 
ATOM     14  H   UNK d   0       8.535   2.431  -2.675  0.00  0.00     0.069 H 
ENDROOT
BRANCH  11  15
ATOM     15  C   UNK d   0      10.707   7.429  -5.806  0.00  0.00    -0.012 C 
ATOM     16  H   UNK d   0      11.413   7.833  -5.081  0.00  0.00     0.032 H 
ATOM     17  H   UNK d   0      11.214   7.272  -6.758  0.00  0.00     0.032 H 
BRANCH  15  18
ATOM     18  C   UNK d   0       9.553   8.415  -5.998  0.00  0.00     0.028 C 
ATOM     19  H   UNK d   0       9.501   8.715  -7.045  0.00  0.00     0.036 H 
ATOM     20  H   UNK d   0       8.616   7.938  -5.710  0.00  0.00     0.036 H 
BRANCH  18  21
ATOM     21  C   UNK d   0       9.783   9.630  -5.137  0.00  0.00     0.214 C 
ATOM     22  O   UNK d   0      10.420  10.568  -5.570  0.00  0.00    -0.276 OA
ATOM     23  N   ALA d   1       9.284   9.675  -3.887  0.00  0.00    -0.310 N 
ATOM     24  CA  ALA d   1       9.508  10.856  -3.049  0.00  0.00     0.043 C 
ATOM     25  H   ALA d   1       8.777   8.924  -3.540  0.00  0.00     0.149 HD
ATOM     26  HA  ALA d   1      10.495  11.268  -3.260  0.00  0.00     0.052 H 
ATOM     27  C   ALA d   1       9.425  10.459  -1.574  0.00  0.00     0.062 C 
ATOM     28  H1  ALA d   1      10.124   9.647  -1.376  0.00  0.00     0.058 H 
ATOM     29  H2  ALA d   1       9.679  11.317  -0.953  0.00  0.00     0.058 H 
BRANCH  24  30
ATOM     30  CB  ALA d   1       8.440  11.908  -3.356  0.00  0.00    -0.044 C 
ATOM     31  HB1 ALA d   1       8.888  12.901  -3.320  0.00  0.00     0.025 H 
ATOM     32  HB2 ALA d   1       8.030  11.730  -4.350  0.00  0.00     0.025 H 
ATOM     33  HB3 ALA d   1       7.642  11.841  -2.617  0.00  0.00     0.025 H 
ENDBRANCH  24  30
BRANCH  27  34
ATOM     34  O   ALA d   1       8.096  10.028  -1.272  0.00  0.00    -0.393 OA
ATOM     35  H   ALA d   1       7.625   9.646  -2.026  0.00  0.00     0.209 HD
ENDBRANCH  27  34
ENDBRANCH  18  21
ENDBRANCH  15  18
ENDBRANCH  11  15
BRANCH   1  36
ATOM     36  C   UNK d   0      10.087   5.302  -7.659  0.00  0.00    -0.039 C 
ATOM     37  H   UNK d   0       9.401   6.061  -8.032  0.00  0.00     0.028 H 
ATOM     38  H   UNK d   0      11.114   5.617  -7.844  0.00  0.00     0.028 H 
ATOM     39  H   UNK d   0       9.899   4.358  -8.172  0.00  0.00     0.028 H 
ENDBRANCH   1  36
BRANCH   5  40
ATOM     40  O   UNK d   0       7.886   0.333  -4.088  0.00  0.00    -0.488 OA
BRANCH  40  41
ATOM     41  C   UNK d   0       6.555  -0.032  -4.456  0.00  0.00     0.110 C 
ATOM     42  H   UNK d   0       6.157   0.703  -5.156  0.00  0.00     0.074 H 
ATOM     43  H   UNK d   0       6.565  -1.015  -4.928  0.00  0.00     0.074 H 
BRANCH  41  44
ATOM     44  C   UNK d   0       5.687  -0.076  -3.226  0.00  0.00    -0.043 C 
ATOM     45  C   UNK d   0       5.310   1.039  -2.650  0.00  0.00    -0.097 C 
ATOM     46  H   UNK d   0       4.687   1.007  -1.768  0.00  0.00     0.053 H 
ATOM     47  H   UNK d   0       5.621   1.989  -3.057  0.00  0.00     0.053 H 
BRANCH  44  48
ATOM     48  C   UNK d   0       5.253  -1.402  -2.656  0.00  0.00    -0.041 C 
ATOM     49  H   UNK d   0       4.568  -1.888  -3.350  0.00  0.00     0.028 H 
ATOM     50  H   UNK d   0       6.126  -2.036  -2.503  0.00  0.00     0.028 H 
ATOM     51  H   UNK d   0       4.750  -1.240  -1.703  0.00  0.00     0.028 H 
ENDBRANCH  44  48
ENDBRANCH  41  44
ENDBRANCH  40  41
ENDBRANCH   5  40
TORSDOF 12
ENDMDL
MODEL 5
REMARK VINA RESULT:      -5.7      3.036      8.051
REMARK  10 active torsions:
REMARK  status: ('A' for Active; 'I' for Inactive)
REMARK    1  A    between atoms: C_1  and  C_2 
REMARK    2  A    between atoms: C_6  and  O_23 
REMARK    3  A    between atoms: C_12  and  C_13 
REMARK    4  A    between atoms: C_13  and  C_14 
REMARK    5  A    between atoms: C_14  and  C_15 
REMARK       I    between atoms: C_15  and  N_17 
REMARK       I    between atoms: N_17  and  CA_18 
REMARK    6  A    between atoms: CA_18  and  CB_20 
REMARK       I    between atoms: CA_18  and  C_21 
REMARK    7  A    between atoms: C_21  and  O_22 
REMARK    8  A    between atoms: O_23  and  C_24 
REMARK    9  A    between atoms: C_24  and  C_25 
REMARK   10  A    between atoms: C_25  and  C_27 
ROOT
ATOM      1  C   UNK d   0       9.844   0.895  -4.777  0.00  0.00    -0.030 A 
ATOM      2  C   UNK d   0      10.390   2.062  -4.082  0.00  0.00     0.021 A 
ATOM      3  C   UNK d   0      11.763   2.332  -4.096  0.00  0.00    -0.047 A 
ATOM      4  C   UNK d   0      12.245   3.430  -3.444  0.00  0.00    -0.019 A 
ATOM      5  C   UNK d   0      11.378   4.286  -2.768  0.00  0.00     0.124 A 
ATOM      6  C   UNK d   0      10.015   4.038  -2.747  0.00  0.00     0.023 A 
ATOM      7  C   UNK d   0       9.509   2.927  -3.405  0.00  0.00     0.143 A 
ATOM      8  O   UNK d   0       8.183   2.666  -3.398  0.00  0.00    -0.422 OA
ATOM      9  C   UNK d   0       7.678   1.595  -4.030  0.00  0.00     0.341 A 
ATOM     10  O   UNK d   0       6.476   1.400  -3.996  0.00  0.00    -0.245 OA
ATOM     11  C   UNK d   0       8.501   0.691  -4.732  0.00  0.00     0.041 A 
ATOM     12  H   UNK d   0      12.439   1.671  -4.617  0.00  0.00     0.063 H 
ATOM     13  H   UNK d   0      13.305   3.636  -3.451  0.00  0.00     0.065 H 
ATOM     14  H   UNK d   0       9.351   4.706  -2.222  0.00  0.00     0.069 H 
ENDROOT
BRANCH  11  15
ATOM     15  C   UNK d   0       7.894  -0.500  -5.428  0.00  0.00    -0.012 C 
ATOM     16  H   UNK d   0       6.885  -0.252  -5.758  0.00  0.00     0.032 H 
ATOM     17  H   UNK d   0       8.503  -0.764  -6.292  0.00  0.00     0.032 H 
BRANCH  15  18
ATOM     18  C   UNK d   0       7.839  -1.684  -4.461  0.00  0.00     0.028 C 
ATOM     19  H   UNK d   0       8.419  -2.512  -4.866  0.00  0.00     0.036 H 
ATOM     20  H   UNK d   0       8.255  -1.385  -3.498  0.00  0.00     0.036 H 
BRANCH  18  21
ATOM     21  C   UNK d   0       6.406  -2.115  -4.277  0.00  0.00     0.214 C 
ATOM     22  O   UNK d   0       6.102  -3.282  -4.409  0.00  0.00    -0.276 OA
ATOM     23  N   ALA d   1       5.463  -1.204  -3.967  0.00  0.00    -0.310 N 
ATOM     24  CA  ALA d   1       4.070  -1.622  -3.788  0.00  0.00     0.043 C 
ATOM     25  H   ALA d   1       5.706  -0.271  -3.863  0.00  0.00     0.149 HD
ATOM     26  HA  ALA d   1       3.843  -2.431  -4.482  0.00  0.00     0.052 H 
ATOM     27  C   ALA d   1       3.142  -0.438  -4.065  0.00  0.00     0.062 C 
ATOM     28  H1  ALA d   1       3.352  -0.035  -5.055  0.00  0.00     0.058 H 
ATOM     29  H2  ALA d   1       2.106  -0.770  -4.019  0.00  0.00     0.058 H 
BRANCH  24  30
ATOM     30  CB  ALA d   1       3.864  -2.108  -2.352  0.00  0.00    -0.044 C 
ATOM     31  HB1 ALA d   1       4.789  -1.982  -1.790  0.00  0.00     0.025 H 
ATOM     32  HB2 ALA d   1       3.071  -1.527  -1.883  0.00  0.00     0.025 H 
ATOM     33  HB3 ALA d   1       3.584  -3.162  -2.363  0.00  0.00     0.025 H 
ENDBRANCH  24  30
BRANCH  27  34
ATOM     34  O   ALA d   1       3.361   0.577  -3.083  0.00  0.00    -0.393 OA
ATOM     35  H   ALA d   1       2.714   1.296  -3.108  0.00  0.00     0.209 HD
ENDBRANCH  27  34
ENDBRANCH  18  21
ENDBRANCH  15  18
ENDBRANCH  11  15
BRANCH   1  36
ATOM     36  C   UNK d   0      10.747  -0.056  -5.520  0.00  0.00    -0.039 C 
ATOM     37  H   UNK d   0      11.636  -0.254  -4.922  0.00  0.00     0.028 H 
ATOM     38  H   UNK d   0      10.217  -0.990  -5.705  0.00  0.00     0.028 H 
ATOM     39  H   UNK d   0      11.040   0.391  -6.470  0.00  0.00     0.028 H 
ENDBRANCH   1  36
BRANCH   5  40
ATOM     40  O   UNK d   0      11.873   5.375  -2.125  0.00  0.00    -0.488 OA
BRANCH  40  41
ATOM     41  C   UNK d   0      12.154   5.233  -0.731  0.00  0.00     0.110 C 
ATOM     42  H   UNK d   0      12.045   4.188  -0.443  0.00  0.00     0.074 H 
ATOM     43  H   UNK d   0      13.175   5.560  -0.532  0.00  0.00     0.074 H 
BRANCH  41  44
ATOM     44  C   UNK d   0      11.193   6.076   0.064  0.00  0.00    -0.043 C 
ATOM     45  C   UNK d   0      11.056   5.877   1.352  0.00  0.00    -0.097 C 
ATOM     46  H   UNK d   0      10.367   6.482   1.922  0.00  0.00     0.053 H 
ATOM     47  H   UNK d   0      11.632   5.107   1.843  0.00  0.00     0.053 H 
BRANCH  44  48
ATOM     48  C   UNK d   0      10.387   7.151  -0.621  0.00  0.00    -0.041 C 
ATOM     49  H   UNK d   0       9.664   7.565   0.081  0.00  0.00     0.028 H 
ATOM     50  H   UNK d   0      11.053   7.941  -0.965  0.00  0.00     0.028 H 
ATOM     51  H   UNK d   0       9.861   6.722  -1.473  0.00  0.00     0.028 H 
ENDBRANCH  44  48
ENDBRANCH  41  44
ENDBRANCH  40  41
ENDBRANCH   5  40
TORSDOF 12
ENDMDL
MODEL 6
REMARK VINA RESULT:      -5.7      1.622      2.104
REMARK  10 active torsions:
REMARK  status: ('A' for Active; 'I' for Inactive)
REMARK    1  A    between atoms: C_1  and  C_2 
REMARK    2  A    between atoms: C_6  and  O_23 
REMARK    3  A    between atoms: C_12  and  C_13 
REMARK    4  A    between atoms: C_13  and  C_14 
REMARK    5  A    between atoms: C_14  and  C_15 
REMARK       I    between atoms: C_15  and  N_17 
REMARK       I    between atoms: N_17  and  CA_18 
REMARK    6  A    between atoms: CA_18  and  CB_20 
REMARK       I    between atoms: CA_18  and  C_21 
REMARK    7  A    between atoms: C_21  and  O_22 
REMARK    8  A    between atoms: O_23  and  C_24 
REMARK    9  A    between atoms: C_24  and  C_25 
REMARK   10  A    between atoms: C_25  and  C_27 
ROOT
ATOM      1  C   UNK d   0       9.366   3.518  -5.964  0.00  0.00    -0.030 A 
ATOM      2  C   UNK d   0       8.552   2.389  -5.509  0.00  0.00     0.021 A 
ATOM      3  C   UNK d   0       8.013   1.475  -6.422  0.00  0.00    -0.047 A 
ATOM      4  C   UNK d   0       7.263   0.428  -5.970  0.00  0.00    -0.019 A 
ATOM      5  C   UNK d   0       7.035   0.260  -4.606  0.00  0.00     0.124 A 
ATOM      6  C   UNK d   0       7.564   1.152  -3.688  0.00  0.00     0.023 A 
ATOM      7  C   UNK d   0       8.329   2.221  -4.129  0.00  0.00     0.143 A 
ATOM      8  O   UNK d   0       8.855   3.102  -3.251  0.00  0.00    -0.422 OA
ATOM      9  C   UNK d   0       9.597   4.141  -3.663  0.00  0.00     0.341 A 
ATOM     10  O   UNK d   0      10.051   4.911  -2.835  0.00  0.00    -0.245 OA
ATOM     11  C   UNK d   0       9.866   4.367  -5.028  0.00  0.00     0.041 A 
ATOM     12  H   UNK d   0       8.186   1.600  -7.480  0.00  0.00     0.063 H 
ATOM     13  H   UNK d   0       6.844  -0.275  -6.675  0.00  0.00     0.065 H 
ATOM     14  H   UNK d   0       7.383   1.015  -2.633  0.00  0.00     0.069 H 
ENDROOT
BRANCH  11  15
ATOM     15  C   UNK d   0      10.704   5.546  -5.450  0.00  0.00    -0.012 C 
ATOM     16  H   UNK d   0      11.378   5.821  -4.638  0.00  0.00     0.032 H 
ATOM     17  H   UNK d   0      11.287   5.280  -6.331  0.00  0.00     0.032 H 
BRANCH  15  18
ATOM     18  C   UNK d   0       9.791   6.729  -5.778  0.00  0.00     0.028 C 
ATOM     19  H   UNK d   0       9.761   6.876  -6.858  0.00  0.00     0.036 H 
ATOM     20  H   UNK d   0       8.786   6.525  -5.411  0.00  0.00     0.036 H 
BRANCH  18  21
ATOM     21  C   UNK d   0      10.325   7.974  -5.116  0.00  0.00     0.214 C 
ATOM     22  O   UNK d   0      11.137   7.883  -4.219  0.00  0.00    -0.276 OA
ATOM     23  N   ALA d   1       9.900   9.187  -5.520  0.00  0.00    -0.310 N 
ATOM     24  CA  ALA d   1      10.419  10.397  -4.877  0.00  0.00     0.043 C 
ATOM     25  H   ALA d   1       9.250   9.259  -6.236  0.00  0.00     0.149 HD
ATOM     26  HA  ALA d   1      10.588  10.201  -3.818  0.00  0.00     0.052 H 
ATOM     27  C   ALA d   1       9.403  11.531  -5.029  0.00  0.00     0.062 C 
ATOM     28  H1  ALA d   1       8.438  11.209  -4.638  0.00  0.00     0.058 H 
ATOM     29  H2  ALA d   1       9.748  12.403  -4.475  0.00  0.00     0.058 H 
BRANCH  24  30
ATOM     30  CB  ALA d   1      11.738  10.801  -5.539  0.00  0.00    -0.044 C 
ATOM     31  HB1 ALA d   1      11.627  10.762  -6.622  0.00  0.00     0.025 H 
ATOM     32  HB2 ALA d   1      12.001  11.814  -5.236  0.00  0.00     0.025 H 
ATOM     33  HB3 ALA d   1      12.525  10.114  -5.228  0.00  0.00     0.025 H 
ENDBRANCH  24  30
BRANCH  27  34
ATOM     34  O   ALA d   1       9.268  11.866  -6.412  0.00  0.00    -0.393 OA
ATOM     35  H   ALA d   1      10.023  11.605  -6.956  0.00  0.00     0.209 HD
ENDBRANCH  27  34
ENDBRANCH  18  21
ENDBRANCH  15  18
ENDBRANCH  11  15
BRANCH   1  36
ATOM     36  C   UNK d   0       9.636   3.735  -7.431  0.00  0.00    -0.039 C 
ATOM     37  H   UNK d   0      10.006   2.810  -7.873  0.00  0.00     0.028 H 
ATOM     38  H   UNK d   0       8.715   4.034  -7.930  0.00  0.00     0.028 H 
ATOM     39  H   UNK d   0      10.385   4.519  -7.549  0.00  0.00     0.028 H 
ENDBRANCH   1  36
BRANCH   5  40
ATOM     40  O   UNK d   0       6.286  -0.787  -4.172  0.00  0.00    -0.488 OA
BRANCH  40  41
ATOM     41  C   UNK d   0       4.882  -0.565  -4.026  0.00  0.00     0.110 C 
ATOM     42  H   UNK d   0       4.624   0.409  -4.440  0.00  0.00     0.074 H 
ATOM     43  H   UNK d   0       4.335  -1.344  -4.558  0.00  0.00     0.074 H 
BRANCH  41  44
ATOM     44  C   UNK d   0       4.517  -0.605  -2.565  0.00  0.00    -0.043 C 
ATOM     45  C   UNK d   0       4.226  -1.747  -1.993  0.00  0.00    -0.097 C 
ATOM     46  H   UNK d   0       3.964  -1.775  -0.946  0.00  0.00     0.053 H 
ATOM     47  H   UNK d   0       4.247  -2.660  -2.569  0.00  0.00     0.053 H 
BRANCH  44  48
ATOM     48  C   UNK d   0       4.486   0.670  -1.761  0.00  0.00    -0.041 C 
ATOM     49  H   UNK d   0       4.311   0.432  -0.712  0.00  0.00     0.028 H 
ATOM     50  H   UNK d   0       5.440   1.187  -1.862  0.00  0.00     0.028 H 
ATOM     51  H   UNK d   0       3.685   1.311  -2.127  0.00  0.00     0.028 H 
ENDBRANCH  44  48
ENDBRANCH  41  44
ENDBRANCH  40  41
ENDBRANCH   5  40
TORSDOF 12
ENDMDL
MODEL 7
REMARK VINA RESULT:      -5.6      2.157      2.928
REMARK  10 active torsions:
REMARK  status: ('A' for Active; 'I' for Inactive)
REMARK    1  A    between atoms: C_1  and  C_2 
REMARK    2  A    between atoms: C_6  and  O_23 
REMARK    3  A    between atoms: C_12  and  C_13 
REMARK    4  A    between atoms: C_13  and  C_14 
REMARK    5  A    between atoms: C_14  and  C_15 
REMARK       I    between atoms: C_15  and  N_17 
REMARK       I    between atoms: N_17  and  CA_18 
REMARK    6  A    between atoms: CA_18  and  CB_20 
REMARK       I    between atoms: CA_18  and  C_21 
REMARK    7  A    between atoms: C_21  and  O_22 
REMARK    8  A    between atoms: O_23  and  C_24 
REMARK    9  A    between atoms: C_24  and  C_25 
REMARK   10  A    between atoms: C_25  and  C_27 
ROOT
ATOM      1  C   UNK d   0       9.605   4.678  -4.839  0.00  0.00    -0.030 A 
ATOM      2  C   UNK d   0       9.030   3.335  -4.929  0.00  0.00     0.021 A 
ATOM      3  C   UNK d   0       8.650   2.636  -3.777  0.00  0.00    -0.047 A 
ATOM      4  C   UNK d   0       8.111   1.387  -3.889  0.00  0.00    -0.019 A 
ATOM      5  C   UNK d   0       7.932   0.805  -5.143  0.00  0.00     0.124 A 
ATOM      6  C   UNK d   0       8.298   1.484  -6.293  0.00  0.00     0.023 A 
ATOM      7  C   UNK d   0       8.847   2.754  -6.198  0.00  0.00     0.143 A 
ATOM      8  O   UNK d   0       9.210   3.435  -7.307  0.00  0.00    -0.422 OA
ATOM      9  C   UNK d   0       9.742   4.664  -7.230  0.00  0.00     0.341 A 
ATOM     10  O   UNK d   0      10.054   5.239  -8.258  0.00  0.00    -0.245 OA
ATOM     11  C   UNK d   0       9.948   5.308  -5.994  0.00  0.00     0.041 A 
ATOM     12  H   UNK d   0       8.788   3.080  -2.803  0.00  0.00     0.063 H 
ATOM     13  H   UNK d   0       7.822   0.845  -3.000  0.00  0.00     0.065 H 
ATOM     14  H   UNK d   0       8.156   1.027  -7.261  0.00  0.00     0.069 H 
ENDROOT
BRANCH  11  15
ATOM     15  C   UNK d   0      10.549   6.690  -5.951  0.00  0.00    -0.012 C 
ATOM     16  H   UNK d   0      11.123   6.807  -5.031  0.00  0.00     0.032 H 
ATOM     17  H   UNK d   0      11.206   6.826  -6.809  0.00  0.00     0.032 H 
BRANCH  15  18
ATOM     18  C   UNK d   0       9.431   7.733  -5.991  0.00  0.00     0.028 C 
ATOM     19  H   UNK d   0       9.103   7.875  -7.021  0.00  0.00     0.036 H 
ATOM     20  H   UNK d   0       8.591   7.389  -5.387  0.00  0.00     0.036 H 
BRANCH  18  21
ATOM     21  C   UNK d   0       9.944   9.039  -5.442  0.00  0.00     0.214 C 
ATOM     22  O   UNK d   0      11.061   9.418  -5.722  0.00  0.00    -0.276 OA
ATOM     23  N   ALA d   1       9.161   9.785  -4.637  0.00  0.00    -0.310 N 
ATOM     24  CA  ALA d   1       9.659  11.055  -4.103  0.00  0.00     0.043 C 
ATOM     25  H   ALA d   1       8.268   9.482  -4.412  0.00  0.00     0.149 HD
ATOM     26  HA  ALA d   1      10.727  10.970  -3.902  0.00  0.00     0.052 H 
ATOM     27  C   ALA d   1       8.921  11.387  -2.804  0.00  0.00     0.062 C 
ATOM     28  H1  ALA d   1       9.018  10.554  -2.108  0.00  0.00     0.058 H 
ATOM     29  H2  ALA d   1       9.352  12.283  -2.360  0.00  0.00     0.058 H 
BRANCH  24  30
ATOM     30  CB  ALA d   1       9.419  12.168  -5.125  0.00  0.00    -0.044 C 
ATOM     31  HB1 ALA d   1      10.376  12.536  -5.492  0.00  0.00     0.025 H 
ATOM     32  HB2 ALA d   1       8.835  11.777  -5.958  0.00  0.00     0.025 H 
ATOM     33  HB3 ALA d   1       8.872  12.984  -4.651  0.00  0.00     0.025 H 
ENDBRANCH  24  30
BRANCH  27  34
ATOM     34  O   ALA d   1       7.538  11.612  -3.087  0.00  0.00    -0.393 OA
ATOM     35  H   ALA d   1       7.282  11.396  -3.994  0.00  0.00     0.209 HD
ENDBRANCH  27  34
ENDBRANCH  18  21
ENDBRANCH  15  18
ENDBRANCH  11  15
BRANCH   1  36
ATOM     36  C   UNK d   0       9.815   5.343  -3.503  0.00  0.00    -0.039 C 
ATOM     37  H   UNK d   0       9.106   4.939  -2.781  0.00  0.00     0.028 H 
ATOM     38  H   UNK d   0      10.832   5.154  -3.159  0.00  0.00     0.028 H 
ATOM     39  H   UNK d   0       9.659   6.417  -3.604  0.00  0.00     0.028 H 
ENDBRANCH   1  36
BRANCH   5  40
ATOM     40  O   UNK d   0       7.395  -0.438  -5.237  0.00  0.00    -0.488 OA
BRANCH  40  41
ATOM     41  C   UNK d   0       6.046  -0.598  -4.793  0.00  0.00     0.110 C 
ATOM     42  H   UNK d   0       5.683   0.347  -4.390  0.00  0.00     0.074 H 
ATOM     43  H   UNK d   0       5.420  -0.898  -5.635  0.00  0.00     0.074 H 
BRANCH  41  44
ATOM     44  C   UNK d   0       5.991  -1.656  -3.724  0.00  0.00    -0.043 C 
ATOM     45  C   UNK d   0       7.093  -2.240  -3.323  0.00  0.00    -0.097 C 
ATOM     46  H   UNK d   0       7.053  -2.999  -2.555  0.00  0.00     0.053 H 
ATOM     47  H   UNK d   0       8.040  -1.963  -3.759  0.00  0.00     0.053 H 
BRANCH  44  48
ATOM     48  C   UNK d   0       4.668  -2.045  -3.114  0.00  0.00    -0.041 C 
ATOM     49  H   UNK d   0       4.718  -3.077  -2.767  0.00  0.00     0.028 H 
ATOM     50  H   UNK d   0       4.448  -1.388  -2.273  0.00  0.00     0.028 H 
ATOM     51  H   UNK d   0       3.882  -1.951  -3.863  0.00  0.00     0.028 H 
ENDBRANCH  44  48
ENDBRANCH  41  44
ENDBRANCH  40  41
ENDBRANCH   5  40
TORSDOF 12
ENDMDL
MODEL 8
REMARK VINA RESULT:      -5.5      2.348      2.661
REMARK  10 active torsions:
REMARK  status: ('A' for Active; 'I' for Inactive)
REMARK    1  A    between atoms: C_1  and  C_2 
REMARK    2  A    between atoms: C_6  and  O_23 
REMARK    3  A    between atoms: C_12  and  C_13 
REMARK    4  A    between atoms: C_13  and  C_14 
REMARK    5  A    between atoms: C_14  and  C_15 
REMARK       I    between atoms: C_15  and  N_17 
REMARK       I    between atoms: N_17  and  CA_18 
REMARK    6  A    between atoms: CA_18  and  CB_20 
REMARK       I    between atoms: CA_18  and  C_21 
REMARK    7  A    between atoms: C_21  and  O_22 
REMARK    8  A    between atoms: O_23  and  C_24 
REMARK    9  A    between atoms: C_24  and  C_25 
REMARK   10  A    between atoms: C_25  and  C_27 
ROOT
ATOM      1  C   UNK d   0      10.409   1.488  -5.086  0.00  0.00    -0.030 A 
ATOM      2  C   UNK d   0       9.191   0.710  -4.855  0.00  0.00     0.021 A 
ATOM      3  C   UNK d   0       9.000  -0.530  -5.476  0.00  0.00    -0.047 A 
ATOM      4  C   UNK d   0       7.857  -1.238  -5.239  0.00  0.00    -0.019 A 
ATOM      5  C   UNK d   0       6.883  -0.737  -4.378  0.00  0.00     0.124 A 
ATOM      6  C   UNK d   0       7.058   0.485  -3.751  0.00  0.00     0.023 A 
ATOM      7  C   UNK d   0       8.213   1.217  -3.980  0.00  0.00     0.143 A 
ATOM      8  O   UNK d   0       8.404   2.412  -3.379  0.00  0.00    -0.422 OA
ATOM      9  C   UNK d   0       9.516   3.132  -3.591  0.00  0.00     0.341 A 
ATOM     10  O   UNK d   0       9.645   4.204  -3.027  0.00  0.00    -0.245 OA
ATOM     11  C   UNK d   0      10.539   2.681  -4.449  0.00  0.00     0.041 A 
ATOM     12  H   UNK d   0       9.750  -0.923  -6.145  0.00  0.00     0.063 H 
ATOM     13  H   UNK d   0       7.707  -2.193  -5.721  0.00  0.00     0.065 H 
ATOM     14  H   UNK d   0       6.298   0.866  -3.085  0.00  0.00     0.069 H 
ENDROOT
BRANCH  11  15
ATOM     15  C   UNK d   0      11.773   3.520  -4.661  0.00  0.00    -0.012 C 
ATOM     16  H   UNK d   0      12.200   3.298  -5.640  0.00  0.00     0.032 H 
ATOM     17  H   UNK d   0      11.507   4.576  -4.612  0.00  0.00     0.032 H 
BRANCH  15  18
ATOM     18  C   UNK d   0      12.800   3.201  -3.573  0.00  0.00     0.028 C 
ATOM     19  H   UNK d   0      12.419   2.402  -2.937  0.00  0.00     0.036 H 
ATOM     20  H   UNK d   0      13.734   2.883  -4.036  0.00  0.00     0.036 H 
BRANCH  18  21
ATOM     21  C   UNK d   0      13.046   4.433  -2.739  0.00  0.00     0.214 C 
ATOM     22  O   UNK d   0      14.012   5.133  -2.962  0.00  0.00    -0.276 OA
ATOM     23  N   ALA d   1      12.195   4.755  -1.746  0.00  0.00    -0.310 N 
ATOM     24  CA  ALA d   1      12.434   5.952  -0.935  0.00  0.00     0.043 C 
ATOM     25  H   ALA d   1      11.424   4.195  -1.567  0.00  0.00     0.149 HD
ATOM     26  HA  ALA d   1      13.507   6.093  -0.804  0.00  0.00     0.052 H 
ATOM     27  C   ALA d   1      11.771   5.783   0.433  0.00  0.00     0.062 C 
ATOM     28  H1  ALA d   1      12.128   4.864   0.898  0.00  0.00     0.058 H 
ATOM     29  H2  ALA d   1      12.024   6.632   1.066  0.00  0.00     0.058 H 
BRANCH  24  30
ATOM     30  CB  ALA d   1      11.842   7.174  -1.642  0.00  0.00    -0.044 C 
ATOM     31  HB1 ALA d   1      12.446   8.052  -1.417  0.00  0.00     0.025 H 
ATOM     32  HB2 ALA d   1      11.835   7.002  -2.718  0.00  0.00     0.025 H 
ATOM     33  HB3 ALA d   1      10.821   7.334  -1.294  0.00  0.00     0.025 H 
ENDBRANCH  24  30
BRANCH  27  34
ATOM     34  O   ALA d   1      10.353   5.714   0.269  0.00  0.00    -0.393 OA
ATOM     35  H   ALA d   1      10.053   4.948  -0.239  0.00  0.00     0.209 HD
ENDBRANCH  27  34
ENDBRANCH  18  21
ENDBRANCH  15  18
ENDBRANCH  11  15
BRANCH   1  36
ATOM     36  C   UNK d   0      11.487   0.982  -6.010  0.00  0.00    -0.039 C 
ATOM     37  H   UNK d   0      12.034   1.827  -6.427  0.00  0.00     0.028 H 
ATOM     38  H   UNK d   0      12.173   0.344  -5.453  0.00  0.00     0.028 H 
ATOM     39  H   UNK d   0      11.033   0.408  -6.818  0.00  0.00     0.028 H 
ENDBRANCH   1  36
BRANCH   5  40
ATOM     40  O   UNK d   0       5.752  -1.454  -4.152  0.00  0.00    -0.488 OA
BRANCH  40  41
ATOM     41  C   UNK d   0       4.507  -0.791  -4.380  0.00  0.00     0.110 C 
ATOM     42  H   UNK d   0       4.662   0.287  -4.371  0.00  0.00     0.074 H 
ATOM     43  H   UNK d   0       4.108  -1.093  -5.350  0.00  0.00     0.074 H 
BRANCH  41  44
ATOM     44  C   UNK d   0       3.530  -1.169  -3.298  0.00  0.00    -0.043 C 
ATOM     45  C   UNK d   0       2.373  -0.561  -3.218  0.00  0.00    -0.097 C 
ATOM     46  H   UNK d   0       1.672  -0.831  -2.442  0.00  0.00     0.053 H 
ATOM     47  H   UNK d   0       2.119   0.212  -3.928  0.00  0.00     0.053 H 
BRANCH  44  48
ATOM     48  C   UNK d   0       3.884  -2.247  -2.305  0.00  0.00    -0.041 C 
ATOM     49  H   UNK d   0       4.731  -2.820  -2.679  0.00  0.00     0.028 H 
ATOM     50  H   UNK d   0       4.147  -1.790  -1.351  0.00  0.00     0.028 H 
ATOM     51  H   UNK d   0       3.029  -2.909  -2.167  0.00  0.00     0.028 H 
ENDBRANCH  44  48
ENDBRANCH  41  44
ENDBRANCH  40  41
ENDBRANCH   5  40
TORSDOF 12
ENDMDL
MODEL 9
REMARK VINA RESULT:      -5.5      3.349      8.329
REMARK  10 active torsions:
REMARK  status: ('A' for Active; 'I' for Inactive)
REMARK    1  A    between atoms: C_1  and  C_2 
REMARK    2  A    between atoms: C_6  and  O_23 
REMARK    3  A    between atoms: C_12  and  C_13 
REMARK    4  A    between atoms: C_13  and  C_14 
REMARK    5  A    between atoms: C_14  and  C_15 
REMARK       I    between atoms: C_15  and  N_17 
REMARK       I    between atoms: N_17  and  CA_18 
REMARK    6  A    between atoms: CA_18  and  CB_20 
REMARK       I    between atoms: CA_18  and  C_21 
REMARK    7  A    between atoms: C_21  and  O_22 
REMARK    8  A    between atoms: O_23  and  C_24 
REMARK    9  A    between atoms: C_24  and  C_25 
REMARK   10  A    between atoms: C_25  and  C_27 
ROOT
ATOM      1  C   UNK d   0       6.700  -0.015  -5.399  0.00  0.00    -0.030 A 
ATOM      2  C   UNK d   0       7.671   1.077  -5.315  0.00  0.00     0.021 A 
ATOM      3  C   UNK d   0       8.530   1.363  -6.383  0.00  0.00    -0.047 A 
ATOM      4  C   UNK d   0       9.422   2.390  -6.280  0.00  0.00    -0.019 A 
ATOM      5  C   UNK d   0       9.480   3.161  -5.120  0.00  0.00     0.124 A 
ATOM      6  C   UNK d   0       8.635   2.896  -4.055  0.00  0.00     0.023 A 
ATOM      7  C   UNK d   0       7.722   1.856  -4.143  0.00  0.00     0.143 A 
ATOM      8  O   UNK d   0       6.889   1.581  -3.116  0.00  0.00    -0.422 OA
ATOM      9  C   UNK d   0       6.000   0.578  -3.186  0.00  0.00     0.341 A 
ATOM     10  O   UNK d   0       5.269   0.367  -2.235  0.00  0.00    -0.245 OA
ATOM     11  C   UNK d   0       5.890  -0.238  -4.331  0.00  0.00     0.041 A 
ATOM     12  H   UNK d   0       8.490   0.768  -7.283  0.00  0.00     0.063 H 
ATOM     13  H   UNK d   0      10.087   2.608  -7.103  0.00  0.00     0.065 H 
ATOM     14  H   UNK d   0       8.687   3.498  -3.161  0.00  0.00     0.069 H 
ENDROOT
BRANCH  11  15
ATOM     15  C   UNK d   0       4.879  -1.354  -4.370  0.00  0.00    -0.012 C 
ATOM     16  H   UNK d   0       4.941  -1.867  -5.330  0.00  0.00     0.032 H 
ATOM     17  H   UNK d   0       5.088  -2.061  -3.567  0.00  0.00     0.032 H 
BRANCH  15  18
ATOM     18  C   UNK d   0       3.474  -0.777  -4.189  0.00  0.00     0.028 C 
ATOM     19  H   UNK d   0       2.760  -1.590  -4.060  0.00  0.00     0.036 H 
ATOM     20  H   UNK d   0       3.456  -0.133  -3.309  0.00  0.00     0.036 H 
BRANCH  18  21
ATOM     21  C   UNK d   0       3.103   0.029  -5.408  0.00  0.00     0.214 C 
ATOM     22  O   UNK d   0       2.816   1.202  -5.296  0.00  0.00    -0.276 OA
ATOM     23  N   ALA d   1       3.088  -0.555  -6.623  0.00  0.00    -0.310 N 
ATOM     24  CA  ALA d   1       2.727   0.227  -7.808  0.00  0.00     0.043 C 
ATOM     25  H   ALA d   1       3.316  -1.494  -6.712  0.00  0.00     0.149 HD
ATOM     26  HA  ALA d   1       1.962   0.956  -7.542  0.00  0.00     0.052 H 
ATOM     27  C   ALA d   1       2.186  -0.708  -8.891  0.00  0.00     0.062 C 
ATOM     28  H1  ALA d   1       1.359  -1.292  -8.487  0.00  0.00     0.058 H 
ATOM     29  H2  ALA d   1       1.835  -0.119  -9.737  0.00  0.00     0.058 H 
BRANCH  24  30
ATOM     30  CB  ALA d   1       3.965   0.956  -8.335  0.00  0.00    -0.044 C 
ATOM     31  HB1 ALA d   1       3.831   1.180  -9.393  0.00  0.00     0.025 H 
ATOM     32  HB2 ALA d   1       4.104   1.884  -7.780  0.00  0.00     0.025 H 
ATOM     33  HB3 ALA d   1       4.842   0.321  -8.205  0.00  0.00     0.025 H 
ENDBRANCH  24  30
BRANCH  27  34
ATOM     34  O   ALA d   1       3.225  -1.589  -9.322  0.00  0.00    -0.393 OA
ATOM     35  H   ALA d   1       4.011  -1.577  -8.757  0.00  0.00     0.209 HD
ENDBRANCH  27  34
ENDBRANCH  18  21
ENDBRANCH  15  18
ENDBRANCH  11  15
BRANCH   1  36
ATOM     36  C   UNK d   0       6.605  -0.871  -6.635  0.00  0.00    -0.039 C 
ATOM     37  H   UNK d   0       5.626  -0.739  -7.094  0.00  0.00     0.028 H 
ATOM     38  H   UNK d   0       7.380  -0.577  -7.342  0.00  0.00     0.028 H 
ATOM     39  H   UNK d   0       6.740  -1.918  -6.362  0.00  0.00     0.028 H 
ENDBRANCH   1  36
BRANCH   5  40
ATOM     40  O   UNK d   0      10.373   4.180  -5.034  0.00  0.00    -0.488 OA
BRANCH  40  41
ATOM     41  C   UNK d   0      10.148   5.314  -5.874  0.00  0.00     0.110 C 
ATOM     42  H   UNK d   0      11.072   5.574  -6.389  0.00  0.00     0.074 H 
ATOM     43  H   UNK d   0       9.377   5.074  -6.608  0.00  0.00     0.074 H 
BRANCH  41  44
ATOM     44  C   UNK d   0       9.694   6.479  -5.034  0.00  0.00    -0.043 C 
ATOM     45  C   UNK d   0       9.261   7.573  -5.610  0.00  0.00    -0.097 C 
ATOM     46  H   UNK d   0       8.935   8.408  -5.008  0.00  0.00     0.053 H 
ATOM     47  H   UNK d   0       9.229   7.639  -6.687  0.00  0.00     0.053 H 
BRANCH  44  48
ATOM     48  C   UNK d   0       9.740   6.388  -3.530  0.00  0.00    -0.041 C 
ATOM     49  H   UNK d   0       8.724   6.415  -3.135  0.00  0.00     0.028 H 
ATOM     50  H   UNK d   0      10.220   5.455  -3.236  0.00  0.00     0.028 H 
ATOM     51  H   UNK d   0      10.306   7.230  -3.132  0.00  0.00     0.028 H 
ENDBRANCH  44  48
ENDBRANCH  41  44
ENDBRANCH  40  41
ENDBRANCH   5  40
TORSDOF 12
ENDMDL
