MODEL 1
REMARK VINA RESULT:      -5.3      0.000      0.000
REMARK  6 active torsions:
REMARK  status: ('A' for Active; 'I' for Inactive)
REMARK    1  A    between atoms: C_1  and  C_2 
REMARK    2  A    between atoms: C_2  and  C_4 
REMARK    3  A    between atoms: C_2  and  O_20 
REMARK    4  A    between atoms: C_4  and  O_19 
REMARK    5  A    between atoms: C_4  and  C_6 
REMARK    6  A    between atoms: C_12  and  N_18 
ROOT
ATOM      1  C   LIG d   1       4.229  -0.870  -6.148  0.00  0.00     0.091 A 
ATOM      2  C   LIG d   1       4.708  -1.968  -6.835  0.00  0.00     0.054 A 
ATOM      3  N   LIG d   1       4.821  -1.939  -8.175  0.00  0.00    -0.232 NA
ATOM      4  C   LIG d   1       4.451  -0.808  -8.841  0.00  0.00     0.187 A 
ATOM      5  N   LIG d   1       4.535  -0.708 -10.161  0.00  0.00    -0.195 NA
ATOM      6  C   LIG d   1       4.172   0.398 -10.796  0.00  0.00     0.195 A 
ATOM      7  N   LIG d   1       3.707   1.475 -10.182  0.00  0.00    -0.293 N 
ATOM      8  C   LIG d   1       3.573   1.508  -8.851  0.00  0.00     0.280 A 
ATOM      9  O   LIG d   1       3.144   2.499  -8.281  0.00  0.00    -0.265 OA
ATOM     10  C   LIG d   1       3.963   0.300  -8.100  0.00  0.00     0.172 A 
ATOM     11  N   LIG d   1       3.869   0.231  -6.785  0.00  0.00    -0.239 NA
ATOM     12  H   LIG d   1       4.973  -2.788  -6.328  0.00  0.00     0.085 H 
ATOM     13  H   LIG d   1       3.423   2.363 -10.767  0.00  0.00     0.172 HD
ENDROOT
BRANCH   1  14
ATOM     14  C   LIG d   1       4.113  -0.928  -4.647  0.00  0.00     0.124 C 
ATOM     15  H   LIG d   1       5.101  -0.803  -4.180  0.00  0.00     0.069 H 
BRANCH  14  16
ATOM     16  C   LIG d   1       3.122   0.137  -4.171  0.00  0.00     0.084 C 
ATOM     17  H   LIG d   1       3.315   1.105  -4.654  0.00  0.00     0.062 H 
BRANCH  16  18
ATOM     18  C   LIG d   1       3.192   0.252  -2.646  0.00  0.00    -0.036 C 
ATOM     19  H   LIG d   1       2.232   0.628  -2.263  0.00  0.00     0.025 H 
ATOM     20  H   LIG d   1       3.997   0.949  -2.368  0.00  0.00     0.025 H 
ATOM     21  H   LIG d   1       3.398  -0.738  -2.213  0.00  0.00     0.025 H 
ENDBRANCH  16  18
BRANCH  16  22
ATOM     22  O   LIG d   1       1.799  -0.236  -4.560  0.00  0.00    -0.389 OA
ATOM     23  H   LIG d   1       0.956   0.444  -4.369  0.00  0.00     0.210 HD
ENDBRANCH  16  22
ENDBRANCH  14  16
BRANCH  14  24
ATOM     24  O   LIG d   1       3.647  -2.222  -4.256  0.00  0.00    -0.383 OA
ATOM     25  H   LIG d   1       2.808  -2.690  -4.791  0.00  0.00     0.210 HD
ENDBRANCH  14  24
ENDBRANCH   1  14
BRANCH   6  26
ATOM     26  N   LIG d   1       4.286   0.428 -12.169  0.00  0.00    -0.329 N 
ATOM     27  H   LIG d   1       4.631  -0.465 -12.711  0.00  0.00     0.145 HD
ATOM     28  H   LIG d   1       4.032   1.343 -12.723  0.00  0.00     0.145 HD
ENDBRANCH   6  26
TORSDOF 6
ENDMDL
MODEL 2
REMARK VINA RESULT:      -5.3     11.004     12.337
REMARK  6 active torsions:
REMARK  status: ('A' for Active; 'I' for Inactive)
REMARK    1  A    between atoms: C_1  and  C_2 
REMARK    2  A    between atoms: C_2  and  C_4 
REMARK    3  A    between atoms: C_2  and  O_20 
REMARK    4  A    between atoms: C_4  and  O_19 
REMARK    5  A    between atoms: C_4  and  C_6 
REMARK    6  A    between atoms: C_12  and  N_18 
ROOT
ATOM      1  C   LIG d   1       9.867   9.043  -2.159  0.00  0.00     0.091 A 
ATOM      2  C   LIG d   1      10.219   8.830  -3.477  0.00  0.00     0.054 A 
ATOM      3  N   LIG d   1      10.737   7.650  -3.863  0.00  0.00    -0.232 NA
ATOM      4  C   LIG d   1      10.910   6.671  -2.928  0.00  0.00     0.187 A 
ATOM      5  N   LIG d   1      11.416   5.485  -3.235  0.00  0.00    -0.195 NA
ATOM      6  C   LIG d   1      11.578   4.543  -2.316  0.00  0.00     0.195 A 
ATOM      7  N   LIG d   1      11.256   4.700  -1.042  0.00  0.00    -0.293 N 
ATOM      8  C   LIG d   1      10.735   5.850  -0.598  0.00  0.00     0.280 A 
ATOM      9  O   LIG d   1      10.436   6.000   0.576  0.00  0.00    -0.265 OA
ATOM     10  C   LIG d   1      10.536   6.930  -1.584  0.00  0.00     0.172 A 
ATOM     11  N   LIG d   1      10.029   8.101  -1.247  0.00  0.00    -0.239 NA
ATOM     12  H   LIG d   1      10.086   9.560  -4.147  0.00  0.00     0.085 H 
ATOM     13  H   LIG d   1      11.415   3.878  -0.328  0.00  0.00     0.172 HD
ENDROOT
BRANCH   1  14
ATOM     14  C   LIG d   1       9.288  10.374  -1.754  0.00  0.00     0.124 C 
ATOM     15  H   LIG d   1       9.956  10.884  -1.045  0.00  0.00     0.069 H 
BRANCH  14  16
ATOM     16  C   LIG d   1       9.035  11.221  -3.004  0.00  0.00     0.084 C 
ATOM     17  H   LIG d   1       9.268  10.660  -3.919  0.00  0.00     0.062 H 
BRANCH  16  18
ATOM     18  C   LIG d   1       9.854  12.511  -2.918  0.00  0.00    -0.036 C 
ATOM     19  H   LIG d   1      10.621  12.406  -2.137  0.00  0.00     0.025 H 
ATOM     20  H   LIG d   1       9.190  13.352  -2.670  0.00  0.00     0.025 H 
ATOM     21  H   LIG d   1      10.339  12.702  -3.887  0.00  0.00     0.025 H 
ENDBRANCH  16  18
BRANCH  16  22
ATOM     22  O   LIG d   1       7.646  11.543  -3.087  0.00  0.00    -0.389 OA
ATOM     23  H   LIG d   1       7.328  12.506  -3.512  0.00  0.00     0.210 HD
ENDBRANCH  16  22
ENDBRANCH  14  16
BRANCH  14  24
ATOM     24  O   LIG d   1       8.054  10.165  -1.062  0.00  0.00    -0.383 OA
ATOM     25  H   LIG d   1       8.050  10.049   0.031  0.00  0.00     0.210 HD
ENDBRANCH  14  24
ENDBRANCH   1  14
BRANCH   6  26
ATOM     26  N   LIG d   1      12.111   3.334  -2.710  0.00  0.00    -0.329 N 
ATOM     27  H   LIG d   1      11.607   2.738  -3.486  0.00  0.00     0.145 HD
ATOM     28  H   LIG d   1      13.038   2.965  -2.249  0.00  0.00     0.145 HD
ENDBRANCH   6  26
TORSDOF 6
ENDMDL
MODEL 3
REMARK VINA RESULT:      -5.1     11.413     13.286
REMARK  6 active torsions:
REMARK  status: ('A' for Active; 'I' for Inactive)
REMARK    1  A    between atoms: C_1  and  C_2 
REMARK    2  A    between atoms: C_2  and  C_4 
REMARK    3  A    between atoms: C_2  and  O_20 
REMARK    4  A    between atoms: C_4  and  O_19 
REMARK    5  A    between atoms: C_4  and  C_6 
REMARK    6  A    between atoms: C_12  and  N_18 
ROOT
ATOM      1  C   LIG d   1       9.553  10.291  -1.922  0.00  0.00     0.091 A 
ATOM      2  C   LIG d   1       9.974  10.644  -0.655  0.00  0.00     0.054 A 
ATOM      3  N   LIG d   1      10.367   9.701   0.221  0.00  0.00    -0.232 NA
ATOM      4  C   LIG d   1      10.341   8.393  -0.166  0.00  0.00     0.187 A 
ATOM      5  N   LIG d   1      10.714   7.412   0.644  0.00  0.00    -0.195 NA
ATOM      6  C   LIG d   1      10.684   6.145   0.255  0.00  0.00     0.195 A 
ATOM      7  N   LIG d   1      10.289   5.757  -0.948  0.00  0.00    -0.293 N 
ATOM      8  C   LIG d   1       9.887   6.648  -1.862  0.00  0.00     0.280 A 
ATOM      9  O   LIG d   1       9.522   6.296  -2.973  0.00  0.00    -0.265 OA
ATOM     10  C   LIG d   1       9.902   8.071  -1.476  0.00  0.00     0.172 A 
ATOM     11  N   LIG d   1       9.526   9.027  -2.306  0.00  0.00    -0.239 NA
ATOM     12  H   LIG d   1       9.984  11.608  -0.390  0.00  0.00     0.085 H 
ATOM     13  H   LIG d   1      10.288   4.689  -1.210  0.00  0.00     0.172 HD
ENDROOT
BRANCH   1  14
ATOM     14  C   LIG d   1       9.118  11.366  -2.883  0.00  0.00     0.124 C 
ATOM     15  H   LIG d   1       9.424  12.357  -2.517  0.00  0.00     0.069 H 
BRANCH  14  16
ATOM     16  C   LIG d   1       9.694  11.073  -4.271  0.00  0.00     0.084 C 
ATOM     17  H   LIG d   1      10.734  10.725  -4.204  0.00  0.00     0.062 H 
BRANCH  16  18
ATOM     18  C   LIG d   1       9.582  12.325  -5.144  0.00  0.00    -0.036 C 
ATOM     19  H   LIG d   1       9.844  13.211  -4.548  0.00  0.00     0.025 H 
ATOM     20  H   LIG d   1       8.550  12.424  -5.513  0.00  0.00     0.025 H 
ATOM     21  H   LIG d   1      10.270  12.240  -5.997  0.00  0.00     0.025 H 
ENDBRANCH  16  18
BRANCH  16  22
ATOM     22  O   LIG d   1       8.962  10.005  -4.873  0.00  0.00    -0.389 OA
ATOM     23  H   LIG d   1       9.062   8.981  -4.485  0.00  0.00     0.210 HD
ENDBRANCH  16  22
ENDBRANCH  14  16
BRANCH  14  24
ATOM     24  O   LIG d   1       7.690  11.391  -2.955  0.00  0.00    -0.383 OA
ATOM     25  H   LIG d   1       7.187  12.079  -3.650  0.00  0.00     0.210 HD
ENDBRANCH  14  24
ENDBRANCH   1  14
BRANCH   6  26
ATOM     26  N   LIG d   1      11.086   5.178   1.152  0.00  0.00    -0.329 N 
ATOM     27  H   LIG d   1      12.153   5.059   1.390  0.00  0.00     0.145 HD
ATOM     28  H   LIG d   1      10.340   4.527   1.629  0.00  0.00     0.145 HD
ENDBRANCH   6  26
TORSDOF 6
ENDMDL
MODEL 4
REMARK VINA RESULT:      -4.9     10.581     11.247
REMARK  6 active torsions:
REMARK  status: ('A' for Active; 'I' for Inactive)
REMARK    1  A    between atoms: C_1  and  C_2 
REMARK    2  A    between atoms: C_2  and  C_4 
REMARK    3  A    between atoms: C_2  and  O_20 
REMARK    4  A    between atoms: C_4  and  O_19 
REMARK    5  A    between atoms: C_4  and  C_6 
REMARK    6  A    between atoms: C_12  and  N_18 
ROOT
ATOM      1  C   LIG d   1       9.875   8.441  -3.116  0.00  0.00     0.091 A 
ATOM      2  C   LIG d   1       9.751   7.154  -3.600  0.00  0.00     0.054 A 
ATOM      3  N   LIG d   1       9.595   6.933  -4.918  0.00  0.00    -0.232 NA
ATOM      4  C   LIG d   1       9.560   8.002  -5.764  0.00  0.00     0.187 A 
ATOM      5  N   LIG d   1       9.409   7.860  -7.073  0.00  0.00    -0.195 NA
ATOM      6  C   LIG d   1       9.377   8.909  -7.884  0.00  0.00     0.195 A 
ATOM      7  N   LIG d   1       9.491  10.160  -7.468  0.00  0.00    -0.293 N 
ATOM      8  C   LIG d   1       9.650  10.444  -6.170  0.00  0.00     0.280 A 
ATOM      9  O   LIG d   1       9.756  11.596  -5.781  0.00  0.00    -0.265 OA
ATOM     10  C   LIG d   1       9.691   9.310  -5.227  0.00  0.00     0.172 A 
ATOM     11  N   LIG d   1       9.844   9.483  -3.928  0.00  0.00    -0.239 NA
ATOM     12  H   LIG d   1       9.778   6.384  -2.963  0.00  0.00     0.085 H 
ATOM     13  H   LIG d   1       9.458  10.987  -8.193  0.00  0.00     0.172 HD
ENDROOT
BRANCH   1  14
ATOM     14  C   LIG d   1      10.049   8.661  -1.636  0.00  0.00     0.124 C 
ATOM     15  H   LIG d   1      11.102   8.523  -1.347  0.00  0.00     0.069 H 
BRANCH  14  16
ATOM     16  C   LIG d   1       9.540  10.056  -1.264  0.00  0.00     0.084 C 
ATOM     17  H   LIG d   1       9.925  10.818  -1.957  0.00  0.00     0.062 H 
BRANCH  16  18
ATOM     18  C   LIG d   1       9.930  10.372   0.182  0.00  0.00    -0.036 C 
ATOM     19  H   LIG d   1      10.172   9.437   0.708  0.00  0.00     0.025 H 
ATOM     20  H   LIG d   1       9.090  10.871   0.688  0.00  0.00     0.025 H 
ATOM     21  H   LIG d   1      10.807  11.035   0.188  0.00  0.00     0.025 H 
ENDBRANCH  16  18
BRANCH  16  22
ATOM     22  O   LIG d   1       8.118  10.093  -1.393  0.00  0.00    -0.389 OA
ATOM     23  H   LIG d   1       7.655  10.085  -2.391  0.00  0.00     0.210 HD
ENDBRANCH  16  22
ENDBRANCH  14  16
BRANCH  14  24
ATOM     24  O   LIG d   1       9.305   7.675  -0.917  0.00  0.00    -0.383 OA
ATOM     25  H   LIG d   1       9.669   7.312   0.056  0.00  0.00     0.210 HD
ENDBRANCH  14  24
ENDBRANCH   1  14
BRANCH   6  26
ATOM     26  N   LIG d   1       9.215   8.682  -9.235  0.00  0.00    -0.329 N 
ATOM     27  H   LIG d   1       9.454   7.696  -9.659  0.00  0.00     0.145 HD
ATOM     28  H   LIG d   1       8.849   9.488  -9.887  0.00  0.00     0.145 HD
ENDBRANCH   6  26
TORSDOF 6
ENDMDL
MODEL 5
REMARK VINA RESULT:      -4.8     10.590     12.026
REMARK  6 active torsions:
REMARK  status: ('A' for Active; 'I' for Inactive)
REMARK    1  A    between atoms: C_1  and  C_2 
REMARK    2  A    between atoms: C_2  and  C_4 
REMARK    3  A    between atoms: C_2  and  O_20 
REMARK    4  A    between atoms: C_4  and  O_19 
REMARK    5  A    between atoms: C_4  and  C_6 
REMARK    6  A    between atoms: C_12  and  N_18 
ROOT
ATOM      1  C   LIG d   1       9.732   9.008  -1.808  0.00  0.00     0.091 A 
ATOM      2  C   LIG d   1       9.738   8.482  -0.532  0.00  0.00     0.054 A 
ATOM      3  N   LIG d   1      10.017   7.181  -0.330  0.00  0.00    -0.232 NA
ATOM      4  C   LIG d   1      10.291   6.393  -1.409  0.00  0.00     0.187 A 
ATOM      5  N   LIG d   1      10.573   5.104  -1.287  0.00  0.00    -0.195 NA
ATOM      6  C   LIG d   1      10.838   4.350  -2.345  0.00  0.00     0.195 A 
ATOM      7  N   LIG d   1      10.844   4.807  -3.587  0.00  0.00    -0.293 N 
ATOM      8  C   LIG d   1      10.576   6.091  -3.851  0.00  0.00     0.280 A 
ATOM      9  O   LIG d   1      10.580   6.519  -4.995  0.00  0.00    -0.265 OA
ATOM     10  C   LIG d   1      10.274   6.971  -2.706  0.00  0.00     0.172 A 
ATOM     11  N   LIG d   1       9.997   8.253  -2.859  0.00  0.00    -0.239 NA
ATOM     12  H   LIG d   1       9.534   9.076   0.247  0.00  0.00     0.085 H 
ATOM     13  H   LIG d   1      11.072   4.129  -4.423  0.00  0.00     0.172 HD
ENDROOT
BRANCH   1  14
ATOM     14  C   LIG d   1       9.417  10.468  -2.006  0.00  0.00     0.124 C 
ATOM     15  H   LIG d   1       9.927  11.078  -1.245  0.00  0.00     0.069 H 
BRANCH  14  16
ATOM     16  C   LIG d   1       9.810  10.887  -3.424  0.00  0.00     0.084 C 
ATOM     17  H   LIG d   1      10.708  10.350  -3.763  0.00  0.00     0.062 H 
BRANCH  16  18
ATOM     18  C   LIG d   1      10.019  12.402  -3.469  0.00  0.00    -0.036 C 
ATOM     19  H   LIG d   1      10.847  12.637  -4.154  0.00  0.00     0.025 H 
ATOM     20  H   LIG d   1      10.262  12.769  -2.460  0.00  0.00     0.025 H 
ATOM     21  H   LIG d   1       9.099  12.889  -3.824  0.00  0.00     0.025 H 
ENDBRANCH  16  18
BRANCH  16  22
ATOM     22  O   LIG d   1       8.771  10.522  -4.333  0.00  0.00    -0.389 OA
ATOM     23  H   LIG d   1       7.939   9.887  -3.993  0.00  0.00     0.210 HD
ENDBRANCH  16  22
ENDBRANCH  14  16
BRANCH  14  24
ATOM     24  O   LIG d   1       8.016  10.683  -1.817  0.00  0.00    -0.383 OA
ATOM     25  H   LIG d   1       7.587  11.683  -1.973  0.00  0.00     0.210 HD
ENDBRANCH  14  24
ENDBRANCH   1  14
BRANCH   6  26
ATOM     26  N   LIG d   1      11.122   3.016  -2.139  0.00  0.00    -0.329 N 
ATOM     27  H   LIG d   1      11.070   2.308  -2.980  0.00  0.00     0.145 HD
ATOM     28  H   LIG d   1      11.399   2.661  -1.137  0.00  0.00     0.145 HD
ENDBRANCH   6  26
TORSDOF 6
ENDMDL
MODEL 6
REMARK VINA RESULT:      -4.8     15.118     17.057
REMARK  6 active torsions:
REMARK  status: ('A' for Active; 'I' for Inactive)
REMARK    1  A    between atoms: C_1  and  C_2 
REMARK    2  A    between atoms: C_2  and  C_4 
REMARK    3  A    between atoms: C_2  and  O_20 
REMARK    4  A    between atoms: C_4  and  O_19 
REMARK    5  A    between atoms: C_4  and  C_6 
REMARK    6  A    between atoms: C_12  and  N_18 
ROOT
ATOM      1  C   LIG d   1      11.734 -12.109   3.866  0.00  0.00     0.091 A 
ATOM      2  C   LIG d   1      11.533 -12.596   2.590  0.00  0.00     0.054 A 
ATOM      3  N   LIG d   1      11.345 -11.751   1.559  0.00  0.00    -0.232 NA
ATOM      4  C   LIG d   1      11.357 -10.409   1.800  0.00  0.00     0.187 A 
ATOM      5  N   LIG d   1      11.178  -9.519   0.833  0.00  0.00    -0.195 NA
ATOM      6  C   LIG d   1      11.192  -8.216   1.081  0.00  0.00     0.195 A 
ATOM      7  N   LIG d   1      11.380  -7.702   2.286  0.00  0.00    -0.293 N 
ATOM      8  C   LIG d   1      11.573  -8.490   3.350  0.00  0.00     0.280 A 
ATOM      9  O   LIG d   1      11.748  -8.021   4.464  0.00  0.00    -0.265 OA
ATOM     10  C   LIG d   1      11.567  -9.948   3.125  0.00  0.00     0.172 A 
ATOM     11  N   LIG d   1      11.748 -10.811   4.108  0.00  0.00    -0.239 NA
ATOM     12  H   LIG d   1      11.527 -13.584   2.434  0.00  0.00     0.085 H 
ATOM     13  H   LIG d   1      11.381  -6.611   2.426  0.00  0.00     0.172 HD
ENDROOT
BRANCH   1  14
ATOM     14  C   LIG d   1      11.942 -13.077   5.002  0.00  0.00     0.124 C 
ATOM     15  H   LIG d   1      13.013 -13.179   5.229  0.00  0.00     0.069 H 
BRANCH  14  16
ATOM     16  C   LIG d   1      11.147 -12.607   6.223  0.00  0.00     0.084 C 
ATOM     17  H   LIG d   1      11.267 -11.527   6.385  0.00  0.00     0.062 H 
BRANCH  16  18
ATOM     18  C   LIG d   1      11.585 -13.405   7.454  0.00  0.00    -0.036 C 
ATOM     19  H   LIG d   1      10.711 -13.908   7.894  0.00  0.00     0.025 H 
ATOM     20  H   LIG d   1      12.027 -12.723   8.195  0.00  0.00     0.025 H 
ATOM     21  H   LIG d   1      12.330 -14.157   7.157  0.00  0.00     0.025 H 
ENDBRANCH  16  18
BRANCH  16  22
ATOM     22  O   LIG d   1       9.753 -12.815   5.992  0.00  0.00    -0.389 OA
ATOM     23  H   LIG d   1       9.160 -13.412   6.700  0.00  0.00     0.210 HD
ENDBRANCH  16  22
ENDBRANCH  14  16
BRANCH  14  24
ATOM     24  O   LIG d   1      11.491 -14.375   4.611  0.00  0.00    -0.383 OA
ATOM     25  H   LIG d   1      12.172 -15.058   4.083  0.00  0.00     0.210 HD
ENDBRANCH  14  24
ENDBRANCH   1  14
BRANCH   6  26
ATOM     26  N   LIG d   1      10.998  -7.350   0.026  0.00  0.00    -0.329 N 
ATOM     27  H   LIG d   1      10.141  -6.660   0.032  0.00  0.00     0.145 HD
ATOM     28  H   LIG d   1      11.699  -7.350  -0.821  0.00  0.00     0.145 HD
ENDBRANCH   6  26
TORSDOF 6
ENDMDL
MODEL 7
REMARK VINA RESULT:      -4.8      2.358      5.462
REMARK  6 active torsions:
REMARK  status: ('A' for Active; 'I' for Inactive)
REMARK    1  A    between atoms: C_1  and  C_2 
REMARK    2  A    between atoms: C_2  and  C_4 
REMARK    3  A    between atoms: C_2  and  O_20 
REMARK    4  A    between atoms: C_4  and  O_19 
REMARK    5  A    between atoms: C_4  and  C_6 
REMARK    6  A    between atoms: C_12  and  N_18 
ROOT
ATOM      1  C   LIG d   1       4.874  -0.290  -7.975  0.00  0.00     0.091 A 
ATOM      2  C   LIG d   1       5.498  -1.511  -7.817  0.00  0.00     0.054 A 
ATOM      3  N   LIG d   1       5.378  -2.195  -6.664  0.00  0.00    -0.232 NA
ATOM      4  C   LIG d   1       4.632  -1.658  -5.656  0.00  0.00     0.187 A 
ATOM      5  N   LIG d   1       4.472  -2.274  -4.493  0.00  0.00    -0.195 NA
ATOM      6  C   LIG d   1       3.743  -1.740  -3.522  0.00  0.00     0.195 A 
ATOM      7  N   LIG d   1       3.127  -0.574  -3.626  0.00  0.00    -0.293 N 
ATOM      8  C   LIG d   1       3.207   0.152  -4.747  0.00  0.00     0.280 A 
ATOM      9  O   LIG d   1       2.640   1.229  -4.848  0.00  0.00    -0.265 OA
ATOM     10  C   LIG d   1       4.007  -0.400  -5.857  0.00  0.00     0.172 A 
ATOM     11  N   LIG d   1       4.148   0.237  -7.005  0.00  0.00    -0.239 NA
ATOM     12  H   LIG d   1       6.041  -1.888  -8.567  0.00  0.00     0.085 H 
ATOM     13  H   LIG d   1       2.537  -0.186  -2.783  0.00  0.00     0.172 HD
ENDROOT
BRANCH   1  14
ATOM     14  C   LIG d   1       5.023   0.454  -9.276  0.00  0.00     0.124 C 
ATOM     15  H   LIG d   1       4.359   0.027 -10.042  0.00  0.00     0.069 H 
BRANCH  14  16
ATOM     16  C   LIG d   1       4.742   1.941  -9.048  0.00  0.00     0.084 C 
ATOM     17  H   LIG d   1       4.507   2.145  -7.994  0.00  0.00     0.062 H 
BRANCH  16  18
ATOM     18  C   LIG d   1       3.605   2.392  -9.968  0.00  0.00    -0.036 C 
ATOM     19  H   LIG d   1       3.710   3.466 -10.181  0.00  0.00     0.025 H 
ATOM     20  H   LIG d   1       2.639   2.210  -9.473  0.00  0.00     0.025 H 
ATOM     21  H   LIG d   1       3.648   1.824 -10.909  0.00  0.00     0.025 H 
ENDBRANCH  16  18
BRANCH  16  22
ATOM     22  O   LIG d   1       5.918   2.698  -9.339  0.00  0.00    -0.389 OA
ATOM     23  H   LIG d   1       6.301   3.424  -8.607  0.00  0.00     0.210 HD
ENDBRANCH  16  22
ENDBRANCH  14  16
BRANCH  14  24
ATOM     24  O   LIG d   1       6.356   0.291  -9.768  0.00  0.00    -0.383 OA
ATOM     25  H   LIG d   1       6.556  -0.410 -10.591  0.00  0.00     0.210 HD
ENDBRANCH  14  24
ENDBRANCH   1  14
BRANCH   6  26
ATOM     26  N   LIG d   1       3.622  -2.439  -2.340  0.00  0.00    -0.329 N 
ATOM     27  H   LIG d   1       4.510  -2.896  -1.878  0.00  0.00     0.145 HD
ATOM     28  H   LIG d   1       2.639  -2.541  -1.859  0.00  0.00     0.145 HD
ENDBRANCH   6  26
TORSDOF 6
ENDMDL
MODEL 8
REMARK VINA RESULT:      -4.6      1.899      2.741
REMARK  6 active torsions:
REMARK  status: ('A' for Active; 'I' for Inactive)
REMARK    1  A    between atoms: C_1  and  C_2 
REMARK    2  A    between atoms: C_2  and  C_4 
REMARK    3  A    between atoms: C_2  and  O_20 
REMARK    4  A    between atoms: C_4  and  O_19 
REMARK    5  A    between atoms: C_4  and  C_6 
REMARK    6  A    between atoms: C_12  and  N_18 
ROOT
ATOM      1  C   LIG d   1       3.876  -0.642  -4.830  0.00  0.00     0.091 A 
ATOM      2  C   LIG d   1       2.884   0.300  -5.017  0.00  0.00     0.054 A 
ATOM      3  N   LIG d   1       2.685   0.850  -6.228  0.00  0.00    -0.232 NA
ATOM      4  C   LIG d   1       3.482   0.461  -7.265  0.00  0.00     0.187 A 
ATOM      5  N   LIG d   1       3.344   0.961  -8.486  0.00  0.00    -0.195 NA
ATOM      6  C   LIG d   1       4.125   0.573  -9.484  0.00  0.00     0.195 A 
ATOM      7  N   LIG d   1       5.088  -0.326  -9.354  0.00  0.00    -0.293 N 
ATOM      8  C   LIG d   1       5.333  -0.909  -8.175  0.00  0.00     0.280 A 
ATOM      9  O   LIG d   1       6.221  -1.739  -8.049  0.00  0.00    -0.265 OA
ATOM     10  C   LIG d   1       4.490  -0.510  -7.032  0.00  0.00     0.172 A 
ATOM     11  N   LIG d   1       4.651  -1.026  -5.828  0.00  0.00    -0.239 NA
ATOM     12  H   LIG d   1       2.311   0.573  -4.244  0.00  0.00     0.085 H 
ATOM     13  H   LIG d   1       5.702  -0.605 -10.223  0.00  0.00     0.172 HD
ENDROOT
BRANCH   1  14
ATOM     14  C   LIG d   1       4.077  -1.243  -3.463  0.00  0.00     0.124 C 
ATOM     15  H   LIG d   1       4.327  -2.311  -3.545  0.00  0.00     0.069 H 
BRANCH  14  16
ATOM     16  C   LIG d   1       5.163  -0.464  -2.718  0.00  0.00     0.084 C 
ATOM     17  H   LIG d   1       5.818  -1.139  -2.148  0.00  0.00     0.062 H 
BRANCH  16  18
ATOM     18  C   LIG d   1       4.509   0.577  -1.806  0.00  0.00    -0.036 C 
ATOM     19  H   LIG d   1       5.193   0.819  -0.979  0.00  0.00     0.025 H 
ATOM     20  H   LIG d   1       3.571   0.172  -1.400  0.00  0.00     0.025 H 
ATOM     21  H   LIG d   1       4.296   1.488  -2.384  0.00  0.00     0.025 H 
ENDBRANCH  16  18
BRANCH  16  22
ATOM     22  O   LIG d   1       6.009   0.194  -3.662  0.00  0.00    -0.389 OA
ATOM     23  H   LIG d   1       5.572   0.686  -4.544  0.00  0.00     0.210 HD
ENDBRANCH  16  22
ENDBRANCH  14  16
BRANCH  14  24
ATOM     24  O   LIG d   1       2.853  -1.175  -2.727  0.00  0.00    -0.383 OA
ATOM     25  H   LIG d   1       1.901  -1.017  -3.257  0.00  0.00     0.210 HD
ENDBRANCH  14  24
ENDBRANCH   1  14
BRANCH   6  26
ATOM     26  N   LIG d   1       3.923   1.138 -10.726  0.00  0.00    -0.329 N 
ATOM     27  H   LIG d   1       4.394   0.692 -11.615  0.00  0.00     0.145 HD
ATOM     28  H   LIG d   1       3.293   2.032 -10.827  0.00  0.00     0.145 HD
ENDBRANCH   6  26
TORSDOF 6
ENDMDL
MODEL 9
REMARK VINA RESULT:      -4.6     11.745     13.243
REMARK  6 active torsions:
REMARK  status: ('A' for Active; 'I' for Inactive)
REMARK    1  A    between atoms: C_1  and  C_2 
REMARK    2  A    between atoms: C_2  and  C_4 
REMARK    3  A    between atoms: C_2  and  O_20 
REMARK    4  A    between atoms: C_4  and  O_19 
REMARK    5  A    between atoms: C_4  and  C_6 
REMARK    6  A    between atoms: C_12  and  N_18 
ROOT
ATOM      1  C   LIG d   1      10.349   9.022  -0.197  0.00  0.00     0.091 A 
ATOM      2  C   LIG d   1       9.184   8.632  -0.826  0.00  0.00     0.054 A 
ATOM      3  N   LIG d   1       9.072   7.398  -1.351  0.00  0.00    -0.232 NA
ATOM      4  C   LIG d   1      10.131   6.543  -1.252  0.00  0.00     0.187 A 
ATOM      5  N   LIG d   1      10.092   5.314  -1.747  0.00  0.00    -0.195 NA
ATOM      6  C   LIG d   1      11.129   4.494  -1.644  0.00  0.00     0.195 A 
ATOM      7  N   LIG d   1      12.266   4.822  -1.051  0.00  0.00    -0.293 N 
ATOM      8  C   LIG d   1      12.437   6.033  -0.508  0.00  0.00     0.280 A 
ATOM      9  O   LIG d   1      13.484   6.340   0.040  0.00  0.00    -0.265 OA
ATOM     10  C   LIG d   1      11.311   6.982  -0.598  0.00  0.00     0.172 A 
ATOM     11  N   LIG d   1      11.379   8.201  -0.095  0.00  0.00    -0.239 NA
ATOM     12  H   LIG d   1       8.420   9.273  -0.889  0.00  0.00     0.085 H 
ATOM     13  H   LIG d   1      13.089   4.094  -0.997  0.00  0.00     0.172 HD
ENDROOT
BRANCH   1  14
ATOM     14  C   LIG d   1      10.448  10.409   0.384  0.00  0.00     0.124 C 
ATOM     15  H   LIG d   1      10.796  10.365   1.427  0.00  0.00     0.069 H 
BRANCH  14  16
ATOM     16  C   LIG d   1      11.375  11.261  -0.486  0.00  0.00     0.084 C 
ATOM     17  H   LIG d   1      12.326  11.466   0.027  0.00  0.00     0.062 H 
BRANCH  16  18
ATOM     18  C   LIG d   1      10.661  12.558  -0.872  0.00  0.00    -0.036 C 
ATOM     19  H   LIG d   1      11.145  13.407  -0.366  0.00  0.00     0.025 H 
ATOM     20  H   LIG d   1       9.606  12.502  -0.567  0.00  0.00     0.025 H 
ATOM     21  H   LIG d   1      10.720  12.699  -1.962  0.00  0.00     0.025 H 
ENDBRANCH  16  18
BRANCH  16  22
ATOM     22  O   LIG d   1      11.718  10.536  -1.668  0.00  0.00    -0.389 OA
ATOM     23  H   LIG d   1      11.332  10.861  -2.645  0.00  0.00     0.210 HD
ENDBRANCH  16  22
ENDBRANCH  14  16
BRANCH  14  24
ATOM     24  O   LIG d   1       9.149  11.004   0.420  0.00  0.00    -0.383 OA
ATOM     25  H   LIG d   1       9.011  11.998   0.869  0.00  0.00     0.210 HD
ENDBRANCH  14  24
ENDBRANCH   1  14
BRANCH   6  26
ATOM     26  N   LIG d   1      11.015   3.230  -2.184  0.00  0.00    -0.329 N 
ATOM     27  H   LIG d   1      10.757   3.108  -3.246  0.00  0.00     0.145 HD
ATOM     28  H   LIG d   1      11.183   2.345  -1.553  0.00  0.00     0.145 HD
ENDBRANCH   6  26
TORSDOF 6
ENDMDL
