MODEL 1
REMARK VINA RESULT:      -6.5      0.000      0.000
REMARK  14 active torsions:
REMARK  status: ('A' for Active; 'I' for Inactive)
REMARK    1  A    between atoms: C_1  and  C_2 
REMARK    2  A    between atoms: C_2  and  C_3 
REMARK    3  A    between atoms: C_3  and  C_4 
REMARK    4  A    between atoms: C_4  and  C_5 
REMARK    5  A    between atoms: C_5  and  O_7 
REMARK    6  A    between atoms: O_7  and  C_8 
REMARK    7  A    between atoms: C_8  and  C_33 
REMARK    8  A    between atoms: C_13  and  C_32 
REMARK    9  A    between atoms: C_15  and  O_31 
REMARK   10  A    between atoms: C_29  and  C_30 
REMARK   11  A    between atoms: C_33  and  C_35 
REMARK   12  A    between atoms: C_35  and  O_36 
REMARK   13  A    between atoms: O_36  and  C_37 
REMARK   14  A    between atoms: C_37  and  C_39 
ROOT
ATOM      1  C   LIG d   1       6.583  -0.510  -4.832  0.00  0.00     0.180 C 
ATOM      2  C   LIG d   1       5.161  -0.237  -5.383  0.00  0.00    -0.005 C 
ATOM      3  C   LIG d   1       4.657  -1.580  -5.979  0.00  0.00    -0.045 C 
ATOM      4  C   LIG d   1       5.484  -2.624  -5.221  0.00  0.00    -0.028 C 
ATOM      5  H   LIG d   1       5.105  -2.744  -4.206  0.00  0.00     0.031 H 
ATOM      6  C   LIG d   1       6.886  -1.959  -5.200  0.00  0.00     0.020 C 
ATOM      7  C   LIG d   1       7.738  -2.741  -4.219  0.00  0.00    -0.017 C 
ATOM      8  C   LIG d   1       7.904  -4.158  -4.792  0.00  0.00     0.060 C 
ATOM      9  H   LIG d   1       8.485  -4.759  -4.091  0.00  0.00     0.060 H 
ATOM     10  C   LIG d   1       6.557  -4.833  -5.030  0.00  0.00     0.001 C 
ATOM     11  H   LIG d   1       6.066  -5.000  -4.071  0.00  0.00     0.034 H 
ATOM     12  C   LIG d   1       5.654  -3.961  -5.915  0.00  0.00    -0.031 C 
ATOM     13  H   LIG d   1       6.118  -3.826  -6.893  0.00  0.00     0.031 H 
ATOM     14  C   LIG d   1       4.284  -4.626  -6.062  0.00  0.00    -0.046 C 
ATOM     15  C   LIG d   1       4.437  -5.963  -6.796  0.00  0.00    -0.030 C 
ATOM     16  C   LIG d   1       5.453  -6.801  -6.044  0.00  0.00    -0.056 A 
ATOM     17  C   LIG d   1       5.128  -8.037  -5.691  0.00  0.00    -0.015 A 
ATOM     18  C   LIG d   1       6.074  -8.871  -4.932  0.00  0.00     0.179 A 
ATOM     19  O   LIG d   1       5.793 -10.018  -4.635  0.00  0.00    -0.288 OA
ATOM     20  C   LIG d   1       7.368  -8.287  -4.538  0.00  0.00    -0.018 A 
ATOM     21  C   LIG d   1       7.672  -7.052  -4.907  0.00  0.00    -0.070 A 
ATOM     22  C   LIG d   1       6.780  -6.180  -5.723  0.00  0.00     0.013 A 
ATOM     23  H   LIG d   1       5.202   0.525  -6.161  0.00  0.00     0.031 H 
ATOM     24  H   LIG d   1       4.503   0.086  -4.577  0.00  0.00     0.031 H 
ATOM     25  H   LIG d   1       4.861  -1.628  -7.049  0.00  0.00     0.027 H 
ATOM     26  H   LIG d   1       3.593  -1.714  -5.781  0.00  0.00     0.027 H 
ATOM     27  H   LIG d   1       7.240  -2.789  -3.250  0.00  0.00     0.030 H 
ATOM     28  H   LIG d   1       8.714  -2.267  -4.113  0.00  0.00     0.030 H 
ATOM     29  H   LIG d   1       3.857  -4.802  -5.074  0.00  0.00     0.027 H 
ATOM     30  H   LIG d   1       3.622  -3.974  -6.631  0.00  0.00     0.027 H 
ATOM     31  H   LIG d   1       4.787  -5.786  -7.813  0.00  0.00     0.031 H 
ATOM     32  H   LIG d   1       3.479  -6.481  -6.821  0.00  0.00     0.031 H 
ATOM     33  H   LIG d   1       4.163  -8.436  -5.963  0.00  0.00     0.066 H 
ATOM     34  H   LIG d   1       8.066  -8.864  -3.952  0.00  0.00     0.065 H 
ATOM     35  H   LIG d   1       8.626  -6.652  -4.596  0.00  0.00     0.058 H 
ENDROOT
BRANCH   1  36
ATOM     36  O   LIG d   1       6.604  -0.343  -3.390  0.00  0.00    -0.450 OA
BRANCH  36  37
ATOM     37  C   LIG d   1       5.835   0.631  -2.878  0.00  0.00     0.308 C 
ATOM     38  O   LIG d   1       6.106   1.790  -3.089  0.00  0.00    -0.251 OA
BRANCH  37  39
ATOM     39  C   LIG d   1       4.633   0.279  -2.040  0.00  0.00     0.045 C 
ATOM     40  H   LIG d   1       4.647   0.866  -1.122  0.00  0.00     0.038 H 
ATOM     41  H   LIG d   1       3.723   0.502  -2.600  0.00  0.00     0.038 H 
BRANCH  39  42
ATOM     42  C   LIG d   1       4.668  -1.210  -1.695  0.00  0.00    -0.043 C 
ATOM     43  H   LIG d   1       5.629  -1.629  -1.993  0.00  0.00     0.027 H 
ATOM     44  H   LIG d   1       4.534  -1.338  -0.621  0.00  0.00     0.027 H 
BRANCH  42  45
ATOM     45  C   LIG d   1       3.543  -1.933  -2.439  0.00  0.00    -0.055 C 
ATOM     46  H   LIG d   1       3.967  -2.527  -3.248  0.00  0.00     0.026 H 
ATOM     47  H   LIG d   1       3.014  -2.588  -1.747  0.00  0.00     0.026 H 
BRANCH  45  48
ATOM     48  C   LIG d   1       2.570  -0.905  -3.016  0.00  0.00    -0.065 C 
ATOM     49  H   LIG d   1       2.520  -1.018  -4.100  0.00  0.00     0.023 H 
ATOM     50  H   LIG d   1       1.579  -1.062  -2.590  0.00  0.00     0.023 H 
ATOM     51  H   LIG d   1       2.915   0.100  -2.772  0.00  0.00     0.023 H 
ENDBRANCH  45  48
ENDBRANCH  42  45
ENDBRANCH  39  42
ENDBRANCH  37  39
ENDBRANCH  36  37
ENDBRANCH   1  36
BRANCH   1  52
ATOM     52  C   LIG d   1       7.581   0.414  -5.481  0.00  0.00     0.214 C 
ATOM     53  O   LIG d   1       7.258   1.077  -6.437  0.00  0.00    -0.289 OA
BRANCH  52  54
ATOM     54  C   LIG d   1       8.983   0.511  -4.937  0.00  0.00     0.154 C 
ATOM     55  H   LIG d   1       9.001   0.165  -3.999  0.00  0.00     0.078 H 
ATOM     56  H   LIG d   1       9.655  -0.084  -5.556  0.00  0.00     0.078 H 
BRANCH  54  57
ATOM     57  O   LIG d   1       9.414   1.897  -4.951  0.00  0.00    -0.457 OA
BRANCH  57  58
ATOM     58  C   LIG d   1       9.895   2.398  -3.803  0.00  0.00     0.304 C 
ATOM     59  O   LIG d   1       9.168   3.016  -3.062  0.00  0.00    -0.251 OA
BRANCH  58  60
ATOM     60  C   LIG d   1      11.342   2.188  -3.437  0.00  0.00     0.033 C 
ATOM     61  H   LIG d   1      11.508   2.517  -2.410  0.00  0.00     0.034 H 
ATOM     62  H   LIG d   1      11.589   1.131  -3.524  0.00  0.00     0.034 H 
ATOM     63  H   LIG d   1      11.975   2.766  -4.110  0.00  0.00     0.034 H 
ENDBRANCH  58  60
ENDBRANCH  57  58
ENDBRANCH  54  57
ENDBRANCH  52  54
ENDBRANCH   1  52
BRANCH   6  64
ATOM     64  C   LIG d   1       7.511  -2.024  -6.595  0.00  0.00    -0.055 C 
ATOM     65  H   LIG d   1       8.254  -1.234  -6.699  0.00  0.00     0.024 H 
ATOM     66  H   LIG d   1       7.989  -2.993  -6.735  0.00  0.00     0.024 H 
ATOM     67  H   LIG d   1       6.733  -1.891  -7.348  0.00  0.00     0.024 H 
ENDBRANCH   6  64
BRANCH   8  68
ATOM     68  O   LIG d   1       8.610  -4.078  -6.032  0.00  0.00    -0.391 OA
ATOM     69  H   LIG d   1       8.099  -4.377  -6.796  0.00  0.00     0.210 HD
ENDBRANCH   8  68
BRANCH  22  70
ATOM     70  C   LIG d   1       7.501  -5.910  -7.044  0.00  0.00    -0.052 C 
ATOM     71  H   LIG d   1       8.329  -6.610  -7.156  0.00  0.00     0.024 H 
ATOM     72  H   LIG d   1       6.804  -6.036  -7.872  0.00  0.00     0.024 H 
ATOM     73  H   LIG d   1       7.887  -4.890  -7.046  0.00  0.00     0.024 H 
ENDBRANCH  22  70
TORSDOF 14
ENDMDL
MODEL 2
REMARK VINA RESULT:      -6.3      2.435      3.878
REMARK  14 active torsions:
REMARK  status: ('A' for Active; 'I' for Inactive)
REMARK    1  A    between atoms: C_1  and  C_2 
REMARK    2  A    between atoms: C_2  and  C_3 
REMARK    3  A    between atoms: C_3  and  C_4 
REMARK    4  A    between atoms: C_4  and  C_5 
REMARK    5  A    between atoms: C_5  and  O_7 
REMARK    6  A    between atoms: O_7  and  C_8 
REMARK    7  A    between atoms: C_8  and  C_33 
REMARK    8  A    between atoms: C_13  and  C_32 
REMARK    9  A    between atoms: C_15  and  O_31 
REMARK   10  A    between atoms: C_29  and  C_30 
REMARK   11  A    between atoms: C_33  and  C_35 
REMARK   12  A    between atoms: C_35  and  O_36 
REMARK   13  A    between atoms: O_36  and  C_37 
REMARK   14  A    between atoms: C_37  and  C_39 
ROOT
ATOM      1  C   LIG d   1       5.925  -0.565  -6.222  0.00  0.00     0.180 C 
ATOM      2  C   LIG d   1       4.921  -1.379  -7.075  0.00  0.00    -0.005 C 
ATOM      3  C   LIG d   1       5.409  -2.853  -7.038  0.00  0.00    -0.045 C 
ATOM      4  C   LIG d   1       6.228  -2.912  -5.744  0.00  0.00    -0.028 C 
ATOM      5  H   LIG d   1       5.566  -2.938  -4.878  0.00  0.00     0.031 H 
ATOM      6  C   LIG d   1       6.997  -1.565  -5.797  0.00  0.00     0.020 C 
ATOM      7  C   LIG d   1       7.618  -1.350  -4.431  0.00  0.00    -0.017 C 
ATOM      8  C   LIG d   1       8.653  -2.468  -4.223  0.00  0.00     0.060 C 
ATOM      9  H   LIG d   1       9.095  -2.362  -3.232  0.00  0.00     0.060 H 
ATOM     10  C   LIG d   1       8.022  -3.851  -4.342  0.00  0.00     0.001 C 
ATOM     11  H   LIG d   1       7.319  -3.996  -3.522  0.00  0.00     0.034 H 
ATOM     12  C   LIG d   1       7.279  -4.003  -5.678  0.00  0.00    -0.031 C 
ATOM     13  H   LIG d   1       7.983  -3.903  -6.504  0.00  0.00     0.031 H 
ATOM     14  C   LIG d   1       6.587  -5.367  -5.728  0.00  0.00    -0.046 C 
ATOM     15  C   LIG d   1       7.641  -6.479  -5.699  0.00  0.00    -0.030 C 
ATOM     16  C   LIG d   1       8.513  -6.273  -4.474  0.00  0.00    -0.056 A 
ATOM     17  C   LIG d   1       8.694  -7.286  -3.639  0.00  0.00    -0.015 A 
ATOM     18  C   LIG d   1       9.505  -7.118  -2.423  0.00  0.00     0.179 A 
ATOM     19  O   LIG d   1       9.703  -8.054  -1.672  0.00  0.00    -0.288 OA
ATOM     20  C   LIG d   1      10.073  -5.788  -2.136  0.00  0.00    -0.018 A 
ATOM     21  C   LIG d   1       9.882  -4.793  -2.987  0.00  0.00    -0.070 A 
ATOM     22  C   LIG d   1       9.118  -4.918  -4.261  0.00  0.00     0.013 A 
ATOM     23  H   LIG d   1       4.918  -1.011  -8.101  0.00  0.00     0.031 H 
ATOM     24  H   LIG d   1       3.921  -1.305  -6.649  0.00  0.00     0.031 H 
ATOM     25  H   LIG d   1       6.037  -3.073  -7.903  0.00  0.00     0.027 H 
ATOM     26  H   LIG d   1       4.562  -3.538  -6.991  0.00  0.00     0.027 H 
ATOM     27  H   LIG d   1       6.850  -1.408  -3.660  0.00  0.00     0.030 H 
ATOM     28  H   LIG d   1       8.109  -0.378  -4.395  0.00  0.00     0.030 H 
ATOM     29  H   LIG d   1       5.926  -5.472  -4.867  0.00  0.00     0.027 H 
ATOM     30  H   LIG d   1       6.003  -5.445  -6.644  0.00  0.00     0.027 H 
ATOM     31  H   LIG d   1       8.254  -6.428  -6.599  0.00  0.00     0.031 H 
ATOM     32  H   LIG d   1       7.150  -7.450  -5.642  0.00  0.00     0.031 H 
ATOM     33  H   LIG d   1       8.244  -8.244  -3.853  0.00  0.00     0.066 H 
ATOM     34  H   LIG d   1      10.643  -5.627  -1.234  0.00  0.00     0.065 H 
ATOM     35  H   LIG d   1      10.306  -3.830  -2.743  0.00  0.00     0.058 H 
ENDROOT
BRANCH   1  36
ATOM     36  O   LIG d   1       5.262  -0.013  -5.054  0.00  0.00    -0.450 OA
BRANCH  36  37
ATOM     37  C   LIG d   1       3.939  -0.213  -4.954  0.00  0.00     0.308 C 
ATOM     38  O   LIG d   1       3.173   0.487  -5.575  0.00  0.00    -0.251 OA
BRANCH  37  39
ATOM     39  C   LIG d   1       3.407  -1.309  -4.067  0.00  0.00     0.045 C 
ATOM     40  H   LIG d   1       2.518  -1.745  -4.523  0.00  0.00     0.038 H 
ATOM     41  H   LIG d   1       4.169  -2.079  -3.946  0.00  0.00     0.038 H 
BRANCH  39  42
ATOM     42  C   LIG d   1       3.046  -0.728  -2.698  0.00  0.00    -0.043 C 
ATOM     43  H   LIG d   1       2.580   0.248  -2.829  0.00  0.00     0.027 H 
ATOM     44  H   LIG d   1       2.351  -1.398  -2.191  0.00  0.00     0.027 H 
BRANCH  42  45
ATOM     45  C   LIG d   1       4.316  -0.579  -1.857  0.00  0.00    -0.055 C 
ATOM     46  H   LIG d   1       4.178  -1.081  -0.900  0.00  0.00     0.026 H 
ATOM     47  H   LIG d   1       5.156  -1.029  -2.386  0.00  0.00     0.026 H 
BRANCH  45  48
ATOM     48  C   LIG d   1       4.598   0.905  -1.619  0.00  0.00    -0.065 C 
ATOM     49  H   LIG d   1       4.965   1.048  -0.602  0.00  0.00     0.023 H 
ATOM     50  H   LIG d   1       5.350   1.251  -2.328  0.00  0.00     0.023 H 
ATOM     51  H   LIG d   1       3.680   1.477  -1.757  0.00  0.00     0.023 H 
ENDBRANCH  45  48
ENDBRANCH  42  45
ENDBRANCH  39  42
ENDBRANCH  37  39
ENDBRANCH  36  37
ENDBRANCH   1  36
BRANCH   1  52
ATOM     52  C   LIG d   1       6.537   0.538  -7.046  0.00  0.00     0.214 C 
ATOM     53  O   LIG d   1       7.331   1.298  -6.544  0.00  0.00    -0.289 OA
BRANCH  52  54
ATOM     54  C   LIG d   1       6.160   0.694  -8.496  0.00  0.00     0.154 C 
ATOM     55  H   LIG d   1       6.986   0.674  -9.060  0.00  0.00     0.078 H 
ATOM     56  H   LIG d   1       5.501  -0.123  -8.790  0.00  0.00     0.078 H 
BRANCH  54  57
ATOM     57  O   LIG d   1       5.474   1.959  -8.686  0.00  0.00    -0.457 OA
BRANCH  57  58
ATOM     58  C   LIG d   1       4.326   1.933  -9.379  0.00  0.00     0.304 C 
ATOM     59  O   LIG d   1       4.344   1.747 -10.572  0.00  0.00    -0.251 OA
BRANCH  58  60
ATOM     60  C   LIG d   1       3.012   2.134  -8.669  0.00  0.00     0.033 C 
ATOM     61  H   LIG d   1       2.573   1.164  -8.434  0.00  0.00     0.034 H 
ATOM     62  H   LIG d   1       3.178   2.690  -7.746  0.00  0.00     0.034 H 
ATOM     63  H   LIG d   1       2.332   2.694  -9.312  0.00  0.00     0.034 H 
ENDBRANCH  58  60
ENDBRANCH  57  58
ENDBRANCH  54  57
ENDBRANCH  52  54
ENDBRANCH   1  52
BRANCH   6  64
ATOM     64  C   LIG d   1       8.095  -1.637  -6.861  0.00  0.00    -0.055 C 
ATOM     65  H   LIG d   1       7.756  -1.136  -7.768  0.00  0.00     0.024 H 
ATOM     66  H   LIG d   1       8.994  -1.146  -6.489  0.00  0.00     0.024 H 
ATOM     67  H   LIG d   1       8.316  -2.681  -7.084  0.00  0.00     0.024 H 
ENDBRANCH   6  64
BRANCH   8  68
ATOM     68  O   LIG d   1       9.682  -2.339  -5.207  0.00  0.00    -0.391 OA
ATOM     69  H   LIG d   1      10.237  -3.125  -5.301  0.00  0.00     0.210 HD
ENDBRANCH   8  68
BRANCH  22  70
ATOM     70  C   LIG d   1      10.103  -4.661  -5.403  0.00  0.00    -0.052 C 
ATOM     71  H   LIG d   1      10.025  -3.621  -5.722  0.00  0.00     0.024 H 
ATOM     72  H   LIG d   1      11.118  -4.861  -5.060  0.00  0.00     0.024 H 
ATOM     73  H   LIG d   1       9.867  -5.316  -6.241  0.00  0.00     0.024 H 
ENDBRANCH  22  70
TORSDOF 14
ENDMDL
MODEL 3
REMARK VINA RESULT:      -6.2      1.220      2.227
REMARK  14 active torsions:
REMARK  status: ('A' for Active; 'I' for Inactive)
REMARK    1  A    between atoms: C_1  and  C_2 
REMARK    2  A    between atoms: C_2  and  C_3 
REMARK    3  A    between atoms: C_3  and  C_4 
REMARK    4  A    between atoms: C_4  and  C_5 
REMARK    5  A    between atoms: C_5  and  O_7 
REMARK    6  A    between atoms: O_7  and  C_8 
REMARK    7  A    between atoms: C_8  and  C_33 
REMARK    8  A    between atoms: C_13  and  C_32 
REMARK    9  A    between atoms: C_15  and  O_31 
REMARK   10  A    between atoms: C_29  and  C_30 
REMARK   11  A    between atoms: C_33  and  C_35 
REMARK   12  A    between atoms: C_35  and  O_36 
REMARK   13  A    between atoms: O_36  and  C_37 
REMARK   14  A    between atoms: C_37  and  C_39 
ROOT
ATOM      1  C   LIG d   1       6.831  -0.692  -4.923  0.00  0.00     0.180 C 
ATOM      2  C   LIG d   1       5.452  -0.330  -5.528  0.00  0.00    -0.005 C 
ATOM      3  C   LIG d   1       4.877  -1.644  -6.125  0.00  0.00    -0.045 C 
ATOM      4  C   LIG d   1       5.603  -2.731  -5.325  0.00  0.00    -0.028 C 
ATOM      5  H   LIG d   1       5.181  -2.810  -4.323  0.00  0.00     0.031 H 
ATOM      6  C   LIG d   1       7.046  -2.164  -5.262  0.00  0.00     0.020 C 
ATOM      7  C   LIG d   1       7.807  -2.989  -4.242  0.00  0.00    -0.017 C 
ATOM      8  C   LIG d   1       7.894  -4.422  -4.792  0.00  0.00     0.060 C 
ATOM      9  H   LIG d   1       8.407  -5.051  -4.063  0.00  0.00     0.060 H 
ATOM     10  C   LIG d   1       6.513  -5.006  -5.070  0.00  0.00     0.001 C 
ATOM     11  H   LIG d   1       5.978  -5.125  -4.127  0.00  0.00     0.034 H 
ATOM     12  C   LIG d   1       5.704  -4.087  -5.998  0.00  0.00    -0.031 C 
ATOM     13  H   LIG d   1       6.210  -3.997  -6.959  0.00  0.00     0.031 H 
ATOM     14  C   LIG d   1       4.297  -4.658  -6.186  0.00  0.00    -0.046 C 
ATOM     15  C   LIG d   1       4.383  -6.012  -6.898  0.00  0.00    -0.030 C 
ATOM     16  C   LIG d   1       5.312  -6.908  -6.100  0.00  0.00    -0.056 A 
ATOM     17  C   LIG d   1       4.890  -8.113  -5.744  0.00  0.00    -0.015 A 
ATOM     18  C   LIG d   1       5.748  -8.999  -4.942  0.00  0.00     0.179 A 
ATOM     19  O   LIG d   1       5.378 -10.119  -4.642  0.00  0.00    -0.288 OA
ATOM     20  C   LIG d   1       7.064  -8.500  -4.509  0.00  0.00    -0.018 A 
ATOM     21  C   LIG d   1       7.466  -7.294  -4.880  0.00  0.00    -0.070 A 
ATOM     22  C   LIG d   1       6.666  -6.375  -5.739  0.00  0.00     0.013 A 
ATOM     23  H   LIG d   1       5.572   0.416  -6.312  0.00  0.00     0.031 H 
ATOM     24  H   LIG d   1       4.790   0.049  -4.750  0.00  0.00     0.031 H 
ATOM     25  H   LIG d   1       5.115  -1.721  -7.186  0.00  0.00     0.027 H 
ATOM     26  H   LIG d   1       3.800  -1.701  -5.965  0.00  0.00     0.027 H 
ATOM     27  H   LIG d   1       7.273  -2.988  -3.291  0.00  0.00     0.030 H 
ATOM     28  H   LIG d   1       8.808  -2.581  -4.106  0.00  0.00     0.030 H 
ATOM     29  H   LIG d   1       3.825  -4.790  -5.212  0.00  0.00     0.027 H 
ATOM     30  H   LIG d   1       3.702  -3.970  -6.786  0.00  0.00     0.027 H 
ATOM     31  H   LIG d   1       4.780  -5.874  -7.904  0.00  0.00     0.031 H 
ATOM     32  H   LIG d   1       3.393  -6.463  -6.952  0.00  0.00     0.031 H 
ATOM     33  H   LIG d   1       3.909  -8.448  -6.046  0.00  0.00     0.066 H 
ATOM     34  H   LIG d   1       7.700  -9.115  -3.891  0.00  0.00     0.065 H 
ATOM     35  H   LIG d   1       8.434  -6.956  -4.541  0.00  0.00     0.058 H 
ENDROOT
BRANCH   1  36
ATOM     36  O   LIG d   1       6.813  -0.506  -3.483  0.00  0.00    -0.450 OA
BRANCH  36  37
ATOM     37  C   LIG d   1       6.067   0.503  -3.008  0.00  0.00     0.308 C 
ATOM     38  O   LIG d   1       6.415   1.647  -3.184  0.00  0.00    -0.251 OA
BRANCH  37  39
ATOM     39  C   LIG d   1       4.794   0.211  -2.255  0.00  0.00     0.045 C 
ATOM     40  H   LIG d   1       4.754   0.828  -1.358  0.00  0.00     0.038 H 
ATOM     41  H   LIG d   1       3.937   0.436  -2.891  0.00  0.00     0.038 H 
BRANCH  39  42
ATOM     42  C   LIG d   1       4.762  -1.267  -1.861  0.00  0.00    -0.043 C 
ATOM     43  H   LIG d   1       5.684  -1.749  -2.184  0.00  0.00     0.027 H 
ATOM     44  H   LIG d   1       4.669  -1.351  -0.778  0.00  0.00     0.027 H 
BRANCH  42  45
ATOM     45  C   LIG d   1       3.567  -1.948  -2.530  0.00  0.00    -0.055 C 
ATOM     46  H   LIG d   1       3.923  -2.612  -3.318  0.00  0.00     0.026 H 
ATOM     47  H   LIG d   1       3.018  -2.528  -1.788  0.00  0.00     0.026 H 
BRANCH  45  48
ATOM     48  C   LIG d   1       2.647  -0.887  -3.134  0.00  0.00    -0.065 C 
ATOM     49  H   LIG d   1       2.664   0.007  -2.510  0.00  0.00     0.023 H 
ATOM     50  H   LIG d   1       2.992  -0.634  -4.137  0.00  0.00     0.023 H 
ATOM     51  H   LIG d   1       1.630  -1.274  -3.188  0.00  0.00     0.023 H 
ENDBRANCH  45  48
ENDBRANCH  42  45
ENDBRANCH  39  42
ENDBRANCH  37  39
ENDBRANCH  36  37
ENDBRANCH   1  36
BRANCH   1  52
ATOM     52  C   LIG d   1       7.913   0.151  -5.546  0.00  0.00     0.214 C 
ATOM     53  O   LIG d   1       9.073  -0.076  -5.299  0.00  0.00    -0.289 OA
BRANCH  52  54
ATOM     54  C   LIG d   1       7.548   1.278  -6.477  0.00  0.00     0.154 C 
ATOM     55  H   LIG d   1       6.601   1.554  -6.311  0.00  0.00     0.078 H 
ATOM     56  H   LIG d   1       8.209   2.126  -6.298  0.00  0.00     0.078 H 
BRANCH  54  57
ATOM     57  O   LIG d   1       7.689   0.836  -7.852  0.00  0.00    -0.457 OA
BRANCH  57  58
ATOM     58  C   LIG d   1       6.610   0.942  -8.641  0.00  0.00     0.304 C 
ATOM     59  O   LIG d   1       5.918   1.930  -8.588  0.00  0.00    -0.251 OA
BRANCH  58  60
ATOM     60  C   LIG d   1       6.261  -0.171  -9.596  0.00  0.00     0.033 C 
ATOM     61  H   LIG d   1       5.630  -0.901  -9.087  0.00  0.00     0.034 H 
ATOM     62  H   LIG d   1       5.725   0.238 -10.451  0.00  0.00     0.034 H 
ATOM     63  H   LIG d   1       7.174  -0.657  -9.938  0.00  0.00     0.034 H 
ENDBRANCH  58  60
ENDBRANCH  57  58
ENDBRANCH  54  57
ENDBRANCH  52  54
ENDBRANCH   1  52
BRANCH   6  64
ATOM     64  C   LIG d   1       7.713  -2.292  -6.633  0.00  0.00    -0.055 C 
ATOM     65  H   LIG d   1       7.276  -1.567  -7.320  0.00  0.00     0.024 H 
ATOM     66  H   LIG d   1       8.782  -2.102  -6.537  0.00  0.00     0.024 H 
ATOM     67  H   LIG d   1       7.557  -3.299  -7.021  0.00  0.00     0.024 H 
ENDBRANCH   6  64
BRANCH   8  68
ATOM     68  O   LIG d   1       8.647  -4.409  -6.007  0.00  0.00    -0.391 OA
ATOM     69  H   LIG d   1       8.566  -3.588  -6.511  0.00  0.00     0.210 HD
ENDBRANCH   8  68
BRANCH  22  70
ATOM     70  C   LIG d   1       7.450  -6.174  -7.036  0.00  0.00    -0.052 C 
ATOM     71  H   LIG d   1       6.864  -5.565  -7.724  0.00  0.00     0.024 H 
ATOM     72  H   LIG d   1       8.393  -5.671  -6.817  0.00  0.00     0.024 H 
ATOM     73  H   LIG d   1       7.654  -7.143  -7.493  0.00  0.00     0.024 H 
ENDBRANCH  22  70
TORSDOF 14
ENDMDL
MODEL 4
REMARK VINA RESULT:      -6.0      2.813      7.945
REMARK  14 active torsions:
REMARK  status: ('A' for Active; 'I' for Inactive)
REMARK    1  A    between atoms: C_1  and  C_2 
REMARK    2  A    between atoms: C_2  and  C_3 
REMARK    3  A    between atoms: C_3  and  C_4 
REMARK    4  A    between atoms: C_4  and  C_5 
REMARK    5  A    between atoms: C_5  and  O_7 
REMARK    6  A    between atoms: O_7  and  C_8 
REMARK    7  A    between atoms: C_8  and  C_33 
REMARK    8  A    between atoms: C_13  and  C_32 
REMARK    9  A    between atoms: C_15  and  O_31 
REMARK   10  A    between atoms: C_29  and  C_30 
REMARK   11  A    between atoms: C_33  and  C_35 
REMARK   12  A    between atoms: C_35  and  O_36 
REMARK   13  A    between atoms: O_36  and  C_37 
REMARK   14  A    between atoms: C_37  and  C_39 
ROOT
ATOM      1  C   LIG d   1       6.461  -1.736  -5.056  0.00  0.00     0.180 C 
ATOM      2  C   LIG d   1       6.524  -1.241  -3.590  0.00  0.00    -0.005 C 
ATOM      3  C   LIG d   1       7.430   0.020  -3.592  0.00  0.00    -0.045 C 
ATOM      4  C   LIG d   1       7.322   0.519  -5.036  0.00  0.00    -0.028 C 
ATOM      5  H   LIG d   1       6.362   1.010  -5.197  0.00  0.00     0.031 H 
ATOM      6  C   LIG d   1       7.391  -0.810  -5.834  0.00  0.00     0.020 C 
ATOM      7  C   LIG d   1       6.993  -0.497  -7.263  0.00  0.00    -0.017 C 
ATOM      8  C   LIG d   1       8.064   0.446  -7.836  0.00  0.00     0.060 C 
ATOM      9  H   LIG d   1       7.788   0.720  -8.855  0.00  0.00     0.060 H 
ATOM     10  C   LIG d   1       8.207   1.714  -7.001  0.00  0.00     0.001 C 
ATOM     11  H   LIG d   1       7.288   2.296  -7.073  0.00  0.00     0.034 H 
ATOM     12  C   LIG d   1       8.475   1.374  -5.527  0.00  0.00    -0.031 C 
ATOM     13  H   LIG d   1       9.415   0.830  -5.440  0.00  0.00     0.031 H 
ATOM     14  C   LIG d   1       8.526   2.664  -4.704  0.00  0.00    -0.046 C 
ATOM     15  C   LIG d   1       9.711   3.520  -5.165  0.00  0.00    -0.030 C 
ATOM     16  C   LIG d   1       9.577   3.745  -6.660  0.00  0.00    -0.056 A 
ATOM     17  C   LIG d   1       9.632   4.985  -7.128  0.00  0.00    -0.015 A 
ATOM     18  C   LIG d   1       9.475   5.248  -8.567  0.00  0.00     0.179 A 
ATOM     19  O   LIG d   1       9.559   6.380  -9.006  0.00  0.00    -0.288 OA
ATOM     20  C   LIG d   1       9.212   4.110  -9.465  0.00  0.00    -0.018 A 
ATOM     21  C   LIG d   1       9.166   2.881  -8.975  0.00  0.00    -0.070 A 
ATOM     22  C   LIG d   1       9.374   2.547  -7.538  0.00  0.00     0.013 A 
ATOM     23  H   LIG d   1       6.956  -2.012  -2.953  0.00  0.00     0.031 H 
ATOM     24  H   LIG d   1       5.525  -0.983  -3.239  0.00  0.00     0.031 H 
ATOM     25  H   LIG d   1       8.460  -0.245  -3.351  0.00  0.00     0.027 H 
ATOM     26  H   LIG d   1       7.051   0.769  -2.895  0.00  0.00     0.027 H 
ATOM     27  H   LIG d   1       6.020  -0.004  -7.278  0.00  0.00     0.030 H 
ATOM     28  H   LIG d   1       6.954  -1.415  -7.849  0.00  0.00     0.030 H 
ATOM     29  H   LIG d   1       7.600   3.221  -4.844  0.00  0.00     0.027 H 
ATOM     30  H   LIG d   1       8.646   2.418  -3.649  0.00  0.00     0.027 H 
ATOM     31  H   LIG d   1      10.645   3.000  -4.954  0.00  0.00     0.031 H 
ATOM     32  H   LIG d   1       9.696   4.478  -4.646  0.00  0.00     0.031 H 
ATOM     33  H   LIG d   1       9.795   5.807  -6.449  0.00  0.00     0.066 H 
ATOM     34  H   LIG d   1       9.058   4.278 -10.520  0.00  0.00     0.065 H 
ATOM     35  H   LIG d   1       8.966   2.070  -9.660  0.00  0.00     0.058 H 
ENDROOT
BRANCH   1  36
ATOM     36  O   LIG d   1       5.106  -1.630  -5.566  0.00  0.00    -0.450 OA
BRANCH  36  37
ATOM     37  C   LIG d   1       4.120  -1.539  -4.660  0.00  0.00     0.308 C 
ATOM     38  O   LIG d   1       3.860  -2.484  -3.952  0.00  0.00    -0.251 OA
BRANCH  37  39
ATOM     39  C   LIG d   1       3.335  -0.259  -4.525  0.00  0.00     0.045 C 
ATOM     40  H   LIG d   1       3.938   0.575  -4.883  0.00  0.00     0.038 H 
ATOM     41  H   LIG d   1       2.423  -0.329  -5.119  0.00  0.00     0.038 H 
BRANCH  39  42
ATOM     42  C   LIG d   1       2.972  -0.035  -3.056  0.00  0.00    -0.043 C 
ATOM     43  H   LIG d   1       1.889   0.019  -2.954  0.00  0.00     0.027 H 
ATOM     44  H   LIG d   1       3.352  -0.864  -2.458  0.00  0.00     0.027 H 
BRANCH  42  45
ATOM     45  C   LIG d   1       3.597   1.274  -2.570  0.00  0.00    -0.055 C 
ATOM     46  H   LIG d   1       4.091   1.772  -3.404  0.00  0.00     0.026 H 
ATOM     47  H   LIG d   1       2.817   1.921  -2.170  0.00  0.00     0.026 H 
BRANCH  45  48
ATOM     48  C   LIG d   1       4.623   0.973  -1.476  0.00  0.00    -0.065 C 
ATOM     49  H   LIG d   1       5.617   0.905  -1.918  0.00  0.00     0.023 H 
ATOM     50  H   LIG d   1       4.609   1.773  -0.735  0.00  0.00     0.023 H 
ATOM     51  H   LIG d   1       4.374   0.028  -0.993  0.00  0.00     0.023 H 
ENDBRANCH  45  48
ENDBRANCH  42  45
ENDBRANCH  39  42
ENDBRANCH  37  39
ENDBRANCH  36  37
ENDBRANCH   1  36
BRANCH   1  52
ATOM     52  C   LIG d   1       6.945  -3.160  -5.148  0.00  0.00     0.214 C 
ATOM     53  O   LIG d   1       7.609  -3.631  -4.256  0.00  0.00    -0.289 OA
BRANCH  52  54
ATOM     54  C   LIG d   1       6.600  -3.997  -6.352  0.00  0.00     0.154 C 
ATOM     55  H   LIG d   1       5.976  -3.487  -6.945  0.00  0.00     0.078 H 
ATOM     56  H   LIG d   1       7.511  -4.234  -6.903  0.00  0.00     0.078 H 
BRANCH  54  57
ATOM     57  O   LIG d   1       5.962  -5.227  -5.922  0.00  0.00    -0.457 OA
BRANCH  57  58
ATOM     58  C   LIG d   1       4.621  -5.260  -5.946  0.00  0.00     0.304 C 
ATOM     59  O   LIG d   1       4.012  -5.765  -5.033  0.00  0.00    -0.251 OA
BRANCH  58  60
ATOM     60  C   LIG d   1       3.873  -4.665  -7.111  0.00  0.00     0.033 C 
ATOM     61  H   LIG d   1       3.989  -3.580  -7.102  0.00  0.00     0.034 H 
ATOM     62  H   LIG d   1       4.273  -5.064  -8.043  0.00  0.00     0.034 H 
ATOM     63  H   LIG d   1       2.816  -4.917  -7.032  0.00  0.00     0.034 H 
ENDBRANCH  58  60
ENDBRANCH  57  58
ENDBRANCH  54  57
ENDBRANCH  52  54
ENDBRANCH   1  52
BRANCH   6  64
ATOM     64  C   LIG d   1       8.820  -1.359  -5.803  0.00  0.00    -0.055 C 
ATOM     65  H   LIG d   1       9.209  -1.304  -4.786  0.00  0.00     0.024 H 
ATOM     66  H   LIG d   1       8.818  -2.397  -6.136  0.00  0.00     0.024 H 
ATOM     67  H   LIG d   1       9.451  -0.766  -6.465  0.00  0.00     0.024 H 
ENDBRANCH   6  64
BRANCH   8  68
ATOM     68  O   LIG d   1       9.319  -0.238  -7.862  0.00  0.00    -0.391 OA
ATOM     69  H   LIG d   1      10.084   0.337  -7.723  0.00  0.00     0.210 HD
ENDBRANCH   8  68
BRANCH  22  70
ATOM     70  C   LIG d   1      10.636   1.687  -7.454  0.00  0.00    -0.052 C 
ATOM     71  H   LIG d   1      10.643   1.142  -6.510  0.00  0.00     0.024 H 
ATOM     72  H   LIG d   1      10.650   0.979  -8.282  0.00  0.00     0.024 H 
ATOM     73  H   LIG d   1      11.517   2.327  -7.509  0.00  0.00     0.024 H 
ENDBRANCH  22  70
TORSDOF 14
ENDMDL
MODEL 5
REMARK VINA RESULT:      -5.7      4.538      6.041
REMARK  14 active torsions:
REMARK  status: ('A' for Active; 'I' for Inactive)
REMARK    1  A    between atoms: C_1  and  C_2 
REMARK    2  A    between atoms: C_2  and  C_3 
REMARK    3  A    between atoms: C_3  and  C_4 
REMARK    4  A    between atoms: C_4  and  C_5 
REMARK    5  A    between atoms: C_5  and  O_7 
REMARK    6  A    between atoms: O_7  and  C_8 
REMARK    7  A    between atoms: C_8  and  C_33 
REMARK    8  A    between atoms: C_13  and  C_32 
REMARK    9  A    between atoms: C_15  and  O_31 
REMARK   10  A    between atoms: C_29  and  C_30 
REMARK   11  A    between atoms: C_33  and  C_35 
REMARK   12  A    between atoms: C_35  and  O_36 
REMARK   13  A    between atoms: O_36  and  C_37 
REMARK   14  A    between atoms: C_37  and  C_39 
ROOT
ATOM      1  C   LIG d   1       4.291  -0.348  -7.139  0.00  0.00     0.180 C 
ATOM      2  C   LIG d   1       3.551   0.974  -7.464  0.00  0.00    -0.005 C 
ATOM      3  C   LIG d   1       2.753   0.718  -8.771  0.00  0.00    -0.045 C 
ATOM      4  C   LIG d   1       2.574  -0.804  -8.773  0.00  0.00    -0.028 C 
ATOM      5  H   LIG d   1       1.807  -1.096  -8.055  0.00  0.00     0.031 H 
ATOM      6  C   LIG d   1       3.971  -1.285  -8.300  0.00  0.00     0.020 C 
ATOM      7  C   LIG d   1       3.847  -2.759  -7.965  0.00  0.00    -0.017 C 
ATOM      8  C   LIG d   1       3.521  -3.496  -9.274  0.00  0.00     0.060 C 
ATOM      9  H   LIG d   1       3.390  -4.557  -9.061  0.00  0.00     0.060 H 
ATOM     10  C   LIG d   1       2.250  -2.957  -9.924  0.00  0.00     0.001 C 
ATOM     11  H   LIG d   1       1.398  -3.183  -9.283  0.00  0.00     0.034 H 
ATOM     12  C   LIG d   1       2.339  -1.438 -10.131  0.00  0.00    -0.031 C 
ATOM     13  H   LIG d   1       3.163  -1.207 -10.806  0.00  0.00     0.031 H 
ATOM     14  C   LIG d   1       1.018  -0.920 -10.703  0.00  0.00    -0.046 C 
ATOM     15  C   LIG d   1       0.787  -1.525 -12.092  0.00  0.00    -0.030 C 
ATOM     16  C   LIG d   1       0.856  -3.036 -11.966  0.00  0.00    -0.056 A 
ATOM     17  C   LIG d   1      -0.140  -3.765 -12.450  0.00  0.00    -0.015 A 
ATOM     18  C   LIG d   1      -0.126  -5.231 -12.319  0.00  0.00     0.179 A 
ATOM     19  O   LIG d   1      -1.021  -5.907 -12.791  0.00  0.00    -0.288 OA
ATOM     20  C   LIG d   1       0.996  -5.862 -11.602  0.00  0.00    -0.018 A 
ATOM     21  C   LIG d   1       1.982  -5.114 -11.133  0.00  0.00    -0.070 A 
ATOM     22  C   LIG d   1       2.051  -3.632 -11.284  0.00  0.00     0.013 A 
ATOM     23  H   LIG d   1       4.271   1.777  -7.616  0.00  0.00     0.031 H 
ATOM     24  H   LIG d   1       2.870   1.230  -6.653  0.00  0.00     0.031 H 
ATOM     25  H   LIG d   1       3.325   1.041  -9.642  0.00  0.00     0.027 H 
ATOM     26  H   LIG d   1       1.786   1.221  -8.737  0.00  0.00     0.027 H 
ATOM     27  H   LIG d   1       3.043  -2.909  -7.244  0.00  0.00     0.030 H 
ATOM     28  H   LIG d   1       4.788  -3.127  -7.555  0.00  0.00     0.030 H 
ATOM     29  H   LIG d   1       0.199  -1.205 -10.043  0.00  0.00     0.027 H 
ATOM     30  H   LIG d   1       1.057   0.166 -10.783  0.00  0.00     0.027 H 
ATOM     31  H   LIG d   1       1.560  -1.178 -12.777  0.00  0.00     0.031 H 
ATOM     32  H   LIG d   1      -0.194  -1.232 -12.463  0.00  0.00     0.031 H 
ATOM     33  H   LIG d   1      -0.968  -3.280 -12.944  0.00  0.00     0.066 H 
ATOM     34  H   LIG d   1       1.015  -6.932 -11.461  0.00  0.00     0.065 H 
ATOM     35  H   LIG d   1       2.786  -5.607 -10.607  0.00  0.00     0.058 H 
ENDROOT
BRANCH   1  36
ATOM     36  O   LIG d   1       3.799  -0.907  -5.892  0.00  0.00    -0.450 OA
BRANCH  36  37
ATOM     37  C   LIG d   1       3.308  -0.044  -4.990  0.00  0.00     0.308 C 
ATOM     38  O   LIG d   1       2.146   0.287  -5.038  0.00  0.00    -0.251 OA
BRANCH  37  39
ATOM     39  C   LIG d   1       4.205   0.515  -3.915  0.00  0.00     0.045 C 
ATOM     40  H   LIG d   1       5.179   0.029  -3.967  0.00  0.00     0.038 H 
ATOM     41  H   LIG d   1       4.326   1.588  -4.065  0.00  0.00     0.038 H 
BRANCH  39  42
ATOM     42  C   LIG d   1       3.579   0.259  -2.543  0.00  0.00    -0.043 C 
ATOM     43  H   LIG d   1       3.625   1.170  -1.947  0.00  0.00     0.027 H 
ATOM     44  H   LIG d   1       2.538  -0.040  -2.669  0.00  0.00     0.027 H 
BRANCH  42  45
ATOM     45  C   LIG d   1       4.347  -0.856  -1.831  0.00  0.00    -0.055 C 
ATOM     46  H   LIG d   1       5.403  -0.793  -2.092  0.00  0.00     0.026 H 
ATOM     47  H   LIG d   1       4.233  -0.744  -0.753  0.00  0.00     0.026 H 
BRANCH  45  48
ATOM     48  C   LIG d   1       3.794  -2.214  -2.265  0.00  0.00    -0.065 C 
ATOM     49  H   LIG d   1       3.414  -2.143  -3.285  0.00  0.00     0.023 H 
ATOM     50  H   LIG d   1       4.589  -2.960  -2.226  0.00  0.00     0.023 H 
ATOM     51  H   LIG d   1       2.987  -2.509  -1.596  0.00  0.00     0.023 H 
ENDBRANCH  45  48
ENDBRANCH  42  45
ENDBRANCH  39  42
ENDBRANCH  37  39
ENDBRANCH  36  37
ENDBRANCH   1  36
BRANCH   1  52
ATOM     52  C   LIG d   1       5.776  -0.109  -7.054  0.00  0.00     0.214 C 
ATOM     53  O   LIG d   1       6.230   0.976  -7.328  0.00  0.00    -0.289 OA
BRANCH  52  54
ATOM     54  C   LIG d   1       6.696  -1.223  -6.628  0.00  0.00     0.154 C 
ATOM     55  H   LIG d   1       6.231  -2.101  -6.741  0.00  0.00     0.078 H 
ATOM     56  H   LIG d   1       7.596  -1.207  -7.242  0.00  0.00     0.078 H 
BRANCH  54  57
ATOM     57  O   LIG d   1       7.060  -1.045  -5.233  0.00  0.00    -0.457 OA
BRANCH  57  58
ATOM     58  C   LIG d   1       6.879  -2.093  -4.417  0.00  0.00     0.304 C 
ATOM     59  O   LIG d   1       7.296  -2.056  -3.283  0.00  0.00    -0.251 OA
BRANCH  58  60
ATOM     60  C   LIG d   1       6.153  -3.318  -4.911  0.00  0.00     0.033 C 
ATOM     61  H   LIG d   1       6.831  -3.924  -5.513  0.00  0.00     0.034 H 
ATOM     62  H   LIG d   1       5.803  -3.901  -4.060  0.00  0.00     0.034 H 
ATOM     63  H   LIG d   1       5.301  -3.015  -5.519  0.00  0.00     0.034 H 
ENDBRANCH  58  60
ENDBRANCH  57  58
ENDBRANCH  54  57
ENDBRANCH  52  54
ENDBRANCH   1  52
BRANCH   6  64
ATOM     64  C   LIG d   1       4.993  -1.093  -9.422  0.00  0.00    -0.055 C 
ATOM     65  H   LIG d   1       4.769  -1.777 -10.240  0.00  0.00     0.024 H 
ATOM     66  H   LIG d   1       4.946  -0.066  -9.785  0.00  0.00     0.024 H 
ATOM     67  H   LIG d   1       5.994  -1.299  -9.041  0.00  0.00     0.024 H 
ENDBRANCH   6  64
BRANCH   8  68
ATOM     68  O   LIG d   1       4.613  -3.334 -10.183  0.00  0.00    -0.391 OA
ATOM     69  H   LIG d   1       4.343  -3.164 -11.096  0.00  0.00     0.210 HD
ENDBRANCH   8  68
BRANCH  22  70
ATOM     70  C   LIG d   1       3.280  -3.325 -12.140  0.00  0.00    -0.052 C 
ATOM     71  H   LIG d   1       4.112  -3.044 -11.494  0.00  0.00     0.024 H 
ATOM     72  H   LIG d   1       3.551  -4.208 -12.719  0.00  0.00     0.024 H 
ATOM     73  H   LIG d   1       3.055  -2.501 -12.818  0.00  0.00     0.024 H 
ENDBRANCH  22  70
TORSDOF 14
ENDMDL
MODEL 6
REMARK VINA RESULT:      -5.7      3.320      6.445
REMARK  14 active torsions:
REMARK  status: ('A' for Active; 'I' for Inactive)
REMARK    1  A    between atoms: C_1  and  C_2 
REMARK    2  A    between atoms: C_2  and  C_3 
REMARK    3  A    between atoms: C_3  and  C_4 
REMARK    4  A    between atoms: C_4  and  C_5 
REMARK    5  A    between atoms: C_5  and  O_7 
REMARK    6  A    between atoms: O_7  and  C_8 
REMARK    7  A    between atoms: C_8  and  C_33 
REMARK    8  A    between atoms: C_13  and  C_32 
REMARK    9  A    between atoms: C_15  and  O_31 
REMARK   10  A    between atoms: C_29  and  C_30 
REMARK   11  A    between atoms: C_33  and  C_35 
REMARK   12  A    between atoms: C_35  and  O_36 
REMARK   13  A    between atoms: O_36  and  C_37 
REMARK   14  A    between atoms: C_37  and  C_39 
ROOT
ATOM      1  C   LIG d   1       6.098  -2.148  -4.740  0.00  0.00     0.180 C 
ATOM      2  C   LIG d   1       5.608  -3.613  -4.627  0.00  0.00    -0.005 C 
ATOM      3  C   LIG d   1       4.635  -3.843  -5.815  0.00  0.00    -0.045 C 
ATOM      4  C   LIG d   1       5.082  -2.789  -6.834  0.00  0.00    -0.028 C 
ATOM      5  H   LIG d   1       6.007  -3.099  -7.319  0.00  0.00     0.031 H 
ATOM      6  C   LIG d   1       5.336  -1.558  -5.923  0.00  0.00     0.020 C 
ATOM      7  C   LIG d   1       6.073  -0.528  -6.756  0.00  0.00    -0.017 C 
ATOM      8  C   LIG d   1       5.119  -0.086  -7.878  0.00  0.00     0.060 C 
ATOM      9  H   LIG d   1       5.633   0.631  -8.519  0.00  0.00     0.060 H 
ATOM     10  C   LIG d   1       4.657  -1.268  -8.725  0.00  0.00     0.001 C 
ATOM     11  H   LIG d   1       5.512  -1.680  -9.261  0.00  0.00     0.034 H 
ATOM     12  C   LIG d   1       4.035  -2.364  -7.846  0.00  0.00    -0.031 C 
ATOM     13  H   LIG d   1       3.153  -1.972  -7.339  0.00  0.00     0.031 H 
ATOM     14  C   LIG d   1       3.662  -3.568  -8.715  0.00  0.00    -0.046 C 
ATOM     15  C   LIG d   1       2.578  -3.161  -9.718  0.00  0.00    -0.030 C 
ATOM     16  C   LIG d   1       3.085  -1.965 -10.503  0.00  0.00    -0.056 A 
ATOM     17  C   LIG d   1       3.056  -2.010 -11.828  0.00  0.00    -0.015 A 
ATOM     18  C   LIG d   1       3.568  -0.885 -12.626  0.00  0.00     0.179 A 
ATOM     19  O   LIG d   1       3.512  -0.907 -13.841  0.00  0.00    -0.288 OA
ATOM     20  C   LIG d   1       4.152   0.269 -11.920  0.00  0.00    -0.018 A 
ATOM     21  C   LIG d   1       4.166   0.293 -10.596  0.00  0.00    -0.070 A 
ATOM     22  C   LIG d   1       3.611  -0.789  -9.735  0.00  0.00     0.013 A 
ATOM     23  H   LIG d   1       5.085  -3.761  -3.682  0.00  0.00     0.031 H 
ATOM     24  H   LIG d   1       6.453  -4.297  -4.698  0.00  0.00     0.031 H 
ATOM     25  H   LIG d   1       3.603  -3.669  -5.508  0.00  0.00     0.027 H 
ATOM     26  H   LIG d   1       4.753  -4.847  -6.222  0.00  0.00     0.027 H 
ATOM     27  H   LIG d   1       6.971  -0.972  -7.185  0.00  0.00     0.030 H 
ATOM     28  H   LIG d   1       6.340   0.328  -6.137  0.00  0.00     0.030 H 
ATOM     29  H   LIG d   1       4.544  -3.913  -9.254  0.00  0.00     0.027 H 
ATOM     30  H   LIG d   1       3.287  -4.371  -8.081  0.00  0.00     0.027 H 
ATOM     31  H   LIG d   1       1.667  -2.890  -9.185  0.00  0.00     0.031 H 
ATOM     32  H   LIG d   1       2.376  -3.988 -10.397  0.00  0.00     0.031 H 
ATOM     33  H   LIG d   1       2.652  -2.878 -12.326  0.00  0.00     0.066 H 
ATOM     34  H   LIG d   1       4.567   1.093 -12.480  0.00  0.00     0.065 H 
ATOM     35  H   LIG d   1       4.606   1.151 -10.110  0.00  0.00     0.058 H 
ENDROOT
BRANCH   1  36
ATOM     36  O   LIG d   1       7.526  -2.114  -4.996  0.00  0.00    -0.450 OA
BRANCH  36  37
ATOM     37  C   LIG d   1       8.229  -3.212  -4.677  0.00  0.00     0.308 C 
ATOM     38  O   LIG d   1       8.526  -3.427  -3.525  0.00  0.00    -0.251 OA
BRANCH  37  39
ATOM     39  C   LIG d   1       8.647  -4.179  -5.756  0.00  0.00     0.045 C 
ATOM     40  H   LIG d   1       9.605  -4.626  -5.489  0.00  0.00     0.038 H 
ATOM     41  H   LIG d   1       7.895  -4.961  -5.853  0.00  0.00     0.038 H 
BRANCH  39  42
ATOM     42  C   LIG d   1       8.783  -3.434  -7.084  0.00  0.00    -0.043 C 
ATOM     43  H   LIG d   1       8.379  -2.427  -6.980  0.00  0.00     0.027 H 
ATOM     44  H   LIG d   1       9.836  -3.375  -7.362  0.00  0.00     0.027 H 
BRANCH  42  45
ATOM     45  C   LIG d   1       8.010  -4.184  -8.172  0.00  0.00    -0.055 C 
ATOM     46  H   LIG d   1       7.169  -3.575  -8.504  0.00  0.00     0.026 H 
ATOM     47  H   LIG d   1       8.671  -4.381  -9.015  0.00  0.00     0.026 H 
BRANCH  45  48
ATOM     48  C   LIG d   1       7.491  -5.507  -7.607  0.00  0.00    -0.065 C 
ATOM     49  H   LIG d   1       8.306  -6.035  -7.111  0.00  0.00     0.023 H 
ATOM     50  H   LIG d   1       6.696  -5.309  -6.888  0.00  0.00     0.023 H 
ATOM     51  H   LIG d   1       7.101  -6.120  -8.419  0.00  0.00     0.023 H 
ENDBRANCH  45  48
ENDBRANCH  42  45
ENDBRANCH  39  42
ENDBRANCH  37  39
ENDBRANCH  36  37
ENDBRANCH   1  36
BRANCH   1  52
ATOM     52  C   LIG d   1       5.774  -1.390  -3.479  0.00  0.00     0.214 C 
ATOM     53  O   LIG d   1       4.908  -1.792  -2.738  0.00  0.00    -0.289 OA
BRANCH  52  54
ATOM     54  C   LIG d   1       6.529  -0.131  -3.141  0.00  0.00     0.154 C 
ATOM     55  H   LIG d   1       6.771  -0.137  -2.171  0.00  0.00     0.078 H 
ATOM     56  H   LIG d   1       7.437  -0.080  -3.741  0.00  0.00     0.078 H 
BRANCH  54  57
ATOM     57  O   LIG d   1       5.696   1.025  -3.426  0.00  0.00    -0.457 OA
BRANCH  57  58
ATOM     58  C   LIG d   1       4.740   1.322  -2.533  0.00  0.00     0.304 C 
ATOM     59  O   LIG d   1       4.979   1.266  -1.350  0.00  0.00    -0.251 OA
BRANCH  58  60
ATOM     60  C   LIG d   1       3.368   1.729  -3.005  0.00  0.00     0.033 C 
ATOM     61  H   LIG d   1       3.140   2.730  -2.639  0.00  0.00     0.034 H 
ATOM     62  H   LIG d   1       3.342   1.725  -4.094  0.00  0.00     0.034 H 
ATOM     63  H   LIG d   1       2.628   1.025  -2.622  0.00  0.00     0.034 H 
ENDBRANCH  58  60
ENDBRANCH  57  58
ENDBRANCH  54  57
ENDBRANCH  52  54
ENDBRANCH   1  52
BRANCH   6  64
ATOM     64  C   LIG d   1       4.000  -0.982  -5.448  0.00  0.00    -0.055 C 
ATOM     65  H   LIG d   1       3.207  -1.709  -5.621  0.00  0.00     0.024 H 
ATOM     66  H   LIG d   1       4.059  -0.756  -4.383  0.00  0.00     0.024 H 
ATOM     67  H   LIG d   1       3.781  -0.068  -6.002  0.00  0.00     0.024 H 
ENDBRANCH   6  64
BRANCH   8  68
ATOM     68  O   LIG d   1       3.977   0.545  -7.296  0.00  0.00    -0.391 OA
ATOM     69  H   LIG d   1       3.568   0.037  -6.582  0.00  0.00     0.210 HD
ENDBRANCH   8  68
BRANCH  22  70
ATOM     70  C   LIG d   1       2.446  -0.186  -8.948  0.00  0.00    -0.052 C 
ATOM     71  H   LIG d   1       2.782   0.072  -7.944  0.00  0.00     0.024 H 
ATOM     72  H   LIG d   1       2.090   0.711  -9.455  0.00  0.00     0.024 H 
ATOM     73  H   LIG d   1       1.635  -0.913  -8.884  0.00  0.00     0.024 H 
ENDBRANCH  22  70
TORSDOF 14
ENDMDL
MODEL 7
REMARK VINA RESULT:      -5.6      5.243     10.913
REMARK  14 active torsions:
REMARK  status: ('A' for Active; 'I' for Inactive)
REMARK    1  A    between atoms: C_1  and  C_2 
REMARK    2  A    between atoms: C_2  and  C_3 
REMARK    3  A    between atoms: C_3  and  C_4 
REMARK    4  A    between atoms: C_4  and  C_5 
REMARK    5  A    between atoms: C_5  and  O_7 
REMARK    6  A    between atoms: O_7  and  C_8 
REMARK    7  A    between atoms: C_8  and  C_33 
REMARK    8  A    between atoms: C_13  and  C_32 
REMARK    9  A    between atoms: C_15  and  O_31 
REMARK   10  A    between atoms: C_29  and  C_30 
REMARK   11  A    between atoms: C_33  and  C_35 
REMARK   12  A    between atoms: C_35  and  O_36 
REMARK   13  A    between atoms: O_36  and  C_37 
REMARK   14  A    between atoms: C_37  and  C_39 
ROOT
ATOM      1  C   LIG d   1       9.533   3.029  -4.854  0.00  0.00     0.180 C 
ATOM      2  C   LIG d   1      10.092   2.053  -3.790  0.00  0.00    -0.005 C 
ATOM      3  C   LIG d   1      10.770   2.931  -2.703  0.00  0.00    -0.045 C 
ATOM      4  C   LIG d   1      10.057   4.279  -2.857  0.00  0.00    -0.028 C 
ATOM      5  H   LIG d   1       9.057   4.230  -2.426  0.00  0.00     0.031 H 
ATOM      6  C   LIG d   1       9.976   4.417  -4.400  0.00  0.00     0.020 C 
ATOM      7  C   LIG d   1       9.026   5.560  -4.698  0.00  0.00    -0.017 C 
ATOM      8  C   LIG d   1       9.674   6.843  -4.150  0.00  0.00     0.060 C 
ATOM      9  H   LIG d   1       8.998   7.682  -4.318  0.00  0.00     0.060 H 
ATOM     10  C   LIG d   1       9.971   6.733  -2.658  0.00  0.00     0.001 C 
ATOM     11  H   LIG d   1       9.031   6.665  -2.110  0.00  0.00     0.034 H 
ATOM     12  C   LIG d   1      10.822   5.490  -2.358  0.00  0.00    -0.031 C 
ATOM     13  H   LIG d   1      11.782   5.569  -2.868  0.00  0.00     0.031 H 
ATOM     14  C   LIG d   1      11.029   5.363  -0.846  0.00  0.00    -0.046 C 
ATOM     15  C   LIG d   1      11.833   6.563  -0.335  0.00  0.00    -0.030 C 
ATOM     16  C   LIG d   1      11.112   7.830  -0.756  0.00  0.00    -0.056 A 
ATOM     17  C   LIG d   1      10.833   8.744   0.163  0.00  0.00    -0.015 A 
ATOM     18  C   LIG d   1      10.106   9.971  -0.199  0.00  0.00     0.179 A 
ATOM     19  O   LIG d   1       9.878  10.828   0.634  0.00  0.00    -0.288 OA
ATOM     20  C   LIG d   1       9.659  10.138  -1.593  0.00  0.00    -0.018 A 
ATOM     21  C   LIG d   1       9.953   9.214  -2.494  0.00  0.00    -0.070 A 
ATOM     22  C   LIG d   1      10.734   7.979  -2.200  0.00  0.00     0.013 A 
ATOM     23  H   LIG d   1      10.825   1.386  -4.243  0.00  0.00     0.031 H 
ATOM     24  H   LIG d   1       9.281   1.473  -3.351  0.00  0.00     0.031 H 
ATOM     25  H   LIG d   1      11.837   3.034  -2.900  0.00  0.00     0.027 H 
ATOM     26  H   LIG d   1      10.598   2.515  -1.709  0.00  0.00     0.027 H 
ATOM     27  H   LIG d   1       8.070   5.388  -4.203  0.00  0.00     0.030 H 
ATOM     28  H   LIG d   1       8.877   5.650  -5.774  0.00  0.00     0.030 H 
ATOM     29  H   LIG d   1      10.059   5.337  -0.348  0.00  0.00     0.027 H 
ATOM     30  H   LIG d   1      11.572   4.443  -0.630  0.00  0.00     0.027 H 
ATOM     31  H   LIG d   1      12.832   6.547  -0.770  0.00  0.00     0.031 H 
ATOM     32  H   LIG d   1      11.903   6.523   0.751  0.00  0.00     0.031 H 
ATOM     33  H   LIG d   1      11.143   8.587   1.185  0.00  0.00     0.066 H 
ATOM     34  H   LIG d   1       9.094  11.011  -1.879  0.00  0.00     0.065 H 
ATOM     35  H   LIG d   1       9.605   9.364  -3.505  0.00  0.00     0.058 H 
ENDROOT
BRANCH   1  36
ATOM     36  O   LIG d   1       8.084   2.953  -4.896  0.00  0.00    -0.450 OA
BRANCH  36  37
ATOM     37  C   LIG d   1       7.534   1.737  -4.754  0.00  0.00     0.308 C 
ATOM     38  O   LIG d   1       7.330   1.048  -5.726  0.00  0.00    -0.251 OA
BRANCH  37  39
ATOM     39  C   LIG d   1       7.170   1.230  -3.382  0.00  0.00     0.045 C 
ATOM     40  H   LIG d   1       7.891   0.474  -3.072  0.00  0.00     0.038 H 
ATOM     41  H   LIG d   1       7.184   2.058  -2.673  0.00  0.00     0.038 H 
BRANCH  39  42
ATOM     42  C   LIG d   1       5.769   0.616  -3.420  0.00  0.00    -0.043 C 
ATOM     43  H   LIG d   1       5.218   1.020  -4.269  0.00  0.00     0.027 H 
ATOM     44  H   LIG d   1       5.850  -0.467  -3.522  0.00  0.00     0.027 H 
BRANCH  42  45
ATOM     45  C   LIG d   1       5.029   0.952  -2.123  0.00  0.00    -0.055 C 
ATOM     46  H   LIG d   1       5.183   0.152  -1.400  0.00  0.00     0.026 H 
ATOM     47  H   LIG d   1       5.414   1.887  -1.718  0.00  0.00     0.026 H 
BRANCH  45  48
ATOM     48  C   LIG d   1       3.534   1.097  -2.413  0.00  0.00    -0.065 C 
ATOM     49  H   LIG d   1       2.979   1.092  -1.474  0.00  0.00     0.023 H 
ATOM     50  H   LIG d   1       3.355   2.037  -2.935  0.00  0.00     0.023 H 
ATOM     51  H   LIG d   1       3.202   0.267  -3.036  0.00  0.00     0.023 H 
ENDBRANCH  45  48
ENDBRANCH  42  45
ENDBRANCH  39  42
ENDBRANCH  37  39
ENDBRANCH  36  37
ENDBRANCH   1  36
BRANCH   1  52
ATOM     52  C   LIG d   1      10.113   2.713  -6.209  0.00  0.00     0.214 C 
ATOM     53  O   LIG d   1      11.104   2.029  -6.297  0.00  0.00    -0.289 OA
BRANCH  52  54
ATOM     54  C   LIG d   1       9.456   3.252  -7.453  0.00  0.00     0.154 C 
ATOM     55  H   LIG d   1       9.263   2.497  -8.081  0.00  0.00     0.078 H 
ATOM     56  H   LIG d   1       8.524   3.750  -7.187  0.00  0.00     0.078 H 
BRANCH  54  57
ATOM     57  O   LIG d   1      10.345   4.202  -8.098  0.00  0.00    -0.457 OA
BRANCH  57  58
ATOM     58  C   LIG d   1       9.835   5.407  -8.398  0.00  0.00     0.304 C 
ATOM     59  O   LIG d   1      10.245   6.393  -7.835  0.00  0.00    -0.251 OA
BRANCH  58  60
ATOM     60  C   LIG d   1       8.753   5.529  -9.439  0.00  0.00     0.033 C 
ATOM     61  H   LIG d   1       8.106   4.652  -9.396  0.00  0.00     0.034 H 
ATOM     62  H   LIG d   1       8.163   6.425  -9.246  0.00  0.00     0.034 H 
ATOM     63  H   LIG d   1       9.205   5.598 -10.428  0.00  0.00     0.034 H 
ENDBRANCH  58  60
ENDBRANCH  57  58
ENDBRANCH  54  57
ENDBRANCH  52  54
ENDBRANCH   1  52
BRANCH   6  64
ATOM     64  C   LIG d   1      11.362   4.734  -4.965  0.00  0.00    -0.055 C 
ATOM     65  H   LIG d   1      12.085   4.016  -4.580  0.00  0.00     0.024 H 
ATOM     66  H   LIG d   1      11.334   4.672  -6.053  0.00  0.00     0.024 H 
ATOM     67  H   LIG d   1      11.655   5.741  -4.666  0.00  0.00     0.024 H 
ENDBRANCH   6  64
BRANCH   8  68
ATOM     68  O   LIG d   1      10.895   7.083  -4.852  0.00  0.00    -0.391 OA
ATOM     69  H   LIG d   1      10.817   7.725  -5.571  0.00  0.00     0.210 HD
ENDBRANCH   8  68
BRANCH  22  70
ATOM     70  C   LIG d   1      12.026   8.059  -3.015  0.00  0.00    -0.052 C 
ATOM     71  H   LIG d   1      12.709   7.274  -2.691  0.00  0.00     0.024 H 
ATOM     72  H   LIG d   1      11.797   7.929  -4.073  0.00  0.00     0.024 H 
ATOM     73  H   LIG d   1      12.493   9.032  -2.861  0.00  0.00     0.024 H 
ENDBRANCH  22  70
TORSDOF 14
ENDMDL
MODEL 8
REMARK VINA RESULT:      -5.6      2.688      7.835
REMARK  14 active torsions:
REMARK  status: ('A' for Active; 'I' for Inactive)
REMARK    1  A    between atoms: C_1  and  C_2 
REMARK    2  A    between atoms: C_2  and  C_3 
REMARK    3  A    between atoms: C_3  and  C_4 
REMARK    4  A    between atoms: C_4  and  C_5 
REMARK    5  A    between atoms: C_5  and  O_7 
REMARK    6  A    between atoms: O_7  and  C_8 
REMARK    7  A    between atoms: C_8  and  C_33 
REMARK    8  A    between atoms: C_13  and  C_32 
REMARK    9  A    between atoms: C_15  and  O_31 
REMARK   10  A    between atoms: C_29  and  C_30 
REMARK   11  A    between atoms: C_33  and  C_35 
REMARK   12  A    between atoms: C_35  and  O_36 
REMARK   13  A    between atoms: O_36  and  C_37 
REMARK   14  A    between atoms: C_37  and  C_39 
ROOT
ATOM      1  C   LIG d   1       6.464  -1.635  -5.356  0.00  0.00     0.180 C 
ATOM      2  C   LIG d   1       6.449  -1.554  -3.809  0.00  0.00    -0.005 C 
ATOM      3  C   LIG d   1       7.385  -0.377  -3.423  0.00  0.00    -0.045 C 
ATOM      4  C   LIG d   1       7.379   0.495  -4.683  0.00  0.00    -0.028 C 
ATOM      5  H   LIG d   1       6.443   1.050  -4.755  0.00  0.00     0.031 H 
ATOM      6  C   LIG d   1       7.464  -0.573  -5.805  0.00  0.00     0.020 C 
ATOM      7  C   LIG d   1       7.162   0.128  -7.115  0.00  0.00    -0.017 C 
ATOM      8  C   LIG d   1       8.290   1.145  -7.355  0.00  0.00     0.060 C 
ATOM      9  H   LIG d   1       8.083   1.693  -8.275  0.00  0.00     0.060 H 
ATOM     10  C   LIG d   1       8.412   2.136  -6.202  0.00  0.00     0.001 C 
ATOM     11  H   LIG d   1       7.515   2.753  -6.163  0.00  0.00     0.034 H 
ATOM     12  C   LIG d   1       8.581   1.402  -4.863  0.00  0.00    -0.031 C 
ATOM     13  H   LIG d   1       9.500   0.817  -4.877  0.00  0.00     0.031 H 
ATOM     14  C   LIG d   1       8.614   2.421  -3.721  0.00  0.00    -0.046 C 
ATOM     15  C   LIG d   1       9.846   3.320  -3.870  0.00  0.00    -0.030 C 
ATOM     16  C   LIG d   1       9.810   3.944  -5.254  0.00  0.00    -0.056 A 
ATOM     17  C   LIG d   1       9.925   5.260  -5.366  0.00  0.00    -0.015 A 
ATOM     18  C   LIG d   1       9.863   5.906  -6.687  0.00  0.00     0.179 A 
ATOM     19  O   LIG d   1      10.002   7.109  -6.799  0.00  0.00    -0.288 OA
ATOM     20  C   LIG d   1       9.627   5.062  -7.872  0.00  0.00    -0.018 A 
ATOM     21  C   LIG d   1       9.520   3.750  -7.735  0.00  0.00    -0.070 A 
ATOM     22  C   LIG d   1       9.631   3.034  -6.432  0.00  0.00     0.013 A 
ATOM     23  H   LIG d   1       6.822  -2.485  -3.383  0.00  0.00     0.031 H 
ATOM     24  H   LIG d   1       5.437  -1.360  -3.454  0.00  0.00     0.031 H 
ATOM     25  H   LIG d   1       8.392  -0.739  -3.209  0.00  0.00     0.027 H 
ATOM     26  H   LIG d   1       6.983   0.172  -2.571  0.00  0.00     0.027 H 
ATOM     27  H   LIG d   1       6.204   0.645  -7.047  0.00  0.00     0.030 H 
ATOM     28  H   LIG d   1       7.136  -0.597  -7.928  0.00  0.00     0.030 H 
ATOM     29  H   LIG d   1       7.712   3.032  -3.753  0.00  0.00     0.027 H 
ATOM     30  H   LIG d   1       8.663   1.896  -2.767  0.00  0.00     0.027 H 
ATOM     31  H   LIG d   1      10.752   2.725  -3.759  0.00  0.00     0.031 H 
ATOM     32  H   LIG d   1       9.824   4.104  -3.114  0.00  0.00     0.031 H 
ATOM     33  H   LIG d   1      10.066   5.863  -4.482  0.00  0.00     0.066 H 
ATOM     34  H   LIG d   1       9.542   5.513  -8.849  0.00  0.00     0.065 H 
ATOM     35  H   LIG d   1       9.342   3.161  -8.623  0.00  0.00     0.058 H 
ENDROOT
BRANCH   1  36
ATOM     36  O   LIG d   1       5.146  -1.341  -5.888  0.00  0.00    -0.450 OA
BRANCH  36  37
ATOM     37  C   LIG d   1       4.119  -1.375  -5.025  0.00  0.00     0.308 C 
ATOM     38  O   LIG d   1       3.828  -2.409  -4.472  0.00  0.00    -0.251 OA
BRANCH  37  39
ATOM     39  C   LIG d   1       3.327  -0.123  -4.746  0.00  0.00     0.045 C 
ATOM     40  H   LIG d   1       3.908   0.748  -5.045  0.00  0.00     0.038 H 
ATOM     41  H   LIG d   1       2.394  -0.151  -5.311  0.00  0.00     0.038 H 
BRANCH  39  42
ATOM     42  C   LIG d   1       3.015  -0.040  -3.251  0.00  0.00    -0.043 C 
ATOM     43  H   LIG d   1       1.935  -0.042  -3.104  0.00  0.00     0.027 H 
ATOM     44  H   LIG d   1       3.452  -0.899  -2.740  0.00  0.00     0.027 H 
BRANCH  42  45
ATOM     45  C   LIG d   1       3.606   1.250  -2.677  0.00  0.00    -0.055 C 
ATOM     46  H   LIG d   1       4.113   1.800  -3.469  0.00  0.00     0.026 H 
ATOM     47  H   LIG d   1       2.805   1.863  -2.264  0.00  0.00     0.026 H 
BRANCH  45  48
ATOM     48  C   LIG d   1       4.606   0.905  -1.573  0.00  0.00    -0.065 C 
ATOM     49  H   LIG d   1       5.318   0.167  -1.944  0.00  0.00     0.023 H 
ATOM     50  H   LIG d   1       5.141   1.806  -1.272  0.00  0.00     0.023 H 
ATOM     51  H   LIG d   1       4.074   0.496  -0.714  0.00  0.00     0.023 H 
ENDBRANCH  45  48
ENDBRANCH  42  45
ENDBRANCH  39  42
ENDBRANCH  37  39
ENDBRANCH  36  37
ENDBRANCH   1  36
BRANCH   1  52
ATOM     52  C   LIG d   1       6.916  -3.001  -5.804  0.00  0.00     0.214 C 
ATOM     53  O   LIG d   1       7.068  -3.231  -6.980  0.00  0.00    -0.289 OA
BRANCH  52  54
ATOM     54  C   LIG d   1       7.178  -4.079  -4.785  0.00  0.00     0.154 C 
ATOM     55  H   LIG d   1       7.027  -3.714  -3.866  0.00  0.00     0.078 H 
ATOM     56  H   LIG d   1       6.502  -4.916  -4.959  0.00  0.00     0.078 H 
BRANCH  54  57
ATOM     57  O   LIG d   1       8.552  -4.536  -4.905  0.00  0.00    -0.457 OA
BRANCH  57  58
ATOM     58  C   LIG d   1       9.135  -5.013  -3.795  0.00  0.00     0.304 C 
ATOM     59  O   LIG d   1       9.345  -6.197  -3.684  0.00  0.00    -0.251 OA
BRANCH  58  60
ATOM     60  C   LIG d   1       9.529  -4.072  -2.686  0.00  0.00     0.033 C 
ATOM     61  H   LIG d   1      10.537  -4.312  -2.346  0.00  0.00     0.034 H 
ATOM     62  H   LIG d   1       9.505  -3.046  -3.054  0.00  0.00     0.034 H 
ATOM     63  H   LIG d   1       8.832  -4.176  -1.855  0.00  0.00     0.034 H 
ENDBRANCH  58  60
ENDBRANCH  57  58
ENDBRANCH  54  57
ENDBRANCH  52  54
ENDBRANCH   1  52
BRANCH   6  64
ATOM     64  C   LIG d   1       8.873  -1.168  -5.848  0.00  0.00    -0.055 C 
ATOM     65  H   LIG d   1       8.822  -2.202  -6.187  0.00  0.00     0.024 H 
ATOM     66  H   LIG d   1       9.490  -0.591  -6.537  0.00  0.00     0.024 H 
ATOM     67  H   LIG d   1       9.312  -1.134  -4.851  0.00  0.00     0.024 H 
ENDBRANCH   6  64
BRANCH   8  68
ATOM     68  O   LIG d   1       9.526   0.443  -7.500  0.00  0.00    -0.391 OA
ATOM     69  H   LIG d   1       9.758  -0.106  -6.738  0.00  0.00     0.210 HD
ENDBRANCH   8  68
BRANCH  22  70
ATOM     70  C   LIG d   1      10.864   2.132  -6.518  0.00  0.00    -0.052 C 
ATOM     71  H   LIG d   1      11.741   2.682  -6.177  0.00  0.00     0.024 H 
ATOM     72  H   LIG d   1      10.717   1.255  -5.888  0.00  0.00     0.024 H 
ATOM     73  H   LIG d   1      11.012   1.816  -7.551  0.00  0.00     0.024 H 
ENDBRANCH  22  70
TORSDOF 14
ENDMDL
MODEL 9
REMARK VINA RESULT:      -5.6      3.256      5.582
REMARK  14 active torsions:
REMARK  status: ('A' for Active; 'I' for Inactive)
REMARK    1  A    between atoms: C_1  and  C_2 
REMARK    2  A    between atoms: C_2  and  C_3 
REMARK    3  A    between atoms: C_3  and  C_4 
REMARK    4  A    between atoms: C_4  and  C_5 
REMARK    5  A    between atoms: C_5  and  O_7 
REMARK    6  A    between atoms: O_7  and  C_8 
REMARK    7  A    between atoms: C_8  and  C_33 
REMARK    8  A    between atoms: C_13  and  C_32 
REMARK    9  A    between atoms: C_15  and  O_31 
REMARK   10  A    between atoms: C_29  and  C_30 
REMARK   11  A    between atoms: C_33  and  C_35 
REMARK   12  A    between atoms: C_35  and  O_36 
REMARK   13  A    between atoms: O_36  and  C_37 
REMARK   14  A    between atoms: C_37  and  C_39 
ROOT
ATOM      1  C   LIG d   1       4.687  -1.045  -6.047  0.00  0.00     0.180 C 
ATOM      2  C   LIG d   1       4.269  -2.350  -5.325  0.00  0.00    -0.005 C 
ATOM      3  C   LIG d   1       5.582  -3.123  -5.023  0.00  0.00    -0.045 C 
ATOM      4  C   LIG d   1       6.638  -2.013  -5.006  0.00  0.00    -0.028 C 
ATOM      5  H   LIG d   1       6.571  -1.439  -4.081  0.00  0.00     0.031 H 
ATOM      6  C   LIG d   1       6.200  -1.144  -6.215  0.00  0.00     0.020 C 
ATOM      7  C   LIG d   1       6.976   0.157  -6.136  0.00  0.00    -0.017 C 
ATOM      8  C   LIG d   1       8.462  -0.189  -6.326  0.00  0.00     0.060 C 
ATOM      9  H   LIG d   1       9.052   0.723  -6.239  0.00  0.00     0.060 H 
ATOM     10  C   LIG d   1       8.945  -1.196  -5.287  0.00  0.00     0.001 C 
ATOM     11  H   LIG d   1       8.913  -0.735  -4.300  0.00  0.00     0.034 H 
ATOM     12  C   LIG d   1       8.062  -2.453  -5.288  0.00  0.00    -0.031 C 
ATOM     13  H   LIG d   1       8.122  -2.944  -6.259  0.00  0.00     0.031 H 
ATOM     14  C   LIG d   1       8.521  -3.402  -4.178  0.00  0.00    -0.046 C 
ATOM     15  C   LIG d   1       9.946  -3.884  -4.471  0.00  0.00    -0.030 C 
ATOM     16  C   LIG d   1      10.831  -2.663  -4.645  0.00  0.00    -0.056 A 
ATOM     17  C   LIG d   1      11.948  -2.576  -3.936  0.00  0.00    -0.015 A 
ATOM     18  C   LIG d   1      12.816  -1.394  -4.053  0.00  0.00     0.179 A 
ATOM     19  O   LIG d   1      13.860  -1.324  -3.430  0.00  0.00    -0.288 OA
ATOM     20  C   LIG d   1      12.394  -0.295  -4.939  0.00  0.00    -0.018 A 
ATOM     21  C   LIG d   1      11.277  -0.407  -5.640  0.00  0.00    -0.070 A 
ATOM     22  C   LIG d   1      10.386  -1.603  -5.607  0.00  0.00     0.013 A 
ATOM     23  H   LIG d   1       3.625  -2.945  -5.972  0.00  0.00     0.031 H 
ATOM     24  H   LIG d   1       3.751  -2.115  -4.396  0.00  0.00     0.031 H 
ATOM     25  H   LIG d   1       5.794  -3.846  -5.811  0.00  0.00     0.027 H 
ATOM     26  H   LIG d   1       5.524  -3.615  -4.052  0.00  0.00     0.027 H 
ATOM     27  H   LIG d   1       6.825   0.621  -5.161  0.00  0.00     0.030 H 
ATOM     28  H   LIG d   1       6.648   0.834  -6.924  0.00  0.00     0.030 H 
ATOM     29  H   LIG d   1       8.504  -2.879  -3.222  0.00  0.00     0.027 H 
ATOM     30  H   LIG d   1       7.850  -4.260  -4.134  0.00  0.00     0.027 H 
ATOM     31  H   LIG d   1       9.953  -4.476  -5.386  0.00  0.00     0.031 H 
ATOM     32  H   LIG d   1      10.309  -4.486  -3.639  0.00  0.00     0.031 H 
ATOM     33  H   LIG d   1      12.223  -3.379  -3.270  0.00  0.00     0.066 H 
ATOM     34  H   LIG d   1      12.994   0.598  -5.016  0.00  0.00     0.065 H 
ATOM     35  H   LIG d   1      10.993   0.418  -6.275  0.00  0.00     0.058 H 
ENDROOT
BRANCH   1  36
ATOM     36  O   LIG d   1       4.347   0.110  -5.235  0.00  0.00    -0.450 OA
BRANCH  36  37
ATOM     37  C   LIG d   1       3.139   0.108  -4.650  0.00  0.00     0.308 C 
ATOM     38  O   LIG d   1       2.144   0.275  -5.315  0.00  0.00    -0.251 OA
BRANCH  37  39
ATOM     39  C   LIG d   1       3.023  -0.102  -3.161  0.00  0.00     0.045 C 
ATOM     40  H   LIG d   1       2.309   0.611  -2.749  0.00  0.00     0.038 H 
ATOM     41  H   LIG d   1       2.678  -1.117  -2.964  0.00  0.00     0.038 H 
BRANCH  39  42
ATOM     42  C   LIG d   1       4.390   0.108  -2.508  0.00  0.00    -0.043 C 
ATOM     43  H   LIG d   1       5.124   0.355  -3.274  0.00  0.00     0.027 H 
ATOM     44  H   LIG d   1       4.327   0.924  -1.788  0.00  0.00     0.027 H 
BRANCH  42  45
ATOM     45  C   LIG d   1       4.814  -1.175  -1.789  0.00  0.00    -0.055 C 
ATOM     46  H   LIG d   1       5.777  -1.506  -2.177  0.00  0.00     0.026 H 
ATOM     47  H   LIG d   1       4.901  -0.979  -0.720  0.00  0.00     0.026 H 
BRANCH  45  48
ATOM     48  C   LIG d   1       3.766  -2.263  -2.026  0.00  0.00    -0.065 C 
ATOM     49  H   LIG d   1       3.249  -2.072  -2.967  0.00  0.00     0.023 H 
ATOM     50  H   LIG d   1       4.256  -3.236  -2.073  0.00  0.00     0.023 H 
ATOM     51  H   LIG d   1       3.046  -2.259  -1.208  0.00  0.00     0.023 H 
ENDBRANCH  45  48
ENDBRANCH  42  45
ENDBRANCH  39  42
ENDBRANCH  37  39
ENDBRANCH  36  37
ENDBRANCH   1  36
BRANCH   1  52
ATOM     52  C   LIG d   1       4.017  -0.954  -7.393  0.00  0.00     0.214 C 
ATOM     53  O   LIG d   1       3.645  -1.958  -7.952  0.00  0.00    -0.289 OA
BRANCH  52  54
ATOM     54  C   LIG d   1       3.809   0.389  -8.043  0.00  0.00     0.154 C 
ATOM     55  H   LIG d   1       2.968   0.372  -8.584  0.00  0.00     0.078 H 
ATOM     56  H   LIG d   1       3.729   1.157  -7.273  0.00  0.00     0.078 H 
BRANCH  54  57
ATOM     57  O   LIG d   1       4.936   0.688  -8.908  0.00  0.00    -0.457 OA
BRANCH  57  58
ATOM     58  C   LIG d   1       5.169   1.981  -9.181  0.00  0.00     0.304 C 
ATOM     59  O   LIG d   1       6.302   2.373  -9.329  0.00  0.00    -0.251 OA
BRANCH  58  60
ATOM     60  C   LIG d   1       4.017   2.945  -9.306  0.00  0.00     0.033 C 
ATOM     61  H   LIG d   1       4.166   3.780  -8.621  0.00  0.00     0.034 H 
ATOM     62  H   LIG d   1       3.966   3.319 -10.328  0.00  0.00     0.034 H 
ATOM     63  H   LIG d   1       3.087   2.434  -9.059  0.00  0.00     0.034 H 
ENDBRANCH  58  60
ENDBRANCH  57  58
ENDBRANCH  54  57
ENDBRANCH  52  54
ENDBRANCH   1  52
BRANCH   6  64
ATOM     64  C   LIG d   1       6.534  -1.868  -7.521  0.00  0.00    -0.055 C 
ATOM     65  H   LIG d   1       5.954  -1.436  -8.336  0.00  0.00     0.024 H 
ATOM     66  H   LIG d   1       7.598  -1.760  -7.735  0.00  0.00     0.024 H 
ATOM     67  H   LIG d   1       6.289  -2.926  -7.422  0.00  0.00     0.024 H 
ENDBRANCH   6  64
BRANCH   8  68
ATOM     68  O   LIG d   1       8.647  -0.741  -7.631  0.00  0.00    -0.391 OA
ATOM     69  H   LIG d   1       8.546  -1.702  -7.670  0.00  0.00     0.210 HD
ENDBRANCH   8  68
BRANCH  22  70
ATOM     70  C   LIG d   1      10.397  -2.210  -7.011  0.00  0.00    -0.052 C 
ATOM     71  H   LIG d   1      10.528  -3.290  -6.938  0.00  0.00     0.024 H 
ATOM     72  H   LIG d   1       9.454  -1.991  -7.510  0.00  0.00     0.024 H 
ATOM     73  H   LIG d   1      11.220  -1.783  -7.586  0.00  0.00     0.024 H 
ENDBRANCH  22  70
TORSDOF 14
ENDMDL
