MODEL 1
REMARK VINA RESULT:      -8.1      0.000      0.000
REMARK  4 active torsions:
REMARK  status: ('A' for Active; 'I' for Inactive)
REMARK    1  A    between atoms: C_3  and  C_10 
REMARK    2  A    between atoms: C_5  and  N_7 
REMARK    3  A    between atoms: C_12  and  C_15 
REMARK       I    between atoms: N_24  and  C_25 
REMARK       I    between atoms: C_25  and  N_27 
REMARK    4  A    between atoms: N_27  and  C_28 
ROOT
ATOM      1  C   LIG d   1       7.280  -0.119  -8.440  0.00  0.00     0.112 C 
ATOM      2  H   LIG d   1       7.957  -0.684  -7.799  0.00  0.00     0.060 H 
ATOM      3  C   LIG d   1       6.959  -0.941  -9.696  0.00  0.00     0.019 C 
ATOM      4  C   LIG d   1       5.768  -0.326 -10.388  0.00  0.00     0.066 A 
ATOM      5  C   LIG d   1       4.904   0.530  -9.802  0.00  0.00     0.056 A 
ATOM      6  N   LIG d   1       3.968   0.860 -10.733  0.00  0.00    -0.347 N 
ATOM      7  C   LIG d   1       4.291   0.196 -11.867  0.00  0.00     0.094 A 
ATOM      8  N   LIG d   1       5.368  -0.510 -11.650  0.00  0.00    -0.240 NA
ATOM      9  C   LIG d   1       5.015   1.001  -8.373  0.00  0.00     0.059 C 
ATOM     10  N   LIG d   1       6.034   0.162  -7.713  0.00  0.00    -0.267 N 
ATOM     11  C   LIG d   1       5.827  -0.336  -6.478  0.00  0.00     0.307 C 
ATOM     12  O   LIG d   1       6.633  -1.103  -5.989  0.00  0.00    -0.252 OA
ATOM     13  N   LIG d   1       4.726   0.018  -5.785  0.00  0.00    -0.269 N 
ATOM     14  H   LIG d   1       7.817  -0.930 -10.368  0.00  0.00     0.035 H 
ATOM     15  H   LIG d   1       6.727  -1.966  -9.411  0.00  0.00     0.035 H 
ATOM     16  H   LIG d   1       3.745   0.242 -12.798  0.00  0.00     0.103 H 
ATOM     17  H   LIG d   1       5.324   2.047  -8.350  0.00  0.00     0.053 H 
ATOM     18  H   LIG d   1       4.056   0.885  -7.869  0.00  0.00     0.053 H 
ATOM     19  H   LIG d   1       4.046   0.568  -6.203  0.00  0.00     0.156 HD
ATOM     20  H   LIG d   1       3.215   1.457 -10.608  0.00  0.00     0.167 HD
ENDROOT
BRANCH   1  21
ATOM     21  C   LIG d   1       7.933   1.179  -8.842  0.00  0.00     0.249 A 
ATOM     22  N   LIG d   1       8.231   2.161  -8.040  0.00  0.00    -0.190 NA
ATOM     23  C   LIG d   1       8.802   3.163  -8.731  0.00  0.00     0.202 A 
ATOM     24  N   LIG d   1       8.865   2.818  -9.993  0.00  0.00    -0.056 NA
ATOM     25  O   LIG d   1       8.305   1.517 -10.083  0.00  0.00    -0.336 OA
BRANCH  23  26
ATOM     26  C   LIG d   1       9.278   4.448  -8.161  0.00  0.00     0.029 A 
ATOM     27  C   LIG d   1       9.794   4.490  -6.867  0.00  0.00    -0.051 A 
ATOM     28  C   LIG d   1      10.235   5.687  -6.342  0.00  0.00    -0.055 A 
ATOM     29  H   LIG d   1       9.850   3.587  -6.278  0.00  0.00     0.062 H 
ATOM     30  C   LIG d   1      10.165   6.845  -7.096  0.00  0.00     0.016 A 
ATOM     31  H   LIG d   1      10.632   5.722  -5.338  0.00  0.00     0.062 H 
ATOM     32  C   LIG d   1       9.653   6.809  -8.380  0.00  0.00     0.274 A 
ATOM     33  H   LIG d   1      10.511   7.780  -6.680  0.00  0.00     0.069 H 
ATOM     34  C   LIG d   1       9.209   5.617  -8.916  0.00  0.00     0.026 A 
ATOM     35  H   LIG d   1       8.810   5.590  -9.920  0.00  0.00     0.069 H 
BRANCH  32  36
ATOM     36  N   LIG d   1       9.581   8.051  -9.182  0.00  0.00     0.080 N 
ATOM     37  O   LIG d   1       9.180   9.074  -8.678  0.00  0.00     0.041 OA
ATOM     38  O   LIG d   1       9.924   8.042 -10.342  0.00  0.00    -0.576 OA
ENDBRANCH  32  36
ENDBRANCH  23  26
ENDBRANCH   1  21
BRANCH  13  39
ATOM     39  C   LIG d   1       4.565  -0.410  -4.462  0.00  0.00     0.037 A 
ATOM     40  C   LIG d   1       4.739   0.485  -3.416  0.00  0.00    -0.005 A 
ATOM     41  C   LIG d   1       4.573   0.059  -2.110  0.00  0.00     0.125 A 
ATOM     42  H   LIG d   1       4.999   1.512  -3.621  0.00  0.00     0.067 H 
ATOM     43  C   LIG d   1       4.246  -1.260  -1.847  0.00  0.00    -0.026 A 
ATOM     44  F   LIG d   1       4.735   0.931  -1.090  0.00  0.00    -0.205 F 
ATOM     45  C   LIG d   1       4.078  -2.154  -2.889  0.00  0.00    -0.057 A 
ATOM     46  H   LIG d   1       4.120  -1.592  -0.827  0.00  0.00     0.065 H 
ATOM     47  C   LIG d   1       4.237  -1.734  -4.194  0.00  0.00    -0.040 A 
ATOM     48  H   LIG d   1       3.822  -3.183  -2.681  0.00  0.00     0.062 H 
ATOM     49  H   LIG d   1       4.105  -2.432  -5.007  0.00  0.00     0.064 H 
ENDBRANCH  13  39
TORSDOF 4
ENDMDL
MODEL 2
REMARK VINA RESULT:      -8.1      4.451      9.231
REMARK  4 active torsions:
REMARK  status: ('A' for Active; 'I' for Inactive)
REMARK    1  A    between atoms: C_3  and  C_10 
REMARK    2  A    between atoms: C_5  and  N_7 
REMARK    3  A    between atoms: C_12  and  C_15 
REMARK       I    between atoms: N_24  and  C_25 
REMARK       I    between atoms: C_25  and  N_27 
REMARK    4  A    between atoms: N_27  and  C_28 
ROOT
ATOM      1  C   LIG d   1       9.932   3.409  -5.348  0.00  0.00     0.112 C 
ATOM      2  H   LIG d   1       9.586   4.334  -5.810  0.00  0.00     0.060 H 
ATOM      3  C   LIG d   1      11.096   2.833  -6.165  0.00  0.00     0.019 C 
ATOM      4  C   LIG d   1      11.792   1.777  -5.343  0.00  0.00     0.066 A 
ATOM      5  C   LIG d   1      11.672   1.652  -4.004  0.00  0.00     0.056 A 
ATOM      6  N   LIG d   1      12.445   0.599  -3.625  0.00  0.00    -0.347 N 
ATOM      7  C   LIG d   1      13.015   0.105  -4.750  0.00  0.00     0.094 A 
ATOM      8  N   LIG d   1      12.618   0.817  -5.770  0.00  0.00    -0.240 NA
ATOM      9  C   LIG d   1      10.815   2.546  -3.142  0.00  0.00     0.059 C 
ATOM     10  N   LIG d   1      10.391   3.685  -3.979  0.00  0.00    -0.267 N 
ATOM     11  C   LIG d   1      10.426   4.946  -3.503  0.00  0.00     0.307 C 
ATOM     12  O   LIG d   1      10.167   5.880  -4.236  0.00  0.00    -0.252 OA
ATOM     13  N   LIG d   1      10.749   5.170  -2.214  0.00  0.00    -0.269 N 
ATOM     14  H   LIG d   1      10.712   2.386  -7.082  0.00  0.00     0.035 H 
ATOM     15  H   LIG d   1      11.799   3.628  -6.410  0.00  0.00     0.035 H 
ATOM     16  H   LIG d   1      13.689  -0.738  -4.794  0.00  0.00     0.103 H 
ATOM     17  H   LIG d   1       9.940   1.998  -2.793  0.00  0.00     0.053 H 
ATOM     18  H   LIG d   1      11.393   2.907  -2.291  0.00  0.00     0.053 H 
ATOM     19  H   LIG d   1      11.031   4.434  -1.649  0.00  0.00     0.156 HD
ATOM     20  H   LIG d   1      12.564   0.265  -2.723  0.00  0.00     0.167 HD
ENDROOT
BRANCH   1  21
ATOM     21  C   LIG d   1       8.802   2.413  -5.309  0.00  0.00     0.249 A 
ATOM     22  N   LIG d   1       8.042   2.164  -4.282  0.00  0.00    -0.190 NA
ATOM     23  C   LIG d   1       7.137   1.220  -4.596  0.00  0.00     0.202 A 
ATOM     24  N   LIG d   1       7.326   0.856  -5.840  0.00  0.00    -0.056 NA
ATOM     25  O   LIG d   1       8.411   1.633  -6.325  0.00  0.00    -0.336 OA
BRANCH  23  26
ATOM     26  C   LIG d   1       6.100   0.676  -3.684  0.00  0.00     0.029 A 
ATOM     27  C   LIG d   1       5.585   1.469  -2.660  0.00  0.00    -0.051 A 
ATOM     28  C   LIG d   1       4.621   0.958  -1.815  0.00  0.00    -0.055 A 
ATOM     29  H   LIG d   1       5.939   2.480  -2.528  0.00  0.00     0.062 H 
ATOM     30  C   LIG d   1       4.166  -0.338  -1.982  0.00  0.00     0.016 A 
ATOM     31  H   LIG d   1       4.223   1.570  -1.018  0.00  0.00     0.062 H 
ATOM     32  C   LIG d   1       4.674  -1.129  -2.996  0.00  0.00     0.274 A 
ATOM     33  H   LIG d   1       3.411  -0.733  -1.318  0.00  0.00     0.069 H 
ATOM     34  C   LIG d   1       5.638  -0.628  -3.848  0.00  0.00     0.026 A 
ATOM     35  H   LIG d   1       6.034  -1.246  -4.640  0.00  0.00     0.069 H 
BRANCH  32  36
ATOM     36  N   LIG d   1       4.182  -2.514  -3.170  0.00  0.00     0.080 N 
ATOM     37  O   LIG d   1       3.563  -3.052  -2.282  0.00  0.00     0.041 OA
ATOM     38  O   LIG d   1       4.400  -3.107  -4.202  0.00  0.00    -0.576 OA
ENDBRANCH  32  36
ENDBRANCH  23  26
ENDBRANCH   1  21
BRANCH  13  39
ATOM     39  C   LIG d   1      10.678   6.466  -1.690  0.00  0.00     0.037 A 
ATOM     40  C   LIG d   1       9.444   7.054  -1.453  0.00  0.00    -0.005 A 
ATOM     41  C   LIG d   1       9.379   8.333  -0.929  0.00  0.00     0.125 A 
ATOM     42  H   LIG d   1       8.536   6.513  -1.672  0.00  0.00     0.067 H 
ATOM     43  C   LIG d   1      10.543   9.030  -0.654  0.00  0.00    -0.026 A 
ATOM     44  F   LIG d   1       8.177   8.905  -0.692  0.00  0.00    -0.205 F 
ATOM     45  C   LIG d   1      11.774   8.447  -0.895  0.00  0.00    -0.057 A 
ATOM     46  H   LIG d   1      10.491  10.029  -0.249  0.00  0.00     0.065 H 
ATOM     47  C   LIG d   1      11.845   7.168  -1.412  0.00  0.00    -0.040 A 
ATOM     48  H   LIG d   1      12.681   8.992  -0.679  0.00  0.00     0.062 H 
ATOM     49  H   LIG d   1      12.806   6.713  -1.599  0.00  0.00     0.064 H 
ENDBRANCH  13  39
TORSDOF 4
ENDMDL
MODEL 3
REMARK VINA RESULT:      -8.0      6.968     11.203
REMARK  4 active torsions:
REMARK  status: ('A' for Active; 'I' for Inactive)
REMARK    1  A    between atoms: C_3  and  C_10 
REMARK    2  A    between atoms: C_5  and  N_7 
REMARK    3  A    between atoms: C_12  and  C_15 
REMARK       I    between atoms: N_24  and  C_25 
REMARK       I    between atoms: C_25  and  N_27 
REMARK    4  A    between atoms: N_27  and  C_28 
ROOT
ATOM      1  C   LIG d   1       8.277  -4.320  -5.741  0.00  0.00     0.112 C 
ATOM      2  H   LIG d   1       7.513  -4.044  -6.467  0.00  0.00     0.060 H 
ATOM      3  C   LIG d   1       9.652  -3.865  -6.247  0.00  0.00     0.019 C 
ATOM      4  C   LIG d   1      10.635  -3.922  -5.103  0.00  0.00     0.066 A 
ATOM      5  C   LIG d   1      10.285  -3.969  -3.800  0.00  0.00     0.056 A 
ATOM      6  N   LIG d   1      11.435  -4.005  -3.074  0.00  0.00    -0.347 N 
ATOM      7  C   LIG d   1      12.460  -3.983  -3.960  0.00  0.00     0.094 A 
ATOM      8  N   LIG d   1      11.969  -3.933  -5.169  0.00  0.00    -0.240 NA
ATOM      9  C   LIG d   1       8.861  -3.983  -3.304  0.00  0.00     0.059 C 
ATOM     10  N   LIG d   1       7.993  -3.666  -4.455  0.00  0.00    -0.267 N 
ATOM     11  C   LIG d   1       6.969  -2.798  -4.333  0.00  0.00     0.307 C 
ATOM     12  O   LIG d   1       6.326  -2.474  -5.312  0.00  0.00    -0.252 OA
ATOM     13  N   LIG d   1       6.659  -2.288  -3.124  0.00  0.00    -0.269 N 
ATOM     14  H   LIG d   1       9.985  -4.528  -7.046  0.00  0.00     0.035 H 
ATOM     15  H   LIG d   1       9.585  -2.844  -6.620  0.00  0.00     0.035 H 
ATOM     16  H   LIG d   1      13.509  -4.002  -3.705  0.00  0.00     0.103 H 
ATOM     17  H   LIG d   1       8.612  -4.970  -2.914  0.00  0.00     0.053 H 
ATOM     18  H   LIG d   1       8.731  -3.231  -2.525  0.00  0.00     0.053 H 
ATOM     19  H   LIG d   1       7.218  -2.485  -2.356  0.00  0.00     0.156 HD
ATOM     20  H   LIG d   1      11.508  -4.041  -2.109  0.00  0.00     0.167 HD
ENDROOT
BRANCH   1  21
ATOM     21  C   LIG d   1       8.278  -5.816  -5.555  0.00  0.00     0.249 A 
ATOM     22  N   LIG d   1       7.483  -6.487  -4.773  0.00  0.00    -0.190 NA
ATOM     23  C   LIG d   1       7.759  -7.801  -4.851  0.00  0.00     0.202 A 
ATOM     24  N   LIG d   1       8.750  -7.970  -5.691  0.00  0.00    -0.056 NA
ATOM     25  O   LIG d   1       9.099  -6.679  -6.167  0.00  0.00    -0.336 OA
BRANCH  23  26
ATOM     26  C   LIG d   1       7.062  -8.878  -4.106  0.00  0.00     0.029 A 
ATOM     27  C   LIG d   1       7.769  -9.681  -3.213  0.00  0.00    -0.051 A 
ATOM     28  C   LIG d   1       7.116 -10.682  -2.523  0.00  0.00    -0.055 A 
ATOM     29  H   LIG d   1       8.826  -9.521  -3.062  0.00  0.00     0.062 H 
ATOM     30  C   LIG d   1       5.761 -10.889  -2.716  0.00  0.00     0.016 A 
ATOM     31  H   LIG d   1       7.664 -11.308  -1.834  0.00  0.00     0.062 H 
ATOM     32  C   LIG d   1       5.055 -10.095  -3.600  0.00  0.00     0.274 A 
ATOM     33  H   LIG d   1       5.255 -11.673  -2.173  0.00  0.00     0.069 H 
ATOM     34  C   LIG d   1       5.698  -9.091  -4.296  0.00  0.00     0.026 A 
ATOM     35  H   LIG d   1       5.145  -8.471  -4.987  0.00  0.00     0.069 H 
BRANCH  32  36
ATOM     36  N   LIG d   1       3.606 -10.321  -3.801  0.00  0.00     0.080 N 
ATOM     37  O   LIG d   1       2.801  -9.684  -3.163  0.00  0.00     0.041 OA
ATOM     38  O   LIG d   1       3.229 -11.143  -4.605  0.00  0.00    -0.576 OA
ENDBRANCH  32  36
ENDBRANCH  23  26
ENDBRANCH   1  21
BRANCH  13  39
ATOM     39  C   LIG d   1       5.530  -1.475  -2.977  0.00  0.00     0.037 A 
ATOM     40  C   LIG d   1       5.664  -0.093  -2.971  0.00  0.00    -0.005 A 
ATOM     41  C   LIG d   1       4.544   0.707  -2.831  0.00  0.00     0.125 A 
ATOM     42  H   LIG d   1       6.639   0.356  -3.080  0.00  0.00     0.067 H 
ATOM     43  C   LIG d   1       3.294   0.132  -2.684  0.00  0.00    -0.026 A 
ATOM     44  F   LIG d   1       4.672   2.053  -2.831  0.00  0.00    -0.205 F 
ATOM     45  C   LIG d   1       3.160  -1.245  -2.685  0.00  0.00    -0.057 A 
ATOM     46  H   LIG d   1       2.421   0.758  -2.571  0.00  0.00     0.065 H 
ATOM     47  C   LIG d   1       4.272  -2.049  -2.830  0.00  0.00    -0.040 A 
ATOM     48  H   LIG d   1       2.183  -1.692  -2.570  0.00  0.00     0.062 H 
ATOM     49  H   LIG d   1       4.167  -3.124  -2.830  0.00  0.00     0.064 H 
ENDBRANCH  13  39
TORSDOF 4
ENDMDL
MODEL 4
REMARK VINA RESULT:      -7.9      9.571     12.926
REMARK  4 active torsions:
REMARK  status: ('A' for Active; 'I' for Inactive)
REMARK    1  A    between atoms: C_3  and  C_10 
REMARK    2  A    between atoms: C_5  and  N_7 
REMARK    3  A    between atoms: C_12  and  C_15 
REMARK       I    between atoms: N_24  and  C_25 
REMARK       I    between atoms: C_25  and  N_27 
REMARK    4  A    between atoms: N_27  and  C_28 
ROOT
ATOM      1  C   LIG d   1      11.852   7.468  -0.470  0.00  0.00     0.112 C 
ATOM      2  H   LIG d   1      12.646   6.834  -0.863  0.00  0.00     0.060 H 
ATOM      3  C   LIG d   1      12.332   8.924  -0.430  0.00  0.00     0.019 C 
ATOM      4  C   LIG d   1      11.138   9.826  -0.235  0.00  0.00     0.066 A 
ATOM      5  C   LIG d   1       9.859   9.456  -0.461  0.00  0.00     0.056 A 
ATOM      6  N   LIG d   1       9.073  10.530  -0.181  0.00  0.00    -0.347 N 
ATOM      7  C   LIG d   1       9.897  11.529   0.214  0.00  0.00     0.094 A 
ATOM      8  N   LIG d   1      11.129  11.097   0.178  0.00  0.00    -0.240 NA
ATOM      9  C   LIG d   1       9.444   8.085  -0.931  0.00  0.00     0.059 C 
ATOM     10  N   LIG d   1      10.670   7.371  -1.339  0.00  0.00    -0.267 N 
ATOM     11  C   LIG d   1      10.707   6.652  -2.478  0.00  0.00     0.307 C 
ATOM     12  O   LIG d   1      11.751   6.152  -2.848  0.00  0.00    -0.252 OA
ATOM     13  N   LIG d   1       9.585   6.488  -3.208  0.00  0.00    -0.269 N 
ATOM     14  H   LIG d   1      13.028   9.057   0.398  0.00  0.00     0.035 H 
ATOM     15  H   LIG d   1      12.826   9.172  -1.369  0.00  0.00     0.035 H 
ATOM     16  H   LIG d   1       9.586  12.520   0.509  0.00  0.00     0.103 H 
ATOM     17  H   LIG d   1       8.954   7.546  -0.120  0.00  0.00     0.053 H 
ATOM     18  H   LIG d   1       8.767   8.173  -1.781  0.00  0.00     0.053 H 
ATOM     19  H   LIG d   1       8.770   6.949  -2.956  0.00  0.00     0.156 HD
ATOM     20  H   LIG d   1       8.107  10.572  -0.250  0.00  0.00     0.167 HD
ENDROOT
BRANCH   1  21
ATOM     21  C   LIG d   1      11.491   7.019   0.923  0.00  0.00     0.249 A 
ATOM     22  N   LIG d   1      11.752   7.666   2.023  0.00  0.00    -0.190 NA
ATOM     23  C   LIG d   1      11.290   6.978   3.082  0.00  0.00     0.202 A 
ATOM     24  N   LIG d   1      10.732   5.873   2.653  0.00  0.00    -0.056 NA
ATOM     25  O   LIG d   1      10.850   5.886   1.238  0.00  0.00    -0.336 OA
BRANCH  23  26
ATOM     26  C   LIG d   1      11.399   7.398   4.501  0.00  0.00     0.029 A 
ATOM     27  C   LIG d   1      11.897   8.660   4.821  0.00  0.00    -0.051 A 
ATOM     28  C   LIG d   1      11.996   9.045   6.142  0.00  0.00    -0.055 A 
ATOM     29  H   LIG d   1      12.204   9.335   4.036  0.00  0.00     0.062 H 
ATOM     30  C   LIG d   1      11.604   8.181   7.149  0.00  0.00     0.016 A 
ATOM     31  H   LIG d   1      12.386  10.021   6.391  0.00  0.00     0.062 H 
ATOM     32  C   LIG d   1      11.110   6.928   6.838  0.00  0.00     0.274 A 
ATOM     33  H   LIG d   1      11.684   8.487   8.182  0.00  0.00     0.069 H 
ATOM     34  C   LIG d   1      11.006   6.532   5.519  0.00  0.00     0.026 A 
ATOM     35  H   LIG d   1      10.619   5.553   5.277  0.00  0.00     0.069 H 
BRANCH  32  36
ATOM     36  N   LIG d   1      10.691   6.008   7.920  0.00  0.00     0.080 N 
ATOM     37  O   LIG d   1      10.978   4.836   7.862  0.00  0.00     0.041 OA
ATOM     38  O   LIG d   1      10.061   6.432   8.862  0.00  0.00    -0.576 OA
ENDBRANCH  32  36
ENDBRANCH  23  26
ENDBRANCH   1  21
BRANCH  13  39
ATOM     39  C   LIG d   1       9.597   5.652  -4.330  0.00  0.00     0.037 A 
ATOM     40  C   LIG d   1       9.782   6.190  -5.596  0.00  0.00    -0.005 A 
ATOM     41  C   LIG d   1       9.799   5.358  -6.702  0.00  0.00     0.125 A 
ATOM     42  H   LIG d   1       9.918   7.253  -5.717  0.00  0.00     0.067 H 
ATOM     43  C   LIG d   1       9.618   3.995  -6.548  0.00  0.00    -0.026 A 
ATOM     44  F   LIG d   1       9.985   5.879  -7.935  0.00  0.00    -0.205 F 
ATOM     45  C   LIG d   1       9.427   3.458  -5.287  0.00  0.00    -0.057 A 
ATOM     46  H   LIG d   1       9.627   3.348  -7.412  0.00  0.00     0.065 H 
ATOM     47  C   LIG d   1       9.416   4.282  -4.179  0.00  0.00    -0.040 A 
ATOM     48  H   LIG d   1       9.287   2.394  -5.169  0.00  0.00     0.062 H 
ATOM     49  H   LIG d   1       9.267   3.863  -3.195  0.00  0.00     0.064 H 
ENDBRANCH  13  39
TORSDOF 4
ENDMDL
MODEL 5
REMARK VINA RESULT:      -7.6      3.621      4.948
REMARK  4 active torsions:
REMARK  status: ('A' for Active; 'I' for Inactive)
REMARK    1  A    between atoms: C_3  and  C_10 
REMARK    2  A    between atoms: C_5  and  N_7 
REMARK    3  A    between atoms: C_12  and  C_15 
REMARK       I    between atoms: N_24  and  C_25 
REMARK       I    between atoms: C_25  and  N_27 
REMARK    4  A    between atoms: N_27  and  C_28 
ROOT
ATOM      1  C   LIG d   1       8.908   2.748  -4.182  0.00  0.00     0.112 C 
ATOM      2  H   LIG d   1       8.157   3.329  -3.648  0.00  0.00     0.060 H 
ATOM      3  C   LIG d   1      10.194   2.684  -3.347  0.00  0.00     0.019 C 
ATOM      4  C   LIG d   1      11.085   1.602  -3.908  0.00  0.00     0.066 A 
ATOM      5  C   LIG d   1      10.661   0.613  -4.723  0.00  0.00     0.056 A 
ATOM      6  N   LIG d   1      11.741  -0.163  -5.010  0.00  0.00    -0.347 N 
ATOM      7  C   LIG d   1      12.798   0.379  -4.362  0.00  0.00     0.094 A 
ATOM      8  N   LIG d   1      12.394   1.434  -3.706  0.00  0.00    -0.240 NA
ATOM      9  C   LIG d   1       9.238   0.457  -5.198  0.00  0.00     0.059 C 
ATOM     10  N   LIG d   1       8.407   1.384  -4.405  0.00  0.00    -0.267 N 
ATOM     11  C   LIG d   1       7.222   0.991  -3.898  0.00  0.00     0.307 C 
ATOM     12  O   LIG d   1       6.597   1.735  -3.168  0.00  0.00    -0.252 OA
ATOM     13  N   LIG d   1       6.730  -0.227  -4.200  0.00  0.00    -0.269 N 
ATOM     14  H   LIG d   1      10.710   3.643  -3.397  0.00  0.00     0.035 H 
ATOM     15  H   LIG d   1       9.946   2.453  -2.312  0.00  0.00     0.035 H 
ATOM     16  H   LIG d   1      13.809  -0.001  -4.384  0.00  0.00     0.103 H 
ATOM     17  H   LIG d   1       9.169   0.710  -6.256  0.00  0.00     0.053 H 
ATOM     18  H   LIG d   1       8.904  -0.568  -5.038  0.00  0.00     0.053 H 
ATOM     19  H   LIG d   1       7.262  -0.850  -4.719  0.00  0.00     0.156 HD
ATOM     20  H   LIG d   1      11.751  -0.952  -5.573  0.00  0.00     0.167 HD
ENDROOT
BRANCH   1  21
ATOM     21  C   LIG d   1       9.201   3.401  -5.508  0.00  0.00     0.249 A 
ATOM     22  N   LIG d   1       9.716   4.585  -5.676  0.00  0.00    -0.190 NA
ATOM     23  C   LIG d   1       9.841   4.851  -6.989  0.00  0.00     0.202 A 
ATOM     24  N   LIG d   1       9.393   3.825  -7.668  0.00  0.00    -0.056 NA
ATOM     25  O   LIG d   1       8.974   2.862  -6.713  0.00  0.00    -0.336 OA
BRANCH  23  26
ATOM     26  C   LIG d   1      10.389   6.102  -7.570  0.00  0.00     0.029 A 
ATOM     27  C   LIG d   1      11.387   6.042  -8.542  0.00  0.00    -0.051 A 
ATOM     28  C   LIG d   1      11.893   7.208  -9.079  0.00  0.00    -0.055 A 
ATOM     29  H   LIG d   1      11.762   5.086  -8.873  0.00  0.00     0.062 H 
ATOM     30  C   LIG d   1      11.413   8.434  -8.655  0.00  0.00     0.016 A 
ATOM     31  H   LIG d   1      12.669   7.163  -9.830  0.00  0.00     0.062 H 
ATOM     32  C   LIG d   1      10.424   8.499  -7.692  0.00  0.00     0.274 A 
ATOM     33  H   LIG d   1      11.812   9.344  -9.079  0.00  0.00     0.069 H 
ATOM     34  C   LIG d   1       9.910   7.339  -7.147  0.00  0.00     0.026 A 
ATOM     35  H   LIG d   1       9.136   7.391  -6.394  0.00  0.00     0.069 H 
BRANCH  32  36
ATOM     36  N   LIG d   1       9.914   9.815  -7.243  0.00  0.00     0.080 N 
ATOM     37  O   LIG d   1       9.498   9.949  -6.116  0.00  0.00     0.041 OA
ATOM     38  O   LIG d   1       9.914  10.754  -8.005  0.00  0.00    -0.576 OA
ENDBRANCH  32  36
ENDBRANCH  23  26
ENDBRANCH   1  21
BRANCH  13  39
ATOM     39  C   LIG d   1       5.452  -0.593  -3.765  0.00  0.00     0.037 A 
ATOM     40  C   LIG d   1       4.328  -0.083  -4.401  0.00  0.00    -0.005 A 
ATOM     41  C   LIG d   1       3.066  -0.452  -3.970  0.00  0.00     0.125 A 
ATOM     42  H   LIG d   1       4.438   0.597  -5.231  0.00  0.00     0.067 H 
ATOM     43  C   LIG d   1       2.924  -1.319  -2.900  0.00  0.00    -0.026 A 
ATOM     44  F   LIG d   1       1.970   0.038  -4.592  0.00  0.00    -0.205 F 
ATOM     45  C   LIG d   1       4.043  -1.824  -2.263  0.00  0.00    -0.057 A 
ATOM     46  H   LIG d   1       1.938  -1.604  -2.563  0.00  0.00     0.065 H 
ATOM     47  C   LIG d   1       5.305  -1.463  -2.691  0.00  0.00    -0.040 A 
ATOM     48  H   LIG d   1       3.930  -2.500  -1.428  0.00  0.00     0.062 H 
ATOM     49  H   LIG d   1       6.178  -1.858  -2.193  0.00  0.00     0.064 H 
ENDBRANCH  13  39
TORSDOF 4
ENDMDL
MODEL 6
REMARK VINA RESULT:      -7.4      2.135      2.743
REMARK  4 active torsions:
REMARK  status: ('A' for Active; 'I' for Inactive)
REMARK    1  A    between atoms: C_3  and  C_10 
REMARK    2  A    between atoms: C_5  and  N_7 
REMARK    3  A    between atoms: C_12  and  C_15 
REMARK       I    between atoms: N_24  and  C_25 
REMARK       I    between atoms: C_25  and  N_27 
REMARK    4  A    between atoms: N_27  and  C_28 
ROOT
ATOM      1  C   LIG d   1       9.511   0.718  -6.540  0.00  0.00     0.112 C 
ATOM      2  H   LIG d   1       9.941   0.420  -5.584  0.00  0.00     0.060 H 
ATOM      3  C   LIG d   1       9.990  -0.242  -7.637  0.00  0.00     0.019 C 
ATOM      4  C   LIG d   1       9.127  -0.053  -8.860  0.00  0.00     0.066 A 
ATOM      5  C   LIG d   1       7.917   0.547  -8.854  0.00  0.00     0.056 A 
ATOM      6  N   LIG d   1       7.449   0.525 -10.131  0.00  0.00    -0.347 N 
ATOM      7  C   LIG d   1       8.392  -0.088 -10.885  0.00  0.00     0.094 A 
ATOM      8  N   LIG d   1       9.390  -0.429 -10.115  0.00  0.00    -0.240 NA
ATOM      9  C   LIG d   1       7.263   1.122  -7.623  0.00  0.00     0.059 C 
ATOM     10  N   LIG d   1       8.044   0.666  -6.457  0.00  0.00    -0.267 N 
ATOM     11  C   LIG d   1       7.431   0.210  -5.347  0.00  0.00     0.307 C 
ATOM     12  O   LIG d   1       8.088  -0.251  -4.435  0.00  0.00    -0.252 OA
ATOM     13  N   LIG d   1       6.087   0.269  -5.248  0.00  0.00    -0.269 N 
ATOM     14  H   LIG d   1      11.028  -0.023  -7.886  0.00  0.00     0.035 H 
ATOM     15  H   LIG d   1       9.904  -1.270  -7.286  0.00  0.00     0.035 H 
ATOM     16  H   LIG d   1       8.327  -0.265 -11.949  0.00  0.00     0.103 H 
ATOM     17  H   LIG d   1       7.272   2.211  -7.672  0.00  0.00     0.053 H 
ATOM     18  H   LIG d   1       6.237   0.762  -7.545  0.00  0.00     0.053 H 
ATOM     19  H   LIG d   1       5.557   0.565  -6.004  0.00  0.00     0.156 HD
ATOM     20  H   LIG d   1       6.603   0.880 -10.442  0.00  0.00     0.167 HD
ENDROOT
BRANCH   1  21
ATOM     21  C   LIG d   1       9.947   2.121  -6.874  0.00  0.00     0.249 A 
ATOM     22  N   LIG d   1       9.512   3.209  -6.306  0.00  0.00    -0.190 NA
ATOM     23  C   LIG d   1      10.113   4.284  -6.847  0.00  0.00     0.202 A 
ATOM     24  N   LIG d   1      10.939   3.876  -7.778  0.00  0.00    -0.056 NA
ATOM     25  O   LIG d   1      10.848   2.460  -7.806  0.00  0.00    -0.336 OA
BRANCH  23  26
ATOM     26  C   LIG d   1       9.875   5.696  -6.458  0.00  0.00     0.029 A 
ATOM     27  C   LIG d   1       9.518   6.010  -5.149  0.00  0.00    -0.051 A 
ATOM     28  C   LIG d   1       9.298   7.325  -4.793  0.00  0.00    -0.055 A 
ATOM     29  H   LIG d   1       9.413   5.226  -4.414  0.00  0.00     0.062 H 
ATOM     30  C   LIG d   1       9.432   8.331  -5.733  0.00  0.00     0.016 A 
ATOM     31  H   LIG d   1       9.017   7.569  -3.779  0.00  0.00     0.062 H 
ATOM     32  C   LIG d   1       9.787   8.025  -7.034  0.00  0.00     0.274 A 
ATOM     33  H   LIG d   1       9.259   9.359  -5.450  0.00  0.00     0.069 H 
ATOM     34  C   LIG d   1      10.009   6.713  -7.401  0.00  0.00     0.026 A 
ATOM     35  H   LIG d   1      10.286   6.475  -8.418  0.00  0.00     0.069 H 
BRANCH  32  36
ATOM     36  N   LIG d   1       9.929   9.106  -8.035  0.00  0.00     0.080 N 
ATOM     37  O   LIG d   1       9.125   9.210  -8.931  0.00  0.00     0.041 OA
ATOM     38  O   LIG d   1      10.850   9.886  -7.954  0.00  0.00    -0.576 OA
ENDBRANCH  32  36
ENDBRANCH  23  26
ENDBRANCH   1  21
BRANCH  13  39
ATOM     39  C   LIG d   1       5.457  -0.100  -4.054  0.00  0.00     0.037 A 
ATOM     40  C   LIG d   1       4.966  -1.389  -3.896  0.00  0.00    -0.005 A 
ATOM     41  C   LIG d   1       4.349  -1.751  -2.712  0.00  0.00     0.125 A 
ATOM     42  H   LIG d   1       5.070  -2.108  -4.694  0.00  0.00     0.067 H 
ATOM     43  C   LIG d   1       4.211  -0.826  -1.691  0.00  0.00    -0.026 A 
ATOM     44  F   LIG d   1       3.876  -3.007  -2.554  0.00  0.00    -0.205 F 
ATOM     45  C   LIG d   1       4.695   0.460  -1.850  0.00  0.00    -0.057 A 
ATOM     46  H   LIG d   1       3.726  -1.109  -0.769  0.00  0.00     0.065 H 
ATOM     47  C   LIG d   1       5.316   0.825  -3.027  0.00  0.00    -0.040 A 
ATOM     48  H   LIG d   1       4.586   1.179  -1.051  0.00  0.00     0.062 H 
ATOM     49  H   LIG d   1       5.695   1.830  -3.150  0.00  0.00     0.064 H 
ENDBRANCH  13  39
TORSDOF 4
ENDMDL
MODEL 7
REMARK VINA RESULT:      -7.4      5.096      9.370
REMARK  4 active torsions:
REMARK  status: ('A' for Active; 'I' for Inactive)
REMARK    1  A    between atoms: C_3  and  C_10 
REMARK    2  A    between atoms: C_5  and  N_7 
REMARK    3  A    between atoms: C_12  and  C_15 
REMARK       I    between atoms: N_24  and  C_25 
REMARK       I    between atoms: C_25  and  N_27 
REMARK    4  A    between atoms: N_27  and  C_28 
ROOT
ATOM      1  C   LIG d   1       3.281  -0.264  -9.195  0.00  0.00     0.112 C 
ATOM      2  H   LIG d   1       2.597   0.397  -8.662  0.00  0.00     0.060 H 
ATOM      3  C   LIG d   1       4.166   0.565 -10.135  0.00  0.00     0.019 C 
ATOM      4  C   LIG d   1       5.326  -0.287 -10.588  0.00  0.00     0.066 A 
ATOM      5  C   LIG d   1       5.729  -1.417  -9.968  0.00  0.00     0.056 A 
ATOM      6  N   LIG d   1       6.798  -1.896 -10.660  0.00  0.00    -0.347 N 
ATOM      7  C   LIG d   1       7.016  -1.044 -11.688  0.00  0.00     0.094 A 
ATOM      8  N   LIG d   1       6.131  -0.085 -11.635  0.00  0.00    -0.240 NA
ATOM      9  C   LIG d   1       5.068  -1.993  -8.741  0.00  0.00     0.059 C 
ATOM     10  N   LIG d   1       4.131  -0.974  -8.229  0.00  0.00    -0.267 N 
ATOM     11  C   LIG d   1       4.058  -0.699  -6.912  0.00  0.00     0.307 C 
ATOM     12  O   LIG d   1       3.353   0.208  -6.518  0.00  0.00    -0.252 OA
ATOM     13  N   LIG d   1       4.768  -1.433  -6.030  0.00  0.00    -0.269 N 
ATOM     14  H   LIG d   1       3.584   0.879 -11.002  0.00  0.00     0.035 H 
ATOM     15  H   LIG d   1       4.540   1.441  -9.606  0.00  0.00     0.035 H 
ATOM     16  H   LIG d   1       7.796  -1.141 -12.430  0.00  0.00     0.103 H 
ATOM     17  H   LIG d   1       4.522  -2.899  -9.004  0.00  0.00     0.053 H 
ATOM     18  H   LIG d   1       5.821  -2.217  -7.985  0.00  0.00     0.053 H 
ATOM     19  H   LIG d   1       5.389  -2.106  -6.348  0.00  0.00     0.156 HD
ATOM     20  H   LIG d   1       7.306  -2.697 -10.455  0.00  0.00     0.167 HD
ENDROOT
BRANCH   1  21
ATOM     21  C   LIG d   1       2.490  -1.263 -10.000  0.00  0.00     0.249 A 
ATOM     22  N   LIG d   1       2.043  -2.407  -9.567  0.00  0.00    -0.190 NA
ATOM     23  C   LIG d   1       1.380  -3.045 -10.548  0.00  0.00     0.202 A 
ATOM     24  N   LIG d   1       1.410  -2.300 -11.625  0.00  0.00    -0.056 NA
ATOM     25  O   LIG d   1       2.128  -1.124 -11.282  0.00  0.00    -0.336 OA
BRANCH  23  26
ATOM     26  C   LIG d   1       0.729  -4.373 -10.432  0.00  0.00     0.029 A 
ATOM     27  C   LIG d   1       1.484  -5.536 -10.570  0.00  0.00    -0.051 A 
ATOM     28  C   LIG d   1       0.873  -6.769 -10.461  0.00  0.00    -0.055 A 
ATOM     29  H   LIG d   1       2.545  -5.473 -10.761  0.00  0.00     0.062 H 
ATOM     30  C   LIG d   1      -0.486  -6.852 -10.216  0.00  0.00     0.016 A 
ATOM     31  H   LIG d   1       1.457  -7.671 -10.572  0.00  0.00     0.062 H 
ATOM     32  C   LIG d   1      -1.240  -5.701 -10.079  0.00  0.00     0.274 A 
ATOM     33  H   LIG d   1      -0.959  -7.819 -10.132  0.00  0.00     0.069 H 
ATOM     34  C   LIG d   1      -0.639  -4.462 -10.186  0.00  0.00     0.026 A 
ATOM     35  H   LIG d   1      -1.229  -3.564 -10.077  0.00  0.00     0.069 H 
BRANCH  32  36
ATOM     36  N   LIG d   1      -2.693  -5.796  -9.816  0.00  0.00     0.080 N 
ATOM     37  O   LIG d   1      -3.090  -6.085  -8.711  0.00  0.00     0.041 OA
ATOM     38  O   LIG d   1      -3.483  -5.585 -10.706  0.00  0.00    -0.576 OA
ENDBRANCH  32  36
ENDBRANCH  23  26
ENDBRANCH   1  21
BRANCH  13  39
ATOM     39  C   LIG d   1       4.609  -1.222  -4.656  0.00  0.00     0.037 A 
ATOM     40  C   LIG d   1       5.106  -0.067  -4.068  0.00  0.00    -0.005 A 
ATOM     41  C   LIG d   1       4.941   0.140  -2.710  0.00  0.00     0.125 A 
ATOM     42  H   LIG d   1       5.616   0.670  -4.669  0.00  0.00     0.067 H 
ATOM     43  C   LIG d   1       4.293  -0.808  -1.937  0.00  0.00    -0.026 A 
ATOM     44  F   LIG d   1       5.419   1.267  -2.136  0.00  0.00    -0.205 F 
ATOM     45  C   LIG d   1       3.802  -1.961  -2.522  0.00  0.00    -0.057 A 
ATOM     46  H   LIG d   1       4.168  -0.647  -0.877  0.00  0.00     0.065 H 
ATOM     47  C   LIG d   1       3.958  -2.171  -3.877  0.00  0.00    -0.040 A 
ATOM     48  H   LIG d   1       3.296  -2.700  -1.917  0.00  0.00     0.062 H 
ATOM     49  H   LIG d   1       3.574  -3.072  -4.333  0.00  0.00     0.064 H 
ENDBRANCH  13  39
TORSDOF 4
ENDMDL
MODEL 8
REMARK VINA RESULT:      -7.3      2.749      3.594
REMARK  4 active torsions:
REMARK  status: ('A' for Active; 'I' for Inactive)
REMARK    1  A    between atoms: C_3  and  C_10 
REMARK    2  A    between atoms: C_5  and  N_7 
REMARK    3  A    between atoms: C_12  and  C_15 
REMARK       I    between atoms: N_24  and  C_25 
REMARK       I    between atoms: C_25  and  N_27 
REMARK    4  A    between atoms: N_27  and  C_28 
ROOT
ATOM      1  C   LIG d   1       9.652   1.048  -6.405  0.00  0.00     0.112 C 
ATOM      2  H   LIG d   1      10.061   0.827  -5.419  0.00  0.00     0.060 H 
ATOM      3  C   LIG d   1      10.231   0.066  -7.431  0.00  0.00     0.019 C 
ATOM      4  C   LIG d   1       9.407   0.139  -8.693  0.00  0.00     0.066 A 
ATOM      5  C   LIG d   1       8.164   0.661  -8.762  0.00  0.00     0.056 A 
ATOM      6  N   LIG d   1       7.748   0.545 -10.052  0.00  0.00    -0.347 N 
ATOM      7  C   LIG d   1       8.755  -0.044 -10.739  0.00  0.00     0.094 A 
ATOM      8  N   LIG d   1       9.742  -0.282  -9.916  0.00  0.00    -0.240 NA
ATOM      9  C   LIG d   1       7.427   1.255  -7.587  0.00  0.00     0.059 C 
ATOM     10  N   LIG d   1       8.189   0.908  -6.372  0.00  0.00    -0.267 N 
ATOM     11  C   LIG d   1       7.561   0.471  -5.262  0.00  0.00     0.307 C 
ATOM     12  O   LIG d   1       8.209   0.098  -4.304  0.00  0.00    -0.252 OA
ATOM     13  N   LIG d   1       6.214   0.450  -5.214  0.00  0.00    -0.269 N 
ATOM     14  H   LIG d   1      11.263   0.337  -7.654  0.00  0.00     0.035 H 
ATOM     15  H   LIG d   1      10.195  -0.946  -7.030  0.00  0.00     0.035 H 
ATOM     16  H   LIG d   1       8.743  -0.278 -11.793  0.00  0.00     0.103 H 
ATOM     17  H   LIG d   1       7.372   2.339  -7.693  0.00  0.00     0.053 H 
ATOM     18  H   LIG d   1       6.423   0.835  -7.528  0.00  0.00     0.053 H 
ATOM     19  H   LIG d   1       5.697   0.674  -6.003  0.00  0.00     0.156 HD
ATOM     20  H   LIG d   1       6.894   0.831 -10.411  0.00  0.00     0.167 HD
ENDROOT
BRANCH   1  21
ATOM     21  C   LIG d   1      10.015   2.458  -6.796  0.00  0.00     0.249 A 
ATOM     22  N   LIG d   1       9.621   3.541  -6.190  0.00  0.00    -0.190 NA
ATOM     23  C   LIG d   1      10.131   4.624  -6.803  0.00  0.00     0.202 A 
ATOM     24  N   LIG d   1      10.856   4.226  -7.819  0.00  0.00    -0.056 NA
ATOM     25  O   LIG d   1      10.796   2.807  -7.826  0.00  0.00    -0.336 OA
BRANCH  23  26
ATOM     26  C   LIG d   1       9.906   6.034  -6.400  0.00  0.00     0.029 A 
ATOM     27  C   LIG d   1       9.520   6.979  -7.349  0.00  0.00    -0.051 A 
ATOM     28  C   LIG d   1       9.312   8.289  -6.969  0.00  0.00    -0.055 A 
ATOM     29  H   LIG d   1       9.384   6.686  -8.379  0.00  0.00     0.062 H 
ATOM     30  C   LIG d   1       9.487   8.665  -5.649  0.00  0.00     0.016 A 
ATOM     31  H   LIG d   1       9.017   9.024  -7.704  0.00  0.00     0.062 H 
ATOM     32  C   LIG d   1       9.870   7.732  -4.704  0.00  0.00     0.274 A 
ATOM     33  H   LIG d   1       9.323   9.692  -5.356  0.00  0.00     0.069 H 
ATOM     34  C   LIG d   1      10.081   6.419  -5.073  0.00  0.00     0.026 A 
ATOM     35  H   LIG d   1      10.380   5.690  -4.333  0.00  0.00     0.069 H 
BRANCH  32  36
ATOM     36  N   LIG d   1      10.054   8.141  -3.293  0.00  0.00     0.080 N 
ATOM     37  O   LIG d   1      10.324   7.314  -2.454  0.00  0.00     0.041 OA
ATOM     38  O   LIG d   1       9.935   9.303  -2.981  0.00  0.00    -0.576 OA
ENDBRANCH  32  36
ENDBRANCH  23  26
ENDBRANCH   1  21
BRANCH  13  39
ATOM     39  C   LIG d   1       5.562   0.102  -4.026  0.00  0.00     0.037 A 
ATOM     40  C   LIG d   1       5.064  -1.182  -3.856  0.00  0.00    -0.005 A 
ATOM     41  C   LIG d   1       4.425  -1.523  -2.677  0.00  0.00     0.125 A 
ATOM     42  H   LIG d   1       5.180  -1.915  -4.639  0.00  0.00     0.067 H 
ATOM     43  C   LIG d   1       4.271  -0.581  -1.674  0.00  0.00    -0.026 A 
ATOM     44  F   LIG d   1       3.946  -2.775  -2.506  0.00  0.00    -0.205 F 
ATOM     45  C   LIG d   1       4.761   0.701  -1.845  0.00  0.00    -0.057 A 
ATOM     46  H   LIG d   1       3.768  -0.848  -0.756  0.00  0.00     0.065 H 
ATOM     47  C   LIG d   1       5.405   1.045  -3.017  0.00  0.00    -0.040 A 
ATOM     48  H   LIG d   1       4.639   1.434  -1.061  0.00  0.00     0.062 H 
ATOM     49  H   LIG d   1       5.788   2.046  -3.150  0.00  0.00     0.064 H 
ENDBRANCH  13  39
TORSDOF 4
ENDMDL
MODEL 9
REMARK VINA RESULT:      -7.1      6.562      9.197
REMARK  4 active torsions:
REMARK  status: ('A' for Active; 'I' for Inactive)
REMARK    1  A    between atoms: C_3  and  C_10 
REMARK    2  A    between atoms: C_5  and  N_7 
REMARK    3  A    between atoms: C_12  and  C_15 
REMARK       I    between atoms: N_24  and  C_25 
REMARK       I    between atoms: C_25  and  N_27 
REMARK    4  A    between atoms: N_27  and  C_28 
ROOT
ATOM      1  C   LIG d   1       9.931  -4.000  -3.277  0.00  0.00     0.112 C 
ATOM      2  H   LIG d   1       9.938  -3.987  -2.188  0.00  0.00     0.060 H 
ATOM      3  C   LIG d   1      11.303  -3.560  -3.803  0.00  0.00     0.019 C 
ATOM      4  C   LIG d   1      11.402  -3.919  -5.265  0.00  0.00     0.066 A 
ATOM      5  C   LIG d   1      10.605  -4.816  -5.885  0.00  0.00     0.056 A 
ATOM      6  N   LIG d   1      10.998  -4.873  -7.186  0.00  0.00    -0.347 N 
ATOM      7  C   LIG d   1      12.025  -4.003  -7.326  0.00  0.00     0.094 A 
ATOM      8  N   LIG d   1      12.259  -3.438  -6.171  0.00  0.00    -0.240 NA
ATOM      9  C   LIG d   1       9.496  -5.578  -5.204  0.00  0.00     0.059 C 
ATOM     10  N   LIG d   1       9.644  -5.361  -3.751  0.00  0.00    -0.267 N 
ATOM     11  C   LIG d   1       9.522  -6.384  -2.882  0.00  0.00     0.307 C 
ATOM     12  O   LIG d   1       9.742  -6.207  -1.700  0.00  0.00    -0.252 OA
ATOM     13  N   LIG d   1       9.154  -7.604  -3.325  0.00  0.00    -0.269 N 
ATOM     14  H   LIG d   1      11.411  -2.481  -3.685  0.00  0.00     0.035 H 
ATOM     15  H   LIG d   1      12.088  -4.071  -3.248  0.00  0.00     0.035 H 
ATOM     16  H   LIG d   1      12.564  -3.809  -8.242  0.00  0.00     0.103 H 
ATOM     17  H   LIG d   1       8.528  -5.203  -5.538  0.00  0.00     0.053 H 
ATOM     18  H   LIG d   1       9.582  -6.640  -5.430  0.00  0.00     0.053 H 
ATOM     19  H   LIG d   1       9.054  -7.765  -4.276  0.00  0.00     0.156 HD
ATOM     20  H   LIG d   1      10.614  -5.430  -7.881  0.00  0.00     0.167 HD
ENDROOT
BRANCH   1  21
ATOM     21  C   LIG d   1       8.871  -3.055  -3.785  0.00  0.00     0.249 A 
ATOM     22  N   LIG d   1       7.650  -2.971  -3.339  0.00  0.00    -0.190 NA
ATOM     23  C   LIG d   1       6.976  -2.025  -4.017  0.00  0.00     0.202 A 
ATOM     24  N   LIG d   1       7.777  -1.502  -4.912  0.00  0.00    -0.056 NA
ATOM     25  O   LIG d   1       9.026  -2.162  -4.770  0.00  0.00    -0.336 OA
BRANCH  23  26
ATOM     26  C   LIG d   1       5.561  -1.641  -3.793  0.00  0.00     0.029 A 
ATOM     27  C   LIG d   1       4.872  -2.127  -2.683  0.00  0.00    -0.051 A 
ATOM     28  C   LIG d   1       3.556  -1.767  -2.479  0.00  0.00    -0.055 A 
ATOM     29  H   LIG d   1       5.368  -2.784  -1.984  0.00  0.00     0.062 H 
ATOM     30  C   LIG d   1       2.919  -0.926  -3.374  0.00  0.00     0.016 A 
ATOM     31  H   LIG d   1       3.020  -2.146  -1.621  0.00  0.00     0.062 H 
ATOM     32  C   LIG d   1       3.597  -0.441  -4.477  0.00  0.00     0.274 A 
ATOM     33  H   LIG d   1       1.889  -0.647  -3.211  0.00  0.00     0.069 H 
ATOM     34  C   LIG d   1       4.914  -0.795  -4.691  0.00  0.00     0.026 A 
ATOM     35  H   LIG d   1       5.444  -0.415  -5.553  0.00  0.00     0.069 H 
BRANCH  32  36
ATOM     36  N   LIG d   1       2.910   0.459  -5.431  0.00  0.00     0.080 N 
ATOM     37  O   LIG d   1       2.740   0.110  -6.576  0.00  0.00     0.041 OA
ATOM     38  O   LIG d   1       2.519   1.543  -5.063  0.00  0.00    -0.576 OA
ENDBRANCH  32  36
ENDBRANCH  23  26
ENDBRANCH   1  21
BRANCH  13  39
ATOM     39  C   LIG d   1       8.920  -8.638  -2.412  0.00  0.00     0.037 A 
ATOM     40  C   LIG d   1       7.623  -9.063  -2.161  0.00  0.00    -0.005 A 
ATOM     41  C   LIG d   1       7.396 -10.090  -1.262  0.00  0.00     0.125 A 
ATOM     42  H   LIG d   1       6.793  -8.597  -2.670  0.00  0.00     0.067 H 
ATOM     43  C   LIG d   1       8.460 -10.683  -0.604  0.00  0.00    -0.026 A 
ATOM     44  F   LIG d   1       6.135 -10.511  -1.021  0.00  0.00    -0.205 F 
ATOM     45  C   LIG d   1       9.752 -10.256  -0.849  0.00  0.00    -0.057 A 
ATOM     46  H   LIG d   1       8.282 -11.482   0.100  0.00  0.00     0.065 H 
ATOM     47  C   LIG d   1       9.986  -9.236  -1.749  0.00  0.00    -0.040 A 
ATOM     48  H   LIG d   1      10.581 -10.721  -0.334  0.00  0.00     0.062 H 
ATOM     49  H   LIG d   1      10.995  -8.903  -1.940  0.00  0.00     0.064 H 
ENDBRANCH  13  39
TORSDOF 4
ENDMDL
