MODEL 1
REMARK VINA RESULT:      -6.6      0.000      0.000
REMARK  8 active torsions:
REMARK  status: ('A' for Active; 'I' for Inactive)
REMARK    1  A    between atoms: C_1  and  C_2 
REMARK    2  A    between atoms: C_2  and  C_3 
REMARK    3  A    between atoms: C_3  and  O_5 
REMARK    4  A    between atoms: O_5  and  C_6 
REMARK    5  A    between atoms: C_6  and  C_7 
REMARK    6  A    between atoms: C_7  and  C_9 
REMARK    7  A    between atoms: C_15  and  C_32 
REMARK    8  A    between atoms: C_30  and  C_31 
ROOT
ATOM      1  C   LIG d   1       3.772   0.946  -8.265  0.00  0.00     0.027 C 
ATOM      2  H   LIG d   1       3.150   1.725  -8.177  0.00  0.00     0.038 H 
ATOM      3  C   LIG d   1       5.137   1.396  -8.842  0.00  0.00    -0.043 C 
ATOM      4  C   LIG d   1       5.290   0.683 -10.213  0.00  0.00    -0.049 C 
ATOM      5  C   LIG d   1       3.838   0.394 -10.614  0.00  0.00    -0.032 C 
ATOM      6  H   LIG d   1       3.352   1.306 -10.961  0.00  0.00     0.031 H 
ATOM      7  C   LIG d   1       3.226  -0.069  -9.265  0.00  0.00    -0.019 C 
ATOM      8  C   LIG d   1       1.721  -0.097  -9.445  0.00  0.00    -0.046 C 
ATOM      9  C   LIG d   1       1.410  -1.183 -10.489  0.00  0.00    -0.049 C 
ATOM     10  C   LIG d   1       2.130  -0.920 -11.808  0.00  0.00    -0.029 C 
ATOM     11  H   LIG d   1       1.728  -0.012 -12.258  0.00  0.00     0.031 H 
ATOM     12  C   LIG d   1       3.643  -0.724 -11.621  0.00  0.00    -0.034 C 
ATOM     13  H   LIG d   1       4.085  -1.646 -11.243  0.00  0.00     0.031 H 
ATOM     14  C   LIG d   1       4.284  -0.368 -12.947  0.00  0.00    -0.046 C 
ATOM     15  C   LIG d   1       4.140  -1.545 -13.914  0.00  0.00    -0.030 C 
ATOM     16  C   LIG d   1       2.671  -1.914 -14.019  0.00  0.00    -0.060 C 
ATOM     17  C   LIG d   1       2.157  -2.076 -15.238  0.00  0.00    -0.019 C 
ATOM     18  C   LIG d   1       0.753  -2.470 -15.397  0.00  0.00     0.156 C 
ATOM     19  O   LIG d   1       0.149  -2.278 -16.432  0.00  0.00    -0.293 OA
ATOM     20  C   LIG d   1       0.094  -3.130 -14.201  0.00  0.00     0.011 C 
ATOM     21  C   LIG d   1       0.391  -2.262 -12.979  0.00  0.00    -0.037 C 
ATOM     22  C   LIG d   1       1.885  -2.099 -12.758  0.00  0.00    -0.007 C 
ATOM     23  H   LIG d   1       5.147   2.478  -8.981  0.00  0.00     0.027 H 
ATOM     24  H   LIG d   1       5.942   1.097  -8.172  0.00  0.00     0.027 H 
ATOM     25  H   LIG d   1       5.767   1.340 -10.939  0.00  0.00     0.027 H 
ATOM     26  H   LIG d   1       5.851  -0.245 -10.104  0.00  0.00     0.027 H 
ATOM     27  H   LIG d   1       1.237  -0.344  -8.500  0.00  0.00     0.027 H 
ATOM     28  H   LIG d   1       1.370   0.872  -9.800  0.00  0.00     0.027 H 
ATOM     29  H   LIG d   1       1.725  -2.150 -10.099  0.00  0.00     0.027 H 
ATOM     30  H   LIG d   1       0.336  -1.205 -10.670  0.00  0.00     0.027 H 
ATOM     31  H   LIG d   1       5.341  -0.147 -12.797  0.00  0.00     0.027 H 
ATOM     32  H   LIG d   1       3.785   0.508 -13.362  0.00  0.00     0.027 H 
ATOM     33  H   LIG d   1       4.705  -2.398 -13.539  0.00  0.00     0.031 H 
ATOM     34  H   LIG d   1       4.516  -1.258 -14.897  0.00  0.00     0.031 H 
ATOM     35  H   LIG d   1       2.775  -1.917 -16.109  0.00  0.00     0.065 H 
ATOM     36  H   LIG d   1       0.468  -4.050 -14.081  0.00  0.00     0.035 H 
ATOM     37  H   LIG d   1      -0.982  -3.192 -14.359  0.00  0.00     0.035 H 
ATOM     38  H   LIG d   1      -0.051  -2.726 -12.097  0.00  0.00     0.028 H 
ATOM     39  H   LIG d   1      -0.057  -1.279 -13.124  0.00  0.00     0.028 H 
ENDROOT
BRANCH   1  40
ATOM     40  C   LIG d   1       3.961   0.300  -6.917  0.00  0.00     0.174 C 
ATOM     41  O   LIG d   1       5.057  -0.078  -6.578  0.00  0.00    -0.293 OA
BRANCH  40  42
ATOM     42  C   LIG d   1       2.784   0.127  -5.992  0.00  0.00     0.150 C 
ATOM     43  H   LIG d   1       2.764  -0.812  -5.650  0.00  0.00     0.078 H 
ATOM     44  H   LIG d   1       1.862   0.337  -6.534  0.00  0.00     0.078 H 
BRANCH  42  45
ATOM     45  O   LIG d   1       2.909   1.047  -4.875  0.00  0.00    -0.457 OA
BRANCH  45  46
ATOM     46  C   LIG d   1       3.102   0.507  -3.661  0.00  0.00     0.307 C 
ATOM     47  O   LIG d   1       2.910  -0.673  -3.486  0.00  0.00    -0.251 OA
BRANCH  46  48
ATOM     48  C   LIG d   1       3.565   1.372  -2.516  0.00  0.00     0.042 C 
ATOM     49  H   LIG d   1       3.992   2.295  -2.909  0.00  0.00     0.037 H 
ATOM     50  H   LIG d   1       2.716   1.609  -1.875  0.00  0.00     0.037 H 
BRANCH  48  51
ATOM     51  C   LIG d   1       4.623   0.623  -1.706  0.00  0.00    -0.055 C 
ATOM     52  H   LIG d   1       5.474   1.279  -1.525  0.00  0.00     0.024 H 
ATOM     53  H   LIG d   1       4.198   0.309  -0.753  0.00  0.00     0.024 H 
ATOM     54  H   LIG d   1       4.953  -0.255  -2.263  0.00  0.00     0.024 H 
ENDBRANCH  48  51
ENDBRANCH  46  48
ENDBRANCH  45  46
ENDBRANCH  42  45
ENDBRANCH  40  42
ENDBRANCH   1  40
BRANCH   7  55
ATOM     55  C   LIG d   1       3.737  -1.468  -8.915  0.00  0.00    -0.059 C 
ATOM     56  H   LIG d   1       4.139  -1.464  -7.902  0.00  0.00     0.024 H 
ATOM     57  H   LIG d   1       2.916  -2.180  -8.978  0.00  0.00     0.024 H 
ATOM     58  H   LIG d   1       4.521  -1.753  -9.616  0.00  0.00     0.024 H 
ENDBRANCH   7  55
BRANCH  22  59
ATOM     59  C   LIG d   1       2.403  -3.368 -12.077  0.00  0.00    -0.056 C 
ATOM     60  H   LIG d   1       1.768  -3.607 -11.224  0.00  0.00     0.024 H 
ATOM     61  H   LIG d   1       2.384  -4.194 -12.788  0.00  0.00     0.024 H 
ATOM     62  H   LIG d   1       3.425  -3.205 -11.736  0.00  0.00     0.024 H 
ENDBRANCH  22  59
TORSDOF 8
ENDMDL
MODEL 2
REMARK VINA RESULT:      -6.4      2.462      4.232
REMARK  8 active torsions:
REMARK  status: ('A' for Active; 'I' for Inactive)
REMARK    1  A    between atoms: C_1  and  C_2 
REMARK    2  A    between atoms: C_2  and  C_3 
REMARK    3  A    between atoms: C_3  and  O_5 
REMARK    4  A    between atoms: O_5  and  C_6 
REMARK    5  A    between atoms: C_6  and  C_7 
REMARK    6  A    between atoms: C_7  and  C_9 
REMARK    7  A    between atoms: C_15  and  C_32 
REMARK    8  A    between atoms: C_30  and  C_31 
ROOT
ATOM      1  C   LIG d   1       7.330  -0.447  -5.497  0.00  0.00     0.027 C 
ATOM      2  H   LIG d   1       8.194  -0.232  -5.953  0.00  0.00     0.038 H 
ATOM      3  C   LIG d   1       7.369  -1.871  -4.890  0.00  0.00    -0.043 C 
ATOM      4  C   LIG d   1       6.286  -2.695  -5.637  0.00  0.00    -0.049 C 
ATOM      5  C   LIG d   1       6.141  -1.947  -6.968  0.00  0.00    -0.032 C 
ATOM      6  H   LIG d   1       6.987  -2.164  -7.620  0.00  0.00     0.031 H 
ATOM      7  C   LIG d   1       6.181  -0.467  -6.500  0.00  0.00    -0.019 C 
ATOM      8  C   LIG d   1       6.353   0.388  -7.742  0.00  0.00    -0.046 C 
ATOM      9  C   LIG d   1       5.086   0.207  -8.594  0.00  0.00    -0.049 C 
ATOM     10  C   LIG d   1       4.847  -1.257  -8.948  0.00  0.00    -0.029 C 
ATOM     11  H   LIG d   1       5.647  -1.600  -9.605  0.00  0.00     0.031 H 
ATOM     12  C   LIG d   1       4.835  -2.165  -7.708  0.00  0.00    -0.034 C 
ATOM     13  H   LIG d   1       3.995  -1.895  -7.068  0.00  0.00     0.031 H 
ATOM     14  C   LIG d   1       4.695  -3.613  -8.132  0.00  0.00    -0.046 C 
ATOM     15  C   LIG d   1       3.336  -3.818  -8.803  0.00  0.00    -0.030 C 
ATOM     16  C   LIG d   1       3.200  -2.827  -9.945  0.00  0.00    -0.060 C 
ATOM     17  C   LIG d   1       2.792  -3.291 -11.125  0.00  0.00    -0.019 C 
ATOM     18  C   LIG d   1       2.607  -2.371 -12.253  0.00  0.00     0.156 C 
ATOM     19  O   LIG d   1       2.600  -2.762 -13.401  0.00  0.00    -0.293 OA
ATOM     20  C   LIG d   1       2.426  -0.905 -11.909  0.00  0.00     0.011 C 
ATOM     21  C   LIG d   1       3.539  -0.523 -10.934  0.00  0.00    -0.037 C 
ATOM     22  C   LIG d   1       3.507  -1.384  -9.683  0.00  0.00    -0.007 C 
ATOM     23  H   LIG d   1       8.352  -2.317  -5.045  0.00  0.00     0.027 H 
ATOM     24  H   LIG d   1       7.140  -1.830  -3.825  0.00  0.00     0.027 H 
ATOM     25  H   LIG d   1       6.626  -3.717  -5.805  0.00  0.00     0.027 H 
ATOM     26  H   LIG d   1       5.346  -2.687  -5.086  0.00  0.00     0.027 H 
ATOM     27  H   LIG d   1       6.464   1.435  -7.460  0.00  0.00     0.027 H 
ATOM     28  H   LIG d   1       7.229   0.059  -8.301  0.00  0.00     0.027 H 
ATOM     29  H   LIG d   1       4.228   0.583  -8.038  0.00  0.00     0.027 H 
ATOM     30  H   LIG d   1       5.193   0.782  -9.514  0.00  0.00     0.027 H 
ATOM     31  H   LIG d   1       4.771  -4.260  -7.258  0.00  0.00     0.027 H 
ATOM     32  H   LIG d   1       5.490  -3.858  -8.836  0.00  0.00     0.027 H 
ATOM     33  H   LIG d   1       2.541  -3.651  -8.077  0.00  0.00     0.031 H 
ATOM     34  H   LIG d   1       3.271  -4.835  -9.193  0.00  0.00     0.031 H 
ATOM     35  H   LIG d   1       2.597  -4.346 -11.251  0.00  0.00     0.065 H 
ATOM     36  H   LIG d   1       1.528  -0.770 -11.490  0.00  0.00     0.035 H 
ATOM     37  H   LIG d   1       2.501  -0.300 -12.813  0.00  0.00     0.035 H 
ATOM     38  H   LIG d   1       3.420   0.523 -10.649  0.00  0.00     0.028 H 
ATOM     39  H   LIG d   1       4.503  -0.647 -11.428  0.00  0.00     0.028 H 
ENDROOT
BRANCH   1  40
ATOM     40  C   LIG d   1       7.064   0.574  -4.420  0.00  0.00     0.174 C 
ATOM     41  O   LIG d   1       7.182   1.751  -4.662  0.00  0.00    -0.293 OA
BRANCH  40  42
ATOM     42  C   LIG d   1       6.648   0.125  -3.043  0.00  0.00     0.150 C 
ATOM     43  H   LIG d   1       7.450   0.097  -2.446  0.00  0.00     0.078 H 
ATOM     44  H   LIG d   1       6.203  -0.868  -3.103  0.00  0.00     0.078 H 
BRANCH  42  45
ATOM     45  O   LIG d   1       5.676   1.059  -2.503  0.00  0.00    -0.457 OA
BRANCH  45  46
ATOM     46  C   LIG d   1       4.506   0.548  -2.088  0.00  0.00     0.307 C 
ATOM     47  O   LIG d   1       3.551   1.272  -1.934  0.00  0.00    -0.251 OA
BRANCH  46  48
ATOM     48  C   LIG d   1       4.381  -0.930  -1.819  0.00  0.00     0.042 C 
ATOM     49  H   LIG d   1       5.342  -1.414  -1.999  0.00  0.00     0.037 H 
ATOM     50  H   LIG d   1       4.084  -1.086  -0.782  0.00  0.00     0.037 H 
BRANCH  48  51
ATOM     51  C   LIG d   1       3.325  -1.530  -2.749  0.00  0.00    -0.055 C 
ATOM     52  H   LIG d   1       3.702  -2.460  -3.174  0.00  0.00     0.024 H 
ATOM     53  H   LIG d   1       2.415  -1.731  -2.184  0.00  0.00     0.024 H 
ATOM     54  H   LIG d   1       3.106  -0.826  -3.552  0.00  0.00     0.024 H 
ENDBRANCH  48  51
ENDBRANCH  46  48
ENDBRANCH  45  46
ENDBRANCH  42  45
ENDBRANCH  40  42
ENDBRANCH   1  40
BRANCH   7  55
ATOM     55  C   LIG d   1       4.871  -0.109  -5.796  0.00  0.00    -0.059 C 
ATOM     56  H   LIG d   1       4.297   0.573  -6.424  0.00  0.00     0.024 H 
ATOM     57  H   LIG d   1       4.293  -1.016  -5.622  0.00  0.00     0.024 H 
ATOM     58  H   LIG d   1       5.090   0.372  -4.844  0.00  0.00     0.024 H 
ENDBRANCH   7  55
BRANCH  22  59
ATOM     59  C   LIG d   1       2.412  -0.842  -8.763  0.00  0.00    -0.056 C 
ATOM     60  H   LIG d   1       2.539  -1.257  -7.764  0.00  0.00     0.024 H 
ATOM     61  H   LIG d   1       2.482   0.245  -8.718  0.00  0.00     0.024 H 
ATOM     62  H   LIG d   1       1.436  -1.127  -9.154  0.00  0.00     0.024 H 
ENDBRANCH  22  59
TORSDOF 8
ENDMDL
MODEL 3
REMARK VINA RESULT:      -6.1      6.640     10.027
REMARK  8 active torsions:
REMARK  status: ('A' for Active; 'I' for Inactive)
REMARK    1  A    between atoms: C_1  and  C_2 
REMARK    2  A    between atoms: C_2  and  C_3 
REMARK    3  A    between atoms: C_3  and  O_5 
REMARK    4  A    between atoms: O_5  and  C_6 
REMARK    5  A    between atoms: C_6  and  C_7 
REMARK    6  A    between atoms: C_7  and  C_9 
REMARK    7  A    between atoms: C_15  and  C_32 
REMARK    8  A    between atoms: C_30  and  C_31 
ROOT
ATOM      1  C   LIG d   1       6.977  -1.175  -6.221  0.00  0.00     0.027 C 
ATOM      2  H   LIG d   1       6.687  -1.616  -7.070  0.00  0.00     0.038 H 
ATOM      3  C   LIG d   1       8.074  -0.118  -6.498  0.00  0.00    -0.043 C 
ATOM      4  C   LIG d   1       9.354  -0.613  -5.771  0.00  0.00    -0.049 C 
ATOM      5  C   LIG d   1       9.125  -2.125  -5.664  0.00  0.00    -0.032 C 
ATOM      6  H   LIG d   1       9.294  -2.604  -6.629  0.00  0.00     0.031 H 
ATOM      7  C   LIG d   1       7.622  -2.189  -5.281  0.00  0.00    -0.019 C 
ATOM      8  C   LIG d   1       7.183  -3.632  -5.439  0.00  0.00    -0.046 C 
ATOM      9  C   LIG d   1       7.959  -4.458  -4.400  0.00  0.00    -0.049 C 
ATOM     10  C   LIG d   1       9.468  -4.307  -4.571  0.00  0.00    -0.029 C 
ATOM     11  H   LIG d   1       9.764  -4.751  -5.522  0.00  0.00     0.031 H 
ATOM     12  C   LIG d   1       9.912  -2.836  -4.579  0.00  0.00    -0.034 C 
ATOM     13  H   LIG d   1       9.697  -2.386  -3.609  0.00  0.00     0.031 H 
ATOM     14  C   LIG d   1      11.400  -2.749  -4.852  0.00  0.00    -0.046 C 
ATOM     15  C   LIG d   1      12.167  -3.403  -3.702  0.00  0.00    -0.030 C 
ATOM     16  C   LIG d   1      11.657  -4.821  -3.517  0.00  0.00    -0.060 C 
ATOM     17  C   LIG d   1      12.559  -5.798  -3.420  0.00  0.00    -0.019 C 
ATOM     18  C   LIG d   1      12.122  -7.181  -3.203  0.00  0.00     0.156 C 
ATOM     19  O   LIG d   1      12.837  -8.125  -3.468  0.00  0.00    -0.293 OA
ATOM     20  C   LIG d   1      10.731  -7.371  -2.630  0.00  0.00     0.011 C 
ATOM     21  C   LIG d   1       9.775  -6.510  -3.455  0.00  0.00    -0.037 C 
ATOM     22  C   LIG d   1      10.179  -5.046  -3.431  0.00  0.00    -0.007 C 
ATOM     23  H   LIG d   1       8.259  -0.043  -7.570  0.00  0.00     0.027 H 
ATOM     24  H   LIG d   1       7.769   0.850  -6.102  0.00  0.00     0.027 H 
ATOM     25  H   LIG d   1      10.243  -0.398  -6.364  0.00  0.00     0.027 H 
ATOM     26  H   LIG d   1       9.432  -0.164  -4.781  0.00  0.00     0.027 H 
ATOM     27  H   LIG d   1       6.112  -3.717  -5.255  0.00  0.00     0.027 H 
ATOM     28  H   LIG d   1       7.416  -3.984  -6.444  0.00  0.00     0.027 H 
ATOM     29  H   LIG d   1       7.680  -4.125  -3.401  0.00  0.00     0.027 H 
ATOM     30  H   LIG d   1       7.693  -5.509  -4.511  0.00  0.00     0.027 H 
ATOM     31  H   LIG d   1      11.696  -1.704  -4.940  0.00  0.00     0.027 H 
ATOM     32  H   LIG d   1      11.623  -3.270  -5.783  0.00  0.00     0.027 H 
ATOM     33  H   LIG d   1      12.008  -2.835  -2.786  0.00  0.00     0.031 H 
ATOM     34  H   LIG d   1      13.232  -3.426  -3.939  0.00  0.00     0.031 H 
ATOM     35  H   LIG d   1      13.611  -5.570  -3.501  0.00  0.00     0.065 H 
ATOM     36  H   LIG d   1      10.724  -7.087  -1.671  0.00  0.00     0.035 H 
ATOM     37  H   LIG d   1      10.441  -8.419  -2.701  0.00  0.00     0.035 H 
ATOM     38  H   LIG d   1       8.768  -6.608  -3.050  0.00  0.00     0.028 H 
ATOM     39  H   LIG d   1       9.778  -6.864  -4.486  0.00  0.00     0.028 H 
ENDROOT
BRANCH   1  40
ATOM     40  C   LIG d   1       5.787  -0.532  -5.556  0.00  0.00     0.174 C 
ATOM     41  O   LIG d   1       5.907   0.539  -5.010  0.00  0.00    -0.293 OA
BRANCH  40  42
ATOM     42  C   LIG d   1       4.448  -1.224  -5.575  0.00  0.00     0.150 C 
ATOM     43  H   LIG d   1       4.579  -2.197  -5.762  0.00  0.00     0.078 H 
ATOM     44  H   LIG d   1       3.823  -0.784  -6.351  0.00  0.00     0.078 H 
BRANCH  42  45
ATOM     45  O   LIG d   1       3.803  -1.062  -4.284  0.00  0.00    -0.457 OA
BRANCH  45  46
ATOM     46  C   LIG d   1       4.057  -1.995  -3.354  0.00  0.00     0.307 C 
ATOM     47  O   LIG d   1       4.112  -3.161  -3.667  0.00  0.00    -0.251 OA
BRANCH  46  48
ATOM     48  C   LIG d   1       4.279  -1.591  -1.919  0.00  0.00     0.042 C 
ATOM     49  H   LIG d   1       3.422  -1.897  -1.319  0.00  0.00     0.037 H 
ATOM     50  H   LIG d   1       5.179  -2.075  -1.542  0.00  0.00     0.037 H 
BRANCH  48  51
ATOM     51  C   LIG d   1       4.445  -0.073  -1.837  0.00  0.00    -0.055 C 
ATOM     52  H   LIG d   1       3.503   0.379  -1.526  0.00  0.00     0.024 H 
ATOM     53  H   LIG d   1       5.221   0.170  -1.113  0.00  0.00     0.024 H 
ATOM     54  H   LIG d   1       4.728   0.315  -2.816  0.00  0.00     0.024 H 
ENDBRANCH  48  51
ENDBRANCH  46  48
ENDBRANCH  45  46
ENDBRANCH  42  45
ENDBRANCH  40  42
ENDBRANCH   1  40
BRANCH   7  55
ATOM     55  C   LIG d   1       7.437  -1.742  -3.829  0.00  0.00    -0.059 C 
ATOM     56  H   LIG d   1       8.250  -1.072  -3.550  0.00  0.00     0.024 H 
ATOM     57  H   LIG d   1       6.486  -1.222  -3.729  0.00  0.00     0.024 H 
ATOM     58  H   LIG d   1       7.446  -2.615  -3.177  0.00  0.00     0.024 H 
ENDBRANCH   7  55
BRANCH  22  59
ATOM     59  C   LIG d   1       9.700  -4.445  -2.109  0.00  0.00    -0.056 C 
ATOM     60  H   LIG d   1       8.942  -5.093  -1.668  0.00  0.00     0.024 H 
ATOM     61  H   LIG d   1      10.544  -4.354  -1.425  0.00  0.00     0.024 H 
ATOM     62  H   LIG d   1       9.273  -3.459  -2.292  0.00  0.00     0.024 H 
ENDBRANCH  22  59
TORSDOF 8
ENDMDL
MODEL 4
REMARK VINA RESULT:      -6.0      9.542     12.528
REMARK  8 active torsions:
REMARK  status: ('A' for Active; 'I' for Inactive)
REMARK    1  A    between atoms: C_1  and  C_2 
REMARK    2  A    between atoms: C_2  and  C_3 
REMARK    3  A    between atoms: C_3  and  O_5 
REMARK    4  A    between atoms: O_5  and  C_6 
REMARK    5  A    between atoms: C_6  and  C_7 
REMARK    6  A    between atoms: C_7  and  C_9 
REMARK    7  A    between atoms: C_15  and  C_32 
REMARK    8  A    between atoms: C_30  and  C_31 
ROOT
ATOM      1  C   LIG d   1      10.056   6.527  -1.237  0.00  0.00     0.027 C 
ATOM      2  H   LIG d   1       9.251   6.025  -0.919  0.00  0.00     0.038 H 
ATOM      3  C   LIG d   1       9.807   8.054  -1.182  0.00  0.00    -0.043 C 
ATOM      4  C   LIG d   1       9.870   8.562  -2.648  0.00  0.00    -0.049 C 
ATOM      5  C   LIG d   1       9.533   7.306  -3.461  0.00  0.00    -0.032 C 
ATOM      6  H   LIG d   1       8.464   7.095  -3.410  0.00  0.00     0.031 H 
ATOM      7  C   LIG d   1      10.339   6.217  -2.704  0.00  0.00    -0.019 C 
ATOM      8  C   LIG d   1       9.860   4.872  -3.216  0.00  0.00    -0.046 C 
ATOM      9  C   LIG d   1      10.251   4.787  -4.700  0.00  0.00    -0.049 C 
ATOM     10  C   LIG d   1       9.660   5.938  -5.507  0.00  0.00    -0.029 C 
ATOM     11  H   LIG d   1       8.574   5.841  -5.524  0.00  0.00     0.031 H 
ATOM     12  C   LIG d   1      10.000   7.311  -4.905  0.00  0.00    -0.034 C 
ATOM     13  H   LIG d   1      11.078   7.469  -4.946  0.00  0.00     0.031 H 
ATOM     14  C   LIG d   1       9.304   8.404  -5.690  0.00  0.00    -0.046 C 
ATOM     15  C   LIG d   1       9.854   8.435  -7.117  0.00  0.00    -0.030 C 
ATOM     16  C   LIG d   1       9.709   7.052  -7.727  0.00  0.00    -0.060 C 
ATOM     17  C   LIG d   1       9.176   6.963  -8.945  0.00  0.00    -0.019 C 
ATOM     18  C   LIG d   1       9.048   5.655  -9.596  0.00  0.00     0.156 C 
ATOM     19  O   LIG d   1       8.266   5.469 -10.505  0.00  0.00    -0.293 OA
ATOM     20  C   LIG d   1       9.944   4.548  -9.076  0.00  0.00     0.011 C 
ATOM     21  C   LIG d   1       9.812   4.530  -7.554  0.00  0.00    -0.037 C 
ATOM     22  C   LIG d   1      10.191   5.869  -6.944  0.00  0.00    -0.007 C 
ATOM     23  H   LIG d   1       8.824   8.258  -0.758  0.00  0.00     0.027 H 
ATOM     24  H   LIG d   1      10.580   8.538  -0.585  0.00  0.00     0.027 H 
ATOM     25  H   LIG d   1       9.127   9.342  -2.819  0.00  0.00     0.027 H 
ATOM     26  H   LIG d   1      10.870   8.921  -2.890  0.00  0.00     0.027 H 
ATOM     27  H   LIG d   1      10.343   4.069  -2.658  0.00  0.00     0.027 H 
ATOM     28  H   LIG d   1       8.778   4.798  -3.111  0.00  0.00     0.027 H 
ATOM     29  H   LIG d   1      11.338   4.815  -4.783  0.00  0.00     0.027 H 
ATOM     30  H   LIG d   1       9.889   3.844  -5.109  0.00  0.00     0.027 H 
ATOM     31  H   LIG d   1       9.478   9.368  -5.211  0.00  0.00     0.027 H 
ATOM     32  H   LIG d   1       8.234   8.199  -5.715  0.00  0.00     0.027 H 
ATOM     33  H   LIG d   1      10.906   8.718  -7.097  0.00  0.00     0.031 H 
ATOM     34  H   LIG d   1       9.290   9.156  -7.710  0.00  0.00     0.031 H 
ATOM     35  H   LIG d   1       8.839   7.855  -9.452  0.00  0.00     0.065 H 
ATOM     36  H   LIG d   1      10.889   4.729  -9.347  0.00  0.00     0.035 H 
ATOM     37  H   LIG d   1       9.625   3.590  -9.487  0.00  0.00     0.035 H 
ATOM     38  H   LIG d   1      10.466   3.757  -7.148  0.00  0.00     0.028 H 
ATOM     39  H   LIG d   1       8.781   4.297  -7.289  0.00  0.00     0.028 H 
ENDROOT
BRANCH   1  40
ATOM     40  C   LIG d   1      11.245   6.160  -0.388  0.00  0.00     0.174 C 
ATOM     41  O   LIG d   1      11.554   5.000  -0.252  0.00  0.00    -0.293 OA
BRANCH  40  42
ATOM     42  C   LIG d   1      12.050   7.239   0.290  0.00  0.00     0.150 C 
ATOM     43  H   LIG d   1      11.914   8.106  -0.189  0.00  0.00     0.078 H 
ATOM     44  H   LIG d   1      13.106   6.972   0.268  0.00  0.00     0.078 H 
BRANCH  42  45
ATOM     45  O   LIG d   1      11.613   7.373   1.668  0.00  0.00    -0.457 OA
BRANCH  45  46
ATOM     46  C   LIG d   1      11.734   8.586   2.230  0.00  0.00     0.307 C 
ATOM     47  O   LIG d   1      11.973   8.684   3.411  0.00  0.00    -0.251 OA
BRANCH  46  48
ATOM     48  C   LIG d   1      11.578   9.827   1.388  0.00  0.00     0.042 C 
ATOM     49  H   LIG d   1      12.056   9.671   0.421  0.00  0.00     0.037 H 
ATOM     50  H   LIG d   1      10.518  10.034   1.241  0.00  0.00     0.037 H 
BRANCH  48  51
ATOM     51  C   LIG d   1      12.235  11.011   2.099  0.00  0.00    -0.055 C 
ATOM     52  H   LIG d   1      13.235  11.167   1.695  0.00  0.00     0.024 H 
ATOM     53  H   LIG d   1      11.636  11.908   1.942  0.00  0.00     0.024 H 
ATOM     54  H   LIG d   1      12.303  10.802   3.166  0.00  0.00     0.024 H 
ENDBRANCH  48  51
ENDBRANCH  46  48
ENDBRANCH  45  46
ENDBRANCH  42  45
ENDBRANCH  40  42
ENDBRANCH   1  40
BRANCH   7  55
ATOM     55  C   LIG d   1      11.833   6.383  -2.990  0.00  0.00    -0.059 C 
ATOM     56  H   LIG d   1      12.393   5.624  -2.445  0.00  0.00     0.024 H 
ATOM     57  H   LIG d   1      12.012   6.270  -4.059  0.00  0.00     0.024 H 
ATOM     58  H   LIG d   1      12.156   7.373  -2.670  0.00  0.00     0.024 H 
ENDBRANCH   7  55
BRANCH  22  59
ATOM     59  C   LIG d   1      11.718   5.948  -6.887  0.00  0.00    -0.056 C 
ATOM     60  H   LIG d   1      12.058   5.673  -5.889  0.00  0.00     0.024 H 
ATOM     61  H   LIG d   1      12.144   5.262  -7.619  0.00  0.00     0.024 H 
ATOM     62  H   LIG d   1      12.037   6.965  -7.113  0.00  0.00     0.024 H 
ENDBRANCH  22  59
TORSDOF 8
ENDMDL
MODEL 5
REMARK VINA RESULT:      -6.0      5.036      6.986
REMARK  8 active torsions:
REMARK  status: ('A' for Active; 'I' for Inactive)
REMARK    1  A    between atoms: C_1  and  C_2 
REMARK    2  A    between atoms: C_2  and  C_3 
REMARK    3  A    between atoms: C_3  and  O_5 
REMARK    4  A    between atoms: O_5  and  C_6 
REMARK    5  A    between atoms: C_6  and  C_7 
REMARK    6  A    between atoms: C_7  and  C_9 
REMARK    7  A    between atoms: C_15  and  C_32 
REMARK    8  A    between atoms: C_30  and  C_31 
ROOT
ATOM      1  C   LIG d   1       4.328  -1.421  -6.672  0.00  0.00     0.027 C 
ATOM      2  H   LIG d   1       3.615  -1.249  -5.991  0.00  0.00     0.038 H 
ATOM      3  C   LIG d   1       3.754  -1.317  -8.106  0.00  0.00    -0.043 C 
ATOM      4  C   LIG d   1       3.895  -2.728  -8.738  0.00  0.00    -0.049 C 
ATOM      5  C   LIG d   1       3.942  -3.650  -7.513  0.00  0.00    -0.032 C 
ATOM      6  H   LIG d   1       2.945  -3.764  -7.085  0.00  0.00     0.031 H 
ATOM      7  C   LIG d   1       4.857  -2.846  -6.551  0.00  0.00    -0.019 C 
ATOM      8  C   LIG d   1       4.747  -3.495  -5.185  0.00  0.00    -0.046 C 
ATOM      9  C   LIG d   1       5.335  -4.910  -5.307  0.00  0.00    -0.049 C 
ATOM     10  C   LIG d   1       4.620  -5.729  -6.377  0.00  0.00    -0.029 C 
ATOM     11  H   LIG d   1       3.592  -5.907  -6.062  0.00  0.00     0.031 H 
ATOM     12  C   LIG d   1       4.580  -5.009  -7.735  0.00  0.00    -0.034 C 
ATOM     13  H   LIG d   1       5.595  -4.886  -8.112  0.00  0.00     0.031 H 
ATOM     14  C   LIG d   1       3.773  -5.824  -8.725  0.00  0.00    -0.046 C 
ATOM     15  C   LIG d   1       4.483  -7.153  -8.988  0.00  0.00    -0.030 C 
ATOM     16  C   LIG d   1       4.716  -7.853  -7.661  0.00  0.00    -0.060 C 
ATOM     17  C   LIG d   1       4.376  -9.138  -7.568  0.00  0.00    -0.019 C 
ATOM     18  C   LIG d   1       4.616  -9.873  -6.321  0.00  0.00     0.156 C 
ATOM     19  O   LIG d   1       4.015 -10.893  -6.057  0.00  0.00    -0.293 OA
ATOM     20  C   LIG d   1       5.652  -9.291  -5.380  0.00  0.00     0.011 C 
ATOM     21  C   LIG d   1       5.332  -7.807  -5.208  0.00  0.00    -0.037 C 
ATOM     22  C   LIG d   1       5.334  -7.076  -6.539  0.00  0.00    -0.007 C 
ATOM     23  H   LIG d   1       2.703  -1.027  -8.069  0.00  0.00     0.027 H 
ATOM     24  H   LIG d   1       4.322  -0.589  -8.685  0.00  0.00     0.027 H 
ATOM     25  H   LIG d   1       3.032  -2.961  -9.362  0.00  0.00     0.027 H 
ATOM     26  H   LIG d   1       4.818  -2.803  -9.312  0.00  0.00     0.027 H 
ATOM     27  H   LIG d   1       5.314  -2.919  -4.453  0.00  0.00     0.027 H 
ATOM     28  H   LIG d   1       3.701  -3.551  -4.883  0.00  0.00     0.027 H 
ATOM     29  H   LIG d   1       6.391  -4.835  -5.563  0.00  0.00     0.027 H 
ATOM     30  H   LIG d   1       5.238  -5.419  -4.348  0.00  0.00     0.027 H 
ATOM     31  H   LIG d   1       3.674  -5.272  -9.660  0.00  0.00     0.027 H 
ATOM     32  H   LIG d   1       2.783  -6.014  -8.310  0.00  0.00     0.027 H 
ATOM     33  H   LIG d   1       5.438  -6.967  -9.477  0.00  0.00     0.031 H 
ATOM     34  H   LIG d   1       3.859  -7.780  -9.626  0.00  0.00     0.031 H 
ATOM     35  H   LIG d   1       3.924  -9.638  -8.412  0.00  0.00     0.065 H 
ATOM     36  H   LIG d   1       6.564  -9.413  -5.772  0.00  0.00     0.035 H 
ATOM     37  H   LIG d   1       5.601  -9.796  -4.415  0.00  0.00     0.035 H 
ATOM     38  H   LIG d   1       6.078  -7.356  -4.553  0.00  0.00     0.028 H 
ATOM     39  H   LIG d   1       4.349  -7.707  -4.748  0.00  0.00     0.028 H 
ENDROOT
BRANCH   1  40
ATOM     40  C   LIG d   1       5.449  -0.431  -6.484  0.00  0.00     0.174 C 
ATOM     41  O   LIG d   1       5.925   0.130  -7.442  0.00  0.00    -0.293 OA
BRANCH  40  42
ATOM     42  C   LIG d   1       5.974  -0.140  -5.102  0.00  0.00     0.150 C 
ATOM     43  H   LIG d   1       6.755   0.482  -5.166  0.00  0.00     0.078 H 
ATOM     44  H   LIG d   1       6.288  -1.071  -4.630  0.00  0.00     0.078 H 
BRANCH  42  45
ATOM     45  O   LIG d   1       4.928   0.477  -4.307  0.00  0.00    -0.457 OA
BRANCH  45  46
ATOM     46  C   LIG d   1       5.220   0.758  -3.028  0.00  0.00     0.307 C 
ATOM     47  O   LIG d   1       6.168   1.460  -2.764  0.00  0.00    -0.251 OA
BRANCH  46  48
ATOM     48  C   LIG d   1       4.364   0.203  -1.918  0.00  0.00     0.042 C 
ATOM     49  H   LIG d   1       4.742   0.554  -0.958  0.00  0.00     0.037 H 
ATOM     50  H   LIG d   1       3.336   0.542  -2.050  0.00  0.00     0.037 H 
BRANCH  48  51
ATOM     51  C   LIG d   1       4.406  -1.325  -1.957  0.00  0.00    -0.055 C 
ATOM     52  H   LIG d   1       4.680  -1.706  -0.973  0.00  0.00     0.024 H 
ATOM     53  H   LIG d   1       3.426  -1.710  -2.235  0.00  0.00     0.024 H 
ATOM     54  H   LIG d   1       5.145  -1.649  -2.690  0.00  0.00     0.024 H 
ENDBRANCH  48  51
ENDBRANCH  46  48
ENDBRANCH  45  46
ENDBRANCH  42  45
ENDBRANCH  40  42
ENDBRANCH   1  40
BRANCH   7  55
ATOM     55  C   LIG d   1       6.305  -2.905  -7.042  0.00  0.00    -0.059 C 
ATOM     56  H   LIG d   1       6.739  -1.905  -7.013  0.00  0.00     0.024 H 
ATOM     57  H   LIG d   1       6.880  -3.569  -6.397  0.00  0.00     0.024 H 
ATOM     58  H   LIG d   1       6.327  -3.281  -8.064  0.00  0.00     0.024 H 
ENDBRANCH   7  55
BRANCH  22  59
ATOM     59  C   LIG d   1       6.789  -6.796  -6.922  0.00  0.00    -0.056 C 
ATOM     60  H   LIG d   1       7.450  -7.202  -6.157  0.00  0.00     0.024 H 
ATOM     61  H   LIG d   1       7.008  -7.267  -7.881  0.00  0.00     0.024 H 
ATOM     62  H   LIG d   1       6.942  -5.720  -7.002  0.00  0.00     0.024 H 
ENDBRANCH  22  59
TORSDOF 8
ENDMDL
MODEL 6
REMARK VINA RESULT:      -6.0      6.151     10.309
REMARK  8 active torsions:
REMARK  status: ('A' for Active; 'I' for Inactive)
REMARK    1  A    between atoms: C_1  and  C_2 
REMARK    2  A    between atoms: C_2  and  C_3 
REMARK    3  A    between atoms: C_3  and  O_5 
REMARK    4  A    between atoms: O_5  and  C_6 
REMARK    5  A    between atoms: C_6  and  C_7 
REMARK    6  A    between atoms: C_7  and  C_9 
REMARK    7  A    between atoms: C_15  and  C_32 
REMARK    8  A    between atoms: C_30  and  C_31 
ROOT
ATOM      1  C   LIG d   1       6.977  -1.424  -5.263  0.00  0.00     0.027 C 
ATOM      2  H   LIG d   1       6.766  -1.831  -4.375  0.00  0.00     0.038 H 
ATOM      3  C   LIG d   1       8.039  -2.264  -6.013  0.00  0.00    -0.043 C 
ATOM      4  C   LIG d   1       9.289  -1.355  -6.167  0.00  0.00    -0.049 C 
ATOM      5  C   LIG d   1       9.125  -0.348  -5.022  0.00  0.00    -0.032 C 
ATOM      6  H   LIG d   1       9.380  -0.812  -4.069  0.00  0.00     0.031 H 
ATOM      7  C   LIG d   1       7.604  -0.044  -5.088  0.00  0.00    -0.019 C 
ATOM      8  C   LIG d   1       7.244   0.706  -3.820  0.00  0.00    -0.046 C 
ATOM      9  C   LIG d   1       7.986   2.051  -3.864  0.00  0.00    -0.049 C 
ATOM     10  C   LIG d   1       9.494   1.861  -3.997  0.00  0.00    -0.029 C 
ATOM     11  H   LIG d   1       9.874   1.391  -3.090  0.00  0.00     0.031 H 
ATOM     12  C   LIG d   1       9.869   0.964  -5.187  0.00  0.00    -0.034 C 
ATOM     13  H   LIG d   1       9.568   1.448  -6.116  0.00  0.00     0.031 H 
ATOM     14  C   LIG d   1      11.366   0.732  -5.205  0.00  0.00    -0.046 C 
ATOM     15  C   LIG d   1      12.084   2.060  -5.452  0.00  0.00    -0.030 C 
ATOM     16  C   LIG d   1      11.629   3.063  -4.406  0.00  0.00    -0.060 C 
ATOM     17  C   LIG d   1      12.566   3.761  -3.767  0.00  0.00    -0.019 C 
ATOM     18  C   LIG d   1      12.181   4.771  -2.774  0.00  0.00     0.156 C 
ATOM     19  O   LIG d   1      12.955   5.158  -1.924  0.00  0.00    -0.293 OA
ATOM     20  C   LIG d   1      10.765   5.305  -2.865  0.00  0.00     0.011 C 
ATOM     21  C   LIG d   1       9.828   4.102  -2.966  0.00  0.00    -0.037 C 
ATOM     22  C   LIG d   1      10.160   3.232  -4.165  0.00  0.00    -0.007 C 
ATOM     23  H   LIG d   1       8.293  -3.152  -5.433  0.00  0.00     0.027 H 
ATOM     24  H   LIG d   1       7.663  -2.553  -6.994  0.00  0.00     0.027 H 
ATOM     25  H   LIG d   1      10.205  -1.932  -6.044  0.00  0.00     0.027 H 
ATOM     26  H   LIG d   1       9.279  -0.847  -7.132  0.00  0.00     0.027 H 
ATOM     27  H   LIG d   1       6.168   0.877  -3.781  0.00  0.00     0.027 H 
ATOM     28  H   LIG d   1       7.561   0.134  -2.947  0.00  0.00     0.027 H 
ATOM     29  H   LIG d   1       7.625   2.629  -4.715  0.00  0.00     0.027 H 
ATOM     30  H   LIG d   1       7.778   2.602  -2.947  0.00  0.00     0.027 H 
ATOM     31  H   LIG d   1      11.618   0.028  -5.998  0.00  0.00     0.027 H 
ATOM     32  H   LIG d   1      11.676   0.322  -4.243  0.00  0.00     0.027 H 
ATOM     33  H   LIG d   1      11.836   2.430  -6.446  0.00  0.00     0.031 H 
ATOM     34  H   LIG d   1      13.161   1.913  -5.372  0.00  0.00     0.031 H 
ATOM     35  H   LIG d   1      13.610   3.584  -3.979  0.00  0.00     0.065 H 
ATOM     36  H   LIG d   1      10.680   5.888  -3.674  0.00  0.00     0.035 H 
ATOM     37  H   LIG d   1      10.530   5.885  -1.973  0.00  0.00     0.035 H 
ATOM     38  H   LIG d   1       8.801   4.457  -3.057  0.00  0.00     0.028 H 
ATOM     39  H   LIG d   1       9.917   3.506  -2.057  0.00  0.00     0.028 H 
ENDROOT
BRANCH   1  40
ATOM     40  C   LIG d   1       5.716  -1.323  -6.082  0.00  0.00     0.174 C 
ATOM     41  O   LIG d   1       5.741  -1.580  -7.262  0.00  0.00    -0.293 OA
BRANCH  40  42
ATOM     42  C   LIG d   1       4.424  -0.904  -5.429  0.00  0.00     0.150 C 
ATOM     43  H   LIG d   1       3.665  -1.062  -6.060  0.00  0.00     0.078 H 
ATOM     44  H   LIG d   1       4.473   0.155  -5.175  0.00  0.00     0.078 H 
BRANCH  42  45
ATOM     45  O   LIG d   1       4.219  -1.683  -4.221  0.00  0.00    -0.457 OA
BRANCH  45  46
ATOM     46  C   LIG d   1       3.589  -1.074  -3.204  0.00  0.00     0.307 C 
ATOM     47  O   LIG d   1       2.424  -0.770  -3.310  0.00  0.00    -0.251 OA
BRANCH  46  48
ATOM     48  C   LIG d   1       4.331  -0.776  -1.926  0.00  0.00     0.042 C 
ATOM     49  H   LIG d   1       3.793  -1.212  -1.084  0.00  0.00     0.037 H 
ATOM     50  H   LIG d   1       5.331  -1.205  -1.980  0.00  0.00     0.037 H 
BRANCH  48  51
ATOM     51  C   LIG d   1       4.434   0.738  -1.738  0.00  0.00    -0.055 C 
ATOM     52  H   LIG d   1       4.850   0.955  -0.754  0.00  0.00     0.024 H 
ATOM     53  H   LIG d   1       5.083   1.157  -2.507  0.00  0.00     0.024 H 
ATOM     54  H   LIG d   1       3.442   1.183  -1.818  0.00  0.00     0.024 H 
ENDBRANCH  48  51
ENDBRANCH  46  48
ENDBRANCH  45  46
ENDBRANCH  42  45
ENDBRANCH  40  42
ENDBRANCH   1  40
BRANCH   7  55
ATOM     55  C   LIG d   1       7.300   0.823  -6.312  0.00  0.00    -0.059 C 
ATOM     56  H   LIG d   1       8.116   0.734  -7.030  0.00  0.00     0.024 H 
ATOM     57  H   LIG d   1       6.372   0.487  -6.773  0.00  0.00     0.024 H 
ATOM     58  H   LIG d   1       7.199   1.863  -6.004  0.00  0.00     0.024 H 
ENDBRANCH   7  55
BRANCH  22  59
ATOM     59  C   LIG d   1       9.565   3.895  -5.409  0.00  0.00    -0.056 C 
ATOM     60  H   LIG d   1      10.295   4.582  -5.839  0.00  0.00     0.024 H 
ATOM     61  H   LIG d   1       9.311   3.129  -6.142  0.00  0.00     0.024 H 
ATOM     62  H   LIG d   1       8.667   4.446  -5.132  0.00  0.00     0.024 H 
ENDBRANCH  22  59
TORSDOF 8
ENDMDL
MODEL 7
REMARK VINA RESULT:      -6.0      1.672      2.640
REMARK  8 active torsions:
REMARK  status: ('A' for Active; 'I' for Inactive)
REMARK    1  A    between atoms: C_1  and  C_2 
REMARK    2  A    between atoms: C_2  and  C_3 
REMARK    3  A    between atoms: C_3  and  O_5 
REMARK    4  A    between atoms: O_5  and  C_6 
REMARK    5  A    between atoms: C_6  and  C_7 
REMARK    6  A    between atoms: C_7  and  C_9 
REMARK    7  A    between atoms: C_15  and  C_32 
REMARK    8  A    between atoms: C_30  and  C_31 
ROOT
ATOM      1  C   LIG d   1       4.220  -0.086  -7.493  0.00  0.00     0.027 C 
ATOM      2  H   LIG d   1       5.089   0.409  -7.527  0.00  0.00     0.038 H 
ATOM      3  C   LIG d   1       4.396  -1.458  -6.797  0.00  0.00    -0.043 C 
ATOM      4  C   LIG d   1       4.079  -2.536  -7.869  0.00  0.00    -0.049 C 
ATOM      5  C   LIG d   1       4.348  -1.800  -9.187  0.00  0.00    -0.032 C 
ATOM      6  H   LIG d   1       5.421  -1.712  -9.360  0.00  0.00     0.031 H 
ATOM      7  C   LIG d   1       3.727  -0.407  -8.900  0.00  0.00    -0.019 C 
ATOM      8  C   LIG d   1       4.188   0.522 -10.007  0.00  0.00    -0.046 C 
ATOM      9  C   LIG d   1       3.574   0.004 -11.318  0.00  0.00    -0.049 C 
ATOM     10  C   LIG d   1       3.972  -1.442 -11.595  0.00  0.00    -0.029 C 
ATOM     11  H   LIG d   1       5.046  -1.486 -11.782  0.00  0.00     0.031 H 
ATOM     12  C   LIG d   1       3.661  -2.373 -10.413  0.00  0.00    -0.034 C 
ATOM     13  H   LIG d   1       2.583  -2.408 -10.252  0.00  0.00     0.031 H 
ATOM     14  C   LIG d   1       4.169  -3.769 -10.709  0.00  0.00    -0.046 C 
ATOM     15  C   LIG d   1       3.402  -4.348 -11.899  0.00  0.00    -0.030 C 
ATOM     16  C   LIG d   1       3.520  -3.389 -13.070  0.00  0.00    -0.060 C 
ATOM     17  C   LIG d   1       3.859  -3.894 -14.255  0.00  0.00    -0.019 C 
ATOM     18  C   LIG d   1       3.950  -3.018 -15.429  0.00  0.00     0.156 C 
ATOM     19  O   LIG d   1       4.589  -3.332 -16.411  0.00  0.00    -0.293 OA
ATOM     20  C   LIG d   1       3.205  -1.701 -15.350  0.00  0.00     0.011 C 
ATOM     21  C   LIG d   1       3.573  -1.045 -14.020  0.00  0.00    -0.037 C 
ATOM     22  C   LIG d   1       3.228  -1.938 -12.841  0.00  0.00    -0.007 C 
ATOM     23  H   LIG d   1       5.422  -1.570  -6.446  0.00  0.00     0.027 H 
ATOM     24  H   LIG d   1       3.703  -1.545  -5.961  0.00  0.00     0.027 H 
ATOM     25  H   LIG d   1       4.745  -3.393  -7.763  0.00  0.00     0.027 H 
ATOM     26  H   LIG d   1       3.037  -2.847  -7.806  0.00  0.00     0.027 H 
ATOM     27  H   LIG d   1       3.840   1.537  -9.810  0.00  0.00     0.027 H 
ATOM     28  H   LIG d   1       5.275   0.510 -10.074  0.00  0.00     0.027 H 
ATOM     29  H   LIG d   1       2.488   0.067 -11.251  0.00  0.00     0.027 H 
ATOM     30  H   LIG d   1       3.916   0.631 -12.142  0.00  0.00     0.027 H 
ATOM     31  H   LIG d   1       4.023  -4.406  -9.836  0.00  0.00     0.027 H 
ATOM     32  H   LIG d   1       5.231  -3.719 -10.949  0.00  0.00     0.027 H 
ATOM     33  H   LIG d   1       2.353  -4.473 -11.632  0.00  0.00     0.031 H 
ATOM     34  H   LIG d   1       3.829  -5.313 -12.174  0.00  0.00     0.031 H 
ATOM     35  H   LIG d   1       4.068  -4.950 -14.352  0.00  0.00     0.065 H 
ATOM     36  H   LIG d   1       2.220  -1.871 -15.399  0.00  0.00     0.035 H 
ATOM     37  H   LIG d   1       3.504  -1.056 -16.177  0.00  0.00     0.035 H 
ATOM     38  H   LIG d   1       3.032  -0.104 -13.925  0.00  0.00     0.028 H 
ATOM     39  H   LIG d   1       4.644  -0.840 -14.010  0.00  0.00     0.028 H 
ENDROOT
BRANCH   1  40
ATOM     40  C   LIG d   1       3.198   0.745  -6.760  0.00  0.00     0.174 C 
ATOM     41  O   LIG d   1       2.842   1.805  -7.217  0.00  0.00    -0.293 OA
BRANCH  40  42
ATOM     42  C   LIG d   1       2.621   0.253  -5.458  0.00  0.00     0.150 C 
ATOM     43  H   LIG d   1       2.817  -0.722  -5.353  0.00  0.00     0.078 H 
ATOM     44  H   LIG d   1       1.542   0.409  -5.457  0.00  0.00     0.078 H 
BRANCH  42  45
ATOM     45  O   LIG d   1       3.217   0.988  -4.356  0.00  0.00    -0.457 OA
BRANCH  45  46
ATOM     46  C   LIG d   1       3.192   0.402  -3.149  0.00  0.00     0.307 C 
ATOM     47  O   LIG d   1       3.401   1.057  -2.155  0.00  0.00    -0.251 OA
BRANCH  46  48
ATOM     48  C   LIG d   1       2.897  -1.072  -3.031  0.00  0.00     0.042 C 
ATOM     49  H   LIG d   1       1.956  -1.212  -2.499  0.00  0.00     0.037 H 
ATOM     50  H   LIG d   1       2.820  -1.506  -4.028  0.00  0.00     0.037 H 
BRANCH  48  51
ATOM     51  C   LIG d   1       4.027  -1.758  -2.262  0.00  0.00    -0.055 C 
ATOM     52  H   LIG d   1       4.815  -2.048  -2.956  0.00  0.00     0.024 H 
ATOM     53  H   LIG d   1       4.431  -1.071  -1.519  0.00  0.00     0.024 H 
ATOM     54  H   LIG d   1       3.638  -2.646  -1.762  0.00  0.00     0.024 H 
ENDBRANCH  48  51
ENDBRANCH  46  48
ENDBRANCH  45  46
ENDBRANCH  42  45
ENDBRANCH  40  42
ENDBRANCH   1  40
BRANCH   7  55
ATOM     55  C   LIG d   1       2.200  -0.508  -8.905  0.00  0.00    -0.059 C 
ATOM     56  H   LIG d   1       1.796   0.081  -8.081  0.00  0.00     0.024 H 
ATOM     57  H   LIG d   1       1.814  -0.126  -9.849  0.00  0.00     0.024 H 
ATOM     58  H   LIG d   1       1.905  -1.550  -8.785  0.00  0.00     0.024 H 
ENDBRANCH   7  55
BRANCH  22  59
ATOM     59  C   LIG d   1       1.726  -1.809 -12.575  0.00  0.00    -0.056 C 
ATOM     60  H   LIG d   1       1.244  -1.343 -13.434  0.00  0.00     0.024 H 
ATOM     61  H   LIG d   1       1.301  -2.799 -12.411  0.00  0.00     0.024 H 
ATOM     62  H   LIG d   1       1.566  -1.193 -11.690  0.00  0.00     0.024 H 
ENDBRANCH  22  59
TORSDOF 8
ENDMDL
MODEL 8
REMARK VINA RESULT:      -5.9      6.265      9.524
REMARK  8 active torsions:
REMARK  status: ('A' for Active; 'I' for Inactive)
REMARK    1  A    between atoms: C_1  and  C_2 
REMARK    2  A    between atoms: C_2  and  C_3 
REMARK    3  A    between atoms: C_3  and  O_5 
REMARK    4  A    between atoms: O_5  and  C_6 
REMARK    5  A    between atoms: C_6  and  C_7 
REMARK    6  A    between atoms: C_7  and  C_9 
REMARK    7  A    between atoms: C_15  and  C_32 
REMARK    8  A    between atoms: C_30  and  C_31 
ROOT
ATOM      1  C   LIG d   1       7.456  -6.142  -5.718  0.00  0.00     0.027 C 
ATOM      2  H   LIG d   1       7.003  -6.812  -5.129  0.00  0.00     0.038 H 
ATOM      3  C   LIG d   1       8.881  -5.831  -5.200  0.00  0.00    -0.043 C 
ATOM      4  C   LIG d   1       8.885  -4.330  -4.801  0.00  0.00    -0.049 C 
ATOM      5  C   LIG d   1       7.404  -4.045  -4.525  0.00  0.00    -0.032 C 
ATOM      6  H   LIG d   1       7.109  -4.466  -3.563  0.00  0.00     0.031 H 
ATOM      7  C   LIG d   1       6.715  -4.809  -5.687  0.00  0.00    -0.019 C 
ATOM      8  C   LIG d   1       5.234  -4.866  -5.367  0.00  0.00    -0.046 C 
ATOM      9  C   LIG d   1       4.710  -3.421  -5.390  0.00  0.00    -0.049 C 
ATOM     10  C   LIG d   1       5.464  -2.530  -4.408  0.00  0.00    -0.029 C 
ATOM     11  H   LIG d   1       5.251  -2.861  -3.392  0.00  0.00     0.031 H 
ATOM     12  C   LIG d   1       6.986  -2.589  -4.614  0.00  0.00    -0.034 C 
ATOM     13  H   LIG d   1       7.236  -2.189  -5.597  0.00  0.00     0.031 H 
ATOM     14  C   LIG d   1       7.682  -1.766  -3.548  0.00  0.00    -0.046 C 
ATOM     15  C   LIG d   1       7.302  -0.293  -3.714  0.00  0.00    -0.030 C 
ATOM     16  C   LIG d   1       5.789  -0.173  -3.695  0.00  0.00    -0.060 C 
ATOM     17  C   LIG d   1       5.250   0.757  -2.907  0.00  0.00    -0.019 C 
ATOM     18  C   LIG d   1       3.795   0.942  -2.878  0.00  0.00     0.156 C 
ATOM     19  O   LIG d   1       3.240   1.488  -1.948  0.00  0.00    -0.293 OA
ATOM     20  C   LIG d   1       3.021   0.414  -4.071  0.00  0.00     0.011 C 
ATOM     21  C   LIG d   1       3.489  -1.018  -4.323  0.00  0.00    -0.037 C 
ATOM     22  C   LIG d   1       4.985  -1.082  -4.573  0.00  0.00    -0.007 C 
ATOM     23  H   LIG d   1       9.107  -6.449  -4.331  0.00  0.00     0.027 H 
ATOM     24  H   LIG d   1       9.613  -6.011  -5.987  0.00  0.00     0.027 H 
ATOM     25  H   LIG d   1       9.482  -4.171  -3.904  0.00  0.00     0.027 H 
ATOM     26  H   LIG d   1       9.250  -3.714  -5.623  0.00  0.00     0.027 H 
ATOM     27  H   LIG d   1       4.714  -5.461  -6.118  0.00  0.00     0.027 H 
ATOM     28  H   LIG d   1       5.083  -5.300  -4.379  0.00  0.00     0.027 H 
ATOM     29  H   LIG d   1       4.825  -3.017  -6.396  0.00  0.00     0.027 H 
ATOM     30  H   LIG d   1       3.652  -3.422  -5.128  0.00  0.00     0.027 H 
ATOM     31  H   LIG d   1       8.762  -1.878  -3.645  0.00  0.00     0.027 H 
ATOM     32  H   LIG d   1       7.367  -2.115  -2.565  0.00  0.00     0.027 H 
ATOM     33  H   LIG d   1       7.687   0.078  -4.664  0.00  0.00     0.031 H 
ATOM     34  H   LIG d   1       7.725   0.287  -2.893  0.00  0.00     0.031 H 
ATOM     35  H   LIG d   1       5.885   1.374  -2.289  0.00  0.00     0.065 H 
ATOM     36  H   LIG d   1       3.203   0.991  -4.867  0.00  0.00     0.035 H 
ATOM     37  H   LIG d   1       1.953   0.423  -3.852  0.00  0.00     0.035 H 
ATOM     38  H   LIG d   1       2.965  -1.416  -5.192  0.00  0.00     0.028 H 
ATOM     39  H   LIG d   1       3.246  -1.629  -3.453  0.00  0.00     0.028 H 
ENDROOT
BRANCH   1  40
ATOM     40  C   LIG d   1       7.516  -6.673  -7.128  0.00  0.00     0.174 C 
ATOM     41  O   LIG d   1       8.480  -6.443  -7.818  0.00  0.00    -0.293 OA
BRANCH  40  42
ATOM     42  C   LIG d   1       6.374  -7.490  -7.674  0.00  0.00     0.150 C 
ATOM     43  H   LIG d   1       6.568  -7.742  -8.622  0.00  0.00     0.078 H 
ATOM     44  H   LIG d   1       5.456  -6.905  -7.633  0.00  0.00     0.078 H 
BRANCH  42  45
ATOM     45  O   LIG d   1       6.217  -8.694  -6.877  0.00  0.00    -0.457 OA
BRANCH  45  46
ATOM     46  C   LIG d   1       5.008  -8.914  -6.338  0.00  0.00     0.307 C 
ATOM     47  O   LIG d   1       4.060  -9.141  -7.053  0.00  0.00    -0.251 OA
BRANCH  46  48
ATOM     48  C   LIG d   1       4.832  -8.884  -4.842  0.00  0.00     0.042 C 
ATOM     49  H   LIG d   1       4.538  -7.881  -4.531  0.00  0.00     0.037 H 
ATOM     50  H   LIG d   1       4.058  -9.595  -4.553  0.00  0.00     0.037 H 
BRANCH  48  51
ATOM     51  C   LIG d   1       6.150  -9.263  -4.165  0.00  0.00    -0.055 C 
ATOM     52  H   LIG d   1       6.379  -8.537  -3.385  0.00  0.00     0.024 H 
ATOM     53  H   LIG d   1       6.061 -10.254  -3.724  0.00  0.00     0.024 H 
ATOM     54  H   LIG d   1       6.950  -9.265  -4.906  0.00  0.00     0.024 H 
ENDBRANCH  48  51
ENDBRANCH  46  48
ENDBRANCH  45  46
ENDBRANCH  42  45
ENDBRANCH  40  42
ENDBRANCH   1  40
BRANCH   7  55
ATOM     55  C   LIG d   1       6.937  -4.061  -7.004  0.00  0.00    -0.059 C 
ATOM     56  H   LIG d   1       6.355  -4.538  -7.793  0.00  0.00     0.024 H 
ATOM     57  H   LIG d   1       6.618  -3.026  -6.891  0.00  0.00     0.024 H 
ATOM     58  H   LIG d   1       7.995  -4.091  -7.264  0.00  0.00     0.024 H 
ENDBRANCH   7  55
BRANCH  22  59
ATOM     59  C   LIG d   1       5.241  -0.664  -6.022  0.00  0.00    -0.056 C 
ATOM     60  H   LIG d   1       6.135  -1.165  -6.393  0.00  0.00     0.024 H 
ATOM     61  H   LIG d   1       4.385  -0.943  -6.636  0.00  0.00     0.024 H 
ATOM     62  H   LIG d   1       5.385   0.416  -6.068  0.00  0.00     0.024 H 
ENDBRANCH  22  59
TORSDOF 8
ENDMDL
MODEL 9
REMARK VINA RESULT:      -5.9      8.704     11.977
REMARK  8 active torsions:
REMARK  status: ('A' for Active; 'I' for Inactive)
REMARK    1  A    between atoms: C_1  and  C_2 
REMARK    2  A    between atoms: C_2  and  C_3 
REMARK    3  A    between atoms: C_3  and  O_5 
REMARK    4  A    between atoms: O_5  and  C_6 
REMARK    5  A    between atoms: C_6  and  C_7 
REMARK    6  A    between atoms: C_7  and  C_9 
REMARK    7  A    between atoms: C_15  and  C_32 
REMARK    8  A    between atoms: C_30  and  C_31 
ROOT
ATOM      1  C   LIG d   1       9.964   8.889  -2.293  0.00  0.00     0.027 C 
ATOM      2  H   LIG d   1       9.092   8.764  -1.819  0.00  0.00     0.038 H 
ATOM      3  C   LIG d   1       9.946  10.182  -3.143  0.00  0.00    -0.043 C 
ATOM      4  C   LIG d   1      10.091   9.736  -4.623  0.00  0.00    -0.049 C 
ATOM      5  C   LIG d   1       9.575   8.292  -4.599  0.00  0.00    -0.032 C 
ATOM      6  H   LIG d   1       8.487   8.279  -4.533  0.00  0.00     0.031 H 
ATOM      7  C   LIG d   1      10.206   7.756  -3.286  0.00  0.00    -0.019 C 
ATOM      8  C   LIG d   1       9.534   6.432  -2.977  0.00  0.00    -0.046 C 
ATOM      9  C   LIG d   1       9.916   5.458  -4.103  0.00  0.00    -0.049 C 
ATOM     10  C   LIG d   1       9.507   5.989  -5.473  0.00  0.00    -0.029 C 
ATOM     11  H   LIG d   1       8.419   6.030  -5.529  0.00  0.00     0.031 H 
ATOM     12  C   LIG d   1      10.045   7.405  -5.736  0.00  0.00    -0.034 C 
ATOM     13  H   LIG d   1      11.135   7.380  -5.763  0.00  0.00     0.031 H 
ATOM     14  C   LIG d   1       9.524   7.915  -7.064  0.00  0.00    -0.046 C 
ATOM     15  C   LIG d   1      10.079   7.048  -8.196  0.00  0.00    -0.030 C 
ATOM     16  C   LIG d   1       9.733   5.597  -7.916  0.00  0.00    -0.060 C 
ATOM     17  C   LIG d   1       9.199   4.883  -8.906  0.00  0.00    -0.019 C 
ATOM     18  C   LIG d   1       8.881   3.466  -8.701  0.00  0.00     0.156 C 
ATOM     19  O   LIG d   1       8.084   2.883  -9.406  0.00  0.00    -0.293 OA
ATOM     20  C   LIG d   1       9.598   2.768  -7.563  0.00  0.00     0.011 C 
ATOM     21  C   LIG d   1       9.458   3.651  -6.323  0.00  0.00    -0.037 C 
ATOM     22  C   LIG d   1      10.029   5.038  -6.558  0.00  0.00    -0.007 C 
ATOM     23  H   LIG d   1       9.002  10.710  -3.003  0.00  0.00     0.027 H 
ATOM     24  H   LIG d   1      10.779  10.826  -2.863  0.00  0.00     0.027 H 
ATOM     25  H   LIG d   1       9.474  10.354  -5.276  0.00  0.00     0.027 H 
ATOM     26  H   LIG d   1      11.135   9.767  -4.935  0.00  0.00     0.027 H 
ATOM     27  H   LIG d   1       9.889   6.049  -2.020  0.00  0.00     0.027 H 
ATOM     28  H   LIG d   1       8.452   6.561  -2.947  0.00  0.00     0.027 H 
ATOM     29  H   LIG d   1      10.994   5.303  -4.089  0.00  0.00     0.027 H 
ATOM     30  H   LIG d   1       9.419   4.503  -3.931  0.00  0.00     0.027 H 
ATOM     31  H   LIG d   1       9.837   8.949  -7.209  0.00  0.00     0.027 H 
ATOM     32  H   LIG d   1       8.435   7.862  -7.065  0.00  0.00     0.027 H 
ATOM     33  H   LIG d   1      11.162   7.164  -8.247  0.00  0.00     0.031 H 
ATOM     34  H   LIG d   1       9.632   7.354  -9.143  0.00  0.00     0.031 H 
ATOM     35  H   LIG d   1       9.001   5.349  -9.860  0.00  0.00     0.065 H 
ATOM     36  H   LIG d   1      10.562   2.645  -7.802  0.00  0.00     0.035 H 
ATOM     37  H   LIG d   1       9.142   1.795  -7.378  0.00  0.00     0.035 H 
ATOM     38  H   LIG d   1       9.987   3.184  -5.492  0.00  0.00     0.028 H 
ATOM     39  H   LIG d   1       8.402   3.738  -6.067  0.00  0.00     0.028 H 
ENDROOT
BRANCH   1  40
ATOM     40  C   LIG d   1      11.081   8.943  -1.282  0.00  0.00     0.174 C 
ATOM     41  O   LIG d   1      12.179   9.319  -1.617  0.00  0.00    -0.293 OA
BRANCH  40  42
ATOM     42  C   LIG d   1      10.828   8.529   0.144  0.00  0.00     0.150 C 
ATOM     43  H   LIG d   1      10.164   9.152   0.559  0.00  0.00     0.078 H 
ATOM     44  H   LIG d   1      11.762   8.566   0.705  0.00  0.00     0.078 H 
BRANCH  42  45
ATOM     45  O   LIG d   1      10.303   7.176   0.169  0.00  0.00    -0.457 OA
BRANCH  45  46
ATOM     46  C   LIG d   1      11.121   6.213   0.622  0.00  0.00     0.307 C 
ATOM     47  O   LIG d   1      11.276   6.062   1.811  0.00  0.00    -0.251 OA
BRANCH  46  48
ATOM     48  C   LIG d   1      11.843   5.316  -0.351  0.00  0.00     0.042 C 
ATOM     49  H   LIG d   1      11.897   4.307   0.058  0.00  0.00     0.037 H 
ATOM     50  H   LIG d   1      11.301   5.297  -1.296  0.00  0.00     0.037 H 
BRANCH  48  51
ATOM     51  C   LIG d   1      13.257   5.850  -0.584  0.00  0.00    -0.055 C 
ATOM     52  H   LIG d   1      13.387   6.784  -0.039  0.00  0.00     0.024 H 
ATOM     53  H   LIG d   1      13.984   5.119  -0.232  0.00  0.00     0.024 H 
ATOM     54  H   LIG d   1      13.406   6.027  -1.650  0.00  0.00     0.024 H 
ENDBRANCH  48  51
ENDBRANCH  46  48
ENDBRANCH  45  46
ENDBRANCH  42  45
ENDBRANCH  40  42
ENDBRANCH   1  40
BRANCH   7  55
ATOM     55  C   LIG d   1      11.709   7.547  -3.479  0.00  0.00    -0.059 C 
ATOM     56  H   LIG d   1      12.050   8.137  -4.330  0.00  0.00     0.024 H 
ATOM     57  H   LIG d   1      12.238   7.865  -2.582  0.00  0.00     0.024 H 
ATOM     58  H   LIG d   1      11.908   6.492  -3.666  0.00  0.00     0.024 H 
ENDBRANCH   7  55
BRANCH  22  59
ATOM     59  C   LIG d   1      11.550   4.954  -6.418  0.00  0.00    -0.056 C 
ATOM     60  H   LIG d   1      11.886   5.669  -5.667  0.00  0.00     0.024 H 
ATOM     61  H   LIG d   1      11.830   3.946  -6.112  0.00  0.00     0.024 H 
ATOM     62  H   LIG d   1      12.016   5.186  -7.375  0.00  0.00     0.024 H 
ENDBRANCH  22  59
TORSDOF 8
ENDMDL
MODEL 10
REMARK VINA RESULT:      -5.9      4.797      9.238
REMARK  8 active torsions:
REMARK  status: ('A' for Active; 'I' for Inactive)
REMARK    1  A    between atoms: C_1  and  C_2 
REMARK    2  A    between atoms: C_2  and  C_3 
REMARK    3  A    between atoms: C_3  and  O_5 
REMARK    4  A    between atoms: O_5  and  C_6 
REMARK    5  A    between atoms: C_6  and  C_7 
REMARK    6  A    between atoms: C_7  and  C_9 
REMARK    7  A    between atoms: C_15  and  C_32 
REMARK    8  A    between atoms: C_30  and  C_31 
ROOT
ATOM      1  C   LIG d   1       7.210  -6.164  -5.792  0.00  0.00     0.027 C 
ATOM      2  H   LIG d   1       6.754  -6.820  -5.192  0.00  0.00     0.038 H 
ATOM      3  C   LIG d   1       8.659  -5.899  -5.315  0.00  0.00    -0.043 C 
ATOM      4  C   LIG d   1       8.721  -4.400  -4.914  0.00  0.00    -0.049 C 
ATOM      5  C   LIG d   1       7.259  -4.069  -4.595  0.00  0.00    -0.032 C 
ATOM      6  H   LIG d   1       6.979  -4.483  -3.626  0.00  0.00     0.031 H 
ATOM      7  C   LIG d   1       6.513  -4.808  -5.738  0.00  0.00    -0.019 C 
ATOM      8  C   LIG d   1       5.040  -4.819  -5.375  0.00  0.00    -0.046 C 
ATOM      9  C   LIG d   1       4.562  -3.358  -5.381  0.00  0.00    -0.049 C 
ATOM     10  C   LIG d   1       5.371  -2.494  -4.419  0.00  0.00    -0.029 C 
ATOM     11  H   LIG d   1       5.177  -2.821  -3.397  0.00  0.00     0.031 H 
ATOM     12  C   LIG d   1       6.884  -2.600  -4.669  0.00  0.00    -0.034 C 
ATOM     13  H   LIG d   1       7.118  -2.206  -5.658  0.00  0.00     0.031 H 
ATOM     14  C   LIG d   1       7.636  -1.802  -3.622  0.00  0.00    -0.046 C 
ATOM     15  C   LIG d   1       7.298  -0.318  -3.775  0.00  0.00    -0.030 C 
ATOM     16  C   LIG d   1       5.791  -0.151  -3.711  0.00  0.00    -0.060 C 
ATOM     17  C   LIG d   1       5.304   0.793  -2.907  0.00  0.00    -0.019 C 
ATOM     18  C   LIG d   1       3.857   1.024  -2.836  0.00  0.00     0.156 C 
ATOM     19  O   LIG d   1       3.346   1.585  -1.889  0.00  0.00    -0.293 OA
ATOM     20  C   LIG d   1       3.033   0.524  -4.006  0.00  0.00     0.011 C 
ATOM     21  C   LIG d   1       3.448  -0.922  -4.274  0.00  0.00    -0.037 C 
ATOM     22  C   LIG d   1       4.934  -1.032  -4.567  0.00  0.00    -0.007 C 
ATOM     23  H   LIG d   1       8.890  -6.526  -4.454  0.00  0.00     0.027 H 
ATOM     24  H   LIG d   1       9.361  -6.100  -6.124  0.00  0.00     0.027 H 
ATOM     25  H   LIG d   1       9.349  -4.261  -4.034  0.00  0.00     0.027 H 
ATOM     26  H   LIG d   1       9.081  -3.793  -5.745  0.00  0.00     0.027 H 
ATOM     27  H   LIG d   1       4.480  -5.396  -6.111  0.00  0.00     0.027 H 
ATOM     28  H   LIG d   1       4.905  -5.251  -4.384  0.00  0.00     0.027 H 
ATOM     29  H   LIG d   1       4.660  -2.956  -6.389  0.00  0.00     0.027 H 
ATOM     30  H   LIG d   1       3.512  -3.327  -5.088  0.00  0.00     0.027 H 
ATOM     31  H   LIG d   1       8.709  -1.948  -3.751  0.00  0.00     0.027 H 
ATOM     32  H   LIG d   1       7.339  -2.144  -2.631  0.00  0.00     0.027 H 
ATOM     33  H   LIG d   1       7.667   0.044  -4.734  0.00  0.00     0.031 H 
ATOM     34  H   LIG d   1       7.763   0.247  -2.966  0.00  0.00     0.031 H 
ATOM     35  H   LIG d   1       5.976   1.389  -2.307  0.00  0.00     0.065 H 
ATOM     36  H   LIG d   1       3.210   1.097  -4.807  0.00  0.00     0.035 H 
ATOM     37  H   LIG d   1       1.972   0.566  -3.757  0.00  0.00     0.035 H 
ATOM     38  H   LIG d   1       2.887  -1.301  -5.129  0.00  0.00     0.028 H 
ATOM     39  H   LIG d   1       3.211  -1.527  -3.399  0.00  0.00     0.028 H 
ENDROOT
BRANCH   1  40
ATOM     40  C   LIG d   1       7.212  -6.692  -7.204  0.00  0.00     0.174 C 
ATOM     41  O   LIG d   1       8.172  -6.510  -7.915  0.00  0.00    -0.293 OA
BRANCH  40  42
ATOM     42  C   LIG d   1       6.019  -7.448  -7.728  0.00  0.00     0.150 C 
ATOM     43  H   LIG d   1       5.299  -7.458  -7.034  0.00  0.00     0.078 H 
ATOM     44  H   LIG d   1       6.312  -8.472  -7.962  0.00  0.00     0.078 H 
BRANCH  42  45
ATOM     45  O   LIG d   1       5.525  -6.800  -8.929  0.00  0.00    -0.457 OA
BRANCH  45  46
ATOM     46  C   LIG d   1       4.342  -6.172  -8.840  0.00  0.00     0.307 C 
ATOM     47  O   LIG d   1       3.502  -6.573  -8.069  0.00  0.00    -0.251 OA
BRANCH  46  48
ATOM     48  C   LIG d   1       4.061  -4.964  -9.698  0.00  0.00     0.042 C 
ATOM     49  H   LIG d   1       4.997  -4.591 -10.115  0.00  0.00     0.037 H 
ATOM     50  H   LIG d   1       3.388  -5.244 -10.507  0.00  0.00     0.037 H 
BRANCH  48  51
ATOM     51  C   LIG d   1       3.410  -3.874  -8.846  0.00  0.00    -0.055 C 
ATOM     52  H   LIG d   1       2.394  -3.698  -9.196  0.00  0.00     0.024 H 
ATOM     53  H   LIG d   1       3.386  -4.192  -7.804  0.00  0.00     0.024 H 
ATOM     54  H   LIG d   1       3.988  -2.953  -8.931  0.00  0.00     0.024 H 
ENDBRANCH  48  51
ENDBRANCH  46  48
ENDBRANCH  45  46
ENDBRANCH  42  45
ENDBRANCH  40  42
ENDBRANCH   1  40
BRANCH   7  55
ATOM     55  C   LIG d   1       6.720  -4.064  -7.059  0.00  0.00    -0.059 C 
ATOM     56  H   LIG d   1       5.750  -3.805  -7.485  0.00  0.00     0.024 H 
ATOM     57  H   LIG d   1       7.292  -3.156  -6.878  0.00  0.00     0.024 H 
ATOM     58  H   LIG d   1       7.262  -4.704  -7.754  0.00  0.00     0.024 H 
ENDBRANCH   7  55
BRANCH  22  59
ATOM     59  C   LIG d   1       5.160  -0.617  -6.023  0.00  0.00    -0.056 C 
ATOM     60  H   LIG d   1       4.248  -0.172  -6.419  0.00  0.00     0.024 H 
ATOM     61  H   LIG d   1       5.972   0.109  -6.071  0.00  0.00     0.024 H 
ATOM     62  H   LIG d   1       5.422  -1.495  -6.613  0.00  0.00     0.024 H 
ENDBRANCH  22  59
TORSDOF 8
ENDMDL
