MODEL 1
REMARK VINA RESULT:      -7.3      0.000      0.000
REMARK  3 active torsions:
REMARK  status: ('A' for Active; 'I' for Inactive)
REMARK    1  A    between atoms: C_4  and  C_7 
REMARK    2  A    between atoms: C_15  and  C_22 
REMARK    3  A    between atoms: C_18  and  N_21 
ROOT
ATOM      1  C   LIG d   1       4.739  -8.290  -5.937  0.00  0.00     0.072 A 
ATOM      2  C   LIG d   1       4.567  -9.009  -7.132  0.00  0.00    -0.035 A 
ATOM      3  C   LIG d   1       4.237  -8.364  -8.284  0.00  0.00    -0.051 A 
ATOM      4  C   LIG d   1       4.093  -6.957  -8.246  0.00  0.00     0.003 A 
ATOM      5  C   LIG d   1       3.775  -6.236  -9.394  0.00  0.00    -0.043 A 
ATOM      6  C   LIG d   1       3.640  -4.851  -9.326  0.00  0.00     0.003 A 
ATOM      7  C   LIG d   1       3.317  -4.092 -10.475  0.00  0.00    -0.051 A 
ATOM      8  C   LIG d   1       3.200  -2.743 -10.343  0.00  0.00    -0.035 A 
ATOM      9  C   LIG d   1       3.395  -2.131  -9.093  0.00  0.00     0.072 A 
ATOM     10  N   LIG d   1       3.696  -2.819  -8.013  0.00  0.00    -0.245 NA
ATOM     11  C   LIG d   1       3.831  -4.150  -8.054  0.00  0.00     0.094 A 
ATOM     12  C   LIG d   1       4.151  -4.874  -6.896  0.00  0.00     0.077 A 
ATOM     13  C   LIG d   1       4.292  -6.268  -6.968  0.00  0.00     0.094 A 
ATOM     14  N   LIG d   1       4.604  -6.982  -5.879  0.00  0.00    -0.245 NA
ATOM     15  H   LIG d   1       4.688 -10.082  -7.135  0.00  0.00     0.064 H 
ATOM     16  H   LIG d   1       4.103  -8.911  -9.206  0.00  0.00     0.062 H 
ATOM     17  H   LIG d   1       3.633  -6.750 -10.335  0.00  0.00     0.063 H 
ATOM     18  H   LIG d   1       3.168  -4.570 -11.432  0.00  0.00     0.062 H 
ATOM     19  H   LIG d   1       2.954  -2.141 -11.204  0.00  0.00     0.064 H 
ENDROOT
BRANCH   1  20
ATOM     20  C   LIG d   1       5.085  -9.030  -4.700  0.00  0.00     0.000 A 
ATOM     21  C   LIG d   1       6.397  -9.031  -4.228  0.00  0.00    -0.053 A 
ATOM     22  C   LIG d   1       6.713  -9.722  -3.076  0.00  0.00    -0.061 A 
ATOM     23  H   LIG d   1       7.164  -8.492  -4.764  0.00  0.00     0.062 H 
ATOM     24  C   LIG d   1       5.730 -10.413  -2.390  0.00  0.00    -0.062 A 
ATOM     25  H   LIG d   1       7.728  -9.723  -2.710  0.00  0.00     0.062 H 
ATOM     26  C   LIG d   1       4.427 -10.417  -2.853  0.00  0.00    -0.061 A 
ATOM     27  H   LIG d   1       5.982 -10.953  -1.489  0.00  0.00     0.062 H 
ATOM     28  C   LIG d   1       4.098  -9.724  -4.001  0.00  0.00    -0.053 A 
ATOM     29  H   LIG d   1       3.665 -10.957  -2.314  0.00  0.00     0.062 H 
ATOM     30  H   LIG d   1       3.079  -9.724  -4.360  0.00  0.00     0.062 H 
ENDBRANCH   1  20
BRANCH  12  31
ATOM     31  N   LIG d   1       4.333  -4.214  -5.685  0.00  0.00    -0.355 N 
ATOM     32  H   LIG d   1       3.947  -4.577  -4.872  0.00  0.00     0.142 HD
ATOM     33  H   LIG d   1       4.848  -3.393  -5.653  0.00  0.00     0.142 HD
ENDBRANCH  12  31
BRANCH   9  34
ATOM     34  C   LIG d   1       3.258  -0.657  -8.991  0.00  0.00     0.000 A 
ATOM     35  C   LIG d   1       3.492   0.146 -10.106  0.00  0.00    -0.053 A 
ATOM     36  C   LIG d   1       3.362   1.516 -10.005  0.00  0.00    -0.061 A 
ATOM     37  H   LIG d   1       3.774  -0.303 -11.047  0.00  0.00     0.062 H 
ATOM     38  C   LIG d   1       3.001   2.093  -8.800  0.00  0.00    -0.062 A 
ATOM     39  H   LIG d   1       3.544   2.140 -10.868  0.00  0.00     0.062 H 
ATOM     40  C   LIG d   1       2.768   1.300  -7.690  0.00  0.00    -0.061 A 
ATOM     41  H   LIG d   1       2.901   3.165  -8.726  0.00  0.00     0.062 H 
ATOM     42  C   LIG d   1       2.889  -0.071  -7.781  0.00  0.00    -0.053 A 
ATOM     43  H   LIG d   1       2.486   1.756  -6.752  0.00  0.00     0.062 H 
ATOM     44  H   LIG d   1       2.702  -0.689  -6.915  0.00  0.00     0.062 H 
ENDBRANCH   9  34
TORSDOF 3
ENDMDL
MODEL 2
REMARK VINA RESULT:      -7.3      0.076      8.816
REMARK  3 active torsions:
REMARK  status: ('A' for Active; 'I' for Inactive)
REMARK    1  A    between atoms: C_4  and  C_7 
REMARK    2  A    between atoms: C_15  and  C_22 
REMARK    3  A    between atoms: C_18  and  N_21 
ROOT
ATOM      1  C   LIG d   1       3.404  -2.146  -9.038  0.00  0.00     0.072 A 
ATOM      2  C   LIG d   1       3.240  -2.753 -10.295  0.00  0.00    -0.035 A 
ATOM      3  C   LIG d   1       3.393  -4.097 -10.438  0.00  0.00    -0.051 A 
ATOM      4  C   LIG d   1       3.703  -4.862  -9.288  0.00  0.00     0.003 A 
ATOM      5  C   LIG d   1       3.856  -6.244  -9.364  0.00  0.00    -0.043 A 
ATOM      6  C   LIG d   1       4.160  -6.970  -8.214  0.00  0.00     0.003 A 
ATOM      7  C   LIG d   1       4.321  -8.375  -8.260  0.00  0.00    -0.051 A 
ATOM      8  C   LIG d   1       4.618  -9.026  -7.103  0.00  0.00    -0.035 A 
ATOM      9  C   LIG d   1       4.759  -8.313  -5.900  0.00  0.00     0.072 A 
ATOM     10  N   LIG d   1       4.613  -7.006  -5.837  0.00  0.00    -0.245 NA
ATOM     11  C   LIG d   1       4.321  -6.288  -6.928  0.00  0.00     0.094 A 
ATOM     12  C   LIG d   1       4.168  -4.895  -6.849  0.00  0.00     0.077 A 
ATOM     13  C   LIG d   1       3.856  -4.167  -8.006  0.00  0.00     0.094 A 
ATOM     14  N   LIG d   1       3.698  -2.838  -7.958  0.00  0.00    -0.245 NA
ATOM     15  H   LIG d   1       2.998  -2.147 -11.156  0.00  0.00     0.064 H 
ATOM     16  H   LIG d   1       3.269  -4.570 -11.401  0.00  0.00     0.062 H 
ATOM     17  H   LIG d   1       3.738  -6.751 -10.311  0.00  0.00     0.063 H 
ATOM     18  H   LIG d   1       4.212  -8.916  -9.188  0.00  0.00     0.062 H 
ATOM     19  H   LIG d   1       4.746 -10.098  -7.110  0.00  0.00     0.064 H 
ENDROOT
BRANCH   1  20
ATOM     20  C   LIG d   1       3.242  -0.677  -8.926  0.00  0.00     0.000 A 
ATOM     21  C   LIG d   1       2.930  -0.100  -7.697  0.00  0.00    -0.053 A 
ATOM     22  C   LIG d   1       2.779   1.269  -7.597  0.00  0.00    -0.061 A 
ATOM     23  H   LIG d   1       2.806  -0.722  -6.823  0.00  0.00     0.062 H 
ATOM     24  C   LIG d   1       2.938   2.067  -8.717  0.00  0.00    -0.062 A 
ATOM     25  H   LIG d   1       2.538   1.717  -6.646  0.00  0.00     0.062 H 
ATOM     26  C   LIG d   1       3.247   1.499  -9.940  0.00  0.00    -0.061 A 
ATOM     27  H   LIG d   1       2.819   3.137  -8.636  0.00  0.00     0.062 H 
ATOM     28  C   LIG d   1       3.405   0.133 -10.049  0.00  0.00    -0.053 A 
ATOM     29  H   LIG d   1       3.369   2.127 -10.810  0.00  0.00     0.062 H 
ATOM     30  H   LIG d   1       3.650  -0.309 -11.004  0.00  0.00     0.062 H 
ENDBRANCH   1  20
BRANCH  12  31
ATOM     31  N   LIG d   1       4.320  -4.242  -5.631  0.00  0.00    -0.355 N 
ATOM     32  H   LIG d   1       4.116  -4.706  -4.803  0.00  0.00     0.142 HD
ATOM     33  H   LIG d   1       4.631  -3.324  -5.608  0.00  0.00     0.142 HD
ENDBRANCH  12  31
BRANCH   9  34
ATOM     34  C   LIG d   1       5.083  -9.059  -4.661  0.00  0.00     0.000 A 
ATOM     35  C   LIG d   1       4.083  -9.756  -3.982  0.00  0.00    -0.053 A 
ATOM     36  C   LIG d   1       4.390 -10.449  -2.829  0.00  0.00    -0.061 A 
ATOM     37  H   LIG d   1       3.070  -9.752  -4.357  0.00  0.00     0.062 H 
ATOM     38  C   LIG d   1       5.687 -10.454  -2.346  0.00  0.00    -0.062 A 
ATOM     39  H   LIG d   1       3.616 -10.988  -2.302  0.00  0.00     0.062 H 
ATOM     40  C   LIG d   1       6.682  -9.765  -3.016  0.00  0.00    -0.061 A 
ATOM     41  H   LIG d   1       5.922 -10.998  -1.443  0.00  0.00     0.062 H 
ATOM     42  C   LIG d   1       6.389  -9.074  -4.172  0.00  0.00    -0.053 A 
ATOM     43  H   LIG d   1       7.693  -9.774  -2.634  0.00  0.00     0.062 H 
ATOM     44  H   LIG d   1       7.168  -8.540  -4.697  0.00  0.00     0.062 H 
ENDBRANCH   9  34
TORSDOF 3
ENDMDL
MODEL 3
REMARK VINA RESULT:      -7.3     14.168     17.119
REMARK  3 active torsions:
REMARK  status: ('A' for Active; 'I' for Inactive)
REMARK    1  A    between atoms: C_4  and  C_7 
REMARK    2  A    between atoms: C_15  and  C_22 
REMARK    3  A    between atoms: C_18  and  N_21 
ROOT
ATOM      1  C   LIG d   1      11.751   8.155   4.309  0.00  0.00     0.072 A 
ATOM      2  C   LIG d   1      12.110   9.433   3.848  0.00  0.00    -0.035 A 
ATOM      3  C   LIG d   1      12.122   9.707   2.515  0.00  0.00    -0.051 A 
ATOM      4  C   LIG d   1      11.748   8.681   1.617  0.00  0.00     0.003 A 
ATOM      5  C   LIG d   1      11.722   8.903   0.242  0.00  0.00    -0.043 A 
ATOM      6  C   LIG d   1      11.347   7.873  -0.618  0.00  0.00     0.003 A 
ATOM      7  C   LIG d   1      11.312   8.068  -2.019  0.00  0.00    -0.051 A 
ATOM      8  C   LIG d   1      10.938   7.023  -2.804  0.00  0.00    -0.035 A 
ATOM      9  C   LIG d   1      10.599   5.786  -2.231  0.00  0.00     0.072 A 
ATOM     10  N   LIG d   1      10.626   5.583  -0.930  0.00  0.00    -0.245 NA
ATOM     11  C   LIG d   1      10.982   6.558  -0.084  0.00  0.00     0.094 A 
ATOM     12  C   LIG d   1      11.007   6.332   1.300  0.00  0.00     0.077 A 
ATOM     13  C   LIG d   1      11.378   7.372   2.164  0.00  0.00     0.094 A 
ATOM     14  N   LIG d   1      11.405   7.184   3.490  0.00  0.00    -0.245 NA
ATOM     15  H   LIG d   1      12.387  10.200   4.555  0.00  0.00     0.064 H 
ATOM     16  H   LIG d   1      12.398  10.687   2.154  0.00  0.00     0.062 H 
ATOM     17  H   LIG d   1      11.991   9.871  -0.155  0.00  0.00     0.063 H 
ATOM     18  H   LIG d   1      11.575   9.022  -2.453  0.00  0.00     0.062 H 
ATOM     19  H   LIG d   1      10.903   7.145  -3.877  0.00  0.00     0.064 H 
ENDROOT
BRANCH   1  20
ATOM     20  C   LIG d   1      11.763   7.891   5.768  0.00  0.00     0.000 A 
ATOM     21  C   LIG d   1      10.752   7.127   6.349  0.00  0.00    -0.053 A 
ATOM     22  C   LIG d   1      10.768   6.885   7.707  0.00  0.00    -0.061 A 
ATOM     23  H   LIG d   1       9.958   6.726   5.737  0.00  0.00     0.062 H 
ATOM     24  C   LIG d   1      11.786   7.398   8.492  0.00  0.00    -0.062 A 
ATOM     25  H   LIG d   1       9.986   6.294   8.159  0.00  0.00     0.062 H 
ATOM     26  C   LIG d   1      12.791   8.158   7.921  0.00  0.00    -0.061 A 
ATOM     27  H   LIG d   1      11.794   7.207   9.555  0.00  0.00     0.062 H 
ATOM     28  C   LIG d   1      12.788   8.401   6.563  0.00  0.00    -0.053 A 
ATOM     29  H   LIG d   1      13.583   8.555   8.538  0.00  0.00     0.062 H 
ATOM     30  H   LIG d   1      13.576   8.991   6.117  0.00  0.00     0.062 H 
ENDBRANCH   1  20
BRANCH  12  31
ATOM     31  N   LIG d   1      10.661   5.086   1.812  0.00  0.00    -0.355 N 
ATOM     32  H   LIG d   1       9.970   4.559   1.381  0.00  0.00     0.142 HD
ATOM     33  H   LIG d   1      11.113   4.742   2.598  0.00  0.00     0.142 HD
ENDBRANCH  12  31
BRANCH   9  34
ATOM     34  C   LIG d   1      10.196   4.671  -3.122  0.00  0.00     0.000 A 
ATOM     35  C   LIG d   1       9.639   4.940  -4.371  0.00  0.00    -0.053 A 
ATOM     36  C   LIG d   1       9.267   3.899  -5.197  0.00  0.00    -0.061 A 
ATOM     37  H   LIG d   1       9.498   5.962  -4.692  0.00  0.00     0.062 H 
ATOM     38  C   LIG d   1       9.446   2.589  -4.787  0.00  0.00    -0.062 A 
ATOM     39  H   LIG d   1       8.834   4.107  -6.164  0.00  0.00     0.062 H 
ATOM     40  C   LIG d   1       9.999   2.317  -3.548  0.00  0.00    -0.061 A 
ATOM     41  H   LIG d   1       9.153   1.778  -5.436  0.00  0.00     0.062 H 
ATOM     42  C   LIG d   1      10.380   3.349  -2.717  0.00  0.00    -0.053 A 
ATOM     43  H   LIG d   1      10.137   1.292  -3.234  0.00  0.00     0.062 H 
ATOM     44  H   LIG d   1      10.816   3.135  -1.752  0.00  0.00     0.062 H 
ENDBRANCH   9  34
TORSDOF 3
ENDMDL
MODEL 4
REMARK VINA RESULT:      -7.2     14.285     17.606
REMARK  3 active torsions:
REMARK  status: ('A' for Active; 'I' for Inactive)
REMARK    1  A    between atoms: C_4  and  C_7 
REMARK    2  A    between atoms: C_15  and  C_22 
REMARK    3  A    between atoms: C_18  and  N_21 
ROOT
ATOM      1  C   LIG d   1      10.699   5.979  -2.190  0.00  0.00     0.072 A 
ATOM      2  C   LIG d   1      11.066   7.226  -2.726  0.00  0.00    -0.035 A 
ATOM      3  C   LIG d   1      11.424   8.251  -1.907  0.00  0.00    -0.051 A 
ATOM      4  C   LIG d   1      11.434   8.020  -0.511  0.00  0.00     0.003 A 
ATOM      5  C   LIG d   1      11.808   9.022   0.381  0.00  0.00    -0.043 A 
ATOM      6  C   LIG d   1      11.809   8.765   1.750  0.00  0.00     0.003 A 
ATOM      7  C   LIG d   1      12.183   9.763   2.680  0.00  0.00    -0.051 A 
ATOM      8  C   LIG d   1      12.164   9.449   4.003  0.00  0.00    -0.035 A 
ATOM      9  C   LIG d   1      11.779   8.165   4.425  0.00  0.00     0.072 A 
ATOM     10  N   LIG d   1      11.426   7.223   3.576  0.00  0.00    -0.245 NA
ATOM     11  C   LIG d   1      11.418   7.447   2.256  0.00  0.00     0.094 A 
ATOM     12  C   LIG d   1      11.041   6.436   1.360  0.00  0.00     0.077 A 
ATOM     13  C   LIG d   1      11.046   6.695  -0.018  0.00  0.00     0.094 A 
ATOM     14  N   LIG d   1      10.696   5.745  -0.895  0.00  0.00    -0.245 NA
ATOM     15  H   LIG d   1      11.054   7.374  -3.796  0.00  0.00     0.064 H 
ATOM     16  H   LIG d   1      11.706   9.212  -2.312  0.00  0.00     0.062 H 
ATOM     17  H   LIG d   1      12.097   9.996   0.011  0.00  0.00     0.063 H 
ATOM     18  H   LIG d   1      12.478  10.748   2.348  0.00  0.00     0.062 H 
ATOM     19  H   LIG d   1      12.445  10.192   4.734  0.00  0.00     0.064 H 
ENDROOT
BRANCH   1  20
ATOM     20  C   LIG d   1      10.302   4.891  -3.116  0.00  0.00     0.000 A 
ATOM     21  C   LIG d   1       9.911   5.190  -4.420  0.00  0.00    -0.053 A 
ATOM     22  C   LIG d   1       9.542   4.174  -5.278  0.00  0.00    -0.061 A 
ATOM     23  H   LIG d   1       9.897   6.216  -4.759  0.00  0.00     0.062 H 
ATOM     24  C   LIG d   1       9.560   2.860  -4.844  0.00  0.00    -0.062 A 
ATOM     25  H   LIG d   1       9.239   4.404  -6.287  0.00  0.00     0.062 H 
ATOM     26  C   LIG d   1       9.946   2.557  -3.550  0.00  0.00    -0.061 A 
ATOM     27  H   LIG d   1       9.269   2.067  -5.517  0.00  0.00     0.062 H 
ATOM     28  C   LIG d   1      10.322   3.565  -2.687  0.00  0.00    -0.053 A 
ATOM     29  H   LIG d   1       9.958   1.530  -3.218  0.00  0.00     0.062 H 
ATOM     30  H   LIG d   1      10.627   3.328  -1.678  0.00  0.00     0.062 H 
ENDBRANCH   1  20
BRANCH  12  31
ATOM     31  N   LIG d   1      10.668   5.182   1.835  0.00  0.00    -0.355 N 
ATOM     32  H   LIG d   1      10.917   4.910   2.732  0.00  0.00     0.142 HD
ATOM     33  H   LIG d   1      10.156   4.583   1.271  0.00  0.00     0.142 HD
ENDBRANCH  12  31
BRANCH   9  34
ATOM     34  C   LIG d   1      11.770   7.862   5.877  0.00  0.00     0.000 A 
ATOM     35  C   LIG d   1      12.747   8.406   6.711  0.00  0.00    -0.053 A 
ATOM     36  C   LIG d   1      12.734   8.122   8.061  0.00  0.00    -0.061 A 
ATOM     37  H   LIG d   1      13.512   9.048   6.300  0.00  0.00     0.062 H 
ATOM     38  C   LIG d   1      11.754   7.299   8.588  0.00  0.00    -0.062 A 
ATOM     39  H   LIG d   1      13.491   8.541   8.707  0.00  0.00     0.062 H 
ATOM     40  C   LIG d   1      10.783   6.757   7.765  0.00  0.00    -0.061 A 
ATOM     41  H   LIG d   1      11.748   7.079   9.645  0.00  0.00     0.062 H 
ATOM     42  C   LIG d   1      10.782   7.039   6.415  0.00  0.00    -0.053 A 
ATOM     43  H   LIG d   1      10.020   6.116   8.183  0.00  0.00     0.062 H 
ATOM     44  H   LIG d   1      10.020   6.619   5.775  0.00  0.00     0.062 H 
ENDBRANCH   9  34
TORSDOF 3
ENDMDL
MODEL 5
REMARK VINA RESULT:      -7.1      4.111      8.000
REMARK  3 active torsions:
REMARK  status: ('A' for Active; 'I' for Inactive)
REMARK    1  A    between atoms: C_4  and  C_7 
REMARK    2  A    between atoms: C_15  and  C_22 
REMARK    3  A    between atoms: C_18  and  N_21 
ROOT
ATOM      1  C   LIG d   1       5.703  -2.259  -3.995  0.00  0.00     0.072 A 
ATOM      2  C   LIG d   1       7.080  -2.448  -3.785  0.00  0.00    -0.035 A 
ATOM      3  C   LIG d   1       7.718  -3.526  -4.315  0.00  0.00    -0.051 A 
ATOM      4  C   LIG d   1       6.963  -4.435  -5.094  0.00  0.00     0.003 A 
ATOM      5  C   LIG d   1       7.561  -5.548  -5.679  0.00  0.00    -0.043 A 
ATOM      6  C   LIG d   1       6.791  -6.425  -6.441  0.00  0.00     0.003 A 
ATOM      7  C   LIG d   1       7.370  -7.565  -7.048  0.00  0.00    -0.051 A 
ATOM      8  C   LIG d   1       6.565  -8.382  -7.779  0.00  0.00    -0.035 A 
ATOM      9  C   LIG d   1       5.198  -8.093  -7.922  0.00  0.00     0.072 A 
ATOM     10  N   LIG d   1       4.640  -7.039  -7.366  0.00  0.00    -0.245 NA
ATOM     11  C   LIG d   1       5.359  -6.182  -6.629  0.00  0.00     0.094 A 
ATOM     12  C   LIG d   1       4.755  -5.061  -6.041  0.00  0.00     0.077 A 
ATOM     13  C   LIG d   1       5.532  -4.177  -5.279  0.00  0.00     0.094 A 
ATOM     14  N   LIG d   1       4.982  -3.095  -4.711  0.00  0.00    -0.245 NA
ATOM     15  H   LIG d   1       7.634  -1.736  -3.191  0.00  0.00     0.064 H 
ATOM     16  H   LIG d   1       8.776  -3.677  -4.157  0.00  0.00     0.062 H 
ATOM     17  H   LIG d   1       8.617  -5.731  -5.542  0.00  0.00     0.063 H 
ATOM     18  H   LIG d   1       8.422  -7.780  -6.933  0.00  0.00     0.062 H 
ATOM     19  H   LIG d   1       6.982  -9.258  -8.253  0.00  0.00     0.064 H 
ENDROOT
BRANCH   1  20
ATOM     20  C   LIG d   1       5.041  -1.079  -3.389  0.00  0.00     0.000 A 
ATOM     21  C   LIG d   1       3.656  -1.056  -3.237  0.00  0.00    -0.053 A 
ATOM     22  C   LIG d   1       3.044   0.045  -2.673  0.00  0.00    -0.061 A 
ATOM     23  H   LIG d   1       3.062  -1.898  -3.560  0.00  0.00     0.062 H 
ATOM     24  C   LIG d   1       3.805   1.125  -2.259  0.00  0.00    -0.062 A 
ATOM     25  H   LIG d   1       1.972   0.065  -2.554  0.00  0.00     0.062 H 
ATOM     26  C   LIG d   1       5.180   1.108  -2.408  0.00  0.00    -0.061 A 
ATOM     27  H   LIG d   1       3.323   1.985  -1.819  0.00  0.00     0.062 H 
ATOM     28  C   LIG d   1       5.802   0.009  -2.966  0.00  0.00    -0.053 A 
ATOM     29  H   LIG d   1       5.768   1.952  -2.084  0.00  0.00     0.062 H 
ATOM     30  H   LIG d   1       6.877  -0.005  -3.079  0.00  0.00     0.062 H 
ENDBRANCH   1  20
BRANCH  12  31
ATOM     31  N   LIG d   1       3.395  -4.826  -6.215  0.00  0.00    -0.355 N 
ATOM     32  H   LIG d   1       3.049  -3.921  -6.163  0.00  0.00     0.142 HD
ATOM     33  H   LIG d   1       2.794  -5.565  -6.392  0.00  0.00     0.142 HD
ENDBRANCH  12  31
BRANCH   9  34
ATOM     34  C   LIG d   1       4.354  -9.009  -8.728  0.00  0.00     0.000 A 
ATOM     35  C   LIG d   1       3.509  -8.498  -9.712  0.00  0.00    -0.053 A 
ATOM     36  C   LIG d   1       2.726  -9.354 -10.459  0.00  0.00    -0.061 A 
ATOM     37  H   LIG d   1       3.466  -7.433  -9.889  0.00  0.00     0.062 H 
ATOM     38  C   LIG d   1       2.780 -10.718 -10.233  0.00  0.00    -0.062 A 
ATOM     39  H   LIG d   1       2.071  -8.959 -11.221  0.00  0.00     0.062 H 
ATOM     40  C   LIG d   1       3.617 -11.231  -9.258  0.00  0.00    -0.061 A 
ATOM     41  H   LIG d   1       2.165 -11.385 -10.820  0.00  0.00     0.062 H 
ATOM     42  C   LIG d   1       4.408 -10.385  -8.509  0.00  0.00    -0.053 A 
ATOM     43  H   LIG d   1       3.654 -12.297  -9.086  0.00  0.00     0.062 H 
ATOM     44  H   LIG d   1       5.064 -10.787  -7.752  0.00  0.00     0.062 H 
ENDBRANCH   9  34
TORSDOF 3
ENDMDL
MODEL 6
REMARK VINA RESULT:      -7.1      4.168      5.561
REMARK  3 active torsions:
REMARK  status: ('A' for Active; 'I' for Inactive)
REMARK    1  A    between atoms: C_4  and  C_7 
REMARK    2  A    between atoms: C_15  and  C_22 
REMARK    3  A    between atoms: C_18  and  N_21 
ROOT
ATOM      1  C   LIG d   1       4.845  -8.042  -8.273  0.00  0.00     0.072 A 
ATOM      2  C   LIG d   1       6.170  -8.502  -8.196  0.00  0.00    -0.035 A 
ATOM      3  C   LIG d   1       7.094  -7.826  -7.461  0.00  0.00    -0.051 A 
ATOM      4  C   LIG d   1       6.678  -6.665  -6.767  0.00  0.00     0.003 A 
ATOM      5  C   LIG d   1       7.570  -5.938  -5.983  0.00  0.00    -0.043 A 
ATOM      6  C   LIG d   1       7.130  -4.800  -5.311  0.00  0.00     0.003 A 
ATOM      7  C   LIG d   1       8.013  -4.040  -4.507  0.00  0.00    -0.051 A 
ATOM      8  C   LIG d   1       7.523  -2.939  -3.877  0.00  0.00    -0.035 A 
ATOM      9  C   LIG d   1       6.174  -2.573  -4.027  0.00  0.00     0.072 A 
ATOM     10  N   LIG d   1       5.337  -3.265  -4.770  0.00  0.00    -0.245 NA
ATOM     11  C   LIG d   1       5.737  -4.363  -5.425  0.00  0.00     0.094 A 
ATOM     12  C   LIG d   1       4.836  -5.094  -6.214  0.00  0.00     0.077 A 
ATOM     13  C   LIG d   1       5.279  -6.243  -6.885  0.00  0.00     0.094 A 
ATOM     14  N   LIG d   1       4.438  -6.962  -7.640  0.00  0.00    -0.245 NA
ATOM     15  H   LIG d   1       6.461  -9.394  -8.731  0.00  0.00     0.064 H 
ATOM     16  H   LIG d   1       8.115  -8.174  -7.397  0.00  0.00     0.062 H 
ATOM     17  H   LIG d   1       8.599  -6.256  -5.896  0.00  0.00     0.063 H 
ATOM     18  H   LIG d   1       9.049  -4.327  -4.396  0.00  0.00     0.062 H 
ATOM     19  H   LIG d   1       8.176  -2.342  -3.257  0.00  0.00     0.064 H 
ENDROOT
BRANCH   1  20
ATOM     20  C   LIG d   1       3.871  -8.800  -9.096  0.00  0.00     0.000 A 
ATOM     21  C   LIG d   1       3.966 -10.187  -9.191  0.00  0.00    -0.053 A 
ATOM     22  C   LIG d   1       3.057 -10.888  -9.958  0.00  0.00    -0.061 A 
ATOM     23  H   LIG d   1       4.749 -10.713  -8.665  0.00  0.00     0.062 H 
ATOM     24  C   LIG d   1       2.053 -10.214 -10.632  0.00  0.00    -0.062 A 
ATOM     25  H   LIG d   1       3.129 -11.961 -10.033  0.00  0.00     0.062 H 
ATOM     26  C   LIG d   1       1.955  -8.837 -10.542  0.00  0.00    -0.061 A 
ATOM     27  H   LIG d   1       1.345 -10.765 -11.232  0.00  0.00     0.062 H 
ATOM     28  C   LIG d   1       2.855  -8.128  -9.773  0.00  0.00    -0.053 A 
ATOM     29  H   LIG d   1       1.170  -8.317 -11.070  0.00  0.00     0.062 H 
ATOM     30  H   LIG d   1       2.775  -7.053  -9.700  0.00  0.00     0.062 H 
ENDBRANCH   1  20
BRANCH  12  31
ATOM     31  N   LIG d   1       3.512  -4.684  -6.327  0.00  0.00    -0.355 N 
ATOM     32  H   LIG d   1       2.874  -5.233  -6.810  0.00  0.00     0.142 HD
ATOM     33  H   LIG d   1       3.225  -3.852  -5.921  0.00  0.00     0.142 HD
ENDBRANCH  12  31
BRANCH   9  34
ATOM     34  C   LIG d   1       5.679  -1.366  -3.323  0.00  0.00     0.000 A 
ATOM     35  C   LIG d   1       6.218  -0.114  -3.618  0.00  0.00    -0.053 A 
ATOM     36  C   LIG d   1       5.753   1.007  -2.961  0.00  0.00    -0.061 A 
ATOM     37  H   LIG d   1       6.999  -0.022  -4.359  0.00  0.00     0.062 H 
ATOM     38  C   LIG d   1       4.753   0.890  -2.011  0.00  0.00    -0.062 A 
ATOM     39  H   LIG d   1       6.171   1.977  -3.188  0.00  0.00     0.062 H 
ATOM     40  C   LIG d   1       4.215  -0.349  -1.715  0.00  0.00    -0.061 A 
ATOM     41  H   LIG d   1       4.393   1.770  -1.500  0.00  0.00     0.062 H 
ATOM     42  C   LIG d   1       4.668  -1.476  -2.370  0.00  0.00    -0.053 A 
ATOM     43  H   LIG d   1       3.434  -0.434  -0.973  0.00  0.00     0.062 H 
ATOM     44  H   LIG d   1       4.243  -2.442  -2.141  0.00  0.00     0.062 H 
ENDBRANCH   9  34
TORSDOF 3
ENDMDL
MODEL 7
REMARK VINA RESULT:      -7.1      2.166      3.090
REMARK  3 active torsions:
REMARK  status: ('A' for Active; 'I' for Inactive)
REMARK    1  A    between atoms: C_4  and  C_7 
REMARK    2  A    between atoms: C_15  and  C_22 
REMARK    3  A    between atoms: C_18  and  N_21 
ROOT
ATOM      1  C   LIG d   1       5.466  -8.044  -5.136  0.00  0.00     0.072 A 
ATOM      2  C   LIG d   1       6.847  -8.036  -4.879  0.00  0.00    -0.035 A 
ATOM      3  C   LIG d   1       7.587  -6.919  -5.115  0.00  0.00    -0.051 A 
ATOM      4  C   LIG d   1       6.924  -5.769  -5.605  0.00  0.00     0.003 A 
ATOM      5  C   LIG d   1       7.621  -4.588  -5.850  0.00  0.00    -0.043 A 
ATOM      6  C   LIG d   1       6.941  -3.471  -6.331  0.00  0.00     0.003 A 
ATOM      7  C   LIG d   1       7.622  -2.258  -6.590  0.00  0.00    -0.051 A 
ATOM      8  C   LIG d   1       6.902  -1.204  -7.059  0.00  0.00    -0.035 A 
ATOM      9  C   LIG d   1       5.519  -1.327  -7.279  0.00  0.00     0.072 A 
ATOM     10  N   LIG d   1       4.868  -2.447  -7.046  0.00  0.00    -0.245 NA
ATOM     11  C   LIG d   1       5.499  -3.533  -6.582  0.00  0.00     0.094 A 
ATOM     12  C   LIG d   1       4.796  -4.721  -6.337  0.00  0.00     0.077 A 
ATOM     13  C   LIG d   1       5.480  -5.842  -5.846  0.00  0.00     0.094 A 
ATOM     14  N   LIG d   1       4.831  -6.987  -5.597  0.00  0.00    -0.245 NA
ATOM     15  H   LIG d   1       7.327  -8.926  -4.501  0.00  0.00     0.064 H 
ATOM     16  H   LIG d   1       8.649  -6.906  -4.920  0.00  0.00     0.062 H 
ATOM     17  H   LIG d   1       8.685  -4.538  -5.666  0.00  0.00     0.063 H 
ATOM     18  H   LIG d   1       8.685  -2.171  -6.418  0.00  0.00     0.062 H 
ATOM     19  H   LIG d   1       7.397  -0.267  -7.264  0.00  0.00     0.064 H 
ENDROOT
BRANCH   1  20
ATOM     20  C   LIG d   1       4.697  -9.285  -4.879  0.00  0.00     0.000 A 
ATOM     21  C   LIG d   1       4.609 -10.270  -5.863  0.00  0.00    -0.053 A 
ATOM     22  C   LIG d   1       3.892 -11.423  -5.619  0.00  0.00    -0.061 A 
ATOM     23  H   LIG d   1       5.101 -10.130  -6.814  0.00  0.00     0.062 H 
ATOM     24  C   LIG d   1       3.261 -11.603  -4.400  0.00  0.00    -0.062 A 
ATOM     25  H   LIG d   1       3.823 -12.186  -6.379  0.00  0.00     0.062 H 
ATOM     26  C   LIG d   1       3.344 -10.629  -3.421  0.00  0.00    -0.061 A 
ATOM     27  H   LIG d   1       2.700 -12.507  -4.214  0.00  0.00     0.062 H 
ATOM     28  C   LIG d   1       4.063  -9.475  -3.652  0.00  0.00    -0.053 A 
ATOM     29  H   LIG d   1       2.850 -10.775  -2.473  0.00  0.00     0.062 H 
ATOM     30  H   LIG d   1       4.130  -8.717  -2.886  0.00  0.00     0.062 H 
ENDBRANCH   1  20
BRANCH  12  31
ATOM     31  N   LIG d   1       3.426  -4.786  -6.574  0.00  0.00    -0.355 N 
ATOM     32  H   LIG d   1       2.943  -3.990  -6.846  0.00  0.00     0.142 HD
ATOM     33  H   LIG d   1       2.956  -5.627  -6.470  0.00  0.00     0.142 HD
ENDBRANCH  12  31
BRANCH   9  34
ATOM     34  C   LIG d   1       4.770  -0.155  -7.792  0.00  0.00     0.000 A 
ATOM     35  C   LIG d   1       3.427   0.017  -7.458  0.00  0.00    -0.053 A 
ATOM     36  C   LIG d   1       2.734   1.110  -7.937  0.00  0.00    -0.061 A 
ATOM     37  H   LIG d   1       2.929  -0.704  -6.826  0.00  0.00     0.062 H 
ATOM     38  C   LIG d   1       3.369   2.034  -8.748  0.00  0.00    -0.062 A 
ATOM     39  H   LIG d   1       1.693   1.243  -7.680  0.00  0.00     0.062 H 
ATOM     40  C   LIG d   1       4.702   1.868  -9.082  0.00  0.00    -0.061 A 
ATOM     41  H   LIG d   1       2.823   2.887  -9.121  0.00  0.00     0.062 H 
ATOM     42  C   LIG d   1       5.406   0.783  -8.604  0.00  0.00    -0.053 A 
ATOM     43  H   LIG d   1       5.192   2.594  -9.715  0.00  0.00     0.062 H 
ATOM     44  H   LIG d   1       6.447   0.657  -8.861  0.00  0.00     0.062 H 
ENDBRANCH   9  34
TORSDOF 3
ENDMDL
MODEL 8
REMARK VINA RESULT:      -6.3      6.486     11.307
REMARK  3 active torsions:
REMARK  status: ('A' for Active; 'I' for Inactive)
REMARK    1  A    between atoms: C_4  and  C_7 
REMARK    2  A    between atoms: C_15  and  C_22 
REMARK    3  A    between atoms: C_18  and  N_21 
ROOT
ATOM      1  C   LIG d   1      10.001   2.920 -10.051  0.00  0.00     0.072 A 
ATOM      2  C   LIG d   1      10.721   3.876  -9.314  0.00  0.00    -0.035 A 
ATOM      3  C   LIG d   1      10.546   3.987  -7.970  0.00  0.00    -0.051 A 
ATOM      4  C   LIG d   1       9.637   3.106  -7.338  0.00  0.00     0.003 A 
ATOM      5  C   LIG d   1       9.426   3.156  -5.963  0.00  0.00    -0.043 A 
ATOM      6  C   LIG d   1       8.526   2.274  -5.369  0.00  0.00     0.003 A 
ATOM      7  C   LIG d   1       8.290   2.302  -3.973  0.00  0.00    -0.051 A 
ATOM      8  C   LIG d   1       7.399   1.415  -3.455  0.00  0.00    -0.035 A 
ATOM      9  C   LIG d   1       6.735   0.500  -4.290  0.00  0.00     0.072 A 
ATOM     10  N   LIG d   1       6.940   0.459  -5.589  0.00  0.00    -0.245 NA
ATOM     11  C   LIG d   1       7.800   1.296  -6.182  0.00  0.00     0.094 A 
ATOM     12  C   LIG d   1       8.012   1.243  -7.568  0.00  0.00     0.077 A 
ATOM     13  C   LIG d   1       8.922   2.128  -8.163  0.00  0.00     0.094 A 
ATOM     14  N   LIG d   1       9.147   2.094  -9.484  0.00  0.00    -0.245 NA
ATOM     15  H   LIG d   1      11.412   4.533  -9.821  0.00  0.00     0.064 H 
ATOM     16  H   LIG d   1      11.096   4.721  -7.398  0.00  0.00     0.062 H 
ATOM     17  H   LIG d   1       9.959   3.877  -5.358  0.00  0.00     0.063 H 
ATOM     18  H   LIG d   1       8.804   3.008  -3.338  0.00  0.00     0.062 H 
ATOM     19  H   LIG d   1       7.201   1.415  -2.393  0.00  0.00     0.064 H 
ENDROOT
BRANCH   1  20
ATOM     20  C   LIG d   1      10.210   2.839 -11.516  0.00  0.00     0.000 A 
ATOM     21  C   LIG d   1      10.315   4.004 -12.273  0.00  0.00    -0.053 A 
ATOM     22  C   LIG d   1      10.509   3.924 -13.637  0.00  0.00    -0.061 A 
ATOM     23  H   LIG d   1      10.244   4.969 -11.794  0.00  0.00     0.062 H 
ATOM     24  C   LIG d   1      10.600   2.687 -14.253  0.00  0.00    -0.062 A 
ATOM     25  H   LIG d   1      10.590   4.825 -14.225  0.00  0.00     0.062 H 
ATOM     26  C   LIG d   1      10.496   1.527 -13.507  0.00  0.00    -0.061 A 
ATOM     27  H   LIG d   1      10.751   2.628 -15.320  0.00  0.00     0.062 H 
ATOM     28  C   LIG d   1      10.308   1.597 -12.142  0.00  0.00    -0.053 A 
ATOM     29  H   LIG d   1      10.568   0.566 -13.992  0.00  0.00     0.062 H 
ATOM     30  H   LIG d   1      10.230   0.690 -11.559  0.00  0.00     0.062 H 
ENDBRANCH   1  20
BRANCH  12  31
ATOM     31  N   LIG d   1       7.325   0.317  -8.346  0.00  0.00    -0.355 N 
ATOM     32  H   LIG d   1       6.901  -0.449  -7.928  0.00  0.00     0.142 HD
ATOM     33  H   LIG d   1       7.268   0.437  -9.307  0.00  0.00     0.142 HD
ENDBRANCH  12  31
BRANCH   9  34
ATOM     34  C   LIG d   1       5.771  -0.450  -3.685  0.00  0.00     0.000 A 
ATOM     35  C   LIG d   1       5.145  -0.139  -2.478  0.00  0.00    -0.053 A 
ATOM     36  C   LIG d   1       4.248  -1.026  -1.920  0.00  0.00    -0.061 A 
ATOM     37  H   LIG d   1       5.363   0.795  -1.981  0.00  0.00     0.062 H 
ATOM     38  C   LIG d   1       3.969  -2.224  -2.556  0.00  0.00    -0.062 A 
ATOM     39  H   LIG d   1       3.764  -0.787  -0.985  0.00  0.00     0.062 H 
ATOM     40  C   LIG d   1       4.587  -2.537  -3.753  0.00  0.00    -0.061 A 
ATOM     41  H   LIG d   1       3.267  -2.915  -2.115  0.00  0.00     0.062 H 
ATOM     42  C   LIG d   1       5.481  -1.655  -4.324  0.00  0.00    -0.053 A 
ATOM     43  H   LIG d   1       4.364  -3.473  -4.245  0.00  0.00     0.062 H 
ATOM     44  H   LIG d   1       5.958  -1.899  -5.261  0.00  0.00     0.062 H 
ENDBRANCH   9  34
TORSDOF 3
ENDMDL
MODEL 9
REMARK VINA RESULT:      -6.3      5.044      8.022
REMARK  3 active torsions:
REMARK  status: ('A' for Active; 'I' for Inactive)
REMARK    1  A    between atoms: C_4  and  C_7 
REMARK    2  A    between atoms: C_15  and  C_22 
REMARK    3  A    between atoms: C_18  and  N_21 
ROOT
ATOM      1  C   LIG d   1       5.051  -2.267 -12.418  0.00  0.00     0.072 A 
ATOM      2  C   LIG d   1       4.191  -1.282 -12.934  0.00  0.00    -0.035 A 
ATOM      3  C   LIG d   1       3.505  -0.458 -12.098  0.00  0.00    -0.051 A 
ATOM      4  C   LIG d   1       3.697  -0.608 -10.704  0.00  0.00     0.003 A 
ATOM      5  C   LIG d   1       3.038   0.217  -9.795  0.00  0.00    -0.043 A 
ATOM      6  C   LIG d   1       3.248   0.045  -8.429  0.00  0.00     0.003 A 
ATOM      7  C   LIG d   1       2.592   0.867  -7.481  0.00  0.00    -0.051 A 
ATOM      8  C   LIG d   1       2.839   0.650  -6.161  0.00  0.00    -0.035 A 
ATOM      9  C   LIG d   1       3.722  -0.367  -5.760  0.00  0.00     0.072 A 
ATOM     10  N   LIG d   1       4.341  -1.143  -6.625  0.00  0.00    -0.245 NA
ATOM     11  C   LIG d   1       4.156  -0.997  -7.943  0.00  0.00     0.094 A 
ATOM     12  C   LIG d   1       4.820  -1.828  -8.856  0.00  0.00     0.077 A 
ATOM     13  C   LIG d   1       4.612  -1.651 -10.232  0.00  0.00     0.094 A 
ATOM     14  N   LIG d   1       5.239  -2.427 -11.125  0.00  0.00    -0.245 NA
ATOM     15  H   LIG d   1       4.067  -1.186 -14.003  0.00  0.00     0.064 H 
ATOM     16  H   LIG d   1       2.842   0.301 -12.488  0.00  0.00     0.062 H 
ATOM     17  H   LIG d   1       2.368   0.987 -10.149  0.00  0.00     0.063 H 
ATOM     18  H   LIG d   1       1.915   1.647  -7.797  0.00  0.00     0.062 H 
ATOM     19  H   LIG d   1       2.353   1.263  -5.418  0.00  0.00     0.064 H 
ENDROOT
BRANCH   1  20
ATOM     20  C   LIG d   1       5.771  -3.155 -13.362  0.00  0.00     0.000 A 
ATOM     21  C   LIG d   1       5.437  -3.155 -14.716  0.00  0.00    -0.053 A 
ATOM     22  C   LIG d   1       6.109  -3.984 -15.590  0.00  0.00    -0.061 A 
ATOM     23  H   LIG d   1       4.653  -2.507 -15.079  0.00  0.00     0.062 H 
ATOM     24  C   LIG d   1       7.113  -4.815 -15.125  0.00  0.00    -0.062 A 
ATOM     25  H   LIG d   1       5.852  -3.985 -16.638  0.00  0.00     0.062 H 
ATOM     26  C   LIG d   1       7.448  -4.820 -13.783  0.00  0.00    -0.061 A 
ATOM     27  H   LIG d   1       7.637  -5.463 -15.812  0.00  0.00     0.062 H 
ATOM     28  C   LIG d   1       6.787  -3.991 -12.901  0.00  0.00    -0.053 A 
ATOM     29  H   LIG d   1       8.232  -5.470 -13.426  0.00  0.00     0.062 H 
ATOM     30  H   LIG d   1       7.051  -3.993 -11.853  0.00  0.00     0.062 H 
ENDBRANCH   1  20
BRANCH  12  31
ATOM     31  N   LIG d   1       5.683  -2.820  -8.401  0.00  0.00    -0.355 N 
ATOM     32  H   LIG d   1       6.498  -2.577  -7.935  0.00  0.00     0.142 HD
ATOM     33  H   LIG d   1       5.468  -3.754  -8.547  0.00  0.00     0.142 HD
ENDBRANCH  12  31
BRANCH   9  34
ATOM     34  C   LIG d   1       3.964  -0.573  -4.311  0.00  0.00     0.000 A 
ATOM     35  C   LIG d   1       4.171   0.523  -3.474  0.00  0.00    -0.053 A 
ATOM     36  C   LIG d   1       4.395   0.327  -2.127  0.00  0.00    -0.061 A 
ATOM     37  H   LIG d   1       4.156   1.524  -3.879  0.00  0.00     0.062 H 
ATOM     38  C   LIG d   1       4.415  -0.955  -1.606  0.00  0.00    -0.062 A 
ATOM     39  H   LIG d   1       4.556   1.175  -1.478  0.00  0.00     0.062 H 
ATOM     40  C   LIG d   1       4.211  -2.046  -2.432  0.00  0.00    -0.061 A 
ATOM     41  H   LIG d   1       4.592  -1.104  -0.551  0.00  0.00     0.062 H 
ATOM     42  C   LIG d   1       3.980  -1.861  -3.780  0.00  0.00    -0.053 A 
ATOM     43  H   LIG d   1       4.227  -3.045  -2.020  0.00  0.00     0.062 H 
ATOM     44  H   LIG d   1       3.816  -2.713  -4.422  0.00  0.00     0.062 H 
ENDBRANCH   9  34
TORSDOF 3
ENDMDL
MODEL 10
REMARK VINA RESULT:      -6.3     11.314     13.506
REMARK  3 active torsions:
REMARK  status: ('A' for Active; 'I' for Inactive)
REMARK    1  A    between atoms: C_4  and  C_7 
REMARK    2  A    between atoms: C_15  and  C_22 
REMARK    3  A    between atoms: C_18  and  N_21 
ROOT
ATOM      1  C   LIG d   1      10.297   5.605  -2.661  0.00  0.00     0.072 A 
ATOM      2  C   LIG d   1      10.045   4.222  -2.641  0.00  0.00    -0.035 A 
ATOM      3  C   LIG d   1       9.786   3.551  -3.796  0.00  0.00    -0.051 A 
ATOM      4  C   LIG d   1       9.797   4.279  -5.010  0.00  0.00     0.003 A 
ATOM      5  C   LIG d   1       9.558   3.648  -6.228  0.00  0.00    -0.043 A 
ATOM      6  C   LIG d   1       9.576   4.390  -7.407  0.00  0.00     0.003 A 
ATOM      7  C   LIG d   1       9.336   3.777  -8.660  0.00  0.00    -0.051 A 
ATOM      8  C   LIG d   1       9.368   4.557  -9.773  0.00  0.00    -0.035 A 
ATOM      9  C   LIG d   1       9.632   5.933  -9.672  0.00  0.00     0.072 A 
ATOM     10  N   LIG d   1       9.857   6.522  -8.517  0.00  0.00    -0.245 NA
ATOM     11  C   LIG d   1       9.845   5.830  -7.372  0.00  0.00     0.094 A 
ATOM     12  C   LIG d   1      10.086   6.468  -6.146  0.00  0.00     0.077 A 
ATOM     13  C   LIG d   1      10.073   5.717  -4.961  0.00  0.00     0.094 A 
ATOM     14  N   LIG d   1      10.306   6.301  -3.778  0.00  0.00    -0.245 NA
ATOM     15  H   LIG d   1      10.047   3.690  -1.702  0.00  0.00     0.064 H 
ATOM     16  H   LIG d   1       9.591   2.489  -3.788  0.00  0.00     0.062 H 
ATOM     17  H   LIG d   1       9.359   2.586  -6.258  0.00  0.00     0.063 H 
ATOM     18  H   LIG d   1       9.134   2.718  -8.729  0.00  0.00     0.062 H 
ATOM     19  H   LIG d   1       9.189   4.114 -10.741  0.00  0.00     0.064 H 
ENDROOT
BRANCH   1  20
ATOM     20  C   LIG d   1      10.561   6.302  -1.380  0.00  0.00     0.000 A 
ATOM     21  C   LIG d   1      11.012   5.585  -0.273  0.00  0.00    -0.053 A 
ATOM     22  C   LIG d   1      11.256   6.239   0.918  0.00  0.00    -0.061 A 
ATOM     23  H   LIG d   1      11.169   4.519  -0.346  0.00  0.00     0.062 H 
ATOM     24  C   LIG d   1      11.054   7.605   1.013  0.00  0.00    -0.062 A 
ATOM     25  H   LIG d   1      11.604   5.685   1.775  0.00  0.00     0.062 H 
ATOM     26  C   LIG d   1      10.606   8.322  -0.083  0.00  0.00    -0.061 A 
ATOM     27  H   LIG d   1      11.245   8.113   1.946  0.00  0.00     0.062 H 
ATOM     28  C   LIG d   1      10.365   7.679  -1.279  0.00  0.00    -0.053 A 
ATOM     29  H   LIG d   1      10.451   9.387  -0.002  0.00  0.00     0.062 H 
ATOM     30  H   LIG d   1      10.019   8.240  -2.135  0.00  0.00     0.062 H 
ENDBRANCH   1  20
BRANCH  12  31
ATOM     31  N   LIG d   1      10.341   7.834  -6.106  0.00  0.00    -0.355 N 
ATOM     32  H   LIG d   1      10.873   8.249  -6.803  0.00  0.00     0.142 HD
ATOM     33  H   LIG d   1       9.985   8.373  -5.383  0.00  0.00     0.142 HD
ENDBRANCH  12  31
BRANCH   9  34
ATOM     34  C   LIG d   1       9.658   6.749 -10.911  0.00  0.00     0.000 A 
ATOM     35  C   LIG d   1       9.079   6.260 -12.082  0.00  0.00    -0.053 A 
ATOM     36  C   LIG d   1       9.105   7.023 -13.231  0.00  0.00    -0.061 A 
ATOM     37  H   LIG d   1       8.612   5.286 -12.090  0.00  0.00     0.062 H 
ATOM     38  C   LIG d   1       9.704   8.271 -13.223  0.00  0.00    -0.062 A 
ATOM     39  H   LIG d   1       8.659   6.645 -14.139  0.00  0.00     0.062 H 
ATOM     40  C   LIG d   1      10.279   8.760 -12.064  0.00  0.00    -0.061 A 
ATOM     41  H   LIG d   1       9.722   8.864 -14.125  0.00  0.00     0.062 H 
ATOM     42  C   LIG d   1      10.254   8.009 -10.907  0.00  0.00    -0.053 A 
ATOM     43  H   LIG d   1      10.744   9.736 -12.064  0.00  0.00     0.062 H 
ATOM     44  H   LIG d   1      10.698   8.394 -10.002  0.00  0.00     0.062 H 
ENDBRANCH   9  34
TORSDOF 3
ENDMDL
