MODEL 1
REMARK VINA RESULT:      -6.3      0.000      0.000
REMARK  11 active torsions:
REMARK  status: ('A' for Active; 'I' for Inactive)
REMARK    1  A    between atoms: C_1  and  O_2 
REMARK    2  A    between atoms: O_2  and  C_3 
REMARK    3  A    between atoms: C_6  and  C_9 
REMARK       I    between atoms: C_9  and  N_11 
REMARK    4  A    between atoms: N_11  and  C_12 
REMARK    5  A    between atoms: C_19  and  C_24 
REMARK    6  A    between atoms: C_26  and  O_34 
REMARK    7  A    between atoms: C_27  and  O_32 
REMARK    8  A    between atoms: C_28  and  O_30 
REMARK    9  A    between atoms: O_30  and  C_31 
REMARK   10  A    between atoms: O_32  and  C_33 
REMARK   11  A    between atoms: O_34  and  C_35 
ROOT
ATOM      1  C   LIG d   1       7.805   0.814  -6.271  0.00  0.00     0.222 A 
ATOM      2  N   LIG d   1       8.752  -0.090  -6.060  0.00  0.00    -0.222 NA
ATOM      3  C   LIG d   1       9.782   0.180  -5.278  0.00  0.00     0.043 A 
ATOM      4  C   LIG d   1       9.852   1.442  -4.675  0.00  0.00     0.057 A 
ATOM      5  C   LIG d   1       8.832   2.369  -4.918  0.00  0.00     0.057 A 
ATOM      6  N   LIG d   1       7.838   2.017  -5.715  0.00  0.00    -0.218 NA
ATOM      7  C   LIG d   1       8.846   3.736  -4.295  0.00  0.00    -0.002 C 
ATOM      8  C   LIG d   1      10.259   4.143  -3.889  0.00  0.00    -0.003 C 
ATOM      9  H   LIG d   1      10.877   4.254  -4.781  0.00  0.00     0.036 H 
ATOM     10  C   LIG d   1      10.862   3.063  -2.981  0.00  0.00     0.018 C 
ATOM     11  C   LIG d   1      10.981   1.794  -3.802  0.00  0.00     0.167 C 
ATOM     12  O   LIG d   1      11.970   1.095  -3.739  0.00  0.00    -0.292 OA
ATOM     13  H   LIG d   1      10.553  -0.557  -5.106  0.00  0.00     0.084 H 
ATOM     14  H   LIG d   1       8.457   4.460  -5.012  0.00  0.00     0.033 H 
ATOM     15  H   LIG d   1       8.207   3.732  -3.411  0.00  0.00     0.033 H 
ATOM     16  H   LIG d   1      11.761   3.361  -2.660  0.00  0.00     0.035 H 
ATOM     17  H   LIG d   1      10.210   2.892  -2.126  0.00  0.00     0.035 H 
ENDROOT
BRANCH   8  18
ATOM     18  C   LIG d   1      10.211   5.454  -3.147  0.00  0.00    -0.036 A 
ATOM     19  C   LIG d   1      10.111   6.640  -3.849  0.00  0.00    -0.013 A 
ATOM     20  C   LIG d   1      10.067   7.849  -3.170  0.00  0.00     0.165 A 
ATOM     21  H   LIG d   1      10.067   6.627  -4.928  0.00  0.00     0.066 H 
ATOM     22  C   LIG d   1      10.124   7.865  -1.781  0.00  0.00     0.203 A 
ATOM     23  C   LIG d   1      10.223   6.670  -1.078  0.00  0.00     0.165 A 
ATOM     24  C   LIG d   1      10.261   5.466  -1.765  0.00  0.00    -0.013 A 
ATOM     25  H   LIG d   1      10.335   4.537  -1.220  0.00  0.00     0.066 H 
BRANCH  20  26
ATOM     26  O   LIG d   1       9.969   9.015  -3.862  0.00  0.00    -0.491 OA
BRANCH  26  27
ATOM     27  C   LIG d   1       9.962   8.926  -5.287  0.00  0.00     0.079 C 
ATOM     28  H   LIG d   1       9.165   8.254  -5.606  0.00  0.00     0.066 H 
ATOM     29  H   LIG d   1       9.794   9.916  -5.712  0.00  0.00     0.066 H 
ATOM     30  H   LIG d   1      10.922   8.542  -5.632  0.00  0.00     0.066 H 
ENDBRANCH  26  27
ENDBRANCH  20  26
BRANCH  22  31
ATOM     31  O   LIG d   1      10.080   9.049  -1.110  0.00  0.00    -0.488 OA
BRANCH  31  32
ATOM     32  C   LIG d   1       8.790   9.548  -0.758  0.00  0.00     0.079 C 
ATOM     33  H   LIG d   1       8.025   9.001  -1.308  0.00  0.00     0.066 H 
ATOM     34  H   LIG d   1       8.629   9.420   0.313  0.00  0.00     0.066 H 
ATOM     35  H   LIG d   1       8.729  10.608  -1.009  0.00  0.00     0.066 H 
ENDBRANCH  31  32
ENDBRANCH  22  31
BRANCH  23  36
ATOM     36  O   LIG d   1      10.278   6.681   0.280  0.00  0.00    -0.491 OA
BRANCH  36  37
ATOM     37  C   LIG d   1      11.241   5.825   0.897  0.00  0.00     0.079 C 
ATOM     38  H   LIG d   1      10.831   5.426   1.825  0.00  0.00     0.066 H 
ATOM     39  H   LIG d   1      11.482   5.002   0.223  0.00  0.00     0.066 H 
ATOM     40  H   LIG d   1      12.146   6.392   1.114  0.00  0.00     0.066 H 
ENDBRANCH  36  37
ENDBRANCH  23  36
ENDBRANCH   8  18
BRANCH   1  41
ATOM     41  N   LIG d   1       6.746   0.490  -7.099  0.00  0.00    -0.251 N 
ATOM     42  C   LIG d   1       5.603   0.006  -6.573  0.00  0.00     0.250 C 
ATOM     43  O   LIG d   1       5.503  -0.146  -5.371  0.00  0.00    -0.270 OA
ATOM     44  H   LIG d   1       6.824   0.611  -8.058  0.00  0.00     0.158 HD
BRANCH  42  45
ATOM     45  C   LIG d   1       4.472  -0.340  -7.457  0.00  0.00     0.037 A 
ATOM     46  C   LIG d   1       4.297  -1.658  -7.885  0.00  0.00    -0.046 A 
ATOM     47  C   LIG d   1       3.240  -1.976  -8.710  0.00  0.00    -0.019 A 
ATOM     48  H   LIG d   1       4.988  -2.426  -7.572  0.00  0.00     0.063 H 
ATOM     49  C   LIG d   1       2.350  -0.989  -9.115  0.00  0.00     0.120 A 
ATOM     50  H   LIG d   1       3.104  -2.995  -9.042  0.00  0.00     0.065 H 
ATOM     51  C   LIG d   1       2.521   0.323  -8.689  0.00  0.00    -0.019 A 
ATOM     52  C   LIG d   1       3.572   0.649  -7.861  0.00  0.00    -0.046 A 
ATOM     53  H   LIG d   1       1.826   1.087  -9.006  0.00  0.00     0.065 H 
ATOM     54  H   LIG d   1       3.700   1.668  -7.527  0.00  0.00     0.063 H 
BRANCH  49  55
ATOM     55  O   LIG d   1       1.311  -1.308  -9.927  0.00  0.00    -0.495 OA
BRANCH  55  56
ATOM     56  C   LIG d   1       1.491  -1.083 -11.328  0.00  0.00     0.079 C 
ATOM     57  H   LIG d   1       0.585  -1.367 -11.861  0.00  0.00     0.066 H 
ATOM     58  H   LIG d   1       1.699  -0.026 -11.501  0.00  0.00     0.066 H 
ATOM     59  H   LIG d   1       2.328  -1.682 -11.687  0.00  0.00     0.066 H 
ENDBRANCH  55  56
ENDBRANCH  49  55
ENDBRANCH  42  45
ENDBRANCH   1  41
TORSDOF 11
ENDMDL
MODEL 2
REMARK VINA RESULT:      -6.3      0.122      2.222
REMARK  11 active torsions:
REMARK  status: ('A' for Active; 'I' for Inactive)
REMARK    1  A    between atoms: C_1  and  O_2 
REMARK    2  A    between atoms: O_2  and  C_3 
REMARK    3  A    between atoms: C_6  and  C_9 
REMARK       I    between atoms: C_9  and  N_11 
REMARK    4  A    between atoms: N_11  and  C_12 
REMARK    5  A    between atoms: C_19  and  C_24 
REMARK    6  A    between atoms: C_26  and  O_34 
REMARK    7  A    between atoms: C_27  and  O_32 
REMARK    8  A    between atoms: C_28  and  O_30 
REMARK    9  A    between atoms: O_30  and  C_31 
REMARK   10  A    between atoms: O_32  and  C_33 
REMARK   11  A    between atoms: O_34  and  C_35 
ROOT
ATOM      1  C   LIG d   1       7.777   0.841  -6.346  0.00  0.00     0.222 A 
ATOM      2  N   LIG d   1       8.713  -0.074  -6.131  0.00  0.00    -0.222 NA
ATOM      3  C   LIG d   1       9.742   0.185  -5.343  0.00  0.00     0.043 A 
ATOM      4  C   LIG d   1       9.822   1.445  -4.739  0.00  0.00     0.057 A 
ATOM      5  C   LIG d   1       8.813   2.383  -4.986  0.00  0.00     0.057 A 
ATOM      6  N   LIG d   1       7.820   2.043  -5.789  0.00  0.00    -0.218 NA
ATOM      7  C   LIG d   1       8.838   3.749  -4.361  0.00  0.00    -0.002 C 
ATOM      8  C   LIG d   1      10.254   4.141  -3.947  0.00  0.00    -0.003 C 
ATOM      9  H   LIG d   1      10.877   4.246  -4.836  0.00  0.00     0.036 H 
ATOM     10  C   LIG d   1      10.841   3.053  -3.038  0.00  0.00     0.018 C 
ATOM     11  C   LIG d   1      10.950   1.784  -3.859  0.00  0.00     0.167 C 
ATOM     12  O   LIG d   1      11.931   1.075  -3.792  0.00  0.00    -0.292 OA
ATOM     13  H   LIG d   1      10.504  -0.560  -5.168  0.00  0.00     0.084 H 
ATOM     14  H   LIG d   1       8.461   4.478  -5.079  0.00  0.00     0.033 H 
ATOM     15  H   LIG d   1       8.195   3.752  -3.481  0.00  0.00     0.033 H 
ATOM     16  H   LIG d   1      11.741   3.342  -2.712  0.00  0.00     0.035 H 
ATOM     17  H   LIG d   1      10.182   2.889  -2.186  0.00  0.00     0.035 H 
ENDROOT
BRANCH   8  18
ATOM     18  C   LIG d   1      10.216   5.451  -3.204  0.00  0.00    -0.036 A 
ATOM     19  C   LIG d   1      10.230   5.461  -1.822  0.00  0.00    -0.013 A 
ATOM     20  C   LIG d   1      10.194   6.665  -1.134  0.00  0.00     0.165 A 
ATOM     21  H   LIG d   1      10.268   4.530  -1.276  0.00  0.00     0.066 H 
ATOM     22  C   LIG d   1      10.144   7.863  -1.837  0.00  0.00     0.203 A 
ATOM     23  C   LIG d   1      10.132   7.849  -3.227  0.00  0.00     0.165 A 
ATOM     24  C   LIG d   1      10.173   6.641  -3.907  0.00  0.00    -0.013 A 
ATOM     25  H   LIG d   1      10.166   6.629  -4.986  0.00  0.00     0.066 H 
BRANCH  20  26
ATOM     26  O   LIG d   1      10.207   6.673   0.225  0.00  0.00    -0.491 OA
BRANCH  26  27
ATOM     27  C   LIG d   1      11.217   5.895   0.869  0.00  0.00     0.079 C 
ATOM     28  H   LIG d   1      11.597   5.145   0.175  0.00  0.00     0.066 H 
ATOM     29  H   LIG d   1      12.033   6.546   1.181  0.00  0.00     0.066 H 
ATOM     30  H   LIG d   1      10.793   5.400   1.743  0.00  0.00     0.066 H 
ENDBRANCH  26  27
ENDBRANCH  20  26
BRANCH  22  31
ATOM     31  O   LIG d   1      10.110   9.047  -1.166  0.00  0.00    -0.488 OA
BRANCH  31  32
ATOM     32  C   LIG d   1       8.823   9.552  -0.808  0.00  0.00     0.079 C 
ATOM     33  H   LIG d   1       8.501   9.096   0.128  0.00  0.00     0.066 H 
ATOM     34  H   LIG d   1       8.877  10.633  -0.685  0.00  0.00     0.066 H 
ATOM     35  H   LIG d   1       8.106   9.311  -1.594  0.00  0.00     0.066 H 
ENDBRANCH  31  32
ENDBRANCH  22  31
BRANCH  23  36
ATOM     36  O   LIG d   1      10.084   9.018  -3.919  0.00  0.00    -0.491 OA
BRANCH  36  37
ATOM     37  C   LIG d   1       9.585   8.960  -5.257  0.00  0.00     0.079 C 
ATOM     38  H   LIG d   1       8.845   8.163  -5.334  0.00  0.00     0.066 H 
ATOM     39  H   LIG d   1       9.121   9.912  -5.515  0.00  0.00     0.066 H 
ATOM     40  H   LIG d   1      10.408   8.760  -5.944  0.00  0.00     0.066 H 
ENDBRANCH  36  37
ENDBRANCH  23  36
ENDBRANCH   8  18
BRANCH   1  41
ATOM     41  N   LIG d   1       6.719   0.529  -7.180  0.00  0.00    -0.251 N 
ATOM     42  C   LIG d   1       5.566   0.061  -6.660  0.00  0.00     0.250 C 
ATOM     43  O   LIG d   1       5.457  -0.086  -5.459  0.00  0.00    -0.270 OA
ATOM     44  H   LIG d   1       6.805   0.647  -8.139  0.00  0.00     0.158 HD
BRANCH  42  45
ATOM     45  C   LIG d   1       4.437  -0.271  -7.550  0.00  0.00     0.037 A 
ATOM     46  C   LIG d   1       4.186  -1.602  -7.895  0.00  0.00    -0.046 A 
ATOM     47  C   LIG d   1       3.131  -1.908  -8.726  0.00  0.00    -0.019 A 
ATOM     48  H   LIG d   1       4.819  -2.389  -7.513  0.00  0.00     0.063 H 
ATOM     49  C   LIG d   1       2.316  -0.896  -9.220  0.00  0.00     0.120 A 
ATOM     50  H   LIG d   1       2.937  -2.936  -8.995  0.00  0.00     0.065 H 
ATOM     51  C   LIG d   1       2.562   0.428  -8.878  0.00  0.00    -0.019 A 
ATOM     52  C   LIG d   1       3.612   0.743  -8.044  0.00  0.00    -0.046 A 
ATOM     53  H   LIG d   1       1.926   1.211  -9.263  0.00  0.00     0.065 H 
ATOM     54  H   LIG d   1       3.798   1.772  -7.775  0.00  0.00     0.063 H 
BRANCH  49  55
ATOM     55  O   LIG d   1       1.278  -1.203 -10.038  0.00  0.00    -0.495 OA
BRANCH  55  56
ATOM     56  C   LIG d   1       1.474  -0.994 -11.439  0.00  0.00     0.079 C 
ATOM     57  H   LIG d   1       0.606  -1.361 -11.986  0.00  0.00     0.066 H 
ATOM     58  H   LIG d   1       1.603   0.072 -11.632  0.00  0.00     0.066 H 
ATOM     59  H   LIG d   1       2.364  -1.532 -11.766  0.00  0.00     0.066 H 
ENDBRANCH  55  56
ENDBRANCH  49  55
ENDBRANCH  42  45
ENDBRANCH   1  41
TORSDOF 11
ENDMDL
MODEL 3
REMARK VINA RESULT:      -6.2      2.883     10.523
REMARK  11 active torsions:
REMARK  status: ('A' for Active; 'I' for Inactive)
REMARK    1  A    between atoms: C_1  and  O_2 
REMARK    2  A    between atoms: O_2  and  C_3 
REMARK    3  A    between atoms: C_6  and  C_9 
REMARK       I    between atoms: C_9  and  N_11 
REMARK    4  A    between atoms: N_11  and  C_12 
REMARK    5  A    between atoms: C_19  and  C_24 
REMARK    6  A    between atoms: C_26  and  O_34 
REMARK    7  A    between atoms: C_27  and  O_32 
REMARK    8  A    between atoms: C_28  and  O_30 
REMARK    9  A    between atoms: O_30  and  C_31 
REMARK   10  A    between atoms: O_32  and  C_33 
REMARK   11  A    between atoms: O_34  and  C_35 
ROOT
ATOM      1  C   LIG d   1      11.061   5.465  -2.573  0.00  0.00     0.222 A 
ATOM      2  N   LIG d   1      12.242   4.880  -2.717  0.00  0.00    -0.222 NA
ATOM      3  C   LIG d   1      12.335   3.655  -3.202  0.00  0.00     0.043 A 
ATOM      4  C   LIG d   1      11.158   2.986  -3.561  0.00  0.00     0.057 A 
ATOM      5  C   LIG d   1       9.930   3.637  -3.398  0.00  0.00     0.057 A 
ATOM      6  N   LIG d   1       9.927   4.863  -2.905  0.00  0.00    -0.218 NA
ATOM      7  C   LIG d   1       8.633   2.976  -3.772  0.00  0.00    -0.002 C 
ATOM      8  C   LIG d   1       8.773   1.456  -3.789  0.00  0.00    -0.003 C 
ATOM      9  H   LIG d   1       8.970   1.098  -2.778  0.00  0.00     0.036 H 
ATOM     10  C   LIG d   1       9.936   1.059  -4.707  0.00  0.00     0.018 C 
ATOM     11  C   LIG d   1      11.207   1.618  -4.098  0.00  0.00     0.167 C 
ATOM     12  O   LIG d   1      12.226   0.962  -4.057  0.00  0.00    -0.292 OA
ATOM     13  H   LIG d   1      13.297   3.179  -3.320  0.00  0.00     0.084 H 
ATOM     14  H   LIG d   1       7.867   3.257  -3.049  0.00  0.00     0.033 H 
ATOM     15  H   LIG d   1       8.330   3.318  -4.762  0.00  0.00     0.033 H 
ATOM     16  H   LIG d   1       9.985   0.063  -4.772  0.00  0.00     0.035 H 
ATOM     17  H   LIG d   1       9.784   1.480  -5.700  0.00  0.00     0.035 H 
ENDROOT
BRANCH   8  18
ATOM     18  C   LIG d   1       7.496   0.840  -4.300  0.00  0.00    -0.036 A 
ATOM     19  C   LIG d   1       7.411   0.419  -5.614  0.00  0.00    -0.013 A 
ATOM     20  C   LIG d   1       6.238  -0.148  -6.089  0.00  0.00     0.165 A 
ATOM     21  H   LIG d   1       8.260   0.532  -6.273  0.00  0.00     0.066 H 
ATOM     22  C   LIG d   1       5.146  -0.293  -5.240  0.00  0.00     0.203 A 
ATOM     23  C   LIG d   1       5.236   0.130  -3.919  0.00  0.00     0.165 A 
ATOM     24  C   LIG d   1       6.415   0.691  -3.451  0.00  0.00    -0.013 A 
ATOM     25  H   LIG d   1       6.487   1.018  -2.425  0.00  0.00     0.066 H 
BRANCH  20  26
ATOM     26  O   LIG d   1       6.156  -0.561  -7.381  0.00  0.00    -0.491 OA
BRANCH  26  27
ATOM     27  C   LIG d   1       6.164   0.452  -8.389  0.00  0.00     0.079 C 
ATOM     28  H   LIG d   1       5.422   0.213  -9.151  0.00  0.00     0.066 H 
ATOM     29  H   LIG d   1       5.923   1.414  -7.937  0.00  0.00     0.066 H 
ATOM     30  H   LIG d   1       7.152   0.502  -8.845  0.00  0.00     0.066 H 
ENDBRANCH  26  27
ENDBRANCH  20  26
BRANCH  22  31
ATOM     31  O   LIG d   1       3.993  -0.850  -5.701  0.00  0.00    -0.488 OA
BRANCH  31  32
ATOM     32  C   LIG d   1       3.035   0.034  -6.285  0.00  0.00     0.079 C 
ATOM     33  H   LIG d   1       2.178   0.133  -5.619  0.00  0.00     0.066 H 
ATOM     34  H   LIG d   1       3.489   1.012  -6.442  0.00  0.00     0.066 H 
ATOM     35  H   LIG d   1       2.704  -0.371  -7.243  0.00  0.00     0.066 H 
ENDBRANCH  31  32
ENDBRANCH  22  31
BRANCH  23  36
ATOM     36  O   LIG d   1       4.171  -0.010  -3.085  0.00  0.00    -0.491 OA
BRANCH  36  37
ATOM     37  C   LIG d   1       3.691   1.172  -2.443  0.00  0.00     0.079 C 
ATOM     38  H   LIG d   1       4.421   1.973  -2.563  0.00  0.00     0.066 H 
ATOM     39  H   LIG d   1       2.745   1.473  -2.894  0.00  0.00     0.066 H 
ATOM     40  H   LIG d   1       3.541   0.974  -1.382  0.00  0.00     0.066 H 
ENDBRANCH  36  37
ENDBRANCH  23  36
ENDBRANCH   8  18
BRANCH   1  41
ATOM     41  N   LIG d   1      11.009   6.748  -2.060  0.00  0.00    -0.251 N 
ATOM     42  C   LIG d   1      10.657   6.945  -0.773  0.00  0.00     0.250 C 
ATOM     43  O   LIG d   1      10.385   5.996  -0.065  0.00  0.00    -0.270 OA
ATOM     44  H   LIG d   1      11.226   7.506  -2.624  0.00  0.00     0.158 HD
BRANCH  42  45
ATOM     45  C   LIG d   1      10.601   8.315  -0.225  0.00  0.00     0.037 A 
ATOM     46  C   LIG d   1       9.633   9.212  -0.681  0.00  0.00    -0.046 A 
ATOM     47  C   LIG d   1       9.584  10.489  -0.167  0.00  0.00    -0.019 A 
ATOM     48  H   LIG d   1       8.923   8.906  -1.435  0.00  0.00     0.063 H 
ATOM     49  C   LIG d   1      10.497  10.885   0.804  0.00  0.00     0.120 A 
ATOM     50  H   LIG d   1       8.836  11.184  -0.519  0.00  0.00     0.065 H 
ATOM     51  C   LIG d   1      11.461   9.994   1.261  0.00  0.00    -0.019 A 
ATOM     52  C   LIG d   1      11.513   8.714   0.755  0.00  0.00    -0.046 A 
ATOM     53  H   LIG d   1      12.168  10.305   2.015  0.00  0.00     0.065 H 
ATOM     54  H   LIG d   1      12.260   8.021   1.115  0.00  0.00     0.063 H 
BRANCH  49  55
ATOM     55  O   LIG d   1      10.445  12.144   1.308  0.00  0.00    -0.495 OA
BRANCH  55  56
ATOM     56  C   LIG d   1      10.469  13.219   0.366  0.00  0.00     0.079 C 
ATOM     57  H   LIG d   1      10.159  12.853  -0.612  0.00  0.00     0.066 H 
ATOM     58  H   LIG d   1       9.786  14.004   0.694  0.00  0.00     0.066 H 
ATOM     59  H   LIG d   1      11.480  13.622   0.300  0.00  0.00     0.066 H 
ENDBRANCH  55  56
ENDBRANCH  49  55
ENDBRANCH  42  45
ENDBRANCH   1  41
TORSDOF 11
ENDMDL
MODEL 4
REMARK VINA RESULT:      -6.2      2.863     10.682
REMARK  11 active torsions:
REMARK  status: ('A' for Active; 'I' for Inactive)
REMARK    1  A    between atoms: C_1  and  O_2 
REMARK    2  A    between atoms: O_2  and  C_3 
REMARK    3  A    between atoms: C_6  and  C_9 
REMARK       I    between atoms: C_9  and  N_11 
REMARK    4  A    between atoms: N_11  and  C_12 
REMARK    5  A    between atoms: C_19  and  C_24 
REMARK    6  A    between atoms: C_26  and  O_34 
REMARK    7  A    between atoms: C_27  and  O_32 
REMARK    8  A    between atoms: C_28  and  O_30 
REMARK    9  A    between atoms: O_30  and  C_31 
REMARK   10  A    between atoms: O_32  and  C_33 
REMARK   11  A    between atoms: O_34  and  C_35 
ROOT
ATOM      1  C   LIG d   1      11.022   5.483  -2.572  0.00  0.00     0.222 A 
ATOM      2  N   LIG d   1      12.207   4.902  -2.699  0.00  0.00    -0.222 NA
ATOM      3  C   LIG d   1      12.311   3.675  -3.176  0.00  0.00     0.043 A 
ATOM      4  C   LIG d   1      11.141   2.999  -3.546  0.00  0.00     0.057 A 
ATOM      5  C   LIG d   1       9.909   3.646  -3.401  0.00  0.00     0.057 A 
ATOM      6  N   LIG d   1       9.895   4.875  -2.914  0.00  0.00    -0.218 NA
ATOM      7  C   LIG d   1       8.619   2.978  -3.787  0.00  0.00    -0.002 C 
ATOM      8  C   LIG d   1       8.765   1.459  -3.795  0.00  0.00    -0.003 C 
ATOM      9  H   LIG d   1       8.951   1.106  -2.779  0.00  0.00     0.036 H 
ATOM     10  C   LIG d   1       9.941   1.062  -4.696  0.00  0.00     0.018 C 
ATOM     11  C   LIG d   1      11.202   1.629  -4.075  0.00  0.00     0.167 C 
ATOM     12  O   LIG d   1      12.223   0.978  -4.019  0.00  0.00    -0.292 OA
ATOM     13  H   LIG d   1      13.276   3.202  -3.280  0.00  0.00     0.084 H 
ATOM     14  H   LIG d   1       7.843   3.260  -3.074  0.00  0.00     0.033 H 
ATOM     15  H   LIG d   1       8.327   3.314  -4.782  0.00  0.00     0.033 H 
ATOM     16  H   LIG d   1       9.994   0.065  -4.755  0.00  0.00     0.035 H 
ATOM     17  H   LIG d   1       9.799   1.478  -5.693  0.00  0.00     0.035 H 
ENDROOT
BRANCH   8  18
ATOM     18  C   LIG d   1       7.497   0.835  -4.318  0.00  0.00    -0.036 A 
ATOM     19  C   LIG d   1       6.402   0.699  -3.486  0.00  0.00    -0.013 A 
ATOM     20  C   LIG d   1       5.233   0.125  -3.963  0.00  0.00     0.165 A 
ATOM     21  H   LIG d   1       6.455   1.041  -2.463  0.00  0.00     0.066 H 
ATOM     22  C   LIG d   1       5.165  -0.315  -5.280  0.00  0.00     0.203 A 
ATOM     23  C   LIG d   1       6.268  -0.176  -6.114  0.00  0.00     0.165 A 
ATOM     24  C   LIG d   1       7.431   0.405  -5.630  0.00  0.00    -0.013 A 
ATOM     25  H   LIG d   1       8.288   0.516  -6.277  0.00  0.00     0.066 H 
BRANCH  20  26
ATOM     26  O   LIG d   1       4.156  -0.008  -3.144  0.00  0.00    -0.491 OA
BRANCH  26  27
ATOM     27  C   LIG d   1       3.821   1.112  -2.324  0.00  0.00     0.079 C 
ATOM     28  H   LIG d   1       3.494   0.762  -1.345  0.00  0.00     0.066 H 
ATOM     29  H   LIG d   1       4.698   1.750  -2.207  0.00  0.00     0.066 H 
ATOM     30  H   LIG d   1       3.019   1.681  -2.795  0.00  0.00     0.066 H 
ENDBRANCH  26  27
ENDBRANCH  20  26
BRANCH  22  31
ATOM     31  O   LIG d   1       4.020  -0.879  -5.753  0.00  0.00    -0.488 OA
BRANCH  31  32
ATOM     32  C   LIG d   1       3.057  -0.001  -6.339  0.00  0.00     0.079 C 
ATOM     33  H   LIG d   1       3.571   0.814  -6.848  0.00  0.00     0.066 H 
ATOM     34  H   LIG d   1       2.450  -0.553  -7.056  0.00  0.00     0.066 H 
ATOM     35  H   LIG d   1       2.416   0.407  -5.557  0.00  0.00     0.066 H 
ENDBRANCH  31  32
ENDBRANCH  22  31
BRANCH  23  36
ATOM     36  O   LIG d   1       6.207  -0.604  -7.403  0.00  0.00    -0.491 OA
BRANCH  36  37
ATOM     37  C   LIG d   1       6.186   0.400  -8.419  0.00  0.00     0.079 C 
ATOM     38  H   LIG d   1       7.160   0.443  -8.907  0.00  0.00     0.066 H 
ATOM     39  H   LIG d   1       5.421   0.156  -9.157  0.00  0.00     0.066 H 
ATOM     40  H   LIG d   1       5.962   1.368  -7.970  0.00  0.00     0.066 H 
ENDBRANCH  36  37
ENDBRANCH  23  36
ENDBRANCH   8  18
BRANCH   1  41
ATOM     41  N   LIG d   1      10.959   6.769  -2.065  0.00  0.00    -0.251 N 
ATOM     42  C   LIG d   1      10.623   6.969  -0.775  0.00  0.00     0.250 C 
ATOM     43  O   LIG d   1      10.377   6.020  -0.057  0.00  0.00    -0.270 OA
ATOM     44  H   LIG d   1      11.156   7.526  -2.638  0.00  0.00     0.158 HD
BRANCH  42  45
ATOM     45  C   LIG d   1      10.556   8.341  -0.234  0.00  0.00     0.037 A 
ATOM     46  C   LIG d   1       9.554   9.214  -0.665  0.00  0.00    -0.046 A 
ATOM     47  C   LIG d   1       9.495  10.493  -0.158  0.00  0.00    -0.019 A 
ATOM     48  H   LIG d   1       8.828   8.887  -1.395  0.00  0.00     0.063 H 
ATOM     49  C   LIG d   1      10.429  10.915   0.781  0.00  0.00     0.120 A 
ATOM     50  H   LIG d   1       8.721  11.170  -0.491  0.00  0.00     0.065 H 
ATOM     51  C   LIG d   1      11.426  10.049   1.212  0.00  0.00    -0.019 A 
ATOM     52  C   LIG d   1      11.490   8.766   0.714  0.00  0.00    -0.046 A 
ATOM     53  H   LIG d   1      12.150  10.380   1.942  0.00  0.00     0.065 H 
ATOM     54  H   LIG d   1      12.263   8.093   1.054  0.00  0.00     0.063 H 
BRANCH  49  55
ATOM     55  O   LIG d   1      10.366  12.177   1.277  0.00  0.00    -0.495 OA
BRANCH  55  56
ATOM     56  C   LIG d   1      10.672  13.243   0.375  0.00  0.00     0.079 C 
ATOM     57  H   LIG d   1      11.582  13.007  -0.172  0.00  0.00     0.066 H 
ATOM     58  H   LIG d   1       9.847  13.372  -0.327  0.00  0.00     0.066 H 
ATOM     59  H   LIG d   1      10.815  14.165   0.939  0.00  0.00     0.066 H 
ENDBRANCH  55  56
ENDBRANCH  49  55
ENDBRANCH  42  45
ENDBRANCH   1  41
TORSDOF 11
ENDMDL
MODEL 5
REMARK VINA RESULT:      -6.1      3.303     11.015
REMARK  11 active torsions:
REMARK  status: ('A' for Active; 'I' for Inactive)
REMARK    1  A    between atoms: C_1  and  O_2 
REMARK    2  A    between atoms: O_2  and  C_3 
REMARK    3  A    between atoms: C_6  and  C_9 
REMARK       I    between atoms: C_9  and  N_11 
REMARK    4  A    between atoms: N_11  and  C_12 
REMARK    5  A    between atoms: C_19  and  C_24 
REMARK    6  A    between atoms: C_26  and  O_34 
REMARK    7  A    between atoms: C_27  and  O_32 
REMARK    8  A    between atoms: C_28  and  O_30 
REMARK    9  A    between atoms: O_30  and  C_31 
REMARK   10  A    between atoms: O_32  and  C_33 
REMARK   11  A    between atoms: O_34  and  C_35 
ROOT
ATOM      1  C   LIG d   1      10.114   4.269  -3.204  0.00  0.00     0.222 A 
ATOM      2  N   LIG d   1      10.410   4.776  -4.394  0.00  0.00    -0.222 NA
ATOM      3  C   LIG d   1       9.998   4.185  -5.501  0.00  0.00     0.043 A 
ATOM      4  C   LIG d   1       9.241   3.012  -5.393  0.00  0.00     0.057 A 
ATOM      5  C   LIG d   1       8.946   2.509  -4.121  0.00  0.00     0.057 A 
ATOM      6  N   LIG d   1       9.399   3.162  -3.064  0.00  0.00    -0.218 NA
ATOM      7  C   LIG d   1       8.132   1.259  -3.937  0.00  0.00    -0.002 C 
ATOM      8  C   LIG d   1       8.175   0.385  -5.188  0.00  0.00    -0.003 C 
ATOM      9  H   LIG d   1       9.191   0.018  -5.341  0.00  0.00     0.036 H 
ATOM     10  C   LIG d   1       7.742   1.211  -6.405  0.00  0.00     0.018 C 
ATOM     11  C   LIG d   1       8.765   2.313  -6.595  0.00  0.00     0.167 C 
ATOM     12  O   LIG d   1       9.175   2.607  -7.698  0.00  0.00    -0.292 OA
ATOM     13  H   LIG d   1      10.238   4.599  -6.470  0.00  0.00     0.084 H 
ATOM     14  H   LIG d   1       8.528   0.695  -3.093  0.00  0.00     0.033 H 
ATOM     15  H   LIG d   1       7.098   1.534  -3.728  0.00  0.00     0.033 H 
ATOM     16  H   LIG d   1       7.704   0.622  -7.212  0.00  0.00     0.035 H 
ATOM     17  H   LIG d   1       6.758   1.645  -6.227  0.00  0.00     0.035 H 
ENDROOT
BRANCH   8  18
ATOM     18  C   LIG d   1       7.240  -0.785  -5.015  0.00  0.00    -0.036 A 
ATOM     19  C   LIG d   1       7.737  -2.074  -5.041  0.00  0.00    -0.013 A 
ATOM     20  C   LIG d   1       6.881  -3.153  -4.883  0.00  0.00     0.165 A 
ATOM     21  H   LIG d   1       8.795  -2.242  -5.184  0.00  0.00     0.066 H 
ATOM     22  C   LIG d   1       5.520  -2.936  -4.699  0.00  0.00     0.203 A 
ATOM     23  C   LIG d   1       5.024  -1.638  -4.672  0.00  0.00     0.165 A 
ATOM     24  C   LIG d   1       5.889  -0.564  -4.826  0.00  0.00    -0.013 A 
ATOM     25  H   LIG d   1       5.505   0.445  -4.802  0.00  0.00     0.066 H 
BRANCH  20  26
ATOM     26  O   LIG d   1       7.371  -4.421  -4.909  0.00  0.00    -0.491 OA
BRANCH  26  27
ATOM     27  C   LIG d   1       8.604  -4.654  -4.226  0.00  0.00     0.079 C 
ATOM     28  H   LIG d   1       9.392  -4.058  -4.685  0.00  0.00     0.066 H 
ATOM     29  H   LIG d   1       8.497  -4.371  -3.179  0.00  0.00     0.066 H 
ATOM     30  H   LIG d   1       8.861  -5.712  -4.292  0.00  0.00     0.066 H 
ENDBRANCH  26  27
ENDBRANCH  20  26
BRANCH  22  31
ATOM     31  O   LIG d   1       4.676  -3.992  -4.543  0.00  0.00    -0.488 OA
BRANCH  31  32
ATOM     32  C   LIG d   1       4.286  -4.691  -5.726  0.00  0.00     0.079 C 
ATOM     33  H   LIG d   1       4.118  -3.977  -6.532  0.00  0.00     0.066 H 
ATOM     34  H   LIG d   1       5.075  -5.386  -6.015  0.00  0.00     0.066 H 
ATOM     35  H   LIG d   1       3.367  -5.246  -5.534  0.00  0.00     0.066 H 
ENDBRANCH  31  32
ENDBRANCH  22  31
BRANCH  23  36
ATOM     36  O   LIG d   1       3.694  -1.420  -4.492  0.00  0.00    -0.491 OA
BRANCH  36  37
ATOM     37  C   LIG d   1       3.261  -1.118  -3.164  0.00  0.00     0.079 C 
ATOM     38  H   LIG d   1       2.294  -1.589  -2.982  0.00  0.00     0.066 H 
ATOM     39  H   LIG d   1       3.990  -1.497  -2.448  0.00  0.00     0.066 H 
ATOM     40  H   LIG d   1       3.166  -0.038  -3.050  0.00  0.00     0.066 H 
ENDBRANCH  36  37
ENDBRANCH  23  36
ENDBRANCH   8  18
BRANCH   1  41
ATOM     41  N   LIG d   1      10.568   4.919  -2.071  0.00  0.00    -0.251 N 
ATOM     42  C   LIG d   1      10.048   6.113  -1.725  0.00  0.00     0.250 C 
ATOM     43  O   LIG d   1       9.180   6.619  -2.409  0.00  0.00    -0.270 OA
ATOM     44  H   LIG d   1      11.261   4.515  -1.524  0.00  0.00     0.158 HD
BRANCH  42  45
ATOM     45  C   LIG d   1      10.532   6.807  -0.515  0.00  0.00     0.037 A 
ATOM     46  C   LIG d   1      10.843   6.075   0.634  0.00  0.00    -0.046 A 
ATOM     47  C   LIG d   1      11.294   6.726   1.760  0.00  0.00    -0.019 A 
ATOM     48  H   LIG d   1      10.728   5.001   0.639  0.00  0.00     0.063 H 
ATOM     49  C   LIG d   1      11.442   8.108   1.755  0.00  0.00     0.120 A 
ATOM     50  H   LIG d   1      11.534   6.161   2.649  0.00  0.00     0.065 H 
ATOM     51  C   LIG d   1      11.134   8.838   0.614  0.00  0.00    -0.019 A 
ATOM     52  C   LIG d   1      10.687   8.195  -0.518  0.00  0.00    -0.046 A 
ATOM     53  H   LIG d   1      11.251   9.912   0.614  0.00  0.00     0.065 H 
ATOM     54  H   LIG d   1      10.453   8.764  -1.406  0.00  0.00     0.063 H 
BRANCH  49  55
ATOM     55  O   LIG d   1      11.887   8.744   2.868  0.00  0.00    -0.495 OA
BRANCH  55  56
ATOM     56  C   LIG d   1      12.401  10.067   2.696  0.00  0.00     0.079 C 
ATOM     57  H   LIG d   1      12.851  10.406   3.628  0.00  0.00     0.066 H 
ATOM     58  H   LIG d   1      13.155  10.063   1.907  0.00  0.00     0.066 H 
ATOM     59  H   LIG d   1      11.589  10.739   2.418  0.00  0.00     0.066 H 
ENDBRANCH  55  56
ENDBRANCH  49  55
ENDBRANCH  42  45
ENDBRANCH   1  41
TORSDOF 11
ENDMDL
MODEL 6
REMARK VINA RESULT:      -6.0      3.216     10.978
REMARK  11 active torsions:
REMARK  status: ('A' for Active; 'I' for Inactive)
REMARK    1  A    between atoms: C_1  and  O_2 
REMARK    2  A    between atoms: O_2  and  C_3 
REMARK    3  A    between atoms: C_6  and  C_9 
REMARK       I    between atoms: C_9  and  N_11 
REMARK    4  A    between atoms: N_11  and  C_12 
REMARK    5  A    between atoms: C_19  and  C_24 
REMARK    6  A    between atoms: C_26  and  O_34 
REMARK    7  A    between atoms: C_27  and  O_32 
REMARK    8  A    between atoms: C_28  and  O_30 
REMARK    9  A    between atoms: O_30  and  C_31 
REMARK   10  A    between atoms: O_32  and  C_33 
REMARK   11  A    between atoms: O_34  and  C_35 
ROOT
ATOM      1  C   LIG d   1      10.225   4.403  -3.189  0.00  0.00     0.222 A 
ATOM      2  N   LIG d   1      10.559   4.900  -4.373  0.00  0.00    -0.222 NA
ATOM      3  C   LIG d   1      10.164   4.312  -5.488  0.00  0.00     0.043 A 
ATOM      4  C   LIG d   1       9.386   3.152  -5.395  0.00  0.00     0.057 A 
ATOM      5  C   LIG d   1       9.051   2.659  -4.129  0.00  0.00     0.057 A 
ATOM      6  N   LIG d   1       9.488   3.308  -3.063  0.00  0.00    -0.218 NA
ATOM      7  C   LIG d   1       8.213   1.423  -3.962  0.00  0.00    -0.002 C 
ATOM      8  C   LIG d   1       8.272   0.544  -5.208  0.00  0.00    -0.003 C 
ATOM      9  H   LIG d   1       9.285   0.160  -5.334  0.00  0.00     0.036 H 
ATOM     10  C   LIG d   1       7.883   1.372  -6.439  0.00  0.00     0.018 C 
ATOM     11  C   LIG d   1       8.929   2.456  -6.606  0.00  0.00     0.167 C 
ATOM     12  O   LIG d   1       9.371   2.739  -7.699  0.00  0.00    -0.292 OA
ATOM     13  H   LIG d   1      10.436   4.718  -6.452  0.00  0.00     0.084 H 
ATOM     14  H   LIG d   1       8.578   0.856  -3.105  0.00  0.00     0.033 H 
ATOM     15  H   LIG d   1       7.178   1.715  -3.780  0.00  0.00     0.033 H 
ATOM     16  H   LIG d   1       7.856   0.780  -7.244  0.00  0.00     0.035 H 
ATOM     17  H   LIG d   1       6.903   1.823  -6.286  0.00  0.00     0.035 H 
ENDROOT
BRANCH   8  18
ATOM     18  C   LIG d   1       7.314  -0.610  -5.054  0.00  0.00    -0.036 A 
ATOM     19  C   LIG d   1       5.952  -0.381  -5.064  0.00  0.00    -0.013 A 
ATOM     20  C   LIG d   1       5.066  -1.439  -4.923  0.00  0.00     0.165 A 
ATOM     21  H   LIG d   1       5.574   0.625  -5.182  0.00  0.00     0.066 H 
ATOM     22  C   LIG d   1       5.553  -2.733  -4.772  0.00  0.00     0.203 A 
ATOM     23  C   LIG d   1       6.924  -2.959  -4.763  0.00  0.00     0.165 A 
ATOM     24  C   LIG d   1       7.802  -1.895  -4.910  0.00  0.00    -0.013 A 
ATOM     25  H   LIG d   1       8.867  -2.071  -4.907  0.00  0.00     0.066 H 
BRANCH  20  26
ATOM     26  O   LIG d   1       3.726  -1.212  -4.932  0.00  0.00    -0.491 OA
BRANCH  26  27
ATOM     27  C   LIG d   1       3.229  -0.218  -4.035  0.00  0.00     0.079 C 
ATOM     28  H   LIG d   1       3.536   0.770  -4.379  0.00  0.00     0.066 H 
ATOM     29  H   LIG d   1       2.141  -0.269  -4.004  0.00  0.00     0.066 H 
ATOM     30  H   LIG d   1       3.630  -0.397  -3.037  0.00  0.00     0.066 H 
ENDBRANCH  26  27
ENDBRANCH  20  26
BRANCH  22  31
ATOM     31  O   LIG d   1       4.688  -3.775  -4.633  0.00  0.00    -0.488 OA
BRANCH  31  32
ATOM     32  C   LIG d   1       4.344  -4.495  -5.818  0.00  0.00     0.079 C 
ATOM     33  H   LIG d   1       5.239  -4.652  -6.420  0.00  0.00     0.066 H 
ATOM     34  H   LIG d   1       3.914  -5.458  -5.546  0.00  0.00     0.066 H 
ATOM     35  H   LIG d   1       3.616  -3.921  -6.393  0.00  0.00     0.066 H 
ENDBRANCH  31  32
ENDBRANCH  22  31
BRANCH  23  36
ATOM     36  O   LIG d   1       7.405  -4.223  -4.616  0.00  0.00    -0.491 OA
BRANCH  36  37
ATOM     37  C   LIG d   1       8.077  -4.796  -5.739  0.00  0.00     0.079 C 
ATOM     38  H   LIG d   1       7.344  -5.083  -6.493  0.00  0.00     0.066 H 
ATOM     39  H   LIG d   1       8.766  -4.066  -6.162  0.00  0.00     0.066 H 
ATOM     40  H   LIG d   1       8.632  -5.678  -5.419  0.00  0.00     0.066 H 
ENDBRANCH  36  37
ENDBRANCH  23  36
ENDBRANCH   8  18
BRANCH   1  41
ATOM     41  N   LIG d   1      10.661   5.049  -2.047  0.00  0.00    -0.251 N 
ATOM     42  C   LIG d   1      10.094   6.214  -1.674  0.00  0.00     0.250 C 
ATOM     43  O   LIG d   1       9.200   6.696  -2.342  0.00  0.00    -0.270 OA
ATOM     44  H   LIG d   1      11.374   4.664  -1.513  0.00  0.00     0.158 HD
BRANCH  42  45
ATOM     45  C   LIG d   1      10.559   6.904  -0.455  0.00  0.00     0.037 A 
ATOM     46  C   LIG d   1      10.663   8.297  -0.436  0.00  0.00    -0.046 A 
ATOM     47  C   LIG d   1      11.097   8.937   0.704  0.00  0.00    -0.019 A 
ATOM     48  H   LIG d   1      10.404   8.872  -1.313  0.00  0.00     0.063 H 
ATOM     49  C   LIG d   1      11.432   8.199   1.834  0.00  0.00     0.120 A 
ATOM     50  H   LIG d   1      11.179  10.014   0.720  0.00  0.00     0.065 H 
ATOM     51  C   LIG d   1      11.328   6.813   1.818  0.00  0.00    -0.019 A 
ATOM     52  C   LIG d   1      10.890   6.166   0.684  0.00  0.00    -0.046 A 
ATOM     53  H   LIG d   1      11.588   6.244   2.698  0.00  0.00     0.065 H 
ATOM     54  H   LIG d   1      10.806   5.089   0.675  0.00  0.00     0.063 H 
BRANCH  49  55
ATOM     55  O   LIG d   1      11.859   8.834   2.954  0.00  0.00    -0.495 OA
BRANCH  55  56
ATOM     56  C   LIG d   1      12.572  10.060   2.772  0.00  0.00     0.079 C 
ATOM     57  H   LIG d   1      13.361   9.915   2.036  0.00  0.00     0.066 H 
ATOM     58  H   LIG d   1      11.885  10.831   2.422  0.00  0.00     0.066 H 
ATOM     59  H   LIG d   1      13.011  10.369   3.720  0.00  0.00     0.066 H 
ENDBRANCH  55  56
ENDBRANCH  49  55
ENDBRANCH  42  45
ENDBRANCH   1  41
TORSDOF 11
ENDMDL
MODEL 7
REMARK VINA RESULT:      -5.9      8.112     11.539
REMARK  11 active torsions:
REMARK  status: ('A' for Active; 'I' for Inactive)
REMARK    1  A    between atoms: C_1  and  O_2 
REMARK    2  A    between atoms: O_2  and  C_3 
REMARK    3  A    between atoms: C_6  and  C_9 
REMARK       I    between atoms: C_9  and  N_11 
REMARK    4  A    between atoms: N_11  and  C_12 
REMARK    5  A    between atoms: C_19  and  C_24 
REMARK    6  A    between atoms: C_26  and  O_34 
REMARK    7  A    between atoms: C_27  and  O_32 
REMARK    8  A    between atoms: C_28  and  O_30 
REMARK    9  A    between atoms: O_30  and  C_31 
REMARK   10  A    between atoms: O_32  and  C_33 
REMARK   11  A    between atoms: O_34  and  C_35 
ROOT
ATOM      1  C   LIG d   1      11.042  -6.637  -1.885  0.00  0.00     0.222 A 
ATOM      2  N   LIG d   1      11.665  -7.027  -2.989  0.00  0.00    -0.222 NA
ATOM      3  C   LIG d   1      11.410  -6.448  -4.148  0.00  0.00     0.043 A 
ATOM      4  C   LIG d   1      10.469  -5.412  -4.187  0.00  0.00     0.057 A 
ATOM      5  C   LIG d   1       9.835  -5.025  -3.002  0.00  0.00     0.057 A 
ATOM      6  N   LIG d   1      10.147  -5.659  -1.884  0.00  0.00    -0.218 NA
ATOM      7  C   LIG d   1       8.821  -3.916  -2.976  0.00  0.00    -0.002 C 
ATOM      8  C   LIG d   1       8.208  -3.698  -4.357  0.00  0.00    -0.003 C 
ATOM      9  H   LIG d   1       7.629  -4.578  -4.641  0.00  0.00     0.036 H 
ATOM     10  C   LIG d   1       9.325  -3.468  -5.383  0.00  0.00     0.018 C 
ATOM     11  C   LIG d   1      10.145  -4.741  -5.455  0.00  0.00     0.167 C 
ATOM     12  O   LIG d   1      10.521  -5.187  -6.517  0.00  0.00    -0.292 OA
ATOM     13  H   LIG d   1      11.918  -6.765  -5.047  0.00  0.00     0.084 H 
ATOM     14  H   LIG d   1       8.031  -4.170  -2.269  0.00  0.00     0.033 H 
ATOM     15  H   LIG d   1       9.307  -2.995  -2.651  0.00  0.00     0.033 H 
ATOM     16  H   LIG d   1       8.921  -3.258  -6.273  0.00  0.00     0.035 H 
ATOM     17  H   LIG d   1       9.954  -2.638  -5.065  0.00  0.00     0.035 H 
ENDROOT
BRANCH   8  18
ATOM     18  C   LIG d   1       7.303  -2.493  -4.320  0.00  0.00    -0.036 A 
ATOM     19  C   LIG d   1       7.811  -1.241  -4.607  0.00  0.00    -0.013 A 
ATOM     20  C   LIG d   1       6.982  -0.129  -4.573  0.00  0.00     0.165 A 
ATOM     21  H   LIG d   1       8.855  -1.126  -4.859  0.00  0.00     0.066 H 
ATOM     22  C   LIG d   1       5.638  -0.277  -4.250  0.00  0.00     0.203 A 
ATOM     23  C   LIG d   1       5.131  -1.539  -3.963  0.00  0.00     0.165 A 
ATOM     24  C   LIG d   1       5.966  -2.645  -4.004  0.00  0.00    -0.013 A 
ATOM     25  H   LIG d   1       5.572  -3.626  -3.783  0.00  0.00     0.066 H 
BRANCH  20  26
ATOM     26  O   LIG d   1       7.483   1.103  -4.856  0.00  0.00    -0.491 OA
BRANCH  26  27
ATOM     27  C   LIG d   1       8.386   1.671  -3.906  0.00  0.00     0.079 C 
ATOM     28  H   LIG d   1       9.362   1.194  -4.001  0.00  0.00     0.066 H 
ATOM     29  H   LIG d   1       8.486   2.740  -4.095  0.00  0.00     0.066 H 
ATOM     30  H   LIG d   1       8.000   1.514  -2.899  0.00  0.00     0.066 H 
ENDBRANCH  26  27
ENDBRANCH  20  26
BRANCH  22  31
ATOM     31  O   LIG d   1       4.821   0.811  -4.216  0.00  0.00    -0.488 OA
BRANCH  31  32
ATOM     32  C   LIG d   1       4.631   1.441  -2.949  0.00  0.00     0.079 C 
ATOM     33  H   LIG d   1       5.326   2.274  -2.849  0.00  0.00     0.066 H 
ATOM     34  H   LIG d   1       3.608   1.810  -2.875  0.00  0.00     0.066 H 
ATOM     35  H   LIG d   1       4.814   0.718  -2.153  0.00  0.00     0.066 H 
ENDBRANCH  31  32
ENDBRANCH  22  31
BRANCH  23  36
ATOM     36  O   LIG d   1       3.817  -1.688  -3.646  0.00  0.00    -0.491 OA
BRANCH  36  37
ATOM     37  C   LIG d   1       3.514  -2.083  -2.306  0.00  0.00     0.079 C 
ATOM     38  H   LIG d   1       4.004  -3.032  -2.088  0.00  0.00     0.066 H 
ATOM     39  H   LIG d   1       3.872  -1.322  -1.613  0.00  0.00     0.066 H 
ATOM     40  H   LIG d   1       2.436  -2.197  -2.196  0.00  0.00     0.066 H 
ENDBRANCH  36  37
ENDBRANCH  23  36
ENDBRANCH   8  18
BRANCH   1  41
ATOM     41  N   LIG d   1      11.337  -7.272  -0.692  0.00  0.00    -0.251 N 
ATOM     42  C   LIG d   1      10.657  -8.379  -0.333  0.00  0.00     0.250 C 
ATOM     43  O   LIG d   1       9.786  -8.820  -1.057  0.00  0.00    -0.270 OA
ATOM     44  H   LIG d   1      12.032  -6.921  -0.114  0.00  0.00     0.158 HD
BRANCH  42  45
ATOM     45  C   LIG d   1      10.971  -9.057   0.941  0.00  0.00     0.037 A 
ATOM     46  C   LIG d   1      10.810 -10.440   1.056  0.00  0.00    -0.046 A 
ATOM     47  C   LIG d   1      11.104 -11.068   2.245  0.00  0.00    -0.019 A 
ATOM     48  H   LIG d   1      10.454 -11.015   0.214  0.00  0.00     0.063 H 
ATOM     49  C   LIG d   1      11.562 -10.329   3.330  0.00  0.00     0.120 A 
ATOM     50  H   LIG d   1      10.979 -12.137   2.336  0.00  0.00     0.065 H 
ATOM     51  C   LIG d   1      11.725  -8.954   3.218  0.00  0.00    -0.019 A 
ATOM     52  C   LIG d   1      11.437  -8.318   2.031  0.00  0.00    -0.046 A 
ATOM     53  H   LIG d   1      12.081  -8.383   4.063  0.00  0.00     0.065 H 
ATOM     54  H   LIG d   1      11.569  -7.250   1.945  0.00  0.00     0.063 H 
BRANCH  49  55
ATOM     55  O   LIG d   1      11.851 -10.953   4.500  0.00  0.00    -0.495 OA
BRANCH  55  56
ATOM     56  C   LIG d   1      11.226 -12.218   4.730  0.00  0.00     0.079 C 
ATOM     57  H   LIG d   1      11.105 -12.374   5.801  0.00  0.00     0.066 H 
ATOM     58  H   LIG d   1      10.248 -12.234   4.247  0.00  0.00     0.066 H 
ATOM     59  H   LIG d   1      11.848 -13.011   4.315  0.00  0.00     0.066 H 
ENDBRANCH  55  56
ENDBRANCH  49  55
ENDBRANCH  42  45
ENDBRANCH   1  41
TORSDOF 11
ENDMDL
MODEL 8
REMARK VINA RESULT:      -5.8      8.943     12.419
REMARK  11 active torsions:
REMARK  status: ('A' for Active; 'I' for Inactive)
REMARK    1  A    between atoms: C_1  and  O_2 
REMARK    2  A    between atoms: O_2  and  C_3 
REMARK    3  A    between atoms: C_6  and  C_9 
REMARK       I    between atoms: C_9  and  N_11 
REMARK    4  A    between atoms: N_11  and  C_12 
REMARK    5  A    between atoms: C_19  and  C_24 
REMARK    6  A    between atoms: C_26  and  O_34 
REMARK    7  A    between atoms: C_27  and  O_32 
REMARK    8  A    between atoms: C_28  and  O_30 
REMARK    9  A    between atoms: O_30  and  C_31 
REMARK   10  A    between atoms: O_32  and  C_33 
REMARK   11  A    between atoms: O_34  and  C_35 
ROOT
ATOM      1  C   LIG d   1       9.523  -3.992  -3.198  0.00  0.00     0.222 A 
ATOM      2  N   LIG d   1      10.494  -4.028  -4.101  0.00  0.00    -0.222 NA
ATOM      3  C   LIG d   1      11.410  -4.979  -4.070  0.00  0.00     0.043 A 
ATOM      4  C   LIG d   1      11.335  -5.950  -3.063  0.00  0.00     0.057 A 
ATOM      5  C   LIG d   1      10.294  -5.881  -2.131  0.00  0.00     0.057 A 
ATOM      6  N   LIG d   1       9.419  -4.896  -2.233  0.00  0.00    -0.218 NA
ATOM      7  C   LIG d   1      10.154  -6.897  -1.032  0.00  0.00    -0.002 C 
ATOM      8  C   LIG d   1      11.485  -7.585  -0.743  0.00  0.00    -0.003 C 
ATOM      9  H   LIG d   1      12.191  -6.857  -0.341  0.00  0.00     0.036 H 
ATOM     10  C   LIG d   1      12.047  -8.178  -2.042  0.00  0.00     0.018 C 
ATOM     11  C   LIG d   1      12.335  -7.024  -2.982  0.00  0.00     0.167 C 
ATOM     12  O   LIG d   1      13.351  -6.990  -3.642  0.00  0.00    -0.292 OA
ATOM     13  H   LIG d   1      12.201  -5.009  -4.806  0.00  0.00     0.084 H 
ATOM     14  H   LIG d   1       9.805  -6.399  -0.127  0.00  0.00     0.033 H 
ATOM     15  H   LIG d   1       9.421  -7.647  -1.330  0.00  0.00     0.033 H 
ATOM     16  H   LIG d   1      12.884  -8.687  -1.841  0.00  0.00     0.035 H 
ATOM     17  H   LIG d   1      11.314  -8.848  -2.490  0.00  0.00     0.035 H 
ENDROOT
BRANCH   8  18
ATOM     18  C   LIG d   1      11.273  -8.687   0.263  0.00  0.00    -0.036 A 
ATOM     19  C   LIG d   1      10.726  -9.891  -0.138  0.00  0.00    -0.013 A 
ATOM     20  C   LIG d   1      10.529 -10.907   0.785  0.00  0.00     0.165 A 
ATOM     21  H   LIG d   1      10.452 -10.041  -1.172  0.00  0.00     0.066 H 
ATOM     22  C   LIG d   1      10.883 -10.713   2.115  0.00  0.00     0.203 A 
ATOM     23  C   LIG d   1      11.434  -9.501   2.514  0.00  0.00     0.165 A 
ATOM     24  C   LIG d   1      11.633  -8.492   1.584  0.00  0.00    -0.013 A 
ATOM     25  H   LIG d   1      12.063  -7.551   1.892  0.00  0.00     0.066 H 
BRANCH  20  26
ATOM     26  O   LIG d   1       9.991 -12.091   0.389  0.00  0.00    -0.491 OA
BRANCH  26  27
ATOM     27  C   LIG d   1       8.781 -12.034  -0.369  0.00  0.00     0.079 C 
ATOM     28  H   LIG d   1       7.930 -12.201   0.291  0.00  0.00     0.066 H 
ATOM     29  H   LIG d   1       8.692 -11.052  -0.835  0.00  0.00     0.066 H 
ATOM     30  H   LIG d   1       8.800 -12.802  -1.142  0.00  0.00     0.066 H 
ENDBRANCH  26  27
ENDBRANCH  20  26
BRANCH  22  31
ATOM     31  O   LIG d   1      10.692 -11.708   3.024  0.00  0.00    -0.488 OA
BRANCH  31  32
ATOM     32  C   LIG d   1      11.796 -12.578   3.275  0.00  0.00     0.079 C 
ATOM     33  H   LIG d   1      11.710 -12.994   4.279  0.00  0.00     0.066 H 
ATOM     34  H   LIG d   1      11.795 -13.388   2.545  0.00  0.00     0.066 H 
ATOM     35  H   LIG d   1      12.727 -12.017   3.193  0.00  0.00     0.066 H 
ENDBRANCH  31  32
ENDBRANCH  22  31
BRANCH  23  36
ATOM     36  O   LIG d   1      11.782  -9.306   3.814  0.00  0.00    -0.491 OA
BRANCH  36  37
ATOM     37  C   LIG d   1      13.075  -8.751   4.063  0.00  0.00     0.079 C 
ATOM     38  H   LIG d   1      13.706  -9.501   4.541  0.00  0.00     0.066 H 
ATOM     39  H   LIG d   1      13.528  -8.444   3.120  0.00  0.00     0.066 H 
ATOM     40  H   LIG d   1      12.979  -7.886   4.719  0.00  0.00     0.066 H 
ENDBRANCH  36  37
ENDBRANCH  23  36
ENDBRANCH   8  18
BRANCH   1  41
ATOM     41  N   LIG d   1       8.586  -2.978  -3.266  0.00  0.00    -0.251 N 
ATOM     42  C   LIG d   1       7.456  -3.151  -3.980  0.00  0.00     0.250 C 
ATOM     43  O   LIG d   1       7.261  -4.199  -4.564  0.00  0.00    -0.270 OA
ATOM     44  H   LIG d   1       8.741  -2.141  -2.800  0.00  0.00     0.158 HD
BRANCH  42  45
ATOM     45  C   LIG d   1       6.455  -2.068  -4.053  0.00  0.00     0.037 A 
ATOM     46  C   LIG d   1       5.252  -2.272  -4.734  0.00  0.00    -0.046 A 
ATOM     47  C   LIG d   1       4.321  -1.259  -4.799  0.00  0.00    -0.019 A 
ATOM     48  H   LIG d   1       5.052  -3.221  -5.208  0.00  0.00     0.063 H 
ATOM     49  C   LIG d   1       4.577  -0.036  -4.189  0.00  0.00     0.120 A 
ATOM     50  H   LIG d   1       3.391  -1.415  -5.325  0.00  0.00     0.065 H 
ATOM     51  C   LIG d   1       5.772   0.169  -3.510  0.00  0.00    -0.019 A 
ATOM     52  C   LIG d   1       6.706  -0.840  -3.436  0.00  0.00    -0.046 A 
ATOM     53  H   LIG d   1       5.967   1.120  -3.037  0.00  0.00     0.065 H 
ATOM     54  H   LIG d   1       7.633  -0.681  -2.904  0.00  0.00     0.063 H 
BRANCH  49  55
ATOM     55  O   LIG d   1       3.657   0.959  -4.256  0.00  0.00    -0.495 OA
BRANCH  55  56
ATOM     56  C   LIG d   1       2.418   0.653  -4.902  0.00  0.00     0.079 C 
ATOM     57  H   LIG d   1       2.229  -0.417  -4.835  0.00  0.00     0.066 H 
ATOM     58  H   LIG d   1       1.610   1.198  -4.413  0.00  0.00     0.066 H 
ATOM     59  H   LIG d   1       2.473   0.948  -5.950  0.00  0.00     0.066 H 
ENDBRANCH  55  56
ENDBRANCH  49  55
ENDBRANCH  42  45
ENDBRANCH   1  41
TORSDOF 11
ENDMDL
MODEL 9
REMARK VINA RESULT:      -5.8      9.349     12.900
REMARK  11 active torsions:
REMARK  status: ('A' for Active; 'I' for Inactive)
REMARK    1  A    between atoms: C_1  and  O_2 
REMARK    2  A    between atoms: O_2  and  C_3 
REMARK    3  A    between atoms: C_6  and  C_9 
REMARK       I    between atoms: C_9  and  N_11 
REMARK    4  A    between atoms: N_11  and  C_12 
REMARK    5  A    between atoms: C_19  and  C_24 
REMARK    6  A    between atoms: C_26  and  O_34 
REMARK    7  A    between atoms: C_27  and  O_32 
REMARK    8  A    between atoms: C_28  and  O_30 
REMARK    9  A    between atoms: O_30  and  C_31 
REMARK   10  A    between atoms: O_32  and  C_33 
REMARK   11  A    between atoms: O_34  and  C_35 
ROOT
ATOM      1  C   LIG d   1       9.680  -4.300  -2.910  0.00  0.00     0.222 A 
ATOM      2  N   LIG d   1      10.588  -4.415  -3.870  0.00  0.00    -0.222 NA
ATOM      3  C   LIG d   1      11.455  -5.412  -3.864  0.00  0.00     0.043 A 
ATOM      4  C   LIG d   1      11.394  -6.346  -2.822  0.00  0.00     0.057 A 
ATOM      5  C   LIG d   1      10.420  -6.194  -1.830  0.00  0.00     0.057 A 
ATOM      6  N   LIG d   1       9.592  -5.167  -1.911  0.00  0.00    -0.218 NA
ATOM      7  C   LIG d   1      10.299  -7.166  -0.691  0.00  0.00    -0.002 C 
ATOM      8  C   LIG d   1      11.609  -7.915  -0.463  0.00  0.00    -0.003 C 
ATOM      9  H   LIG d   1      12.376  -7.214  -0.130  0.00  0.00     0.036 H 
ATOM     10  C   LIG d   1      12.056  -8.577  -1.773  0.00  0.00     0.018 C 
ATOM     11  C   LIG d   1      12.341  -7.469  -2.767  0.00  0.00     0.167 C 
ATOM     12  O   LIG d   1      13.313  -7.509  -3.490  0.00  0.00    -0.292 OA
ATOM     13  H   LIG d   1      12.194  -5.505  -4.646  0.00  0.00     0.084 H 
ATOM     14  H   LIG d   1      10.034  -6.623   0.217  0.00  0.00     0.033 H 
ATOM     15  H   LIG d   1       9.511  -7.886  -0.917  0.00  0.00     0.033 H 
ATOM     16  H   LIG d   1      12.877  -9.123  -1.607  0.00  0.00     0.035 H 
ATOM     17  H   LIG d   1      11.262  -9.220  -2.151  0.00  0.00     0.035 H 
ENDROOT
BRANCH   8  18
ATOM     18  C   LIG d   1      11.406  -8.973   0.591  0.00  0.00    -0.036 A 
ATOM     19  C   LIG d   1      11.861  -8.760   1.879  0.00  0.00    -0.013 A 
ATOM     20  C   LIG d   1      11.677  -9.731   2.852  0.00  0.00     0.165 A 
ATOM     21  H   LIG d   1      12.360  -7.835   2.129  0.00  0.00     0.066 H 
ATOM     22  C   LIG d   1      11.034 -10.921   2.530  0.00  0.00     0.203 A 
ATOM     23  C   LIG d   1      10.577 -11.131   1.234  0.00  0.00     0.165 A 
ATOM     24  C   LIG d   1      10.761 -10.152   0.269  0.00  0.00    -0.013 A 
ATOM     25  H   LIG d   1      10.404 -10.314  -0.737  0.00  0.00     0.066 H 
BRANCH  20  26
ATOM     26  O   LIG d   1      12.125  -9.520   4.118  0.00  0.00    -0.491 OA
BRANCH  26  27
ATOM     27  C   LIG d   1      13.538  -9.412   4.298  0.00  0.00     0.079 C 
ATOM     28  H   LIG d   1      13.896  -8.497   3.825  0.00  0.00     0.066 H 
ATOM     29  H   LIG d   1      13.766  -9.382   5.363  0.00  0.00     0.066 H 
ATOM     30  H   LIG d   1      14.028 -10.273   3.844  0.00  0.00     0.066 H 
ENDBRANCH  26  27
ENDBRANCH  20  26
BRANCH  22  31
ATOM     31  O   LIG d   1      10.851 -11.877   3.481  0.00  0.00    -0.488 OA
BRANCH  31  32
ATOM     32  C   LIG d   1      11.923 -12.796   3.692  0.00  0.00     0.079 C 
ATOM     33  H   LIG d   1      12.151 -12.851   4.757  0.00  0.00     0.066 H 
ATOM     34  H   LIG d   1      11.634 -13.782   3.331  0.00  0.00     0.066 H 
ATOM     35  H   LIG d   1      12.806 -12.455   3.150  0.00  0.00     0.066 H 
ENDBRANCH  31  32
ENDBRANCH  22  31
BRANCH  23  36
ATOM     36  O   LIG d   1       9.948 -12.293   0.914  0.00  0.00    -0.491 OA
BRANCH  36  37
ATOM     37  C   LIG d   1      10.671 -13.220   0.101  0.00  0.00     0.079 C 
ATOM     38  H   LIG d   1      11.060 -14.024   0.726  0.00  0.00     0.066 H 
ATOM     39  H   LIG d   1      10.005 -13.637  -0.655  0.00  0.00     0.066 H 
ATOM     40  H   LIG d   1      11.499 -12.706  -0.387  0.00  0.00     0.066 H 
ENDBRANCH  36  37
ENDBRANCH  23  36
ENDBRANCH   8  18
BRANCH   1  41
ATOM     41  N   LIG d   1       8.793  -3.240  -2.954  0.00  0.00    -0.251 N 
ATOM     42  C   LIG d   1       7.745  -3.272  -3.802  0.00  0.00     0.250 C 
ATOM     43  O   LIG d   1       7.580  -4.233  -4.527  0.00  0.00    -0.270 OA
ATOM     44  H   LIG d   1       8.925  -2.473  -2.375  0.00  0.00     0.158 HD
BRANCH  42  45
ATOM     45  C   LIG d   1       6.799  -2.140  -3.848  0.00  0.00     0.037 A 
ATOM     46  C   LIG d   1       5.470  -2.354  -4.223  0.00  0.00    -0.046 A 
ATOM     47  C   LIG d   1       4.590  -1.295  -4.265  0.00  0.00    -0.019 A 
ATOM     48  H   LIG d   1       5.133  -3.348  -4.480  0.00  0.00     0.063 H 
ATOM     49  C   LIG d   1       5.023  -0.016  -3.935  0.00  0.00     0.120 A 
ATOM     50  H   LIG d   1       3.563  -1.459  -4.555  0.00  0.00     0.065 H 
ATOM     51  C   LIG d   1       6.343   0.200  -3.561  0.00  0.00    -0.019 A 
ATOM     52  C   LIG d   1       7.228  -0.854  -3.512  0.00  0.00    -0.046 A 
ATOM     53  H   LIG d   1       6.675   1.195  -3.305  0.00  0.00     0.065 H 
ATOM     54  H   LIG d   1       8.253  -0.685  -3.216  0.00  0.00     0.063 H 
BRANCH  49  55
ATOM     55  O   LIG d   1       4.152   1.024  -3.978  0.00  0.00    -0.495 OA
BRANCH  55  56
ATOM     56  C   LIG d   1       3.690   1.535  -2.725  0.00  0.00     0.079 C 
ATOM     57  H   LIG d   1       4.412   1.292  -1.946  0.00  0.00     0.066 H 
ATOM     58  H   LIG d   1       3.578   2.617  -2.794  0.00  0.00     0.066 H 
ATOM     59  H   LIG d   1       2.728   1.085  -2.482  0.00  0.00     0.066 H 
ENDBRANCH  55  56
ENDBRANCH  49  55
ENDBRANCH  42  45
ENDBRANCH   1  41
TORSDOF 11
ENDMDL
