MODEL 1
REMARK VINA RESULT:      -5.9      0.000      0.000
REMARK  4 active torsions:
REMARK  status: ('A' for Active; 'I' for Inactive)
REMARK    1  A    between atoms: C_1  and  C_2 
REMARK    2  A    between atoms: C_17  and  C_25 
REMARK    3  A    between atoms: C_18  and  O_24 
REMARK    4  A    between atoms: C_21  and  O_23 
ROOT
ATOM      1  C   LIG d   1       7.671  -1.035  -5.485  0.00  0.00    -0.007 C 
ATOM      2  C   LIG d   1       9.160  -0.690  -5.368  0.00  0.00    -0.037 C 
ATOM      3  C   LIG d   1       9.860  -0.727  -6.720  0.00  0.00     0.011 C 
ATOM      4  C   LIG d   1       9.674  -2.103  -7.326  0.00  0.00     0.156 C 
ATOM      5  O   LIG d   1      10.562  -2.631  -7.967  0.00  0.00    -0.293 OA
ATOM      6  C   LIG d   1       8.384  -2.766  -7.129  0.00  0.00    -0.019 C 
ATOM      7  C   LIG d   1       7.470  -2.280  -6.293  0.00  0.00    -0.060 C 
ATOM      8  C   LIG d   1       6.166  -3.040  -6.163  0.00  0.00    -0.030 C 
ATOM      9  C   LIG d   1       5.904  -3.313  -4.686  0.00  0.00    -0.044 C 
ATOM     10  C   LIG d   1       5.902  -2.024  -3.875  0.00  0.00    -0.008 C 
ATOM     11  H   LIG d   1       6.008  -2.396  -2.812  0.00  0.00     0.033 H 
ATOM     12  C   LIG d   1       7.120  -1.170  -4.077  0.00  0.00    -0.026 C 
ATOM     13  H   LIG d   1       7.944  -1.724  -3.519  0.00  0.00     0.031 H 
ATOM     14  C   LIG d   1       7.042   0.166  -3.352  0.00  0.00    -0.048 C 
ATOM     15  C   LIG d   1       5.706   0.865  -3.490  0.00  0.00    -0.042 C 
ATOM     16  C   LIG d   1       4.525  -0.025  -3.105  0.00  0.00     0.023 C 
ATOM     17  C   LIG d   1       4.553  -1.358  -3.866  0.00  0.00     0.077 C 
ATOM     18  C   LIG d   1       3.962  -1.081  -5.252  0.00  0.00    -0.021 C 
ATOM     19  C   LIG d   1       3.139   0.218  -5.121  0.00  0.00    -0.024 C 
ATOM     20  C   LIG d   1       3.243   0.663  -3.652  0.00  0.00     0.063 C 
ATOM     21  H   LIG d   1       2.373   0.329  -3.090  0.00  0.00     0.060 H 
ATOM     22  H   LIG d   1       9.630  -1.414  -4.703  0.00  0.00     0.028 H 
ATOM     23  H   LIG d   1       9.255   0.306  -4.941  0.00  0.00     0.028 H 
ATOM     24  H   LIG d   1      10.836  -0.548  -6.596  0.00  0.00     0.035 H 
ATOM     25  H   LIG d   1       9.455   0.031  -7.388  0.00  0.00     0.035 H 
ATOM     26  H   LIG d   1       8.167  -3.681  -7.672  0.00  0.00     0.065 H 
ATOM     27  H   LIG d   1       5.351  -2.479  -6.609  0.00  0.00     0.031 H 
ATOM     28  H   LIG d   1       6.260  -3.996  -6.693  0.00  0.00     0.031 H 
ATOM     29  H   LIG d   1       4.938  -3.816  -4.576  0.00  0.00     0.027 H 
ATOM     30  H   LIG d   1       6.683  -3.982  -4.298  0.00  0.00     0.027 H 
ATOM     31  H   LIG d   1       7.835   0.833  -3.718  0.00  0.00     0.027 H 
ATOM     32  H   LIG d   1       7.257   0.004  -2.284  0.00  0.00     0.027 H 
ATOM     33  H   LIG d   1       5.559   1.257  -4.492  0.00  0.00     0.027 H 
ATOM     34  H   LIG d   1       5.706   1.733  -2.810  0.00  0.00     0.027 H 
ATOM     35  H   LIG d   1       4.730  -0.971  -6.012  0.00  0.00     0.029 H 
ATOM     36  H   LIG d   1       3.297  -1.912  -5.541  0.00  0.00     0.029 H 
ATOM     37  H   LIG d   1       3.551   0.987  -5.774  0.00  0.00     0.029 H 
ATOM     38  H   LIG d   1       2.098   0.028  -5.381  0.00  0.00     0.029 H 
ENDROOT
BRANCH   1  39
ATOM     39  C   LIG d   1       7.017   0.123  -6.233  0.00  0.00    -0.056 C 
ATOM     40  H   LIG d   1       7.516   0.265  -7.191  0.00  0.00     0.024 H 
ATOM     41  H   LIG d   1       5.964  -0.102  -6.401  0.00  0.00     0.024 H 
ATOM     42  H   LIG d   1       7.105   1.033  -5.639  0.00  0.00     0.024 H 
ENDBRANCH   1  39
BRANCH  17  43
ATOM     43  O   LIG d   1       3.648  -2.253  -3.180  0.00  0.00    -0.388 OA
ATOM     44  H   LIG d   1       4.082  -2.846  -2.552  0.00  0.00     0.210 HD
ENDBRANCH  17  43
BRANCH  16  45
ATOM     45  C   LIG d   1       4.440  -0.234  -1.592  0.00  0.00    -0.055 C 
ATOM     46  H   LIG d   1       4.740  -1.254  -1.348  0.00  0.00     0.024 H 
ATOM     47  H   LIG d   1       5.103   0.469  -1.089  0.00  0.00     0.024 H 
ATOM     48  H   LIG d   1       3.415  -0.068  -1.259  0.00  0.00     0.024 H 
ENDBRANCH  16  45
BRANCH  20  49
ATOM     49  O   LIG d   1       3.368   2.084  -3.570  0.00  0.00    -0.391 OA
ATOM     50  H   LIG d   1       3.247   2.538  -4.416  0.00  0.00     0.210 HD
ENDBRANCH  20  49
TORSDOF 4
ENDMDL
MODEL 2
REMARK VINA RESULT:      -5.8      8.979     11.463
REMARK  4 active torsions:
REMARK  status: ('A' for Active; 'I' for Inactive)
REMARK    1  A    between atoms: C_1  and  C_2 
REMARK    2  A    between atoms: C_17  and  C_25 
REMARK    3  A    between atoms: C_18  and  O_24 
REMARK    4  A    between atoms: C_21  and  O_23 
ROOT
ATOM      1  C   LIG d   1      10.478   8.730  -1.210  0.00  0.00    -0.007 C 
ATOM      2  C   LIG d   1       9.434   9.834  -1.413  0.00  0.00    -0.037 C 
ATOM      3  C   LIG d   1       9.973  11.204  -1.022  0.00  0.00     0.011 C 
ATOM      4  C   LIG d   1      10.428  11.153   0.422  0.00  0.00     0.156 C 
ATOM      5  O   LIG d   1      10.270  12.104   1.163  0.00  0.00    -0.293 OA
ATOM      6  C   LIG d   1      11.079   9.928   0.889  0.00  0.00    -0.019 C 
ATOM      7  C   LIG d   1      11.104   8.825   0.147  0.00  0.00    -0.060 C 
ATOM      8  C   LIG d   1      11.807   7.611   0.721  0.00  0.00    -0.030 C 
ATOM      9  C   LIG d   1      10.858   6.419   0.652  0.00  0.00    -0.044 C 
ATOM     10  C   LIG d   1      10.367   6.182  -0.771  0.00  0.00    -0.008 C 
ATOM     11  H   LIG d   1       9.474   5.504  -0.618  0.00  0.00     0.033 H 
ATOM     12  C   LIG d   1       9.784   7.397  -1.430  0.00  0.00    -0.026 C 
ATOM     13  H   LIG d   1       8.775   7.534  -0.920  0.00  0.00     0.031 H 
ATOM     14  C   LIG d   1       9.412   7.168  -2.888  0.00  0.00    -0.048 C 
ATOM     15  C   LIG d   1      10.460   6.417  -3.681  0.00  0.00    -0.042 C 
ATOM     16  C   LIG d   1      10.880   5.105  -3.021  0.00  0.00     0.023 C 
ATOM     17  C   LIG d   1      11.312   5.320  -1.563  0.00  0.00     0.077 C 
ATOM     18  C   LIG d   1      12.758   5.822  -1.608  0.00  0.00    -0.021 C 
ATOM     19  C   LIG d   1      13.318   5.410  -2.985  0.00  0.00    -0.024 C 
ATOM     20  C   LIG d   1      12.195   4.650  -3.712  0.00  0.00     0.063 C 
ATOM     21  H   LIG d   1      12.325   3.576  -3.596  0.00  0.00     0.060 H 
ATOM     22  H   LIG d   1       8.565   9.603  -0.797  0.00  0.00     0.028 H 
ATOM     23  H   LIG d   1       9.140   9.849  -2.459  0.00  0.00     0.028 H 
ATOM     24  H   LIG d   1       9.249  11.887  -1.118  0.00  0.00     0.035 H 
ATOM     25  H   LIG d   1      10.803  11.492  -1.663  0.00  0.00     0.035 H 
ATOM     26  H   LIG d   1      11.548   9.914   1.869  0.00  0.00     0.065 H 
ATOM     27  H   LIG d   1      12.726   7.411   0.181  0.00  0.00     0.031 H 
ATOM     28  H   LIG d   1      12.056   7.810   1.770  0.00  0.00     0.031 H 
ATOM     29  H   LIG d   1      11.373   5.524   1.015  0.00  0.00     0.027 H 
ATOM     30  H   LIG d   1       9.996   6.605   1.304  0.00  0.00     0.027 H 
ATOM     31  H   LIG d   1       9.216   8.133  -3.376  0.00  0.00     0.027 H 
ATOM     32  H   LIG d   1       8.461   6.614  -2.929  0.00  0.00     0.027 H 
ATOM     33  H   LIG d   1      11.337   7.029  -3.869  0.00  0.00     0.027 H 
ATOM     34  H   LIG d   1      10.029   6.173  -4.666  0.00  0.00     0.027 H 
ATOM     35  H   LIG d   1      12.824   6.898  -1.476  0.00  0.00     0.029 H 
ATOM     36  H   LIG d   1      13.343   5.333  -0.811  0.00  0.00     0.029 H 
ATOM     37  H   LIG d   1      13.598   6.297  -3.554  0.00  0.00     0.029 H 
ATOM     38  H   LIG d   1      14.185   4.762  -2.857  0.00  0.00     0.029 H 
ENDROOT
BRANCH   1  39
ATOM     39  C   LIG d   1      11.568   8.971  -2.251  0.00  0.00    -0.056 C 
ATOM     40  H   LIG d   1      11.577   8.148  -2.965  0.00  0.00     0.024 H 
ATOM     41  H   LIG d   1      11.368   9.906  -2.775  0.00  0.00     0.024 H 
ATOM     42  H   LIG d   1      12.536   9.033  -1.754  0.00  0.00     0.024 H 
ENDBRANCH   1  39
BRANCH  17  43
ATOM     43  O   LIG d   1      11.324   4.019  -0.931  0.00  0.00    -0.388 OA
ATOM     44  H   LIG d   1      10.989   4.020  -0.024  0.00  0.00     0.210 HD
ENDBRANCH  17  43
BRANCH  16  45
ATOM     45  C   LIG d   1       9.792   4.034  -3.140  0.00  0.00    -0.055 C 
ATOM     46  H   LIG d   1       9.277   3.932  -2.184  0.00  0.00     0.024 H 
ATOM     47  H   LIG d   1       9.077   4.326  -3.909  0.00  0.00     0.024 H 
ATOM     48  H   LIG d   1      10.248   3.082  -3.410  0.00  0.00     0.024 H 
ENDBRANCH  16  45
BRANCH  20  49
ATOM     49  O   LIG d   1      12.175   4.998  -5.098  0.00  0.00    -0.391 OA
ATOM     50  H   LIG d   1      12.933   4.664  -5.597  0.00  0.00     0.210 HD
ENDBRANCH  20  49
TORSDOF 4
ENDMDL
MODEL 3
REMARK VINA RESULT:      -5.7      2.059      5.677
REMARK  4 active torsions:
REMARK  status: ('A' for Active; 'I' for Inactive)
REMARK    1  A    between atoms: C_1  and  C_2 
REMARK    2  A    between atoms: C_17  and  C_25 
REMARK    3  A    between atoms: C_18  and  O_24 
REMARK    4  A    between atoms: C_21  and  O_23 
ROOT
ATOM      1  C   LIG d   1       5.047  -1.584  -4.002  0.00  0.00    -0.007 C 
ATOM      2  C   LIG d   1       4.083  -1.667  -2.814  0.00  0.00    -0.037 C 
ATOM      3  C   LIG d   1       3.554  -0.296  -2.414  0.00  0.00     0.011 C 
ATOM      4  C   LIG d   1       4.730   0.602  -2.090  0.00  0.00     0.156 C 
ATOM      5  O   LIG d   1       4.668   1.415  -1.187  0.00  0.00    -0.293 OA
ATOM      6  C   LIG d   1       5.935   0.471  -2.911  0.00  0.00    -0.019 C 
ATOM      7  C   LIG d   1       6.080  -0.522  -3.783  0.00  0.00    -0.060 C 
ATOM      8  C   LIG d   1       7.364  -0.566  -4.586  0.00  0.00    -0.030 C 
ATOM      9  C   LIG d   1       7.983  -1.952  -4.443  0.00  0.00    -0.044 C 
ATOM     10  C   LIG d   1       7.005  -3.042  -4.861  0.00  0.00    -0.008 C 
ATOM     11  H   LIG d   1       7.468  -3.977  -4.421  0.00  0.00     0.033 H 
ATOM     12  C   LIG d   1       5.667  -2.958  -4.187  0.00  0.00    -0.026 C 
ATOM     13  H   LIG d   1       5.868  -3.305  -3.122  0.00  0.00     0.031 H 
ATOM     14  C   LIG d   1       4.668  -3.981  -4.707  0.00  0.00    -0.048 C 
ATOM     15  C   LIG d   1       4.649  -4.114  -6.216  0.00  0.00    -0.042 C 
ATOM     16  C   LIG d   1       6.034  -4.364  -6.809  0.00  0.00     0.023 C 
ATOM     17  C   LIG d   1       7.047  -3.310  -6.341  0.00  0.00     0.077 C 
ATOM     18  C   LIG d   1       6.833  -2.078  -7.224  0.00  0.00    -0.021 C 
ATOM     19  C   LIG d   1       6.104  -2.573  -8.490  0.00  0.00    -0.024 C 
ATOM     20  C   LIG d   1       5.929  -4.094  -8.335  0.00  0.00     0.063 C 
ATOM     21  H   LIG d   1       6.719  -4.624  -8.864  0.00  0.00     0.060 H 
ATOM     22  H   LIG d   1       4.614  -2.105  -1.970  0.00  0.00     0.028 H 
ATOM     23  H   LIG d   1       3.248  -2.309  -3.087  0.00  0.00     0.028 H 
ATOM     24  H   LIG d   1       2.972  -0.385  -1.606  0.00  0.00     0.035 H 
ATOM     25  H   LIG d   1       2.962   0.141  -3.217  0.00  0.00     0.035 H 
ATOM     26  H   LIG d   1       6.735   1.197  -2.802  0.00  0.00     0.065 H 
ATOM     27  H   LIG d   1       7.172  -0.328  -5.627  0.00  0.00     0.031 H 
ATOM     28  H   LIG d   1       8.059   0.180  -4.182  0.00  0.00     0.031 H 
ATOM     29  H   LIG d   1       8.884  -2.012  -5.061  0.00  0.00     0.027 H 
ATOM     30  H   LIG d   1       8.276  -2.111  -3.397  0.00  0.00     0.027 H 
ATOM     31  H   LIG d   1       3.658  -3.726  -4.357  0.00  0.00     0.027 H 
ATOM     32  H   LIG d   1       4.899  -4.962  -4.261  0.00  0.00     0.027 H 
ATOM     33  H   LIG d   1       4.199  -3.246  -6.690  0.00  0.00     0.027 H 
ATOM     34  H   LIG d   1       4.014  -4.977  -6.472  0.00  0.00     0.027 H 
ATOM     35  H   LIG d   1       6.250  -1.309  -6.725  0.00  0.00     0.029 H 
ATOM     36  H   LIG d   1       7.811  -1.650  -7.504  0.00  0.00     0.029 H 
ATOM     37  H   LIG d   1       5.131  -2.091  -8.572  0.00  0.00     0.029 H 
ATOM     38  H   LIG d   1       6.702  -2.354  -9.375  0.00  0.00     0.029 H 
ENDROOT
BRANCH   1  39
ATOM     39  C   LIG d   1       4.207  -1.182  -5.212  0.00  0.00    -0.056 C 
ATOM     40  H   LIG d   1       3.163  -1.435  -5.029  0.00  0.00     0.024 H 
ATOM     41  H   LIG d   1       4.298  -0.109  -5.376  0.00  0.00     0.024 H 
ATOM     42  H   LIG d   1       4.562  -1.717  -6.093  0.00  0.00     0.024 H 
ENDBRANCH   1  39
BRANCH  17  43
ATOM     43  O   LIG d   1       8.364  -3.831  -6.635  0.00  0.00    -0.388 OA
ATOM     44  H   LIG d   1       8.603  -4.612  -6.118  0.00  0.00     0.210 HD
ENDBRANCH  17  43
BRANCH  16  45
ATOM     45  C   LIG d   1       6.524  -5.787  -6.530  0.00  0.00    -0.055 C 
ATOM     46  H   LIG d   1       6.540  -6.355  -7.461  0.00  0.00     0.024 H 
ATOM     47  H   LIG d   1       7.529  -5.750  -6.110  0.00  0.00     0.024 H 
ATOM     48  H   LIG d   1       5.852  -6.271  -5.821  0.00  0.00     0.024 H 
ENDBRANCH  16  45
BRANCH  20  49
ATOM     49  O   LIG d   1       4.649  -4.500  -8.825  0.00  0.00    -0.391 OA
ATOM     50  H   LIG d   1       4.048  -4.817  -8.137  0.00  0.00     0.210 HD
ENDBRANCH  20  49
TORSDOF 4
ENDMDL
MODEL 4
REMARK VINA RESULT:      -5.5      7.607      9.974
REMARK  4 active torsions:
REMARK  status: ('A' for Active; 'I' for Inactive)
REMARK    1  A    between atoms: C_1  and  C_2 
REMARK    2  A    between atoms: C_17  and  C_25 
REMARK    3  A    between atoms: C_18  and  O_24 
REMARK    4  A    between atoms: C_21  and  O_23 
ROOT
ATOM      1  C   LIG d   1      10.096   7.399  -4.642  0.00  0.00    -0.007 C 
ATOM      2  C   LIG d   1       9.119   7.939  -5.692  0.00  0.00    -0.037 C 
ATOM      3  C   LIG d   1       9.493   9.344  -6.147  0.00  0.00     0.011 C 
ATOM      4  C   LIG d   1       9.534  10.252  -4.934  0.00  0.00     0.156 C 
ATOM      5  O   LIG d   1       9.153  11.405  -5.001  0.00  0.00    -0.293 OA
ATOM      6  C   LIG d   1      10.063   9.699  -3.686  0.00  0.00    -0.019 C 
ATOM      7  C   LIG d   1      10.322   8.401  -3.552  0.00  0.00    -0.060 C 
ATOM      8  C   LIG d   1      10.870   7.931  -2.220  0.00  0.00    -0.030 C 
ATOM      9  C   LIG d   1      10.009   6.778  -1.716  0.00  0.00    -0.044 C 
ATOM     10  C   LIG d   1       9.936   5.651  -2.740  0.00  0.00    -0.008 C 
ATOM     11  H   LIG d   1       9.053   5.042  -2.379  0.00  0.00     0.033 H 
ATOM     12  C   LIG d   1       9.525   6.095  -4.113  0.00  0.00    -0.026 C 
ATOM     13  H   LIG d   1       8.411   6.312  -4.014  0.00  0.00     0.031 H 
ATOM     14  C   LIG d   1       9.575   4.977  -5.144  0.00  0.00    -0.048 C 
ATOM     15  C   LIG d   1      10.821   4.120  -5.064  0.00  0.00    -0.042 C 
ATOM     16  C   LIG d   1      11.077   3.570  -3.662  0.00  0.00     0.023 C 
ATOM     17  C   LIG d   1      11.086   4.689  -2.611  0.00  0.00     0.077 C 
ATOM     18  C   LIG d   1      12.474   5.332  -2.670  0.00  0.00    -0.021 C 
ATOM     19  C   LIG d   1      13.402   4.299  -3.341  0.00  0.00    -0.024 C 
ATOM     20  C   LIG d   1      12.544   3.057  -3.638  0.00  0.00     0.063 C 
ATOM     21  H   LIG d   1      12.665   2.313  -2.853  0.00  0.00     0.060 H 
ATOM     22  H   LIG d   1       8.121   7.959  -5.257  0.00  0.00     0.028 H 
ATOM     23  H   LIG d   1       9.125   7.271  -6.550  0.00  0.00     0.028 H 
ATOM     24  H   LIG d   1       8.806   9.681  -6.790  0.00  0.00     0.035 H 
ATOM     25  H   LIG d   1      10.460   9.346  -6.645  0.00  0.00     0.035 H 
ATOM     26  H   LIG d   1      10.244  10.361  -2.845  0.00  0.00     0.065 H 
ATOM     27  H   LIG d   1      11.908   7.631  -2.320  0.00  0.00     0.031 H 
ATOM     28  H   LIG d   1      10.815   8.759  -1.503  0.00  0.00     0.031 H 
ATOM     29  H   LIG d   1      10.428   6.395  -0.781  0.00  0.00     0.027 H 
ATOM     30  H   LIG d   1       8.996   7.146  -1.512  0.00  0.00     0.027 H 
ATOM     31  H   LIG d   1       9.496   5.401  -6.155  0.00  0.00     0.027 H 
ATOM     32  H   LIG d   1       8.688   4.337  -5.018  0.00  0.00     0.027 H 
ATOM     33  H   LIG d   1      11.700   4.655  -5.415  0.00  0.00     0.027 H 
ATOM     34  H   LIG d   1      10.685   3.261  -5.741  0.00  0.00     0.027 H 
ATOM     35  H   LIG d   1      12.473   6.263  -3.230  0.00  0.00     0.029 H 
ATOM     36  H   LIG d   1      12.829   5.538  -1.646  0.00  0.00     0.029 H 
ATOM     37  H   LIG d   1      13.804   4.705  -4.268  0.00  0.00     0.029 H 
ATOM     38  H   LIG d   1      14.218   4.036  -2.667  0.00  0.00     0.029 H 
ENDROOT
BRANCH   1  39
ATOM     39  C   LIG d   1      11.424   7.177  -5.361  0.00  0.00    -0.056 C 
ATOM     40  H   LIG d   1      11.524   6.124  -5.621  0.00  0.00     0.024 H 
ATOM     41  H   LIG d   1      11.450   7.780  -6.269  0.00  0.00     0.024 H 
ATOM     42  H   LIG d   1      12.244   7.470  -4.706  0.00  0.00     0.024 H 
ENDBRANCH   1  39
BRANCH  17  43
ATOM     43  O   LIG d   1      10.957   4.053  -1.318  0.00  0.00    -0.388 OA
ATOM     44  H   LIG d   1      11.216   3.122  -1.311  0.00  0.00     0.210 HD
ENDBRANCH  17  43
BRANCH  16  45
ATOM     45  C   LIG d   1      10.094   2.456  -3.300  0.00  0.00    -0.055 C 
ATOM     46  H   LIG d   1       9.241   2.487  -3.979  0.00  0.00     0.024 H 
ATOM     47  H   LIG d   1      10.591   1.489  -3.385  0.00  0.00     0.024 H 
ATOM     48  H   LIG d   1       9.747   2.596  -2.276  0.00  0.00     0.024 H 
ENDBRANCH  16  45
BRANCH  20  49
ATOM     49  O   LIG d   1      12.897   2.500  -4.905  0.00  0.00    -0.391 OA
ATOM     50  H   LIG d   1      13.077   1.550  -4.879  0.00  0.00     0.210 HD
ENDBRANCH  20  49
TORSDOF 4
ENDMDL
MODEL 5
REMARK VINA RESULT:      -5.2      9.301     11.588
REMARK  4 active torsions:
REMARK  status: ('A' for Active; 'I' for Inactive)
REMARK    1  A    between atoms: C_1  and  C_2 
REMARK    2  A    between atoms: C_17  and  C_25 
REMARK    3  A    between atoms: C_18  and  O_24 
REMARK    4  A    between atoms: C_21  and  O_23 
ROOT
ATOM      1  C   LIG d   1      10.434   9.144  -3.370  0.00  0.00    -0.007 C 
ATOM      2  C   LIG d   1      10.001   9.583  -4.773  0.00  0.00    -0.037 C 
ATOM      3  C   LIG d   1      10.219  11.074  -4.994  0.00  0.00     0.011 C 
ATOM      4  C   LIG d   1       9.457  11.839  -3.932  0.00  0.00     0.156 C 
ATOM      5  O   LIG d   1       8.907  12.893  -4.190  0.00  0.00    -0.293 OA
ATOM      6  C   LIG d   1       9.420  11.277  -2.581  0.00  0.00    -0.019 C 
ATOM      7  C   LIG d   1       9.867  10.051  -2.323  0.00  0.00    -0.060 C 
ATOM      8  C   LIG d   1       9.787   9.564  -0.890  0.00  0.00    -0.030 C 
ATOM      9  C   LIG d   1       9.076   8.215  -0.871  0.00  0.00    -0.044 C 
ATOM     10  C   LIG d   1       9.768   7.210  -1.784  0.00  0.00    -0.008 C 
ATOM     11  H   LIG d   1       8.986   6.401  -1.905  0.00  0.00     0.033 H 
ATOM     12  C   LIG d   1       9.990   7.703  -3.183  0.00  0.00    -0.026 C 
ATOM     13  H   LIG d   1       8.954   7.680  -3.655  0.00  0.00     0.031 H 
ATOM     14  C   LIG d   1      10.789   6.732  -4.041  0.00  0.00    -0.048 C 
ATOM     15  C   LIG d   1      11.995   6.140  -3.343  0.00  0.00    -0.042 C 
ATOM     16  C   LIG d   1      11.652   5.509  -1.994  0.00  0.00     0.023 C 
ATOM     17  C   LIG d   1      10.893   6.491  -1.090  0.00  0.00     0.077 C 
ATOM     18  C   LIG d   1      11.947   7.403  -0.455  0.00  0.00    -0.021 C 
ATOM     19  C   LIG d   1      13.291   6.653  -0.564  0.00  0.00    -0.024 C 
ATOM     20  C   LIG d   1      12.993   5.302  -1.237  0.00  0.00     0.063 C 
ATOM     21  H   LIG d   1      12.881   4.520  -0.489  0.00  0.00     0.060 H 
ATOM     22  H   LIG d   1       8.942   9.356  -4.893  0.00  0.00     0.028 H 
ATOM     23  H   LIG d   1      10.575   9.023  -5.507  0.00  0.00     0.028 H 
ATOM     24  H   LIG d   1       9.877  11.331  -5.898  0.00  0.00     0.035 H 
ATOM     25  H   LIG d   1      11.277  11.323  -4.944  0.00  0.00     0.035 H 
ATOM     26  H   LIG d   1       9.013  11.870  -1.767  0.00  0.00     0.065 H 
ATOM     27  H   LIG d   1      10.778   9.491  -0.456  0.00  0.00     0.031 H 
ATOM     28  H   LIG d   1       9.203  10.284  -0.304  0.00  0.00     0.031 H 
ATOM     29  H   LIG d   1       9.059   7.828   0.152  0.00  0.00     0.027 H 
ATOM     30  H   LIG d   1       8.039   8.348  -1.203  0.00  0.00     0.027 H 
ATOM     31  H   LIG d   1      11.119   7.235  -4.961  0.00  0.00     0.027 H 
ATOM     32  H   LIG d   1      10.124   5.918  -4.368  0.00  0.00     0.027 H 
ATOM     33  H   LIG d   1      12.785   6.874  -3.214  0.00  0.00     0.027 H 
ATOM     34  H   LIG d   1      12.404   5.347  -3.989  0.00  0.00     0.027 H 
ATOM     35  H   LIG d   1      12.008   8.368  -0.950  0.00  0.00     0.029 H 
ATOM     36  H   LIG d   1      11.701   7.567   0.607  0.00  0.00     0.029 H 
ATOM     37  H   LIG d   1      13.990   7.227  -1.172  0.00  0.00     0.029 H 
ATOM     38  H   LIG d   1      13.709   6.491   0.430  0.00  0.00     0.029 H 
ENDROOT
BRANCH   1  39
ATOM     39  C   LIG d   1      11.955   9.270  -3.330  0.00  0.00    -0.056 C 
ATOM     40  H   LIG d   1      12.228  10.281  -3.029  0.00  0.00     0.024 H 
ATOM     41  H   LIG d   1      12.359   8.555  -2.613  0.00  0.00     0.024 H 
ATOM     42  H   LIG d   1      12.362   9.062  -4.320  0.00  0.00     0.024 H 
ENDBRANCH   1  39
BRANCH  17  43
ATOM     43  O   LIG d   1      10.298   5.710  -0.027  0.00  0.00    -0.388 OA
ATOM     44  H   LIG d   1      10.048   4.814  -0.290  0.00  0.00     0.210 HD
ENDBRANCH  17  43
BRANCH  16  45
ATOM     45  C   LIG d   1      10.898   4.188  -2.159  0.00  0.00    -0.055 C 
ATOM     46  H   LIG d   1      10.574   3.829  -1.182  0.00  0.00     0.024 H 
ATOM     47  H   LIG d   1      10.027   4.343  -2.796  0.00  0.00     0.024 H 
ATOM     48  H   LIG d   1      11.556   3.449  -2.618  0.00  0.00     0.024 H 
ENDBRANCH  16  45
BRANCH  20  49
ATOM     49  O   LIG d   1      14.034   4.963  -2.155  0.00  0.00    -0.391 OA
ATOM     50  H   LIG d   1      13.741   4.416  -2.897  0.00  0.00     0.210 HD
ENDBRANCH  20  49
TORSDOF 4
ENDMDL
MODEL 6
REMARK VINA RESULT:      -5.1      5.715      7.338
REMARK  4 active torsions:
REMARK  status: ('A' for Active; 'I' for Inactive)
REMARK    1  A    between atoms: C_1  and  C_2 
REMARK    2  A    between atoms: C_17  and  C_25 
REMARK    3  A    between atoms: C_18  and  O_24 
REMARK    4  A    between atoms: C_21  and  O_23 
ROOT
ATOM      1  C   LIG d   1       3.444  -1.199 -11.500  0.00  0.00    -0.007 C 
ATOM      2  C   LIG d   1       3.609  -2.321 -12.529  0.00  0.00    -0.037 C 
ATOM      3  C   LIG d   1       2.656  -2.158 -13.706  0.00  0.00     0.011 C 
ATOM      4  C   LIG d   1       1.236  -2.117 -13.178  0.00  0.00     0.156 C 
ATOM      5  O   LIG d   1       0.324  -2.635 -13.793  0.00  0.00    -0.293 OA
ATOM      6  C   LIG d   1       0.999  -1.417 -11.915  0.00  0.00    -0.019 C 
ATOM      7  C   LIG d   1       2.002  -0.996 -11.150  0.00  0.00    -0.060 C 
ATOM      8  C   LIG d   1       1.649  -0.280  -9.863  0.00  0.00    -0.030 C 
ATOM      9  C   LIG d   1       2.389  -0.951  -8.711  0.00  0.00    -0.044 C 
ATOM     10  C   LIG d   1       3.892  -0.981  -8.960  0.00  0.00    -0.008 C 
ATOM     11  H   LIG d   1       4.254  -1.750  -8.213  0.00  0.00     0.033 H 
ATOM     12  C   LIG d   1       4.283  -1.562 -10.287  0.00  0.00    -0.026 C 
ATOM     13  H   LIG d   1       4.105  -2.680 -10.165  0.00  0.00     0.031 H 
ATOM     14  C   LIG d   1       5.777  -1.472 -10.564  0.00  0.00    -0.048 C 
ATOM     15  C   LIG d   1       6.389  -0.132 -10.215  0.00  0.00    -0.042 C 
ATOM     16  C   LIG d   1       6.079   0.311  -8.786  0.00  0.00     0.023 C 
ATOM     17  C   LIG d   1       4.571   0.280  -8.501  0.00  0.00     0.077 C 
ATOM     18  C   LIG d   1       3.991   1.572  -9.083  0.00  0.00    -0.021 C 
ATOM     19  C   LIG d   1       5.174   2.553  -9.225  0.00  0.00    -0.024 C 
ATOM     20  C   LIG d   1       6.421   1.824  -8.697  0.00  0.00     0.063 C 
ATOM     21  H   LIG d   1       6.616   2.102  -7.662  0.00  0.00     0.060 H 
ATOM     22  H   LIG d   1       3.409  -3.272 -12.037  0.00  0.00     0.028 H 
ATOM     23  H   LIG d   1       4.634  -2.313 -12.894  0.00  0.00     0.028 H 
ATOM     24  H   LIG d   1       2.757  -2.934 -14.328  0.00  0.00     0.035 H 
ATOM     25  H   LIG d   1       2.874  -1.246 -14.258  0.00  0.00     0.035 H 
ATOM     26  H   LIG d   1      -0.022  -1.241 -11.587  0.00  0.00     0.065 H 
ATOM     27  H   LIG d   1       1.901   0.773  -9.930  0.00  0.00     0.031 H 
ATOM     28  H   LIG d   1       0.569  -0.369  -9.694  0.00  0.00     0.031 H 
ATOM     29  H   LIG d   1       2.183  -0.409  -7.783  0.00  0.00     0.027 H 
ATOM     30  H   LIG d   1       2.022  -1.978  -8.595  0.00  0.00     0.027 H 
ATOM     31  H   LIG d   1       5.971  -1.691 -11.623  0.00  0.00     0.027 H 
ATOM     32  H   LIG d   1       6.292  -2.263  -9.996  0.00  0.00     0.027 H 
ATOM     33  H   LIG d   1       6.084   0.643 -10.913  0.00  0.00     0.027 H 
ATOM     34  H   LIG d   1       7.483  -0.226 -10.307  0.00  0.00     0.027 H 
ATOM     35  H   LIG d   1       3.512   1.412 -10.045  0.00  0.00     0.029 H 
ATOM     36  H   LIG d   1       3.247   1.990  -8.385  0.00  0.00     0.029 H 
ATOM     37  H   LIG d   1       5.313   2.820 -10.272  0.00  0.00     0.029 H 
ATOM     38  H   LIG d   1       4.988   3.450  -8.635  0.00  0.00     0.029 H 
ENDROOT
BRANCH   1  39
ATOM     39  C   LIG d   1       3.951   0.077 -12.167  0.00  0.00    -0.056 C 
ATOM     40  H   LIG d   1       3.239   0.884 -11.997  0.00  0.00     0.024 H 
ATOM     41  H   LIG d   1       4.918   0.349 -11.743  0.00  0.00     0.024 H 
ATOM     42  H   LIG d   1       4.059  -0.093 -13.239  0.00  0.00     0.024 H 
ENDBRANCH   1  39
BRANCH  17  43
ATOM     43  O   LIG d   1       4.413   0.343  -7.064  0.00  0.00    -0.388 OA
ATOM     44  H   LIG d   1       4.480  -0.514  -6.624  0.00  0.00     0.210 HD
ENDBRANCH  17  43
BRANCH  16  45
ATOM     45  C   LIG d   1       6.870  -0.498  -7.756  0.00  0.00    -0.055 C 
ATOM     46  H   LIG d   1       6.354  -0.469  -6.796  0.00  0.00     0.024 H 
ATOM     47  H   LIG d   1       6.953  -1.532  -8.091  0.00  0.00     0.024 H 
ATOM     48  H   LIG d   1       7.867  -0.071  -7.645  0.00  0.00     0.024 H 
ENDBRANCH  16  45
BRANCH  20  49
ATOM     49  O   LIG d   1       7.556   2.126  -9.510  0.00  0.00    -0.391 OA
ATOM     50  H   LIG d   1       8.121   2.824  -9.151  0.00  0.00     0.210 HD
ENDBRANCH  20  49
TORSDOF 4
ENDMDL
MODEL 7
REMARK VINA RESULT:      -5.1      6.401      7.926
REMARK  4 active torsions:
REMARK  status: ('A' for Active; 'I' for Inactive)
REMARK    1  A    between atoms: C_1  and  C_2 
REMARK    2  A    between atoms: C_17  and  C_25 
REMARK    3  A    between atoms: C_18  and  O_24 
REMARK    4  A    between atoms: C_21  and  O_23 
ROOT
ATOM      1  C   LIG d   1       2.241  -2.111 -11.728  0.00  0.00    -0.007 C 
ATOM      2  C   LIG d   1       0.852  -2.493 -12.250  0.00  0.00    -0.037 C 
ATOM      3  C   LIG d   1       0.850  -3.867 -12.908  0.00  0.00     0.011 C 
ATOM      4  C   LIG d   1       1.866  -3.869 -14.031  0.00  0.00     0.156 C 
ATOM      5  O   LIG d   1       1.655  -4.471 -15.067  0.00  0.00    -0.293 OA
ATOM      6  C   LIG d   1       3.117  -3.137 -13.821  0.00  0.00    -0.019 C 
ATOM      7  C   LIG d   1       3.290  -2.338 -12.773  0.00  0.00    -0.060 C 
ATOM      8  C   LIG d   1       4.622  -1.628 -12.646  0.00  0.00    -0.030 C 
ATOM      9  C   LIG d   1       4.366  -0.137 -12.462  0.00  0.00    -0.044 C 
ATOM     10  C   LIG d   1       3.458   0.127 -11.267  0.00  0.00    -0.008 C 
ATOM     11  H   LIG d   1       3.118   1.192 -11.440  0.00  0.00     0.033 H 
ATOM     12  C   LIG d   1       2.180  -0.660 -11.283  0.00  0.00    -0.026 C 
ATOM     13  H   LIG d   1       1.554  -0.159 -12.091  0.00  0.00     0.031 H 
ATOM     14  C   LIG d   1       1.345  -0.472 -10.024  0.00  0.00    -0.048 C 
ATOM     15  C   LIG d   1       2.146  -0.524  -8.740  0.00  0.00    -0.042 C 
ATOM     16  C   LIG d   1       3.338   0.432  -8.742  0.00  0.00     0.023 C 
ATOM     17  C   LIG d   1       4.225   0.223  -9.977  0.00  0.00     0.077 C 
ATOM     18  C   LIG d   1       5.122  -0.980  -9.670  0.00  0.00    -0.021 C 
ATOM     19  C   LIG d   1       5.134  -1.132  -8.135  0.00  0.00    -0.024 C 
ATOM     20  C   LIG d   1       4.263   0.004  -7.570  0.00  0.00     0.063 C 
ATOM     21  H   LIG d   1       4.884   0.842  -7.260  0.00  0.00     0.060 H 
ATOM     22  H   LIG d   1       0.542  -1.748 -12.982  0.00  0.00     0.028 H 
ATOM     23  H   LIG d   1       0.153  -2.493 -11.417  0.00  0.00     0.028 H 
ATOM     24  H   LIG d   1      -0.057  -4.058 -13.280  0.00  0.00     0.035 H 
ATOM     25  H   LIG d   1       1.094  -4.643 -12.185  0.00  0.00     0.035 H 
ATOM     26  H   LIG d   1       3.922  -3.242 -14.542  0.00  0.00     0.065 H 
ATOM     27  H   LIG d   1       5.194  -2.034 -11.817  0.00  0.00     0.031 H 
ATOM     28  H   LIG d   1       5.194  -1.782 -13.570  0.00  0.00     0.031 H 
ATOM     29  H   LIG d   1       5.320   0.380 -12.316  0.00  0.00     0.027 H 
ATOM     30  H   LIG d   1       3.896   0.265 -13.368  0.00  0.00     0.027 H 
ATOM     31  H   LIG d   1       0.556  -1.236  -9.985  0.00  0.00     0.027 H 
ATOM     32  H   LIG d   1       0.822   0.495 -10.086  0.00  0.00     0.027 H 
ATOM     33  H   LIG d   1       2.484  -1.532  -8.517  0.00  0.00     0.027 H 
ATOM     34  H   LIG d   1       1.479  -0.226  -7.914  0.00  0.00     0.027 H 
ATOM     35  H   LIG d   1       4.764  -1.891 -10.140  0.00  0.00     0.029 H 
ATOM     36  H   LIG d   1       6.146  -0.778 -10.029  0.00  0.00     0.029 H 
ATOM     37  H   LIG d   1       4.717  -2.098  -7.853  0.00  0.00     0.029 H 
ATOM     38  H   LIG d   1       6.153  -1.043  -7.759  0.00  0.00     0.029 H 
ENDROOT
BRANCH   1  39
ATOM     39  C   LIG d   1       2.533  -3.044 -10.556  0.00  0.00    -0.056 C 
ATOM     40  H   LIG d   1       2.774  -2.453  -9.673  0.00  0.00     0.024 H 
ATOM     41  H   LIG d   1       1.655  -3.658 -10.354  0.00  0.00     0.024 H 
ATOM     42  H   LIG d   1       3.377  -3.686 -10.806  0.00  0.00     0.024 H 
ENDBRANCH   1  39
BRANCH  17  43
ATOM     43  O   LIG d   1       5.080   1.385 -10.083  0.00  0.00    -0.388 OA
ATOM     44  H   LIG d   1       5.875   1.340  -9.535  0.00  0.00     0.210 HD
ENDBRANCH  17  43
BRANCH  16  45
ATOM     45  C   LIG d   1       2.898   1.890  -8.597  0.00  0.00    -0.055 C 
ATOM     46  H   LIG d   1       3.764   2.544  -8.701  0.00  0.00     0.024 H 
ATOM     47  H   LIG d   1       2.168   2.129  -9.371  0.00  0.00     0.024 H 
ATOM     48  H   LIG d   1       2.447   2.039  -7.616  0.00  0.00     0.024 H 
ENDBRANCH  16  45
BRANCH  20  49
ATOM     49  O   LIG d   1       3.485  -0.467  -6.468  0.00  0.00    -0.391 OA
ATOM     50  H   LIG d   1       2.826  -1.133  -6.709  0.00  0.00     0.210 HD
ENDBRANCH  20  49
TORSDOF 4
ENDMDL
MODEL 8
REMARK VINA RESULT:      -5.1      8.765     10.393
REMARK  4 active torsions:
REMARK  status: ('A' for Active; 'I' for Inactive)
REMARK    1  A    between atoms: C_1  and  C_2 
REMARK    2  A    between atoms: C_17  and  C_25 
REMARK    3  A    between atoms: C_18  and  O_24 
REMARK    4  A    between atoms: C_21  and  O_23 
ROOT
ATOM      1  C   LIG d   1      11.073   8.096  -4.812  0.00  0.00    -0.007 C 
ATOM      2  C   LIG d   1      11.877   8.740  -5.947  0.00  0.00    -0.037 C 
ATOM      3  C   LIG d   1      11.047   9.751  -6.728  0.00  0.00     0.011 C 
ATOM      4  C   LIG d   1       9.816   9.055  -7.270  0.00  0.00     0.156 C 
ATOM      5  O   LIG d   1       9.369   9.334  -8.366  0.00  0.00    -0.293 OA
ATOM      6  C   LIG d   1       9.173   8.050  -6.422  0.00  0.00    -0.019 C 
ATOM      7  C   LIG d   1       9.743   7.614  -5.302  0.00  0.00    -0.060 C 
ATOM      8  C   LIG d   1       8.993   6.574  -4.494  0.00  0.00    -0.030 C 
ATOM      9  C   LIG d   1       9.924   5.396  -4.229  0.00  0.00    -0.044 C 
ATOM     10  C   LIG d   1      11.206   5.847  -3.540  0.00  0.00    -0.008 C 
ATOM     11  H   LIG d   1      11.896   4.962  -3.689  0.00  0.00     0.033 H 
ATOM     12  C   LIG d   1      11.914   6.971  -4.236  0.00  0.00    -0.026 C 
ATOM     13  H   LIG d   1      12.375   6.484  -5.156  0.00  0.00     0.031 H 
ATOM     14  C   LIG d   1      13.124   7.484  -3.468  0.00  0.00    -0.048 C 
ATOM     15  C   LIG d   1      12.881   7.665  -1.984  0.00  0.00    -0.042 C 
ATOM     16  C   LIG d   1      12.312   6.414  -1.317  0.00  0.00     0.023 C 
ATOM     17  C   LIG d   1      11.057   5.909  -2.044  0.00  0.00     0.077 C 
ATOM     18  C   LIG d   1       9.891   6.769  -1.548  0.00  0.00    -0.021 C 
ATOM     19  C   LIG d   1      10.345   7.384  -0.208  0.00  0.00    -0.024 C 
ATOM     20  C   LIG d   1      11.761   6.850   0.068  0.00  0.00     0.063 C 
ATOM     21  H   LIG d   1      11.721   5.994   0.740  0.00  0.00     0.060 H 
ATOM     22  H   LIG d   1      12.208   7.953  -6.624  0.00  0.00     0.028 H 
ATOM     23  H   LIG d   1      12.744   9.239  -5.522  0.00  0.00     0.028 H 
ATOM     24  H   LIG d   1      11.587  10.110  -7.489  0.00  0.00     0.035 H 
ATOM     25  H   LIG d   1      10.754  10.585  -6.093  0.00  0.00     0.035 H 
ATOM     26  H   LIG d   1       8.210   7.643  -6.715  0.00  0.00     0.065 H 
ATOM     27  H   LIG d   1       8.627   7.001  -3.567  0.00  0.00     0.031 H 
ATOM     28  H   LIG d   1       8.133   6.225  -5.079  0.00  0.00     0.031 H 
ATOM     29  H   LIG d   1       9.410   4.662  -3.601  0.00  0.00     0.027 H 
ATOM     30  H   LIG d   1      10.177   4.913  -5.181  0.00  0.00     0.027 H 
ATOM     31  H   LIG d   1      13.457   8.441  -3.895  0.00  0.00     0.027 H 
ATOM     32  H   LIG d   1      13.961   6.784  -3.615  0.00  0.00     0.027 H 
ATOM     33  H   LIG d   1      12.234   8.514  -1.783  0.00  0.00     0.027 H 
ATOM     34  H   LIG d   1      13.850   7.887  -1.507  0.00  0.00     0.027 H 
ATOM     35  H   LIG d   1       9.626   7.549  -2.255  0.00  0.00     0.029 H 
ATOM     36  H   LIG d   1       9.007   6.131  -1.380  0.00  0.00     0.029 H 
ATOM     37  H   LIG d   1      10.364   8.471  -0.284  0.00  0.00     0.029 H 
ATOM     38  H   LIG d   1       9.669   7.079   0.591  0.00  0.00     0.029 H 
ENDROOT
BRANCH   1  39
ATOM     39  C   LIG d   1      10.826   9.195  -3.782  0.00  0.00    -0.056 C 
ATOM     40  H   LIG d   1       9.799   9.548  -3.866  0.00  0.00     0.024 H 
ATOM     41  H   LIG d   1      10.993   8.797  -2.781  0.00  0.00     0.024 H 
ATOM     42  H   LIG d   1      11.512  10.022  -3.963  0.00  0.00     0.024 H 
ENDBRANCH   1  39
BRANCH  17  43
ATOM     43  O   LIG d   1      10.823   4.556  -1.589  0.00  0.00    -0.388 OA
ATOM     44  H   LIG d   1      11.007   4.419  -0.650  0.00  0.00     0.210 HD
ENDBRANCH  17  43
BRANCH  16  45
ATOM     45  C   LIG d   1      13.367   5.315  -1.174  0.00  0.00    -0.055 C 
ATOM     46  H   LIG d   1      14.036   5.558  -0.348  0.00  0.00     0.024 H 
ATOM     47  H   LIG d   1      12.876   4.362  -0.975  0.00  0.00     0.024 H 
ATOM     48  H   LIG d   1      13.943   5.240  -2.097  0.00  0.00     0.024 H 
ENDBRANCH  16  45
BRANCH  20  49
ATOM     49  O   LIG d   1      12.580   7.878   0.628  0.00  0.00    -0.391 OA
ATOM     50  H   LIG d   1      13.225   7.558   1.274  0.00  0.00     0.210 HD
ENDBRANCH  20  49
TORSDOF 4
ENDMDL
MODEL 9
REMARK VINA RESULT:      -5.1      6.722      8.585
REMARK  4 active torsions:
REMARK  status: ('A' for Active; 'I' for Inactive)
REMARK    1  A    between atoms: C_1  and  C_2 
REMARK    2  A    between atoms: C_17  and  C_25 
REMARK    3  A    between atoms: C_18  and  O_24 
REMARK    4  A    between atoms: C_21  and  O_23 
ROOT
ATOM      1  C   LIG d   1       9.909   4.243  -5.807  0.00  0.00    -0.007 C 
ATOM      2  C   LIG d   1       9.053   3.019  -6.149  0.00  0.00    -0.037 C 
ATOM      3  C   LIG d   1       9.337   2.501  -7.553  0.00  0.00     0.011 C 
ATOM      4  C   LIG d   1       9.093   3.621  -8.543  0.00  0.00     0.156 C 
ATOM      5  O   LIG d   1       8.605   3.399  -9.634  0.00  0.00    -0.293 OA
ATOM      6  C   LIG d   1       9.481   4.977  -8.149  0.00  0.00    -0.019 C 
ATOM      7  C   LIG d   1       9.855   5.261  -6.904  0.00  0.00    -0.060 C 
ATOM      8  C   LIG d   1      10.240   6.694  -6.600  0.00  0.00    -0.030 C 
ATOM      9  C   LIG d   1       9.441   7.169  -5.390  0.00  0.00    -0.044 C 
ATOM     10  C   LIG d   1       9.649   6.250  -4.193  0.00  0.00    -0.008 C 
ATOM     11  H   LIG d   1       8.792   6.531  -3.509  0.00  0.00     0.033 H 
ATOM     12  C   LIG d   1       9.408   4.798  -4.485  0.00  0.00    -0.026 C 
ATOM     13  H   LIG d   1       8.275   4.715  -4.573  0.00  0.00     0.031 H 
ATOM     14  C   LIG d   1       9.736   3.888  -3.310  0.00  0.00    -0.048 C 
ATOM     15  C   LIG d   1      11.041   4.222  -2.617  0.00  0.00    -0.042 C 
ATOM     16  C   LIG d   1      11.136   5.689  -2.204  0.00  0.00     0.023 C 
ATOM     17  C   LIG d   1      10.862   6.628  -3.388  0.00  0.00     0.077 C 
ATOM     18  C   LIG d   1      12.165   6.713  -4.187  0.00  0.00    -0.021 C 
ATOM     19  C   LIG d   1      13.292   6.278  -3.227  0.00  0.00    -0.024 C 
ATOM     20  C   LIG d   1      12.628   5.971  -1.874  0.00  0.00     0.063 C 
ATOM     21  H   LIG d   1      12.707   6.828  -1.207  0.00  0.00     0.060 H 
ATOM     22  H   LIG d   1       8.003   3.303  -6.080  0.00  0.00     0.028 H 
ATOM     23  H   LIG d   1       9.262   2.233  -5.427  0.00  0.00     0.028 H 
ATOM     24  H   LIG d   1       8.725   1.738  -7.758  0.00  0.00     0.035 H 
ATOM     25  H   LIG d   1      10.364   2.149  -7.636  0.00  0.00     0.035 H 
ATOM     26  H   LIG d   1       9.458   5.773  -8.886  0.00  0.00     0.065 H 
ATOM     27  H   LIG d   1      11.307   6.773  -6.420  0.00  0.00     0.031 H 
ATOM     28  H   LIG d   1       9.986   7.320  -7.464  0.00  0.00     0.031 H 
ATOM     29  H   LIG d   1       9.750   8.185  -5.128  0.00  0.00     0.027 H 
ATOM     30  H   LIG d   1       8.375   7.191  -5.647  0.00  0.00     0.027 H 
ATOM     31  H   LIG d   1       9.768   2.842  -3.649  0.00  0.00     0.027 H 
ATOM     32  H   LIG d   1       8.914   3.940  -2.579  0.00  0.00     0.027 H 
ATOM     33  H   LIG d   1      11.899   3.956  -3.227  0.00  0.00     0.027 H 
ATOM     34  H   LIG d   1      11.103   3.611  -1.702  0.00  0.00     0.027 H 
ATOM     35  H   LIG d   1      12.149   6.079  -5.069  0.00  0.00     0.029 H 
ATOM     36  H   LIG d   1      12.334   7.755  -4.506  0.00  0.00     0.029 H 
ATOM     37  H   LIG d   1      13.785   5.386  -3.612  0.00  0.00     0.029 H 
ATOM     38  H   LIG d   1      14.017   7.083  -3.113  0.00  0.00     0.029 H 
ENDROOT
BRANCH   1  39
ATOM     39  C   LIG d   1      11.347   3.746  -5.695  0.00  0.00    -0.056 C 
ATOM     40  H   LIG d   1      11.481   2.874  -6.335  0.00  0.00     0.024 H 
ATOM     41  H   LIG d   1      12.029   4.536  -6.010  0.00  0.00     0.024 H 
ATOM     42  H   LIG d   1      11.557   3.474  -4.661  0.00  0.00     0.024 H 
ENDBRANCH   1  39
BRANCH  17  43
ATOM     43  O   LIG d   1      10.605   7.940  -2.834  0.00  0.00    -0.388 OA
ATOM     44  H   LIG d   1      11.280   8.243  -2.212  0.00  0.00     0.210 HD
ENDBRANCH  17  43
BRANCH  16  45
ATOM     45  C   LIG d   1      10.235   6.003  -1.008  0.00  0.00    -0.055 C 
ATOM     46  H   LIG d   1      10.690   5.614  -0.096  0.00  0.00     0.024 H 
ATOM     47  H   LIG d   1      10.110   7.083  -0.919  0.00  0.00     0.024 H 
ATOM     48  H   LIG d   1       9.260   5.537  -1.154  0.00  0.00     0.024 H 
ENDBRANCH  16  45
BRANCH  20  49
ATOM     49  O   LIG d   1      13.230   4.822  -1.273  0.00  0.00    -0.391 OA
ATOM     50  H   LIG d   1      14.172   4.928  -1.081  0.00  0.00     0.210 HD
ENDBRANCH  20  49
TORSDOF 4
ENDMDL
