MODEL 1
REMARK VINA RESULT:      -6.9      0.000      0.000
REMARK  8 active torsions:
REMARK  status: ('A' for Active; 'I' for Inactive)
REMARK    1  A    between atoms: C_1  and  O_2 
REMARK    2  A    between atoms: O_2  and  C_3 
REMARK    3  A    between atoms: C_3  and  C_5 
REMARK    4  A    between atoms: N_10  and  C_12 
REMARK    5  A    between atoms: C_12  and  C_13 
REMARK       I    between atoms: N_21  and  C_22 
REMARK    6  A    between atoms: C_22  and  C_24 
REMARK    7  A    between atoms: C_24  and  O_25 
REMARK    8  A    between atoms: O_25  and  C_26 
ROOT
ATOM      1  C   LIG d   1       4.575  -1.411  -8.372  0.00  0.00     0.133 C 
ATOM      2  H   LIG d   1       5.473  -1.012  -8.843  0.00  0.00     0.062 H 
ATOM      3  C   LIG d   1       4.836  -2.848  -7.906  0.00  0.00     0.063 C 
ATOM      4  C   LIG d   1       5.703  -2.810  -6.672  0.00  0.00     0.207 A 
ATOM      5  C   LIG d   1       5.878  -1.717  -5.897  0.00  0.00     0.108 A 
ATOM      6  N   LIG d   1       6.716  -2.072  -4.885  0.00  0.00    -0.287 N 
ATOM      7  C   LIG d   1       7.034  -3.373  -5.073  0.00  0.00     0.247 A 
ATOM      8  C   LIG d   1       5.233  -0.380  -6.160  0.00  0.00     0.062 C 
ATOM      9  N   LIG d   1       4.218  -0.583  -7.210  0.00  0.00    -0.279 N 
ATOM     10  C   LIG d   1       2.997  -0.024  -7.108  0.00  0.00     0.254 C 
ATOM     11  O   LIG d   1       2.142  -0.280  -7.929  0.00  0.00    -0.272 OA
ATOM     12  H   LIG d   1       3.889  -3.335  -7.671  0.00  0.00     0.040 H 
ATOM     13  H   LIG d   1       5.347  -3.400  -8.694  0.00  0.00     0.040 H 
ATOM     14  H   LIG d   1       7.686  -3.959  -4.441  0.00  0.00     0.160 H 
ATOM     15  H   LIG d   1       5.984   0.333  -6.502  0.00  0.00     0.053 H 
ATOM     16  H   LIG d   1       4.758  -0.011  -5.251  0.00  0.00     0.053 H 
ATOM     17  N   LIG d   1       6.423  -3.804  -6.145  0.00  0.00    -0.198 N 
ATOM     18  H   LIG d   1       6.487  -4.756  -6.522  0.00  0.00     0.454 HD
ENDROOT
BRANCH   1  19
ATOM     19  C   LIG d   1       3.441  -1.402  -9.364  0.00  0.00     0.328 C 
ATOM     20  O   LIG d   1       2.615  -2.284  -9.347  0.00  0.00    -0.249 OA
BRANCH  19  21
ATOM     21  O   LIG d   1       3.347  -0.413 -10.268  0.00  0.00    -0.467 OA
BRANCH  21  22
ATOM     22  C   LIG d   1       4.589   0.190 -10.718  0.00  0.00     0.082 C 
ATOM     23  H   LIG d   1       4.494   1.275 -10.695  0.00  0.00     0.066 H 
ATOM     24  H   LIG d   1       5.401  -0.118 -10.060  0.00  0.00     0.066 H 
ATOM     25  H   LIG d   1       4.802  -0.136 -11.736  0.00  0.00     0.066 H 
ENDBRANCH  21  22
ENDBRANCH  19  21
ENDBRANCH   1  19
BRANCH  10  26
ATOM     26  C   LIG d   1       2.692   0.919  -5.973  0.00  0.00     0.165 C 
ATOM     27  H   LIG d   1       3.611   1.403  -5.645  0.00  0.00     0.080 H 
ATOM     28  H   LIG d   1       1.983   1.676  -6.310  0.00  0.00     0.080 H 
BRANCH  26  29
ATOM     29  O   LIG d   1       2.124   0.188  -4.884  0.00  0.00    -0.483 OA
BRANCH  29  30
ATOM     30  C   LIG d   1       2.908   0.000  -3.790  0.00  0.00     0.121 A 
ATOM     31  C   LIG d   1       3.479   1.090  -3.149  0.00  0.00    -0.020 A 
ATOM     32  C   LIG d   1       4.275   0.896  -2.037  0.00  0.00    -0.058 A 
ATOM     33  H   LIG d   1       3.301   2.089  -3.519  0.00  0.00     0.065 H 
ATOM     34  C   LIG d   1       4.503  -0.383  -1.563  0.00  0.00    -0.061 A 
ATOM     35  H   LIG d   1       4.720   1.744  -1.538  0.00  0.00     0.062 H 
ATOM     36  C   LIG d   1       3.935  -1.470  -2.201  0.00  0.00    -0.058 A 
ATOM     37  H   LIG d   1       5.127  -0.533  -0.693  0.00  0.00     0.062 H 
ATOM     38  C   LIG d   1       3.134  -1.281  -3.309  0.00  0.00    -0.020 A 
ATOM     39  H   LIG d   1       4.115  -2.468  -1.829  0.00  0.00     0.062 H 
ATOM     40  H   LIG d   1       2.687  -2.131  -3.804  0.00  0.00     0.065 H 
ENDBRANCH  29  30
ENDBRANCH  26  29
ENDBRANCH  10  26
BRANCH   6  41
ATOM     41  C   LIG d   1       7.185  -1.207  -3.800  0.00  0.00     0.053 C 
ATOM     42  H   LIG d   1       6.333  -0.878  -3.204  0.00  0.00     0.054 H 
ATOM     43  H   LIG d   1       7.877  -1.761  -3.167  0.00  0.00     0.054 H 
BRANCH  41  44
ATOM     44  C   LIG d   1       7.885  -0.006  -4.381  0.00  0.00    -0.028 A 
ATOM     45  C   LIG d   1       8.894  -0.176  -5.309  0.00  0.00    -0.056 A 
ATOM     46  C   LIG d   1       9.537   0.926  -5.842  0.00  0.00    -0.043 A 
ATOM     47  H   LIG d   1       9.180  -1.170  -5.619  0.00  0.00     0.062 H 
ATOM     48  C   LIG d   1       9.169   2.200  -5.446  0.00  0.00     0.041 A 
ATOM     49  H   LIG d   1      10.325   0.793  -6.568  0.00  0.00     0.063 H 
ATOM     50  C   LIG d   1       8.160   2.369  -4.515  0.00  0.00    -0.043 A 
ATOM     51 CL   LIG d   1       9.976   3.583  -6.114  0.00  0.00    -0.084 Cl
ATOM     52  C   LIG d   1       7.514   1.266  -3.988  0.00  0.00    -0.056 A 
ATOM     53  H   LIG d   1       7.872   3.363  -4.205  0.00  0.00     0.063 H 
ATOM     54  H   LIG d   1       6.723   1.399  -3.265  0.00  0.00     0.062 H 
ENDBRANCH  41  44
ENDBRANCH   6  41
TORSDOF 8
ENDMDL
MODEL 2
REMARK VINA RESULT:      -6.9      3.169      4.783
REMARK  8 active torsions:
REMARK  status: ('A' for Active; 'I' for Inactive)
REMARK    1  A    between atoms: C_1  and  O_2 
REMARK    2  A    between atoms: O_2  and  C_3 
REMARK    3  A    between atoms: C_3  and  C_5 
REMARK    4  A    between atoms: N_10  and  C_12 
REMARK    5  A    between atoms: C_12  and  C_13 
REMARK       I    between atoms: N_21  and  C_22 
REMARK    6  A    between atoms: C_22  and  C_24 
REMARK    7  A    between atoms: C_24  and  O_25 
REMARK    8  A    between atoms: O_25  and  C_26 
ROOT
ATOM      1  C   LIG d   1       5.062  -0.274  -8.683  0.00  0.00     0.133 C 
ATOM      2  H   LIG d   1       6.087  -0.423  -8.348  0.00  0.00     0.062 H 
ATOM      3  C   LIG d   1       4.735  -1.278  -9.795  0.00  0.00     0.063 C 
ATOM      4  C   LIG d   1       4.543  -2.641  -9.179  0.00  0.00     0.207 A 
ATOM      5  C   LIG d   1       4.304  -2.858  -7.866  0.00  0.00     0.108 A 
ATOM      6  N   LIG d   1       4.184  -4.202  -7.696  0.00  0.00    -0.287 N 
ATOM      7  C   LIG d   1       4.357  -4.772  -8.910  0.00  0.00     0.247 A 
ATOM      8  C   LIG d   1       4.202  -1.765  -6.832  0.00  0.00     0.062 C 
ATOM      9  N   LIG d   1       4.139  -0.482  -7.557  0.00  0.00    -0.279 N 
ATOM     10  C   LIG d   1       3.262   0.474  -7.195  0.00  0.00     0.254 C 
ATOM     11  O   LIG d   1       3.155   1.482  -7.861  0.00  0.00    -0.272 OA
ATOM     12  H   LIG d   1       3.819  -0.975 -10.304  0.00  0.00     0.040 H 
ATOM     13  H   LIG d   1       5.557  -1.313 -10.509  0.00  0.00     0.040 H 
ATOM     14  H   LIG d   1       4.324  -5.831  -9.119  0.00  0.00     0.160 H 
ATOM     15  H   LIG d   1       5.078  -1.784  -6.184  0.00  0.00     0.053 H 
ATOM     16  H   LIG d   1       3.298  -1.899  -6.238  0.00  0.00     0.053 H 
ATOM     17  N   LIG d   1       4.571  -3.828  -9.789  0.00  0.00    -0.198 N 
ATOM     18  H   LIG d   1       4.736  -3.977 -10.791  0.00  0.00     0.454 HD
ENDROOT
BRANCH   1  19
ATOM     19  C   LIG d   1       4.904   1.130  -9.210  0.00  0.00     0.328 C 
ATOM     20  O   LIG d   1       4.119   1.357 -10.100  0.00  0.00    -0.249 OA
BRANCH  19  21
ATOM     21  O   LIG d   1       5.637   2.128  -8.692  0.00  0.00    -0.467 OA
BRANCH  21  22
ATOM     22  C   LIG d   1       7.072   1.922  -8.614  0.00  0.00     0.082 C 
ATOM     23  H   LIG d   1       7.348   1.059  -9.220  0.00  0.00     0.066 H 
ATOM     24  H   LIG d   1       7.587   2.807  -8.987  0.00  0.00     0.066 H 
ATOM     25  H   LIG d   1       7.358   1.746  -7.577  0.00  0.00     0.066 H 
ENDBRANCH  21  22
ENDBRANCH  19  21
ENDBRANCH   1  19
BRANCH  10  26
ATOM     26  C   LIG d   1       2.411   0.290  -5.965  0.00  0.00     0.165 C 
ATOM     27  H   LIG d   1       1.378   0.544  -6.195  0.00  0.00     0.080 H 
ATOM     28  H   LIG d   1       2.467  -0.748  -5.637  0.00  0.00     0.080 H 
BRANCH  26  29
ATOM     29  O   LIG d   1       2.890   1.143  -4.923  0.00  0.00    -0.483 OA
BRANCH  29  30
ATOM     30  C   LIG d   1       3.399   0.541  -3.816  0.00  0.00     0.121 A 
ATOM     31  C   LIG d   1       3.167  -0.808  -3.590  0.00  0.00    -0.020 A 
ATOM     32  C   LIG d   1       3.685  -1.417  -2.464  0.00  0.00    -0.058 A 
ATOM     33  H   LIG d   1       2.582  -1.381  -4.294  0.00  0.00     0.065 H 
ATOM     34  C   LIG d   1       4.434  -0.683  -1.562  0.00  0.00    -0.061 A 
ATOM     35  H   LIG d   1       3.505  -2.467  -2.287  0.00  0.00     0.062 H 
ATOM     36  C   LIG d   1       4.666   0.662  -1.785  0.00  0.00    -0.058 A 
ATOM     37  H   LIG d   1       4.839  -1.161  -0.682  0.00  0.00     0.062 H 
ATOM     38  C   LIG d   1       4.155   1.274  -2.913  0.00  0.00    -0.020 A 
ATOM     39  H   LIG d   1       5.252   1.232  -1.080  0.00  0.00     0.062 H 
ATOM     40  H   LIG d   1       4.340   2.324  -3.089  0.00  0.00     0.065 H 
ENDBRANCH  29  30
ENDBRANCH  26  29
ENDBRANCH  10  26
BRANCH   6  41
ATOM     41  C   LIG d   1       3.919  -4.900  -6.435  0.00  0.00     0.053 C 
ATOM     42  H   LIG d   1       3.599  -4.179  -5.682  0.00  0.00     0.054 H 
ATOM     43  H   LIG d   1       3.132  -5.638  -6.587  0.00  0.00     0.054 H 
BRANCH  41  44
ATOM     44  C   LIG d   1       5.174  -5.590  -5.969  0.00  0.00    -0.028 A 
ATOM     45  C   LIG d   1       6.324  -4.857  -5.743  0.00  0.00    -0.056 A 
ATOM     46  C   LIG d   1       7.476  -5.491  -5.316  0.00  0.00    -0.043 A 
ATOM     47  H   LIG d   1       6.322  -3.789  -5.902  0.00  0.00     0.062 H 
ATOM     48  C   LIG d   1       7.478  -6.859  -5.113  0.00  0.00     0.041 A 
ATOM     49  H   LIG d   1       8.374  -4.917  -5.140  0.00  0.00     0.063 H 
ATOM     50  C   LIG d   1       6.327  -7.593  -5.340  0.00  0.00    -0.043 A 
ATOM     51 CL   LIG d   1       8.924  -7.655  -4.577  0.00  0.00    -0.084 Cl
ATOM     52  C   LIG d   1       5.174  -6.957  -5.761  0.00  0.00    -0.056 A 
ATOM     53  H   LIG d   1       6.327  -8.661  -5.181  0.00  0.00     0.063 H 
ATOM     54  H   LIG d   1       4.275  -7.529  -5.934  0.00  0.00     0.062 H 
ENDBRANCH  41  44
ENDBRANCH   6  41
TORSDOF 8
ENDMDL
MODEL 3
REMARK VINA RESULT:      -6.6      2.338      2.751
REMARK  8 active torsions:
REMARK  status: ('A' for Active; 'I' for Inactive)
REMARK    1  A    between atoms: C_1  and  O_2 
REMARK    2  A    between atoms: O_2  and  C_3 
REMARK    3  A    between atoms: C_3  and  C_5 
REMARK    4  A    between atoms: N_10  and  C_12 
REMARK    5  A    between atoms: C_12  and  C_13 
REMARK       I    between atoms: N_21  and  C_22 
REMARK    6  A    between atoms: C_22  and  C_24 
REMARK    7  A    between atoms: C_24  and  O_25 
REMARK    8  A    between atoms: O_25  and  C_26 
ROOT
ATOM      1  C   LIG d   1       4.212  -1.906  -8.558  0.00  0.00     0.133 C 
ATOM      2  H   LIG d   1       5.162  -1.721  -9.057  0.00  0.00     0.062 H 
ATOM      3  C   LIG d   1       4.146  -3.371  -8.109  0.00  0.00     0.063 C 
ATOM      4  C   LIG d   1       5.038  -3.553  -6.907  0.00  0.00     0.207 A 
ATOM      5  C   LIG d   1       5.488  -2.542  -6.131  0.00  0.00     0.108 A 
ATOM      6  N   LIG d   1       6.253  -3.095  -5.152  0.00  0.00    -0.287 N 
ATOM      7  C   LIG d   1       6.252  -4.432  -5.358  0.00  0.00     0.247 A 
ATOM      8  C   LIG d   1       5.165  -1.087  -6.365  0.00  0.00     0.062 C 
ATOM      9  N   LIG d   1       4.096  -1.034  -7.379  0.00  0.00    -0.279 N 
ATOM     10  C   LIG d   1       3.043  -0.207  -7.231  0.00  0.00     0.254 C 
ATOM     11  O   LIG d   1       2.125  -0.246  -8.023  0.00  0.00    -0.272 OA
ATOM     12  H   LIG d   1       3.119  -3.626  -7.844  0.00  0.00     0.040 H 
ATOM     13  H   LIG d   1       4.488  -4.016  -8.918  0.00  0.00     0.040 H 
ATOM     14  H   LIG d   1       6.770  -5.162  -4.753  0.00  0.00     0.160 H 
ATOM     15  H   LIG d   1       6.050  -0.564  -6.728  0.00  0.00     0.053 H 
ATOM     16  H   LIG d   1       4.818  -0.630  -5.437  0.00  0.00     0.053 H 
ATOM     17  N   LIG d   1       5.523  -4.694  -6.410  0.00  0.00    -0.198 N 
ATOM     18  H   LIG d   1       5.350  -5.629  -6.795  0.00  0.00     0.454 HD
ENDROOT
BRANCH   1  19
ATOM     19  C   LIG d   1       3.079  -1.620  -9.510  0.00  0.00     0.328 C 
ATOM     20  O   LIG d   1       2.095  -2.321  -9.507  0.00  0.00    -0.249 OA
BRANCH  19  21
ATOM     21  O   LIG d   1       3.163  -0.586 -10.362  0.00  0.00    -0.467 OA
BRANCH  21  22
ATOM     22  C   LIG d   1       4.469  -0.305 -10.932  0.00  0.00     0.082 C 
ATOM     23  H   LIG d   1       4.778   0.701 -10.652  0.00  0.00     0.066 H 
ATOM     24  H   LIG d   1       5.193  -1.027 -10.554  0.00  0.00     0.066 H 
ATOM     25  H   LIG d   1       4.414  -0.380 -12.018  0.00  0.00     0.066 H 
ENDBRANCH  21  22
ENDBRANCH  19  21
ENDBRANCH   1  19
BRANCH  10  26
ATOM     26  C   LIG d   1       3.004   0.766  -6.081  0.00  0.00     0.165 C 
ATOM     27  H   LIG d   1       4.021   1.014  -5.780  0.00  0.00     0.080 H 
ATOM     28  H   LIG d   1       2.484   1.673  -6.390  0.00  0.00     0.080 H 
BRANCH  26  29
ATOM     29  O   LIG d   1       2.313   0.174  -4.979  0.00  0.00    -0.483 OA
BRANCH  29  30
ATOM     30  C   LIG d   1       3.029  -0.043  -3.844  0.00  0.00     0.121 A 
ATOM     31  C   LIG d   1       3.591   1.027  -3.163  0.00  0.00    -0.020 A 
ATOM     32  C   LIG d   1       4.318   0.803  -2.010  0.00  0.00    -0.058 A 
ATOM     33  H   LIG d   1       3.459   2.033  -3.532  0.00  0.00     0.065 H 
ATOM     34  C   LIG d   1       4.487  -0.485  -1.536  0.00  0.00    -0.061 A 
ATOM     35  H   LIG d   1       4.756   1.635  -1.478  0.00  0.00     0.062 H 
ATOM     36  C   LIG d   1       3.929  -1.552  -2.215  0.00  0.00    -0.058 A 
ATOM     37  H   LIG d   1       5.057  -0.658  -0.634  0.00  0.00     0.062 H 
ATOM     38  C   LIG d   1       3.195  -1.334  -3.364  0.00  0.00    -0.020 A 
ATOM     39  H   LIG d   1       4.062  -2.557  -1.843  0.00  0.00     0.062 H 
ATOM     40  H   LIG d   1       2.756  -2.168  -3.892  0.00  0.00     0.065 H 
ENDBRANCH  29  30
ENDBRANCH  26  29
ENDBRANCH  10  26
BRANCH   6  41
ATOM     41  C   LIG d   1       6.946  -2.378  -4.079  0.00  0.00     0.053 C 
ATOM     42  H   LIG d   1       6.938  -1.309  -4.293  0.00  0.00     0.054 H 
ATOM     43  H   LIG d   1       6.439  -2.563  -3.132  0.00  0.00     0.054 H 
BRANCH  41  44
ATOM     44  C   LIG d   1       8.370  -2.862  -3.989  0.00  0.00    -0.028 A 
ATOM     45  C   LIG d   1       9.294  -2.472  -4.940  0.00  0.00    -0.056 A 
ATOM     46  C   LIG d   1      10.601  -2.916  -4.858  0.00  0.00    -0.043 A 
ATOM     47  H   LIG d   1       8.995  -1.820  -5.748  0.00  0.00     0.062 H 
ATOM     48  C   LIG d   1      10.984  -3.751  -3.824  0.00  0.00     0.041 A 
ATOM     49  H   LIG d   1      11.322  -2.611  -5.602  0.00  0.00     0.063 H 
ATOM     50  C   LIG d   1      10.058  -4.141  -2.872  0.00  0.00    -0.043 A 
ATOM     51 CL   LIG d   1      12.624  -4.309  -3.721  0.00  0.00    -0.084 Cl
ATOM     52  C   LIG d   1       8.753  -3.692  -2.953  0.00  0.00    -0.056 A 
ATOM     53  H   LIG d   1      10.356  -4.793  -2.064  0.00  0.00     0.063 H 
ATOM     54  H   LIG d   1       8.032  -3.993  -2.207  0.00  0.00     0.062 H 
ENDBRANCH  41  44
ENDBRANCH   6  41
TORSDOF 8
ENDMDL
MODEL 4
REMARK VINA RESULT:      -6.6      4.490      7.154
REMARK  8 active torsions:
REMARK  status: ('A' for Active; 'I' for Inactive)
REMARK    1  A    between atoms: C_1  and  O_2 
REMARK    2  A    between atoms: O_2  and  C_3 
REMARK    3  A    between atoms: C_3  and  C_5 
REMARK    4  A    between atoms: N_10  and  C_12 
REMARK    5  A    between atoms: C_12  and  C_13 
REMARK       I    between atoms: N_21  and  C_22 
REMARK    6  A    between atoms: C_22  and  C_24 
REMARK    7  A    between atoms: C_24  and  O_25 
REMARK    8  A    between atoms: O_25  and  C_26 
ROOT
ATOM      1  C   LIG d   1      10.610   3.976  -5.243  0.00  0.00     0.133 C 
ATOM      2  H   LIG d   1      11.569   3.612  -5.611  0.00  0.00     0.062 H 
ATOM      3  C   LIG d   1      10.054   5.026  -6.212  0.00  0.00     0.063 C 
ATOM      4  C   LIG d   1       9.537   4.326  -7.444  0.00  0.00     0.207 A 
ATOM      5  C   LIG d   1       9.249   3.007  -7.508  0.00  0.00     0.108 A 
ATOM      6  N   LIG d   1       8.809   2.752  -8.769  0.00  0.00    -0.287 N 
ATOM      7  C   LIG d   1       8.842   3.923  -9.444  0.00  0.00     0.247 A 
ATOM      8  C   LIG d   1       9.411   2.049  -6.354  0.00  0.00     0.062 C 
ATOM      9  N   LIG d   1       9.662   2.856  -5.147  0.00  0.00    -0.279 N 
ATOM     10  C   LIG d   1       9.040   2.573  -3.985  0.00  0.00     0.254 C 
ATOM     11  O   LIG d   1       9.181   3.306  -3.029  0.00  0.00    -0.272 OA
ATOM     12  H   LIG d   1       9.239   5.571  -5.732  0.00  0.00     0.040 H 
ATOM     13  H   LIG d   1      10.845   5.720  -6.492  0.00  0.00     0.040 H 
ATOM     14  H   LIG d   1       8.555   4.063 -10.476  0.00  0.00     0.160 H 
ATOM     15  H   LIG d   1      10.255   1.384  -6.540  0.00  0.00     0.053 H 
ATOM     16  H   LIG d   1       8.500   1.464  -6.227  0.00  0.00     0.053 H 
ATOM     17  N   LIG d   1       9.279   4.858  -8.641  0.00  0.00    -0.198 N 
ATOM     18  H   LIG d   1       9.406   5.845  -8.893  0.00  0.00     0.454 HD
ENDROOT
BRANCH   1  19
ATOM     19  C   LIG d   1      10.797   4.596  -3.882  0.00  0.00     0.328 C 
ATOM     20  O   LIG d   1      11.618   4.142  -3.119  0.00  0.00    -0.249 OA
BRANCH  19  21
ATOM     21  O   LIG d   1      10.053   5.652  -3.516  0.00  0.00    -0.467 OA
BRANCH  21  22
ATOM     22  C   LIG d   1      10.607   6.528  -2.499  0.00  0.00     0.082 C 
ATOM     23  H   LIG d   1      10.969   7.443  -2.967  0.00  0.00     0.066 H 
ATOM     24  H   LIG d   1       9.833   6.774  -1.771  0.00  0.00     0.066 H 
ATOM     25  H   LIG d   1      11.432   6.025  -1.996  0.00  0.00     0.066 H 
ENDBRANCH  21  22
ENDBRANCH  19  21
ENDBRANCH   1  19
BRANCH  10  26
ATOM     26  C   LIG d   1       8.167   1.350  -3.876  0.00  0.00     0.165 C 
ATOM     27  H   LIG d   1       8.137   0.837  -4.836  0.00  0.00     0.080 H 
ATOM     28  H   LIG d   1       8.576   0.680  -3.119  0.00  0.00     0.080 H 
BRANCH  26  29
ATOM     29  O   LIG d   1       6.844   1.739  -3.501  0.00  0.00    -0.483 OA
BRANCH  29  30
ATOM     30  C   LIG d   1       6.015   0.759  -3.055  0.00  0.00     0.121 A 
ATOM     31  C   LIG d   1       4.872   1.088  -2.341  0.00  0.00    -0.020 A 
ATOM     32  C   LIG d   1       4.030   0.090  -1.890  0.00  0.00    -0.058 A 
ATOM     33  H   LIG d   1       4.639   2.123  -2.140  0.00  0.00     0.065 H 
ATOM     34  C   LIG d   1       4.328  -1.236  -2.148  0.00  0.00    -0.061 A 
ATOM     35  H   LIG d   1       3.140   0.345  -1.334  0.00  0.00     0.062 H 
ATOM     36  C   LIG d   1       5.467  -1.566  -2.858  0.00  0.00    -0.058 A 
ATOM     37  H   LIG d   1       3.668  -2.015  -1.793  0.00  0.00     0.062 H 
ATOM     38  C   LIG d   1       6.308  -0.571  -3.318  0.00  0.00    -0.020 A 
ATOM     39  H   LIG d   1       5.696  -2.601  -3.059  0.00  0.00     0.062 H 
ATOM     40  H   LIG d   1       7.195  -0.829  -3.876  0.00  0.00     0.065 H 
ENDBRANCH  29  30
ENDBRANCH  26  29
ENDBRANCH  10  26
BRANCH   6  41
ATOM     41  C   LIG d   1       8.380   1.454  -9.295  0.00  0.00     0.053 C 
ATOM     42  H   LIG d   1       8.397   1.481 -10.385  0.00  0.00     0.054 H 
ATOM     43  H   LIG d   1       9.056   0.676  -8.940  0.00  0.00     0.054 H 
BRANCH  41  44
ATOM     44  C   LIG d   1       6.980   1.157  -8.822  0.00  0.00    -0.028 A 
ATOM     45  C   LIG d   1       5.912   1.874  -9.328  0.00  0.00    -0.056 A 
ATOM     46  C   LIG d   1       4.628   1.602  -8.894  0.00  0.00    -0.043 A 
ATOM     47  H   LIG d   1       6.082   2.647 -10.064  0.00  0.00     0.062 H 
ATOM     48  C   LIG d   1       4.412   0.612  -7.952  0.00  0.00     0.041 A 
ATOM     49  H   LIG d   1       3.794   2.163  -9.290  0.00  0.00     0.063 H 
ATOM     50  C   LIG d   1       5.481  -0.105  -7.445  0.00  0.00    -0.043 A 
ATOM     51 CL   LIG d   1       2.800   0.271  -7.407  0.00  0.00    -0.084 Cl
ATOM     52  C   LIG d   1       6.764   0.164  -7.885  0.00  0.00    -0.056 A 
ATOM     53  H   LIG d   1       5.313  -0.878  -6.711  0.00  0.00     0.063 H 
ATOM     54  H   LIG d   1       7.598  -0.399  -7.492  0.00  0.00     0.062 H 
ENDBRANCH  41  44
ENDBRANCH   6  41
TORSDOF 8
ENDMDL
MODEL 5
REMARK VINA RESULT:      -6.5      3.584      6.240
REMARK  8 active torsions:
REMARK  status: ('A' for Active; 'I' for Inactive)
REMARK    1  A    between atoms: C_1  and  O_2 
REMARK    2  A    between atoms: O_2  and  C_3 
REMARK    3  A    between atoms: C_3  and  C_5 
REMARK    4  A    between atoms: N_10  and  C_12 
REMARK    5  A    between atoms: C_12  and  C_13 
REMARK       I    between atoms: N_21  and  C_22 
REMARK    6  A    between atoms: C_22  and  C_24 
REMARK    7  A    between atoms: C_24  and  O_25 
REMARK    8  A    between atoms: O_25  and  C_26 
ROOT
ATOM      1  C   LIG d   1       7.209  -1.553  -7.345  0.00  0.00     0.133 C 
ATOM      2  H   LIG d   1       7.285  -1.985  -8.343  0.00  0.00     0.062 H 
ATOM      3  C   LIG d   1       7.427  -0.038  -7.425  0.00  0.00     0.063 C 
ATOM      4  C   LIG d   1       6.192   0.602  -8.008  0.00  0.00     0.207 A 
ATOM      5  C   LIG d   1       4.981   0.006  -8.071  0.00  0.00     0.108 A 
ATOM      6  N   LIG d   1       4.127   0.890  -8.653  0.00  0.00    -0.287 N 
ATOM      7  C   LIG d   1       4.842   2.003  -8.935  0.00  0.00     0.247 A 
ATOM      8  C   LIG d   1       4.697  -1.388  -7.569  0.00  0.00     0.062 C 
ATOM      9  N   LIG d   1       5.873  -1.821  -6.792  0.00  0.00    -0.279 N 
ATOM     10  C   LIG d   1       5.726  -2.448  -5.609  0.00  0.00     0.254 C 
ATOM     11  O   LIG d   1       6.702  -2.709  -4.937  0.00  0.00    -0.272 OA
ATOM     12  H   LIG d   1       7.606   0.359  -6.424  0.00  0.00     0.040 H 
ATOM     13  H   LIG d   1       8.285   0.175  -8.062  0.00  0.00     0.040 H 
ATOM     14  H   LIG d   1       4.456   2.897  -9.404  0.00  0.00     0.160 H 
ATOM     15  H   LIG d   1       4.539  -2.060  -8.412  0.00  0.00     0.053 H 
ATOM     16  H   LIG d   1       3.813  -1.379  -6.930  0.00  0.00     0.053 H 
ATOM     17  N   LIG d   1       6.076   1.820  -8.545  0.00  0.00    -0.198 N 
ATOM     18  H   LIG d   1       6.836   2.503  -8.638  0.00  0.00     0.454 HD
ENDROOT
BRANCH   1  19
ATOM     19  C   LIG d   1       8.256  -2.167  -6.452  0.00  0.00     0.328 C 
ATOM     20  O   LIG d   1       8.575  -3.323  -6.600  0.00  0.00    -0.249 OA
BRANCH  19  21
ATOM     21  O   LIG d   1       8.836  -1.429  -5.491  0.00  0.00    -0.467 OA
BRANCH  21  22
ATOM     22  C   LIG d   1      10.278  -1.533  -5.359  0.00  0.00     0.082 C 
ATOM     23  H   LIG d   1      10.631  -0.795  -4.639  0.00  0.00     0.066 H 
ATOM     24  H   LIG d   1      10.540  -2.533  -5.012  0.00  0.00     0.066 H 
ATOM     25  H   LIG d   1      10.745  -1.351  -6.327  0.00  0.00     0.066 H 
ENDBRANCH  21  22
ENDBRANCH  19  21
ENDBRANCH   1  19
BRANCH  10  26
ATOM     26  C   LIG d   1       4.352  -2.822  -5.119  0.00  0.00     0.165 C 
ATOM     27  H   LIG d   1       3.606  -2.207  -5.621  0.00  0.00     0.080 H 
ATOM     28  H   LIG d   1       4.162  -3.873  -5.337  0.00  0.00     0.080 H 
BRANCH  26  29
ATOM     29  O   LIG d   1       4.274  -2.607  -3.708  0.00  0.00    -0.483 OA
BRANCH  29  30
ATOM     30  C   LIG d   1       4.083  -1.329  -3.287  0.00  0.00     0.121 A 
ATOM     31  C   LIG d   1       3.287  -0.466  -4.025  0.00  0.00    -0.020 A 
ATOM     32  C   LIG d   1       3.095   0.832  -3.594  0.00  0.00    -0.058 A 
ATOM     33  H   LIG d   1       2.816  -0.809  -4.934  0.00  0.00     0.065 H 
ATOM     34  C   LIG d   1       3.697   1.272  -2.429  0.00  0.00    -0.061 A 
ATOM     35  H   LIG d   1       2.475   1.505  -4.168  0.00  0.00     0.062 H 
ATOM     36  C   LIG d   1       4.492   0.413  -1.692  0.00  0.00    -0.058 A 
ATOM     37  H   LIG d   1       3.546   2.288  -2.094  0.00  0.00     0.062 H 
ATOM     38  C   LIG d   1       4.681  -0.888  -2.116  0.00  0.00    -0.020 A 
ATOM     39  H   LIG d   1       4.960   0.758  -0.783  0.00  0.00     0.062 H 
ATOM     40  H   LIG d   1       5.299  -1.560  -1.537  0.00  0.00     0.065 H 
ENDBRANCH  29  30
ENDBRANCH  26  29
ENDBRANCH  10  26
BRANCH   6  41
ATOM     41  C   LIG d   1       2.704   0.675  -8.924  0.00  0.00     0.053 C 
ATOM     42  H   LIG d   1       2.260   0.108  -8.105  0.00  0.00     0.054 H 
ATOM     43  H   LIG d   1       2.201   1.638  -9.012  0.00  0.00     0.054 H 
BRANCH  41  44
ATOM     44  C   LIG d   1       2.547  -0.094 -10.210  0.00  0.00    -0.028 A 
ATOM     45  C   LIG d   1       1.428  -0.879 -10.415  0.00  0.00    -0.056 A 
ATOM     46  C   LIG d   1       1.285  -1.584 -11.595  0.00  0.00    -0.043 A 
ATOM     47  H   LIG d   1       0.666  -0.941  -9.652  0.00  0.00     0.062 H 
ATOM     48  C   LIG d   1       2.261  -1.504 -12.572  0.00  0.00     0.041 A 
ATOM     49  H   LIG d   1       0.410  -2.198 -11.754  0.00  0.00     0.063 H 
ATOM     50  C   LIG d   1       3.381  -0.719 -12.366  0.00  0.00    -0.043 A 
ATOM     51 CL   LIG d   1       2.081  -2.391 -14.053  0.00  0.00    -0.084 Cl
ATOM     52  C   LIG d   1       3.520  -0.009 -11.188  0.00  0.00    -0.056 A 
ATOM     53  H   LIG d   1       4.144  -0.655 -13.128  0.00  0.00     0.063 H 
ATOM     54  H   LIG d   1       4.393   0.608 -11.030  0.00  0.00     0.062 H 
ENDBRANCH  41  44
ENDBRANCH   6  41
TORSDOF 8
ENDMDL
MODEL 6
REMARK VINA RESULT:      -6.4      5.809      7.864
REMARK  8 active torsions:
REMARK  status: ('A' for Active; 'I' for Inactive)
REMARK    1  A    between atoms: C_1  and  O_2 
REMARK    2  A    between atoms: O_2  and  C_3 
REMARK    3  A    between atoms: C_3  and  C_5 
REMARK    4  A    between atoms: N_10  and  C_12 
REMARK    5  A    between atoms: C_12  and  C_13 
REMARK       I    between atoms: N_21  and  C_22 
REMARK    6  A    between atoms: C_22  and  C_24 
REMARK    7  A    between atoms: C_24  and  O_25 
REMARK    8  A    between atoms: O_25  and  C_26 
ROOT
ATOM      1  C   LIG d   1      10.250   4.187  -5.893  0.00  0.00     0.133 C 
ATOM      2  H   LIG d   1       9.797   5.167  -6.041  0.00  0.00     0.062 H 
ATOM      3  C   LIG d   1      11.744   4.354  -5.592  0.00  0.00     0.063 C 
ATOM      4  C   LIG d   1      11.903   4.858  -4.180  0.00  0.00     0.207 A 
ATOM      5  C   LIG d   1      10.942   4.789  -3.233  0.00  0.00     0.108 A 
ATOM      6  N   LIG d   1      11.454   5.336  -2.098  0.00  0.00    -0.287 N 
ATOM      7  C   LIG d   1      12.717   5.728  -2.383  0.00  0.00     0.247 A 
ATOM      8  C   LIG d   1       9.571   4.201  -3.459  0.00  0.00     0.062 C 
ATOM      9  N   LIG d   1       9.602   3.509  -4.761  0.00  0.00    -0.279 N 
ATOM     10  C   LIG d   1       9.048   2.290  -4.908  0.00  0.00     0.254 C 
ATOM     11  O   LIG d   1       9.168   1.693  -5.958  0.00  0.00    -0.272 OA
ATOM     12  H   LIG d   1      12.248   3.392  -5.696  0.00  0.00     0.040 H 
ATOM     13  H   LIG d   1      12.179   5.072  -6.287  0.00  0.00     0.040 H 
ATOM     14  H   LIG d   1      13.399   6.204  -1.694  0.00  0.00     0.160 H 
ATOM     15  H   LIG d   1       8.825   4.996  -3.477  0.00  0.00     0.053 H 
ATOM     16  H   LIG d   1       9.337   3.490  -2.667  0.00  0.00     0.053 H 
ATOM     17  N   LIG d   1      12.974   5.438  -3.631  0.00  0.00    -0.198 N 
ATOM     18  H   LIG d   1      13.860   5.627  -4.115  0.00  0.00     0.454 HD
ENDROOT
BRANCH   1  19
ATOM     19  C   LIG d   1      10.078   3.360  -7.141  0.00  0.00     0.328 C 
ATOM     20  O   LIG d   1      10.945   2.589  -7.481  0.00  0.00    -0.249 OA
BRANCH  19  21
ATOM     21  O   LIG d   1       8.961   3.478  -7.877  0.00  0.00    -0.467 OA
BRANCH  21  22
ATOM     22  C   LIG d   1       9.010   4.385  -9.010  0.00  0.00     0.082 C 
ATOM     23  H   LIG d   1       9.204   5.397  -8.657  0.00  0.00     0.066 H 
ATOM     24  H   LIG d   1       9.808   4.077  -9.686  0.00  0.00     0.066 H 
ATOM     25  H   LIG d   1       8.057   4.358  -9.538  0.00  0.00     0.066 H 
ENDBRANCH  21  22
ENDBRANCH  19  21
ENDBRANCH   1  19
BRANCH  10  26
ATOM     26  C   LIG d   1       8.282   1.667  -3.770  0.00  0.00     0.165 C 
ATOM     27  H   LIG d   1       8.623   0.643  -3.620  0.00  0.00     0.080 H 
ATOM     28  H   LIG d   1       8.451   2.244  -2.861  0.00  0.00     0.080 H 
BRANCH  26  29
ATOM     29  O   LIG d   1       6.887   1.664  -4.079  0.00  0.00    -0.483 OA
BRANCH  29  30
ATOM     30  C   LIG d   1       6.102   0.799  -3.384  0.00  0.00     0.121 A 
ATOM     31  C   LIG d   1       6.289  -0.569  -3.515  0.00  0.00    -0.020 A 
ATOM     32  C   LIG d   1       5.490  -1.445  -2.807  0.00  0.00    -0.058 A 
ATOM     33  H   LIG d   1       7.061  -0.949  -4.169  0.00  0.00     0.065 H 
ATOM     34  C   LIG d   1       4.503  -0.959  -1.969  0.00  0.00    -0.061 A 
ATOM     35  H   LIG d   1       5.636  -2.510  -2.908  0.00  0.00     0.062 H 
ATOM     36  C   LIG d   1       4.314   0.404  -1.837  0.00  0.00    -0.058 A 
ATOM     37  H   LIG d   1       3.879  -1.646  -1.416  0.00  0.00     0.062 H 
ATOM     38  C   LIG d   1       5.115   1.285  -2.538  0.00  0.00    -0.020 A 
ATOM     39  H   LIG d   1       3.543   0.781  -1.182  0.00  0.00     0.062 H 
ATOM     40  H   LIG d   1       4.970   2.350  -2.432  0.00  0.00     0.065 H 
ENDBRANCH  29  30
ENDBRANCH  26  29
ENDBRANCH  10  26
BRANCH   6  41
ATOM     41  C   LIG d   1      10.768   5.473  -0.810  0.00  0.00     0.053 C 
ATOM     42  H   LIG d   1       9.788   5.000  -0.870  0.00  0.00     0.054 H 
ATOM     43  H   LIG d   1      11.358   4.990  -0.031  0.00  0.00     0.054 H 
BRANCH  41  44
ATOM     44  C   LIG d   1      10.602   6.934  -0.483  0.00  0.00    -0.028 A 
ATOM     45  C   LIG d   1       9.684   7.699  -1.178  0.00  0.00    -0.056 A 
ATOM     46  C   LIG d   1       9.532   9.039  -0.878  0.00  0.00    -0.043 A 
ATOM     47  H   LIG d   1       9.087   7.248  -1.957  0.00  0.00     0.062 H 
ATOM     48  C   LIG d   1      10.298   9.616   0.119  0.00  0.00     0.041 A 
ATOM     49  H   LIG d   1       8.814   9.636  -1.422  0.00  0.00     0.063 H 
ATOM     50  C   LIG d   1      11.216   8.850   0.815  0.00  0.00    -0.043 A 
ATOM     51 CL   LIG d   1      10.107  11.299   0.496  0.00  0.00    -0.084 Cl
ATOM     52  C   LIG d   1      11.364   7.509   0.517  0.00  0.00    -0.056 A 
ATOM     53  H   LIG d   1      11.814   9.300   1.594  0.00  0.00     0.063 H 
ATOM     54  H   LIG d   1      12.078   6.910   1.064  0.00  0.00     0.062 H 
ENDBRANCH  41  44
ENDBRANCH   6  41
TORSDOF 8
ENDMDL
MODEL 7
REMARK VINA RESULT:      -6.3      3.273      5.679
REMARK  8 active torsions:
REMARK  status: ('A' for Active; 'I' for Inactive)
REMARK    1  A    between atoms: C_1  and  O_2 
REMARK    2  A    between atoms: O_2  and  C_3 
REMARK    3  A    between atoms: C_3  and  C_5 
REMARK    4  A    between atoms: N_10  and  C_12 
REMARK    5  A    between atoms: C_12  and  C_13 
REMARK       I    between atoms: N_21  and  C_22 
REMARK    6  A    between atoms: C_22  and  C_24 
REMARK    7  A    between atoms: C_24  and  O_25 
REMARK    8  A    between atoms: O_25  and  C_26 
ROOT
ATOM      1  C   LIG d   1       5.469  -5.305  -7.759  0.00  0.00     0.133 C 
ATOM      2  H   LIG d   1       4.660  -6.026  -7.650  0.00  0.00     0.062 H 
ATOM      3  C   LIG d   1       5.918  -5.256  -9.224  0.00  0.00     0.063 C 
ATOM      4  C   LIG d   1       4.882  -4.510 -10.027  0.00  0.00     0.207 A 
ATOM      5  C   LIG d   1       3.945  -3.695  -9.493  0.00  0.00     0.108 A 
ATOM      6  N   LIG d   1       3.204  -3.206 -10.523  0.00  0.00    -0.287 N 
ATOM      7  C   LIG d   1       3.705  -3.740 -11.660  0.00  0.00     0.247 A 
ATOM      8  C   LIG d   1       3.803  -3.422  -8.017  0.00  0.00     0.062 C 
ATOM      9  N   LIG d   1       4.999  -3.972  -7.353  0.00  0.00    -0.279 N 
ATOM     10  C   LIG d   1       5.643  -3.272  -6.398  0.00  0.00     0.254 C 
ATOM     11  O   LIG d   1       6.680  -3.695  -5.933  0.00  0.00    -0.272 OA
ATOM     12  H   LIG d   1       6.877  -4.740  -9.296  0.00  0.00     0.040 H 
ATOM     13  H   LIG d   1       6.018  -6.271  -9.609  0.00  0.00     0.040 H 
ATOM     14  H   LIG d   1       3.338  -3.553 -12.658  0.00  0.00     0.160 H 
ATOM     15  H   LIG d   1       2.907  -3.911  -7.634  0.00  0.00     0.053 H 
ATOM     16  H   LIG d   1       3.743  -2.347  -7.842  0.00  0.00     0.053 H 
ATOM     17  N   LIG d   1       4.709  -4.518 -11.351  0.00  0.00    -0.198 N 
ATOM     18  H   LIG d   1       5.274  -5.053 -12.021  0.00  0.00     0.454 HD
ENDROOT
BRANCH   1  19
ATOM     19  C   LIG d   1       6.630  -5.716  -6.890  0.00  0.00     0.328 C 
ATOM     20  O   LIG d   1       7.763  -5.573  -7.286  0.00  0.00    -0.249 OA
BRANCH  19  21
ATOM     21  O   LIG d   1       6.406  -6.242  -5.675  0.00  0.00    -0.467 OA
BRANCH  21  22
ATOM     22  C   LIG d   1       5.335  -7.215  -5.564  0.00  0.00     0.082 C 
ATOM     23  H   LIG d   1       5.576  -8.090  -6.167  0.00  0.00     0.066 H 
ATOM     24  H   LIG d   1       5.220  -7.513  -4.521  0.00  0.00     0.066 H 
ATOM     25  H   LIG d   1       4.405  -6.773  -5.919  0.00  0.00     0.066 H 
ENDBRANCH  21  22
ENDBRANCH  19  21
ENDBRANCH   1  19
BRANCH  10  26
ATOM     26  C   LIG d   1       5.076  -1.964  -5.911  0.00  0.00     0.165 C 
ATOM     27  H   LIG d   1       5.890  -1.280  -5.675  0.00  0.00     0.080 H 
ATOM     28  H   LIG d   1       4.448  -1.528  -6.689  0.00  0.00     0.080 H 
BRANCH  26  29
ATOM     29  O   LIG d   1       4.291  -2.192  -4.739  0.00  0.00    -0.483 OA
BRANCH  29  30
ATOM     30  C   LIG d   1       4.140  -1.146  -3.883  0.00  0.00     0.121 A 
ATOM     31  C   LIG d   1       3.512   0.015  -4.309  0.00  0.00    -0.020 A 
ATOM     32  C   LIG d   1       3.360   1.075  -3.437  0.00  0.00    -0.058 A 
ATOM     33  H   LIG d   1       3.141   0.089  -5.320  0.00  0.00     0.065 H 
ATOM     34  C   LIG d   1       3.834   0.980  -2.141  0.00  0.00    -0.061 A 
ATOM     35  H   LIG d   1       2.871   1.979  -3.768  0.00  0.00     0.062 H 
ATOM     36  C   LIG d   1       4.460  -0.176  -1.715  0.00  0.00    -0.058 A 
ATOM     37  H   LIG d   1       3.714   1.811  -1.461  0.00  0.00     0.062 H 
ATOM     38  C   LIG d   1       4.609  -1.242  -2.581  0.00  0.00    -0.020 A 
ATOM     39  H   LIG d   1       4.830  -0.248  -0.703  0.00  0.00     0.062 H 
ATOM     40  H   LIG d   1       5.095  -2.147  -2.246  0.00  0.00     0.065 H 
ENDBRANCH  29  30
ENDBRANCH  26  29
ENDBRANCH  10  26
BRANCH   6  41
ATOM     41  C   LIG d   1       2.075  -2.278 -10.419  0.00  0.00     0.053 C 
ATOM     42  H   LIG d   1       1.530  -2.263 -11.363  0.00  0.00     0.054 H 
ATOM     43  H   LIG d   1       1.409  -2.604  -9.620  0.00  0.00     0.054 H 
BRANCH  41  44
ATOM     44  C   LIG d   1       2.588  -0.895 -10.113  0.00  0.00    -0.028 A 
ATOM     45  C   LIG d   1       2.308  -0.307  -8.894  0.00  0.00    -0.056 A 
ATOM     46  C   LIG d   1       2.778   0.962  -8.613  0.00  0.00    -0.043 A 
ATOM     47  H   LIG d   1       1.720  -0.840  -8.161  0.00  0.00     0.062 H 
ATOM     48  C   LIG d   1       3.531   1.644  -9.553  0.00  0.00     0.041 A 
ATOM     49  H   LIG d   1       2.559   1.421  -7.661  0.00  0.00     0.063 H 
ATOM     50  C   LIG d   1       3.811   1.055 -10.773  0.00  0.00    -0.043 A 
ATOM     51 CL   LIG d   1       4.122   3.237  -9.201  0.00  0.00    -0.084 Cl
ATOM     52  C   LIG d   1       3.345  -0.216 -11.050  0.00  0.00    -0.056 A 
ATOM     53  H   LIG d   1       4.399   1.586 -11.507  0.00  0.00     0.063 H 
ATOM     54  H   LIG d   1       3.567  -0.677 -12.001  0.00  0.00     0.062 H 
ENDBRANCH  41  44
ENDBRANCH   6  41
TORSDOF 8
ENDMDL
MODEL 8
REMARK VINA RESULT:      -6.2      4.156      7.104
REMARK  8 active torsions:
REMARK  status: ('A' for Active; 'I' for Inactive)
REMARK    1  A    between atoms: C_1  and  O_2 
REMARK    2  A    between atoms: O_2  and  C_3 
REMARK    3  A    between atoms: C_3  and  C_5 
REMARK    4  A    between atoms: N_10  and  C_12 
REMARK    5  A    between atoms: C_12  and  C_13 
REMARK       I    between atoms: N_21  and  C_22 
REMARK    6  A    between atoms: C_22  and  C_24 
REMARK    7  A    between atoms: C_24  and  O_25 
REMARK    8  A    between atoms: O_25  and  C_26 
ROOT
ATOM      1  C   LIG d   1       6.009  -1.903  -3.380  0.00  0.00     0.133 C 
ATOM      2  H   LIG d   1       5.554  -2.590  -2.667  0.00  0.00     0.062 H 
ATOM      3  C   LIG d   1       7.530  -2.094  -3.378  0.00  0.00     0.063 C 
ATOM      4  C   LIG d   1       7.861  -3.375  -4.102  0.00  0.00     0.207 A 
ATOM      5  C   LIG d   1       7.018  -4.018  -4.939  0.00  0.00     0.108 A 
ATOM      6  N   LIG d   1       7.668  -5.121  -5.397  0.00  0.00    -0.287 N 
ATOM      7  C   LIG d   1       8.893  -5.124  -4.824  0.00  0.00     0.247 A 
ATOM      8  C   LIG d   1       5.622  -3.545  -5.262  0.00  0.00     0.062 C 
ATOM      9  N   LIG d   1       5.489  -2.177  -4.728  0.00  0.00    -0.279 N 
ATOM     10  C   LIG d   1       4.905  -1.206  -5.456  0.00  0.00     0.254 C 
ATOM     11  O   LIG d   1       4.892  -0.065  -5.044  0.00  0.00    -0.272 OA
ATOM     12  H   LIG d   1       8.005  -1.254  -3.886  0.00  0.00     0.040 H 
ATOM     13  H   LIG d   1       7.889  -2.152  -2.351  0.00  0.00     0.040 H 
ATOM     14  H   LIG d   1       9.659  -5.870  -4.979  0.00  0.00     0.160 H 
ATOM     15  H   LIG d   1       4.890  -4.202  -4.791  0.00  0.00     0.053 H 
ATOM     16  H   LIG d   1       5.473  -3.538  -6.342  0.00  0.00     0.053 H 
ATOM     17  N   LIG d   1       8.997  -4.075  -4.051  0.00  0.00    -0.198 N 
ATOM     18  H   LIG d   1       9.822  -3.829  -3.492  0.00  0.00     0.454 HD
ENDROOT
BRANCH   1  19
ATOM     19  C   LIG d   1       5.679  -0.485  -2.992  0.00  0.00     0.328 C 
ATOM     20  O   LIG d   1       6.473   0.401  -3.205  0.00  0.00    -0.249 OA
BRANCH  19  21
ATOM     21  O   LIG d   1       4.502  -0.204  -2.410  0.00  0.00    -0.467 OA
BRANCH  21  22
ATOM     22  C   LIG d   1       4.383   1.085  -1.751  0.00  0.00     0.082 C 
ATOM     23  H   LIG d   1       5.182   1.742  -2.093  0.00  0.00     0.066 H 
ATOM     24  H   LIG d   1       3.418   1.530  -1.996  0.00  0.00     0.066 H 
ATOM     25  H   LIG d   1       4.457   0.949  -0.673  0.00  0.00     0.066 H 
ENDBRANCH  21  22
ENDBRANCH  19  21
ENDBRANCH   1  19
BRANCH  10  26
ATOM     26  C   LIG d   1       4.271  -1.535  -6.783  0.00  0.00     0.165 C 
ATOM     27  H   LIG d   1       4.259  -2.615  -6.922  0.00  0.00     0.080 H 
ATOM     28  H   LIG d   1       3.249  -1.155  -6.800  0.00  0.00     0.080 H 
BRANCH  26  29
ATOM     29  O   LIG d   1       5.022  -0.927  -7.835  0.00  0.00    -0.483 OA
BRANCH  29  30
ATOM     30  C   LIG d   1       4.574   0.267  -8.304  0.00  0.00     0.121 A 
ATOM     31  C   LIG d   1       5.475   1.213  -8.771  0.00  0.00    -0.020 A 
ATOM     32  C   LIG d   1       5.017   2.425  -9.248  0.00  0.00    -0.058 A 
ATOM     33  H   LIG d   1       6.534   1.000  -8.764  0.00  0.00     0.065 H 
ATOM     34  C   LIG d   1       3.661   2.697  -9.258  0.00  0.00    -0.061 A 
ATOM     35  H   LIG d   1       5.718   3.162  -9.612  0.00  0.00     0.062 H 
ATOM     36  C   LIG d   1       2.761   1.756  -8.793  0.00  0.00    -0.058 A 
ATOM     37  H   LIG d   1       3.304   3.647  -9.632  0.00  0.00     0.062 H 
ATOM     38  C   LIG d   1       3.214   0.540  -8.321  0.00  0.00    -0.020 A 
ATOM     39  H   LIG d   1       1.703   1.971  -8.802  0.00  0.00     0.062 H 
ATOM     40  H   LIG d   1       2.510  -0.196  -7.962  0.00  0.00     0.065 H 
ENDBRANCH  29  30
ENDBRANCH  26  29
ENDBRANCH  10  26
BRANCH   6  41
ATOM     41  C   LIG d   1       7.141  -6.116  -6.334  0.00  0.00     0.053 C 
ATOM     42  H   LIG d   1       6.348  -5.667  -6.932  0.00  0.00     0.054 H 
ATOM     43  H   LIG d   1       7.941  -6.458  -6.990  0.00  0.00     0.054 H 
BRANCH  41  44
ATOM     44  C   LIG d   1       6.587  -7.287  -5.564  0.00  0.00    -0.028 A 
ATOM     45  C   LIG d   1       7.435  -8.096  -4.831  0.00  0.00    -0.056 A 
ATOM     46  C   LIG d   1       6.927  -9.170  -4.125  0.00  0.00    -0.043 A 
ATOM     47  H   LIG d   1       8.495  -7.888  -4.811  0.00  0.00     0.062 H 
ATOM     48  C   LIG d   1       5.570  -9.436  -4.152  0.00  0.00     0.041 A 
ATOM     49  H   LIG d   1       7.590  -9.802  -3.553  0.00  0.00     0.063 H 
ATOM     50  C   LIG d   1       4.722  -8.626  -4.886  0.00  0.00    -0.043 A 
ATOM     51 CL   LIG d   1       4.932 -10.785  -3.266  0.00  0.00    -0.084 Cl
ATOM     52  C   LIG d   1       5.230  -7.549  -5.587  0.00  0.00    -0.056 A 
ATOM     53  H   LIG d   1       3.662  -8.833  -4.908  0.00  0.00     0.063 H 
ATOM     54  H   LIG d   1       4.567  -6.914  -6.157  0.00  0.00     0.062 H 
ENDBRANCH  41  44
ENDBRANCH   6  41
TORSDOF 8
ENDMDL
MODEL 9
REMARK VINA RESULT:      -6.1      3.909      6.374
REMARK  8 active torsions:
REMARK  status: ('A' for Active; 'I' for Inactive)
REMARK    1  A    between atoms: C_1  and  O_2 
REMARK    2  A    between atoms: O_2  and  C_3 
REMARK    3  A    between atoms: C_3  and  C_5 
REMARK    4  A    between atoms: N_10  and  C_12 
REMARK    5  A    between atoms: C_12  and  C_13 
REMARK       I    between atoms: N_21  and  C_22 
REMARK    6  A    between atoms: C_22  and  C_24 
REMARK    7  A    between atoms: C_24  and  O_25 
REMARK    8  A    between atoms: O_25  and  C_26 
ROOT
ATOM      1  C   LIG d   1       8.485  -0.093  -7.750  0.00  0.00     0.133 C 
ATOM      2  H   LIG d   1       8.416  -0.785  -8.589  0.00  0.00     0.062 H 
ATOM      3  C   LIG d   1       7.967   1.285  -8.179  0.00  0.00     0.063 C 
ATOM      4  C   LIG d   1       6.462   1.233  -8.265  0.00  0.00     0.207 A 
ATOM      5  C   LIG d   1       5.697   0.281  -7.688  0.00  0.00     0.108 A 
ATOM      6  N   LIG d   1       4.401   0.572  -7.981  0.00  0.00    -0.287 N 
ATOM      7  C   LIG d   1       4.410   1.695  -8.736  0.00  0.00     0.247 A 
ATOM      8  C   LIG d   1       6.243  -0.868  -6.878  0.00  0.00     0.062 C 
ATOM      9  N   LIG d   1       7.670  -0.590  -6.632  0.00  0.00    -0.279 N 
ATOM     10  C   LIG d   1       8.212  -0.788  -5.415  0.00  0.00     0.254 C 
ATOM     11  O   LIG d   1       9.361  -0.462  -5.203  0.00  0.00    -0.272 OA
ATOM     12  H   LIG d   1       8.265   2.033  -7.443  0.00  0.00     0.040 H 
ATOM     13  H   LIG d   1       8.380   1.544  -9.153  0.00  0.00     0.040 H 
ATOM     14  H   LIG d   1       3.537   2.191  -9.136  0.00  0.00     0.160 H 
ATOM     15  H   LIG d   1       6.136  -1.799  -7.436  0.00  0.00     0.053 H 
ATOM     16  H   LIG d   1       5.711  -0.941  -5.930  0.00  0.00     0.053 H 
ATOM     17  N   LIG d   1       5.648   2.081  -8.899  0.00  0.00    -0.198 N 
ATOM     18  H   LIG d   1       5.947   2.906  -9.432  0.00  0.00     0.454 HD
ENDROOT
BRANCH   1  19
ATOM     19  C   LIG d   1       9.923   0.024  -7.313  0.00  0.00     0.328 C 
ATOM     20  O   LIG d   1      10.352   1.084  -6.922  0.00  0.00    -0.249 OA
BRANCH  19  21
ATOM     21  O   LIG d   1      10.728  -1.050  -7.358  0.00  0.00    -0.467 OA
BRANCH  21  22
ATOM     22  C   LIG d   1      10.509  -1.994  -8.439  0.00  0.00     0.082 C 
ATOM     23  H   LIG d   1      11.089  -2.898  -8.254  0.00  0.00     0.066 H 
ATOM     24  H   LIG d   1       9.450  -2.246  -8.492  0.00  0.00     0.066 H 
ATOM     25  H   LIG d   1      10.824  -1.546  -9.381  0.00  0.00     0.066 H 
ENDBRANCH  21  22
ENDBRANCH  19  21
ENDBRANCH   1  19
BRANCH  10  26
ATOM     26  C   LIG d   1       7.392  -1.413  -4.316  0.00  0.00     0.165 C 
ATOM     27  H   LIG d   1       6.476  -1.827  -4.736  0.00  0.00     0.080 H 
ATOM     28  H   LIG d   1       7.967  -2.209  -3.842  0.00  0.00     0.080 H 
BRANCH  26  29
ATOM     29  O   LIG d   1       7.063  -0.420  -3.343  0.00  0.00    -0.483 OA
BRANCH  29  30
ATOM     30  C   LIG d   1       5.745  -0.241  -3.063  0.00  0.00     0.121 A 
ATOM     31  C   LIG d   1       4.864  -1.310  -3.152  0.00  0.00    -0.020 A 
ATOM     32  C   LIG d   1       3.526  -1.125  -2.867  0.00  0.00    -0.058 A 
ATOM     33  H   LIG d   1       5.226  -2.285  -3.442  0.00  0.00     0.065 H 
ATOM     34  C   LIG d   1       3.063   0.124  -2.495  0.00  0.00    -0.061 A 
ATOM     35  H   LIG d   1       2.840  -1.956  -2.936  0.00  0.00     0.062 H 
ATOM     36  C   LIG d   1       3.938   1.191  -2.406  0.00  0.00    -0.058 A 
ATOM     37  H   LIG d   1       2.015   0.267  -2.273  0.00  0.00     0.062 H 
ATOM     38  C   LIG d   1       5.279   1.009  -2.684  0.00  0.00    -0.020 A 
ATOM     39  H   LIG d   1       3.574   2.165  -2.115  0.00  0.00     0.062 H 
ATOM     40  H   LIG d   1       5.963   1.842  -2.611  0.00  0.00     0.065 H 
ENDBRANCH  29  30
ENDBRANCH  26  29
ENDBRANCH  10  26
BRANCH   6  41
ATOM     41  C   LIG d   1       3.221  -0.187  -7.561  0.00  0.00     0.053 C 
ATOM     42  H   LIG d   1       3.488  -0.843  -6.732  0.00  0.00     0.054 H 
ATOM     43  H   LIG d   1       2.441   0.503  -7.241  0.00  0.00     0.054 H 
BRANCH  41  44
ATOM     44  C   LIG d   1       2.718  -1.014  -8.715  0.00  0.00    -0.028 A 
ATOM     45  C   LIG d   1       3.225  -2.282  -8.930  0.00  0.00    -0.056 A 
ATOM     46  C   LIG d   1       2.764  -3.041  -9.990  0.00  0.00    -0.043 A 
ATOM     47  H   LIG d   1       3.982  -2.679  -8.271  0.00  0.00     0.062 H 
ATOM     48  C   LIG d   1       1.794  -2.532 -10.835  0.00  0.00     0.041 A 
ATOM     49  H   LIG d   1       3.161  -4.031 -10.157  0.00  0.00     0.063 H 
ATOM     50  C   LIG d   1       1.287  -1.263 -10.619  0.00  0.00    -0.043 A 
ATOM     51 CL   LIG d   1       1.216  -3.484 -12.165  0.00  0.00    -0.084 Cl
ATOM     52  C   LIG d   1       1.745  -0.507  -9.556  0.00  0.00    -0.056 A 
ATOM     53  H   LIG d   1       0.530  -0.865 -11.278  0.00  0.00     0.063 H 
ATOM     54  H   LIG d   1       1.346   0.482  -9.386  0.00  0.00     0.062 H 
ENDBRANCH  41  44
ENDBRANCH   6  41
TORSDOF 8
ENDMDL
MODEL 10
REMARK VINA RESULT:      -6.1      4.744      6.782
REMARK  8 active torsions:
REMARK  status: ('A' for Active; 'I' for Inactive)
REMARK    1  A    between atoms: C_1  and  O_2 
REMARK    2  A    between atoms: O_2  and  C_3 
REMARK    3  A    between atoms: C_3  and  C_5 
REMARK    4  A    between atoms: N_10  and  C_12 
REMARK    5  A    between atoms: C_12  and  C_13 
REMARK       I    between atoms: N_21  and  C_22 
REMARK    6  A    between atoms: C_22  and  C_24 
REMARK    7  A    between atoms: C_24  and  O_25 
REMARK    8  A    between atoms: O_25  and  C_26 
ROOT
ATOM      1  C   LIG d   1      10.594   1.442  -5.191  0.00  0.00     0.133 C 
ATOM      2  H   LIG d   1      10.733   2.092  -6.055  0.00  0.00     0.062 H 
ATOM      3  C   LIG d   1      11.766   1.622  -4.219  0.00  0.00     0.063 C 
ATOM      4  C   LIG d   1      11.604   2.938  -3.501  0.00  0.00     0.207 A 
ATOM      5  C   LIG d   1      10.446   3.631  -3.430  0.00  0.00     0.108 A 
ATOM      6  N   LIG d   1      10.693   4.753  -2.701  0.00  0.00    -0.287 N 
ATOM      7  C   LIG d   1      11.999   4.717  -2.349  0.00  0.00     0.247 A 
ATOM      8  C   LIG d   1       9.153   3.186  -4.066  0.00  0.00     0.062 C 
ATOM      9  N   LIG d   1       9.340   1.792  -4.507  0.00  0.00    -0.279 N 
ATOM     10  C   LIG d   1       8.386   0.865  -4.292  0.00  0.00     0.254 C 
ATOM     11  O   LIG d   1       8.596  -0.296  -4.573  0.00  0.00    -0.272 OA
ATOM     12  H   LIG d   1      11.768   0.807  -3.494  0.00  0.00     0.040 H 
ATOM     13  H   LIG d   1      12.704   1.622  -4.774  0.00  0.00     0.040 H 
ATOM     14  H   LIG d   1      12.514   5.465  -1.765  0.00  0.00     0.160 H 
ATOM     15  H   LIG d   1       8.923   3.821  -4.922  0.00  0.00     0.053 H 
ATOM     16  H   LIG d   1       8.344   3.239  -3.337  0.00  0.00     0.053 H 
ATOM     17  N   LIG d   1      12.533   3.627  -2.833  0.00  0.00    -0.198 N 
ATOM     18  H   LIG d   1      13.514   3.346  -2.719  0.00  0.00     0.454 HD
ENDROOT
BRANCH   1  19
ATOM     19  C   LIG d   1      10.534   0.006  -5.648  0.00  0.00     0.328 C 
ATOM     20  O   LIG d   1      11.028  -0.864  -4.970  0.00  0.00    -0.249 OA
BRANCH  19  21
ATOM     21  O   LIG d   1       9.933  -0.306  -6.807  0.00  0.00    -0.467 OA
BRANCH  21  22
ATOM     22  C   LIG d   1      10.315  -1.560  -7.432  0.00  0.00     0.082 C 
ATOM     23  H   LIG d   1       9.547  -2.308  -7.242  0.00  0.00     0.066 H 
ATOM     24  H   LIG d   1      10.421  -1.413  -8.507  0.00  0.00     0.066 H 
ATOM     25  H   LIG d   1      11.264  -1.898  -7.016  0.00  0.00     0.066 H 
ENDBRANCH  21  22
ENDBRANCH  19  21
ENDBRANCH   1  19
BRANCH  10  26
ATOM     26  C   LIG d   1       7.061   1.271  -3.701  0.00  0.00     0.165 C 
ATOM     27  H   LIG d   1       6.984   0.890  -2.684  0.00  0.00     0.080 H 
ATOM     28  H   LIG d   1       6.987   2.358  -3.689  0.00  0.00     0.080 H 
BRANCH  26  29
ATOM     29  O   LIG d   1       6.001   0.731  -4.493  0.00  0.00    -0.483 OA
BRANCH  29  30
ATOM     30  C   LIG d   1       5.062  -0.010  -3.846  0.00  0.00     0.121 A 
ATOM     31  C   LIG d   1       5.439  -0.875  -2.830  0.00  0.00    -0.020 A 
ATOM     32  C   LIG d   1       4.483  -1.626  -2.175  0.00  0.00    -0.058 A 
ATOM     33  H   LIG d   1       6.478  -0.961  -2.550  0.00  0.00     0.065 H 
ATOM     34  C   LIG d   1       3.151  -1.517  -2.532  0.00  0.00    -0.061 A 
ATOM     35  H   LIG d   1       4.775  -2.300  -1.383  0.00  0.00     0.062 H 
ATOM     36  C   LIG d   1       2.774  -0.655  -3.545  0.00  0.00    -0.058 A 
ATOM     37  H   LIG d   1       2.404  -2.105  -2.018  0.00  0.00     0.062 H 
ATOM     38  C   LIG d   1       3.725   0.103  -4.199  0.00  0.00    -0.020 A 
ATOM     39  H   LIG d   1       1.733  -0.571  -3.822  0.00  0.00     0.062 H 
ATOM     40  H   LIG d   1       3.429   0.779  -4.987  0.00  0.00     0.065 H 
ENDBRANCH  29  30
ENDBRANCH  26  29
ENDBRANCH  10  26
BRANCH   6  41
ATOM     41  C   LIG d   1       9.727   5.801  -2.363  0.00  0.00     0.053 C 
ATOM     42  H   LIG d   1       8.726   5.373  -2.323  0.00  0.00     0.054 H 
ATOM     43  H   LIG d   1       9.979   6.228  -1.393  0.00  0.00     0.054 H 
BRANCH  41  44
ATOM     44  C   LIG d   1       9.769   6.881  -3.413  0.00  0.00    -0.028 A 
ATOM     45  C   LIG d   1       9.181   6.670  -4.646  0.00  0.00    -0.056 A 
ATOM     46  C   LIG d   1       9.220   7.660  -5.610  0.00  0.00    -0.043 A 
ATOM     47  H   LIG d   1       8.692   5.730  -4.856  0.00  0.00     0.062 H 
ATOM     48  C   LIG d   1       9.847   8.864  -5.340  0.00  0.00     0.041 A 
ATOM     49  H   LIG d   1       8.760   7.494  -6.573  0.00  0.00     0.063 H 
ATOM     50  C   LIG d   1      10.436   9.074  -4.106  0.00  0.00    -0.043 A 
ATOM     51 CL   LIG d   1       9.896  10.107  -6.550  0.00  0.00    -0.084 Cl
ATOM     52  C   LIG d   1      10.391   8.085  -3.141  0.00  0.00    -0.056 A 
ATOM     53  H   LIG d   1      10.925  10.014  -3.894  0.00  0.00     0.063 H 
ATOM     54  H   LIG d   1      10.847   8.252  -2.176  0.00  0.00     0.062 H 
ENDBRANCH  41  44
ENDBRANCH   6  41
TORSDOF 8
ENDMDL
