MODEL 1
REMARK VINA RESULT:      -4.4      0.000      0.000
REMARK  7 active torsions:
REMARK  status: ('A' for Active; 'I' for Inactive)
REMARK    1  A    between atoms: C_1  and  C_2 
REMARK    2  A    between atoms: C_2  and  C_15 
REMARK    3  A    between atoms: C_5  and  C_8 
REMARK    4  A    between atoms: C_8  and  C_10 
REMARK    5  A    between atoms: C_8  and  O_14 
REMARK    6  A    between atoms: C_10  and  O_12 
REMARK    7  A    between atoms: O_12  and  C_13 
ROOT
ATOM      1  C   LIG d   1       4.147  -0.787  -3.129  0.00  0.00     0.165 C 
ATOM      2  O   LIG d   1       5.563  -0.653  -3.321  0.00  0.00    -0.346 OA
ATOM      3  C   LIG d   1       5.803  -0.652  -4.743  0.00  0.00     0.080 C 
ATOM      4  C   LIG d   1       4.430  -0.241  -5.331  0.00  0.00     0.121 C 
ATOM      5  H   LIG d   1       4.306   0.842  -5.312  0.00  0.00     0.065 H 
ATOM      6  O   LIG d   1       3.513  -0.885  -4.415  0.00  0.00    -0.341 OA
ATOM      7  H   LIG d   1       6.087  -1.646  -5.086  0.00  0.00     0.059 H 
ATOM      8  H   LIG d   1       6.569   0.080  -5.004  0.00  0.00     0.059 H 
ENDROOT
BRANCH   4   9
ATOM      9  C   LIG d   1       4.258  -0.784  -6.751  0.00  0.00     0.180 C 
ATOM     10  H   LIG d   1       5.191  -0.663  -7.302  0.00  0.00     0.074 H 
BRANCH   9  11
ATOM     11  C   LIG d   1       3.161  -0.022  -7.450  0.00  0.00     0.338 C 
ATOM     12  O   LIG d   1       2.372  -0.608  -8.154  0.00  0.00    -0.248 OA
BRANCH  11  13
ATOM     13  O   LIG d   1       3.059   1.307  -7.291  0.00  0.00    -0.466 OA
BRANCH  13  14
ATOM     14  C   LIG d   1       2.968   2.110  -8.496  0.00  0.00     0.082 C 
ATOM     15  H   LIG d   1       3.923   2.088  -9.021  0.00  0.00     0.066 H 
ATOM     16  H   LIG d   1       2.189   1.707  -9.144  0.00  0.00     0.066 H 
ATOM     17  H   LIG d   1       2.723   3.138  -8.231  0.00  0.00     0.066 H 
ENDBRANCH  13  14
ENDBRANCH  11  13
ENDBRANCH   9  11
BRANCH   9  18
ATOM     18  O   LIG d   1       3.914  -2.169  -6.693  0.00  0.00    -0.378 OA
ATOM     19  H   LIG d   1       3.016  -2.339  -6.378  0.00  0.00     0.211 HD
ENDBRANCH   9  18
ENDBRANCH   4   9
BRANCH   1  20
ATOM     20  C   LIG d   1       3.612   0.437  -2.384  0.00  0.00    -0.011 C 
ATOM     21  H   LIG d   1       2.839   0.126  -1.681  0.00  0.00     0.028 H 
ATOM     22  H   LIG d   1       4.427   0.915  -1.838  0.00  0.00     0.028 H 
ATOM     23  H   LIG d   1       3.191   1.143  -3.099  0.00  0.00     0.028 H 
ENDBRANCH   1  20
BRANCH   1  24
ATOM     24  C   LIG d   1       3.859  -2.051  -2.316  0.00  0.00    -0.011 C 
ATOM     25  H   LIG d   1       4.283  -1.945  -1.318  0.00  0.00     0.028 H 
ATOM     26  H   LIG d   1       2.782  -2.195  -2.240  0.00  0.00     0.028 H 
ATOM     27  H   LIG d   1       4.307  -2.911  -2.813  0.00  0.00     0.028 H 
ENDBRANCH   1  24
TORSDOF 7
ENDMDL
MODEL 2
REMARK VINA RESULT:      -4.4      1.601      2.347
REMARK  7 active torsions:
REMARK  status: ('A' for Active; 'I' for Inactive)
REMARK    1  A    between atoms: C_1  and  C_2 
REMARK    2  A    between atoms: C_2  and  C_15 
REMARK    3  A    between atoms: C_5  and  C_8 
REMARK    4  A    between atoms: C_8  and  C_10 
REMARK    5  A    between atoms: C_8  and  O_14 
REMARK    6  A    between atoms: C_10  and  O_12 
REMARK    7  A    between atoms: O_12  and  C_13 
ROOT
ATOM      1  C   LIG d   1       4.988   0.093  -2.848  0.00  0.00     0.165 C 
ATOM      2  O   LIG d   1       4.402  -1.215  -2.782  0.00  0.00    -0.346 OA
ATOM      3  C   LIG d   1       3.436  -1.306  -3.849  0.00  0.00     0.080 C 
ATOM      4  C   LIG d   1       3.901  -0.207  -4.837  0.00  0.00     0.121 C 
ATOM      5  H   LIG d   1       4.703  -0.572  -5.479  0.00  0.00     0.065 H 
ATOM      6  O   LIG d   1       4.384   0.816  -3.934  0.00  0.00    -0.341 OA
ATOM      7  H   LIG d   1       2.433  -1.094  -3.480  0.00  0.00     0.059 H 
ATOM      8  H   LIG d   1       3.475  -2.289  -4.320  0.00  0.00     0.059 H 
ENDROOT
BRANCH   4   9
ATOM      9  C   LIG d   1       2.727   0.309  -5.673  0.00  0.00     0.180 C 
ATOM     10  H   LIG d   1       1.852  -0.316  -5.495  0.00  0.00     0.074 H 
BRANCH   9  11
ATOM     11  C   LIG d   1       3.091   0.258  -7.135  0.00  0.00     0.338 C 
ATOM     12  O   LIG d   1       4.109   0.782  -7.522  0.00  0.00    -0.248 OA
BRANCH  11  13
ATOM     13  O   LIG d   1       2.286  -0.370  -8.006  0.00  0.00    -0.466 OA
BRANCH  13  14
ATOM     14  C   LIG d   1       2.302   0.105  -9.378  0.00  0.00     0.082 C 
ATOM     15  H   LIG d   1       3.189  -0.276  -9.884  0.00  0.00     0.066 H 
ATOM     16  H   LIG d   1       1.410  -0.249  -9.895  0.00  0.00     0.066 H 
ATOM     17  H   LIG d   1       2.319   1.194  -9.385  0.00  0.00     0.066 H 
ENDBRANCH  13  14
ENDBRANCH  11  13
ENDBRANCH   9  11
BRANCH   9  18
ATOM     18  O   LIG d   1       2.434   1.657  -5.301  0.00  0.00    -0.378 OA
ATOM     19  H   LIG d   1       1.507   1.810  -5.074  0.00  0.00     0.211 HD
ENDBRANCH   9  18
ENDBRANCH   4   9
BRANCH   1  20
ATOM     20  C   LIG d   1       6.493  -0.030  -3.088  0.00  0.00    -0.011 C 
ATOM     21  H   LIG d   1       6.683  -0.159  -4.154  0.00  0.00     0.028 H 
ATOM     22  H   LIG d   1       6.992   0.874  -2.738  0.00  0.00     0.028 H 
ATOM     23  H   LIG d   1       6.879  -0.891  -2.543  0.00  0.00     0.028 H 
ENDBRANCH   1  20
BRANCH   1  24
ATOM     24  C   LIG d   1       4.735   0.834  -1.534  0.00  0.00    -0.011 C 
ATOM     25  H   LIG d   1       3.758   1.317  -1.571  0.00  0.00     0.028 H 
ATOM     26  H   LIG d   1       4.757   0.124  -0.707  0.00  0.00     0.028 H 
ATOM     27  H   LIG d   1       5.508   1.588  -1.387  0.00  0.00     0.028 H 
ENDBRANCH   1  24
TORSDOF 7
ENDMDL
MODEL 3
REMARK VINA RESULT:      -4.3      1.473      2.197
REMARK  7 active torsions:
REMARK  status: ('A' for Active; 'I' for Inactive)
REMARK    1  A    between atoms: C_1  and  C_2 
REMARK    2  A    between atoms: C_2  and  C_15 
REMARK    3  A    between atoms: C_5  and  C_8 
REMARK    4  A    between atoms: C_8  and  C_10 
REMARK    5  A    between atoms: C_8  and  O_14 
REMARK    6  A    between atoms: C_10  and  O_12 
REMARK    7  A    between atoms: O_12  and  C_13 
ROOT
ATOM      1  C   LIG d   1       4.104  -0.259  -2.656  0.00  0.00     0.165 C 
ATOM      2  O   LIG d   1       2.694  -0.138  -2.890  0.00  0.00    -0.346 OA
ATOM      3  C   LIG d   1       2.508   0.026  -4.310  0.00  0.00     0.080 C 
ATOM      4  C   LIG d   1       3.815  -0.555  -4.904  0.00  0.00     0.121 C 
ATOM      5  H   LIG d   1       3.760  -1.641  -4.983  0.00  0.00     0.065 H 
ATOM      6  O   LIG d   1       4.792  -0.155  -3.914  0.00  0.00    -0.341 OA
ATOM      7  H   LIG d   1       2.403   1.080  -4.566  0.00  0.00     0.059 H 
ATOM      8  H   LIG d   1       1.643  -0.542  -4.654  0.00  0.00     0.059 H 
ENDROOT
BRANCH   4   9
ATOM      9  C   LIG d   1       4.125   0.074  -6.265  0.00  0.00     0.180 C 
ATOM     10  H   LIG d   1       3.757   1.100  -6.283  0.00  0.00     0.074 H 
BRANCH   9  11
ATOM     11  C   LIG d   1       3.448  -0.721  -7.351  0.00  0.00     0.338 C 
ATOM     12  O   LIG d   1       3.941  -1.754  -7.740  0.00  0.00    -0.248 OA
BRANCH  11  13
ATOM     13  O   LIG d   1       2.298  -0.284  -7.887  0.00  0.00    -0.466 OA
BRANCH  13  14
ATOM     14  C   LIG d   1       2.127  -0.462  -9.317  0.00  0.00     0.082 C 
ATOM     15  H   LIG d   1       1.065  -0.538  -9.549  0.00  0.00     0.066 H 
ATOM     16  H   LIG d   1       2.552   0.393  -9.843  0.00  0.00     0.066 H 
ATOM     17  H   LIG d   1       2.635  -1.373  -9.633  0.00  0.00     0.066 H 
ENDBRANCH  13  14
ENDBRANCH  11  13
ENDBRANCH   9  11
BRANCH   9  18
ATOM     18  O   LIG d   1       5.537   0.071  -6.481  0.00  0.00    -0.378 OA
ATOM     19  H   LIG d   1       5.805   0.431  -7.337  0.00  0.00     0.211 HD
ENDBRANCH   9  18
ENDBRANCH   4   9
BRANCH   1  20
ATOM     20  C   LIG d   1       4.404  -1.616  -2.017  0.00  0.00    -0.011 C 
ATOM     21  H   LIG d   1       5.216  -2.102  -2.558  0.00  0.00     0.028 H 
ATOM     22  H   LIG d   1       4.699  -1.470  -0.977  0.00  0.00     0.028 H 
ATOM     23  H   LIG d   1       3.514  -2.242  -2.058  0.00  0.00     0.028 H 
ENDBRANCH   1  20
BRANCH   1  24
ATOM     24  C   LIG d   1       4.566   0.863  -1.724  0.00  0.00    -0.011 C 
ATOM     25  H   LIG d   1       4.396   0.568  -0.689  0.00  0.00     0.028 H 
ATOM     26  H   LIG d   1       5.629   1.048  -1.878  0.00  0.00     0.028 H 
ATOM     27  H   LIG d   1       4.003   1.770  -1.942  0.00  0.00     0.028 H 
ENDBRANCH   1  24
TORSDOF 7
ENDMDL
MODEL 4
REMARK VINA RESULT:      -4.2      1.762      5.197
REMARK  7 active torsions:
REMARK  status: ('A' for Active; 'I' for Inactive)
REMARK    1  A    between atoms: C_1  and  C_2 
REMARK    2  A    between atoms: C_2  and  C_15 
REMARK    3  A    between atoms: C_5  and  C_8 
REMARK    4  A    between atoms: C_8  and  C_10 
REMARK    5  A    between atoms: C_8  and  O_14 
REMARK    6  A    between atoms: C_10  and  O_12 
REMARK    7  A    between atoms: O_12  and  C_13 
ROOT
ATOM      1  C   LIG d   1       3.977   1.109  -9.323  0.00  0.00     0.165 C 
ATOM      2  O   LIG d   1       2.920   0.169  -9.563  0.00  0.00    -0.346 OA
ATOM      3  C   LIG d   1       2.621  -0.469  -8.305  0.00  0.00     0.080 C 
ATOM      4  C   LIG d   1       3.168   0.537  -7.263  0.00  0.00     0.121 C 
ATOM      5  H   LIG d   1       2.449   1.334  -7.074  0.00  0.00     0.065 H 
ATOM      6  O   LIG d   1       4.344   1.047  -7.934  0.00  0.00    -0.341 OA
ATOM      7  H   LIG d   1       3.137  -1.426  -8.226  0.00  0.00     0.059 H 
ATOM      8  H   LIG d   1       1.545  -0.600  -8.186  0.00  0.00     0.059 H 
ENDROOT
BRANCH   4   9
ATOM      9  C   LIG d   1       3.546  -0.175  -5.961  0.00  0.00     0.180 C 
ATOM     10  H   LIG d   1       3.327  -1.238  -6.052  0.00  0.00     0.074 H 
BRANCH   9  11
ATOM     11  C   LIG d   1       2.748   0.406  -4.822  0.00  0.00     0.338 C 
ATOM     12  O   LIG d   1       2.622   1.604  -4.721  0.00  0.00    -0.248 OA
BRANCH  11  13
ATOM     13  O   LIG d   1       2.176  -0.406  -3.919  0.00  0.00    -0.466 OA
BRANCH  13  14
ATOM     14  C   LIG d   1       3.060  -1.087  -2.992  0.00  0.00     0.082 C 
ATOM     15  H   LIG d   1       3.598  -1.877  -3.516  0.00  0.00     0.066 H 
ATOM     16  H   LIG d   1       3.775  -0.373  -2.580  0.00  0.00     0.066 H 
ATOM     17  H   LIG d   1       2.474  -1.522  -2.182  0.00  0.00     0.066 H 
ENDBRANCH  13  14
ENDBRANCH  11  13
ENDBRANCH   9  11
BRANCH   9  18
ATOM     18  O   LIG d   1       4.940   0.006  -5.707  0.00  0.00    -0.378 OA
ATOM     19  H   LIG d   1       5.513  -0.575  -6.227  0.00  0.00     0.211 HD
ENDBRANCH   9  18
ENDBRANCH   4   9
BRANCH   1  20
ATOM     20  C   LIG d   1       3.496   2.520  -9.665  0.00  0.00    -0.011 C 
ATOM     21  H   LIG d   1       2.567   2.727  -9.133  0.00  0.00     0.028 H 
ATOM     22  H   LIG d   1       4.254   3.245  -9.365  0.00  0.00     0.028 H 
ATOM     23  H   LIG d   1       3.325   2.596 -10.738  0.00  0.00     0.028 H 
ENDBRANCH   1  20
BRANCH   1  24
ATOM     24  C   LIG d   1       5.186   0.752 -10.191  0.00  0.00    -0.011 C 
ATOM     25  H   LIG d   1       5.182   1.368 -11.089  0.00  0.00     0.028 H 
ATOM     26  H   LIG d   1       6.102   0.935  -9.629  0.00  0.00     0.028 H 
ATOM     27  H   LIG d   1       5.134  -0.300 -10.469  0.00  0.00     0.028 H 
ENDBRANCH   1  24
TORSDOF 7
ENDMDL
MODEL 5
REMARK VINA RESULT:      -4.1      1.671      4.887
REMARK  7 active torsions:
REMARK  status: ('A' for Active; 'I' for Inactive)
REMARK    1  A    between atoms: C_1  and  C_2 
REMARK    2  A    between atoms: C_2  and  C_15 
REMARK    3  A    between atoms: C_5  and  C_8 
REMARK    4  A    between atoms: C_8  and  C_10 
REMARK    5  A    between atoms: C_8  and  O_14 
REMARK    6  A    between atoms: C_10  and  O_12 
REMARK    7  A    between atoms: O_12  and  C_13 
ROOT
ATOM      1  C   LIG d   1       3.229   0.679  -8.096  0.00  0.00     0.165 C 
ATOM      2  O   LIG d   1       4.520   0.078  -8.265  0.00  0.00    -0.346 OA
ATOM      3  C   LIG d   1       5.006  -0.271  -6.953  0.00  0.00     0.080 C 
ATOM      4  C   LIG d   1       3.710  -0.340  -6.107  0.00  0.00     0.121 C 
ATOM      5  H   LIG d   1       3.218  -1.305  -6.224  0.00  0.00     0.065 H 
ATOM      6  O   LIG d   1       2.918   0.721  -6.693  0.00  0.00    -0.341 OA
ATOM      7  H   LIG d   1       5.675   0.501  -6.573  0.00  0.00     0.059 H 
ATOM      8  H   LIG d   1       5.506  -1.239  -6.972  0.00  0.00     0.059 H 
ENDROOT
BRANCH   4   9
ATOM      9  C   LIG d   1       4.004  -0.053  -4.632  0.00  0.00     0.180 C 
ATOM     10  H   LIG d   1       5.080   0.041  -4.488  0.00  0.00     0.074 H 
BRANCH   9  11
ATOM     11  C   LIG d   1       3.482  -1.188  -3.787  0.00  0.00     0.338 C 
ATOM     12  O   LIG d   1       2.615  -0.983  -2.971  0.00  0.00    -0.248 OA
BRANCH  11  13
ATOM     13  O   LIG d   1       3.980  -2.425  -3.942  0.00  0.00    -0.466 OA
BRANCH  13  14
ATOM     14  C   LIG d   1       5.420  -2.573  -3.843  0.00  0.00     0.082 C 
ATOM     15  H   LIG d   1       5.907  -1.709  -4.294  0.00  0.00     0.066 H 
ATOM     16  H   LIG d   1       5.707  -2.643  -2.792  0.00  0.00     0.066 H 
ATOM     17  H   LIG d   1       5.730  -3.478  -4.364  0.00  0.00     0.066 H 
ENDBRANCH  13  14
ENDBRANCH  11  13
ENDBRANCH   9  11
BRANCH   9  18
ATOM     18  O   LIG d   1       3.361   1.163  -4.246  0.00  0.00    -0.378 OA
ATOM     19  H   LIG d   1       2.507   1.310  -4.674  0.00  0.00     0.211 HD
ENDBRANCH   9  18
ENDBRANCH   4   9
BRANCH   1  20
ATOM     20  C   LIG d   1       2.175  -0.151  -8.831  0.00  0.00    -0.011 C 
ATOM     21  H   LIG d   1       1.985  -1.070  -8.276  0.00  0.00     0.028 H 
ATOM     22  H   LIG d   1       1.251   0.422  -8.910  0.00  0.00     0.028 H 
ATOM     23  H   LIG d   1       2.537  -0.397  -9.829  0.00  0.00     0.028 H 
ENDBRANCH   1  20
BRANCH   1  24
ATOM     24  C   LIG d   1       3.249   2.101  -8.660  0.00  0.00    -0.011 C 
ATOM     25  H   LIG d   1       4.051   2.668  -8.188  0.00  0.00     0.028 H 
ATOM     26  H   LIG d   1       3.418   2.062  -9.736  0.00  0.00     0.028 H 
ATOM     27  H   LIG d   1       2.294   2.585  -8.460  0.00  0.00     0.028 H 
ENDBRANCH   1  24
TORSDOF 7
ENDMDL
MODEL 6
REMARK VINA RESULT:      -3.9      2.701      3.922
REMARK  7 active torsions:
REMARK  status: ('A' for Active; 'I' for Inactive)
REMARK    1  A    between atoms: C_1  and  C_2 
REMARK    2  A    between atoms: C_2  and  C_15 
REMARK    3  A    between atoms: C_5  and  C_8 
REMARK    4  A    between atoms: C_8  and  C_10 
REMARK    5  A    between atoms: C_8  and  O_14 
REMARK    6  A    between atoms: C_10  and  O_12 
REMARK    7  A    between atoms: O_12  and  C_13 
ROOT
ATOM      1  C   LIG d   1       4.320  -0.161  -2.838  0.00  0.00     0.165 C 
ATOM      2  O   LIG d   1       5.100  -1.321  -2.512  0.00  0.00    -0.346 OA
ATOM      3  C   LIG d   1       6.085  -1.481  -3.554  0.00  0.00     0.080 C 
ATOM      4  C   LIG d   1       6.173  -0.064  -4.173  0.00  0.00     0.121 C 
ATOM      5  H   LIG d   1       6.837   0.576  -3.592  0.00  0.00     0.065 H 
ATOM      6  O   LIG d   1       4.801   0.386  -4.078  0.00  0.00    -0.341 OA
ATOM      7  H   LIG d   1       5.747  -2.206  -4.294  0.00  0.00     0.059 H 
ATOM      8  H   LIG d   1       7.045  -1.779  -3.133  0.00  0.00     0.059 H 
ENDROOT
BRANCH   4   9
ATOM      9  C   LIG d   1       6.627  -0.134  -5.634  0.00  0.00     0.180 C 
ATOM     10  H   LIG d   1       6.910  -1.157  -5.878  0.00  0.00     0.074 H 
BRANCH   9  11
ATOM     11  C   LIG d   1       7.812   0.776  -5.835  0.00  0.00     0.338 C 
ATOM     12  O   LIG d   1       7.744   1.938  -5.508  0.00  0.00    -0.248 OA
BRANCH  11  13
ATOM     13  O   LIG d   1       8.943   0.297  -6.376  0.00  0.00    -0.466 OA
BRANCH  13  14
ATOM     14  C   LIG d   1      10.114   0.246  -5.520  0.00  0.00     0.082 C 
ATOM     15  H   LIG d   1       9.876   0.689  -4.553  0.00  0.00     0.066 H 
ATOM     16  H   LIG d   1      10.416  -0.792  -5.379  0.00  0.00     0.066 H 
ATOM     17  H   LIG d   1      10.928   0.802  -5.984  0.00  0.00     0.066 H 
ENDBRANCH  13  14
ENDBRANCH  11  13
ENDBRANCH   9  11
BRANCH   9  18
ATOM     18  O   LIG d   1       5.557   0.282  -6.485  0.00  0.00    -0.378 OA
ATOM     19  H   LIG d   1       5.803   0.360  -7.417  0.00  0.00     0.211 HD
ENDBRANCH   9  18
ENDBRANCH   4   9
BRANCH   1  20
ATOM     20  C   LIG d   1       4.460   0.881  -1.728  0.00  0.00    -0.011 C 
ATOM     21  H   LIG d   1       5.306   0.622  -1.091  0.00  0.00     0.028 H 
ATOM     22  H   LIG d   1       4.627   1.863  -2.170  0.00  0.00     0.028 H 
ATOM     23  H   LIG d   1       3.549   0.901  -1.131  0.00  0.00     0.028 H 
ENDBRANCH   1  20
BRANCH   1  24
ATOM     24  C   LIG d   1       2.851  -0.560  -2.989  0.00  0.00    -0.011 C 
ATOM     25  H   LIG d   1       2.217   0.292  -2.745  0.00  0.00     0.028 H 
ATOM     26  H   LIG d   1       2.663  -0.870  -4.017  0.00  0.00     0.028 H 
ATOM     27  H   LIG d   1       2.628  -1.385  -2.313  0.00  0.00     0.028 H 
ENDBRANCH   1  24
TORSDOF 7
ENDMDL
MODEL 7
REMARK VINA RESULT:      -3.6      2.483      4.656
REMARK  7 active torsions:
REMARK  status: ('A' for Active; 'I' for Inactive)
REMARK    1  A    between atoms: C_1  and  C_2 
REMARK    2  A    between atoms: C_2  and  C_15 
REMARK    3  A    between atoms: C_5  and  C_8 
REMARK    4  A    between atoms: C_8  and  C_10 
REMARK    5  A    between atoms: C_8  and  O_14 
REMARK    6  A    between atoms: C_10  and  O_12 
REMARK    7  A    between atoms: O_12  and  C_13 
ROOT
ATOM      1  C   LIG d   1       4.006  -0.028  -3.346  0.00  0.00     0.165 C 
ATOM      2  O   LIG d   1       3.998   0.252  -4.753  0.00  0.00    -0.346 OA
ATOM      3  C   LIG d   1       5.194  -0.327  -5.312  0.00  0.00     0.080 C 
ATOM      4  C   LIG d   1       5.585  -1.401  -4.266  0.00  0.00     0.121 C 
ATOM      5  H   LIG d   1       5.020  -2.321  -4.421  0.00  0.00     0.065 H 
ATOM      6  O   LIG d   1       5.201  -0.760  -3.027  0.00  0.00    -0.341 OA
ATOM      7  H   LIG d   1       5.978   0.423  -5.405  0.00  0.00     0.059 H 
ATOM      8  H   LIG d   1       4.984  -0.788  -6.278  0.00  0.00     0.059 H 
ENDROOT
BRANCH   4   9
ATOM      9  C   LIG d   1       7.090  -1.675  -4.299  0.00  0.00     0.180 C 
ATOM     10  H   LIG d   1       7.613  -0.788  -4.657  0.00  0.00     0.074 H 
BRANCH   9  11
ATOM     11  C   LIG d   1       7.370  -2.830  -5.226  0.00  0.00     0.338 C 
ATOM     12  O   LIG d   1       7.856  -2.628  -6.314  0.00  0.00    -0.248 OA
BRANCH  11  13
ATOM     13  O   LIG d   1       7.081  -4.084  -4.843  0.00  0.00    -0.466 OA
BRANCH  13  14
ATOM     14  C   LIG d   1       8.165  -5.048  -4.870  0.00  0.00     0.082 C 
ATOM     15  H   LIG d   1       7.802  -5.992  -5.275  0.00  0.00     0.066 H 
ATOM     16  H   LIG d   1       8.972  -4.670  -5.499  0.00  0.00     0.066 H 
ATOM     17  H   LIG d   1       8.537  -5.206  -3.858  0.00  0.00     0.066 H 
ENDBRANCH  13  14
ENDBRANCH  11  13
ENDBRANCH   9  11
BRANCH   9  18
ATOM     18  O   LIG d   1       7.544  -1.998  -2.983  0.00  0.00    -0.378 OA
ATOM     19  H   LIG d   1       8.297  -2.604  -2.965  0.00  0.00     0.211 HD
ENDBRANCH   9  18
ENDBRANCH   4   9
BRANCH   1  20
ATOM     20  C   LIG d   1       2.778  -0.865  -2.982  0.00  0.00    -0.011 C 
ATOM     21  H   LIG d   1       1.908  -0.486  -3.518  0.00  0.00     0.028 H 
ATOM     22  H   LIG d   1       2.952  -1.905  -3.262  0.00  0.00     0.028 H 
ATOM     23  H   LIG d   1       2.600  -0.802  -1.909  0.00  0.00     0.028 H 
ENDBRANCH   1  20
BRANCH   1  24
ATOM     24  C   LIG d   1       3.983   1.287  -2.563  0.00  0.00    -0.011 C 
ATOM     25  H   LIG d   1       4.727   1.249  -1.769  0.00  0.00     0.028 H 
ATOM     26  H   LIG d   1       4.212   2.113  -3.236  0.00  0.00     0.028 H 
ATOM     27  H   LIG d   1       2.994   1.434  -2.130  0.00  0.00     0.028 H 
ENDBRANCH   1  24
TORSDOF 7
ENDMDL
MODEL 8
REMARK VINA RESULT:      -3.6     10.637     12.290
REMARK  7 active torsions:
REMARK  status: ('A' for Active; 'I' for Inactive)
REMARK    1  A    between atoms: C_1  and  C_2 
REMARK    2  A    between atoms: C_2  and  C_15 
REMARK    3  A    between atoms: C_5  and  C_8 
REMARK    4  A    between atoms: C_8  and  C_10 
REMARK    5  A    between atoms: C_8  and  O_14 
REMARK    6  A    between atoms: C_10  and  O_12 
REMARK    7  A    between atoms: O_12  and  C_13 
ROOT
ATOM      1  C   LIG d   1      10.101   9.007  -4.845  0.00  0.00     0.165 C 
ATOM      2  O   LIG d   1       9.678  10.361  -5.058  0.00  0.00    -0.346 OA
ATOM      3  C   LIG d   1       9.311  10.903  -3.773  0.00  0.00     0.080 C 
ATOM      4  C   LIG d   1      10.061   9.983  -2.778  0.00  0.00     0.121 C 
ATOM      5  H   LIG d   1      11.097  10.299  -2.659  0.00  0.00     0.065 H 
ATOM      6  O   LIG d   1       9.984   8.700  -3.445  0.00  0.00    -0.341 OA
ATOM      7  H   LIG d   1       8.234  10.837  -3.621  0.00  0.00     0.059 H 
ATOM      8  H   LIG d   1       9.652  11.934  -3.677  0.00  0.00     0.059 H 
ENDROOT
BRANCH   4   9
ATOM      9  C   LIG d   1       9.346   9.941  -1.425  0.00  0.00     0.180 C 
ATOM     10  H   LIG d   1       9.842  10.618  -0.731  0.00  0.00     0.074 H 
BRANCH   9  11
ATOM     11  C   LIG d   1       9.392   8.537  -0.877  0.00  0.00     0.338 C 
ATOM     12  O   LIG d   1       8.393   7.857  -0.872  0.00  0.00    -0.248 OA
BRANCH  11  13
ATOM     13  O   LIG d   1      10.543   8.042  -0.394  0.00  0.00    -0.466 OA
BRANCH  13  14
ATOM     14  C   LIG d   1      10.660   6.598  -0.323  0.00  0.00     0.082 C 
ATOM     15  H   LIG d   1       9.739   6.178   0.082  0.00  0.00     0.066 H 
ATOM     16  H   LIG d   1      10.833   6.197  -1.322  0.00  0.00     0.066 H 
ATOM     17  H   LIG d   1      11.496   6.332   0.324  0.00  0.00     0.066 H 
ENDBRANCH  13  14
ENDBRANCH  11  13
ENDBRANCH   9  11
BRANCH   9  18
ATOM     18  O   LIG d   1       7.985  10.342  -1.594  0.00  0.00    -0.378 OA
ATOM     19  H   LIG d   1       7.559   9.969  -2.378  0.00  0.00     0.211 HD
ENDBRANCH   9  18
ENDBRANCH   4   9
BRANCH   1  20
ATOM     20  C   LIG d   1      11.557   8.849  -5.285  0.00  0.00    -0.011 C 
ATOM     21  H   LIG d   1      12.185   8.676  -4.411  0.00  0.00     0.028 H 
ATOM     22  H   LIG d   1      11.641   8.000  -5.964  0.00  0.00     0.028 H 
ATOM     23  H   LIG d   1      11.884   9.755  -5.794  0.00  0.00     0.028 H 
ENDBRANCH   1  20
BRANCH   1  24
ATOM     24  C   LIG d   1       9.212   8.060  -5.654  0.00  0.00    -0.011 C 
ATOM     25  H   LIG d   1       8.314   7.828  -5.083  0.00  0.00     0.028 H 
ATOM     26  H   LIG d   1       8.932   8.540  -6.592  0.00  0.00     0.028 H 
ATOM     27  H   LIG d   1       9.758   7.141  -5.865  0.00  0.00     0.028 H 
ENDBRANCH   1  24
TORSDOF 7
ENDMDL
MODEL 9
REMARK VINA RESULT:      -3.6      8.801     10.036
REMARK  7 active torsions:
REMARK  status: ('A' for Active; 'I' for Inactive)
REMARK    1  A    between atoms: C_1  and  C_2 
REMARK    2  A    between atoms: C_2  and  C_15 
REMARK    3  A    between atoms: C_5  and  C_8 
REMARK    4  A    between atoms: C_8  and  C_10 
REMARK    5  A    between atoms: C_8  and  O_14 
REMARK    6  A    between atoms: C_10  and  O_12 
REMARK    7  A    between atoms: O_12  and  C_13 
ROOT
ATOM      1  C   LIG d   1      11.307   6.379   0.577  0.00  0.00     0.165 C 
ATOM      2  O   LIG d   1      12.716   6.249   0.335  0.00  0.00    -0.346 OA
ATOM      3  C   LIG d   1      12.873   5.489  -0.880  0.00  0.00     0.080 C 
ATOM      4  C   LIG d   1      11.508   5.674  -1.588  0.00  0.00     0.121 C 
ATOM      5  H   LIG d   1      11.477   6.616  -2.136  0.00  0.00     0.065 H 
ATOM      6  O   LIG d   1      10.594   5.694  -0.466  0.00  0.00    -0.341 OA
ATOM      7  H   LIG d   1      13.052   4.437  -0.656  0.00  0.00     0.059 H 
ATOM      8  H   LIG d   1      13.681   5.897  -1.488  0.00  0.00     0.059 H 
ENDROOT
BRANCH   4   9
ATOM      9  C   LIG d   1      11.209   4.494  -2.517  0.00  0.00     0.180 C 
ATOM     10  H   LIG d   1      12.035   4.364  -3.216  0.00  0.00     0.074 H 
BRANCH   9  11
ATOM     11  C   LIG d   1       9.941   4.768  -3.284  0.00  0.00     0.338 C 
ATOM     12  O   LIG d   1       9.296   3.850  -3.734  0.00  0.00    -0.248 OA
BRANCH  11  13
ATOM     13  O   LIG d   1       9.527   6.032  -3.468  0.00  0.00    -0.466 OA
BRANCH  13  14
ATOM     14  C   LIG d   1       9.242   6.440  -4.831  0.00  0.00     0.082 C 
ATOM     15  H   LIG d   1      10.155   6.392  -5.424  0.00  0.00     0.066 H 
ATOM     16  H   LIG d   1       8.494   5.773  -5.262  0.00  0.00     0.066 H 
ATOM     17  H   LIG d   1       8.861   7.461  -4.833  0.00  0.00     0.066 H 
ENDBRANCH  13  14
ENDBRANCH  11  13
ENDBRANCH   9  11
BRANCH   9  18
ATOM     18  O   LIG d   1      11.050   3.306  -1.741  0.00  0.00    -0.378 OA
ATOM     19  H   LIG d   1      10.482   3.415  -0.966  0.00  0.00     0.211 HD
ENDBRANCH   9  18
ENDBRANCH   4   9
BRANCH   1  20
ATOM     20  C   LIG d   1      10.921   7.859   0.578  0.00  0.00    -0.011 C 
ATOM     21  H   LIG d   1      11.089   8.279  -0.414  0.00  0.00     0.028 H 
ATOM     22  H   LIG d   1       9.868   7.959   0.840  0.00  0.00     0.028 H 
ATOM     23  H   LIG d   1      11.529   8.393   1.307  0.00  0.00     0.028 H 
ENDBRANCH   1  20
BRANCH   1  24
ATOM     24  C   LIG d   1      10.961   5.756   1.931  0.00  0.00    -0.011 C 
ATOM     25  H   LIG d   1      11.875   5.600   2.503  0.00  0.00     0.028 H 
ATOM     26  H   LIG d   1      10.299   6.425   2.479  0.00  0.00     0.028 H 
ATOM     27  H   LIG d   1      10.463   4.800   1.773  0.00  0.00     0.028 H 
ENDBRANCH   1  24
TORSDOF 7
ENDMDL
MODEL 10
REMARK VINA RESULT:      -3.6      2.966      4.441
REMARK  7 active torsions:
REMARK  status: ('A' for Active; 'I' for Inactive)
REMARK    1  A    between atoms: C_1  and  C_2 
REMARK    2  A    between atoms: C_2  and  C_15 
REMARK    3  A    between atoms: C_5  and  C_8 
REMARK    4  A    between atoms: C_8  and  C_10 
REMARK    5  A    between atoms: C_8  and  O_14 
REMARK    6  A    between atoms: C_10  and  O_12 
REMARK    7  A    between atoms: O_12  and  C_13 
ROOT
ATOM      1  C   LIG d   1       7.748  -2.997  -4.636  0.00  0.00     0.165 C 
ATOM      2  O   LIG d   1       7.990  -1.609  -4.906  0.00  0.00    -0.346 OA
ATOM      3  C   LIG d   1       6.718  -0.933  -4.847  0.00  0.00     0.080 C 
ATOM      4  C   LIG d   1       5.849  -1.896  -4.000  0.00  0.00     0.121 C 
ATOM      5  H   LIG d   1       6.023  -1.744  -2.934  0.00  0.00     0.065 H 
ATOM      6  O   LIG d   1       6.339  -3.189  -4.427  0.00  0.00    -0.341 OA
ATOM      7  H   LIG d   1       6.299  -0.813  -5.845  0.00  0.00     0.059 H 
ATOM      8  H   LIG d   1       6.818   0.033  -4.351  0.00  0.00     0.059 H 
ENDROOT
BRANCH   4   9
ATOM      9  C   LIG d   1       4.365  -1.734  -4.337  0.00  0.00     0.180 C 
ATOM     10  H   LIG d   1       4.218  -0.810  -4.897  0.00  0.00     0.074 H 
BRANCH   9  11
ATOM     11  C   LIG d   1       3.563  -1.679  -3.062  0.00  0.00     0.338 C 
ATOM     12  O   LIG d   1       3.609  -2.599  -2.280  0.00  0.00    -0.248 OA
BRANCH  11  13
ATOM     13  O   LIG d   1       2.799  -0.609  -2.794  0.00  0.00    -0.466 OA
BRANCH  13  14
ATOM     14  C   LIG d   1       3.472   0.672  -2.686  0.00  0.00     0.082 C 
ATOM     15  H   LIG d   1       2.738   1.475  -2.744  0.00  0.00     0.066 H 
ATOM     16  H   LIG d   1       3.995   0.728  -1.730  0.00  0.00     0.066 H 
ATOM     17  H   LIG d   1       4.190   0.775  -3.500  0.00  0.00     0.066 H 
ENDBRANCH  13  14
ENDBRANCH  11  13
ENDBRANCH   9  11
BRANCH   9  18
ATOM     18  O   LIG d   1       3.932  -2.844  -5.125  0.00  0.00    -0.378 OA
ATOM     19  H   LIG d   1       3.032  -2.755  -5.470  0.00  0.00     0.211 HD
ENDBRANCH   9  18
ENDBRANCH   4   9
BRANCH   1  20
ATOM     20  C   LIG d   1       8.516  -3.418  -3.382  0.00  0.00    -0.011 C 
ATOM     21  H   LIG d   1       8.173  -2.829  -2.531  0.00  0.00     0.028 H 
ATOM     22  H   LIG d   1       8.338  -4.476  -3.185  0.00  0.00     0.028 H 
ATOM     23  H   LIG d   1       9.581  -3.251  -3.534  0.00  0.00     0.028 H 
ENDBRANCH   1  20
BRANCH   1  24
ATOM     24  C   LIG d   1       8.210  -3.838  -5.828  0.00  0.00    -0.011 C 
ATOM     25  H   LIG d   1       8.130  -3.248  -6.741  0.00  0.00     0.028 H 
ATOM     26  H   LIG d   1       9.247  -4.139  -5.680  0.00  0.00     0.028 H 
ATOM     27  H   LIG d   1       7.582  -4.725  -5.911  0.00  0.00     0.028 H 
ENDBRANCH   1  24
TORSDOF 7
ENDMDL
