MODEL 1
REMARK VINA RESULT:      -6.7      0.000      0.000
REMARK  7 active torsions:
REMARK  status: ('A' for Active; 'I' for Inactive)
REMARK    1  A    between atoms: C_1  and  C_2 
REMARK    2  A    between atoms: C_3  and  C_25 
REMARK    3  A    between atoms: N_14  and  C_17 
REMARK    4  A    between atoms: C_17  and  C_18 
REMARK    5  A    between atoms: C_18  and  N_19 
REMARK    6  A    between atoms: C_30  and  O_31 
REMARK    7  A    between atoms: O_31  and  C_32 
ROOT
ATOM      1  C   LIG d   1       4.276  -3.090  -7.240  0.00  0.00     0.114 A 
ATOM      2  C   LIG d   1       4.616  -1.928  -6.629  0.00  0.00     0.071 A 
ATOM      3  C   LIG d   1       4.083  -0.666  -7.172  0.00  0.00     0.201 A 
ATOM      4  O   LIG d   1       4.347   0.414  -6.671  0.00  0.00    -0.286 OA
ATOM      5  C   LIG d   1       3.211  -0.782  -8.356  0.00  0.00     0.065 A 
ATOM      6  C   LIG d   1       2.652   0.349  -8.953  0.00  0.00    -0.044 A 
ATOM      7  C   LIG d   1       1.849   0.209 -10.047  0.00  0.00    -0.018 A 
ATOM      8  C   LIG d   1       1.583  -1.057 -10.573  0.00  0.00     0.138 A 
ATOM      9  C   LIG d   1       2.132  -2.184  -9.992  0.00  0.00     0.082 A 
ATOM     10  C   LIG d   1       2.953  -2.061  -8.874  0.00  0.00     0.150 A 
ATOM     11  O   LIG d   1       3.487  -3.159  -8.309  0.00  0.00    -0.459 OA
ATOM     12  C   LIG d   1       1.855  -3.556 -10.552  0.00  0.00     0.005 C 
ATOM     13  N   LIG d   1       0.678  -3.502 -11.431  0.00  0.00     0.268 N 
ATOM     14  C   LIG d   1       0.811  -2.390 -12.386  0.00  0.00     0.117 C 
ATOM     15  O   LIG d   1       0.775  -1.159 -11.661  0.00  0.00    -0.454 OA
ATOM     16  H   LIG d   1       2.854   1.330  -8.551  0.00  0.00     0.063 H 
ATOM     17  H   LIG d   1       1.416   1.084 -10.510  0.00  0.00     0.065 H 
ATOM     18  H   LIG d   1       2.727  -3.899 -11.129  0.00  0.00     0.087 H 
ATOM     19  H   LIG d   1       1.663  -4.257  -9.726  0.00  0.00     0.087 H 
ATOM     20  H   LIG d   1       1.767  -2.480 -12.924  0.00  0.00     0.130 H 
ATOM     21  H   LIG d   1      -0.019  -2.424 -13.107  0.00  0.00     0.130 H 
ATOM     22  H   LIG d   1      -0.213  -3.327 -10.810  0.00  0.00     0.207 HD
ENDROOT
BRANCH  13  23
ATOM     23  C   LIG d   1       0.486  -4.778 -12.132  0.00  0.00    -0.015 C 
ATOM     24  H   LIG d   1       0.950  -4.723 -13.128  0.00  0.00     0.083 H 
ATOM     25  H   LIG d   1       0.954  -5.588 -11.554  0.00  0.00     0.083 H 
BRANCH  23  26
ATOM     26  C   LIG d   1      -1.011  -5.058 -12.282  0.00  0.00     0.039 C 
ATOM     27  H   LIG d   1      -1.478  -4.253 -12.869  0.00  0.00     0.048 H 
ATOM     28  H   LIG d   1      -1.154  -6.018 -12.799  0.00  0.00     0.048 H 
BRANCH  26  29
ATOM     29  N   LIG d   1      -1.633  -5.119 -10.953  0.00  0.00    -0.293 N 
ATOM     30  C   LIG d   1      -3.088  -4.927 -11.043  0.00  0.00     0.023 C 
ATOM     31  C   LIG d   1      -3.687  -4.938  -9.634  0.00  0.00     0.060 C 
ATOM     32  H   LIG d   1      -3.301  -3.962 -11.526  0.00  0.00     0.045 H 
ATOM     33  H   LIG d   1      -3.529  -5.739 -11.638  0.00  0.00     0.045 H 
ATOM     34  O   LIG d   1      -3.342  -6.166  -8.985  0.00  0.00    -0.377 OA
ATOM     35  H   LIG d   1      -4.782  -4.852  -9.699  0.00  0.00     0.057 H 
ATOM     36  H   LIG d   1      -3.286  -4.093  -9.055  0.00  0.00     0.057 H 
ATOM     37  C   LIG d   1      -1.933  -6.386  -8.880  0.00  0.00     0.060 C 
ATOM     38  C   LIG d   1      -1.316  -6.388 -10.281  0.00  0.00     0.023 C 
ATOM     39  H   LIG d   1      -1.746  -7.355  -8.396  0.00  0.00     0.057 H 
ATOM     40  H   LIG d   1      -1.478  -5.583  -8.281  0.00  0.00     0.057 H 
ATOM     41  H   LIG d   1      -1.729  -7.224 -10.864  0.00  0.00     0.045 H 
ATOM     42  H   LIG d   1      -0.224  -6.499 -10.204  0.00  0.00     0.045 H 
ENDBRANCH  26  29
ENDBRANCH  23  26
ENDBRANCH  13  23
BRANCH   1  43
ATOM     43  C   LIG d   1       4.825  -4.376  -6.677  0.00  0.00    -0.006 C 
ATOM     44  H   LIG d   1       5.405  -4.160  -5.768  0.00  0.00     0.031 H 
ATOM     45  H   LIG d   1       5.478  -4.853  -7.423  0.00  0.00     0.031 H 
ATOM     46  H   LIG d   1       3.995  -5.053  -6.432  0.00  0.00     0.031 H 
ENDBRANCH   1  43
BRANCH   2  47
ATOM     47  C   LIG d   1       5.504  -1.926  -5.440  0.00  0.00     0.031 A 
ATOM     48  C   LIG d   1       4.956  -1.982  -4.155  0.00  0.00     0.128 A 
ATOM     49  C   LIG d   1       5.793  -1.981  -3.051  0.00  0.00    -0.019 A 
ATOM     50  C   LIG d   1       7.164  -1.924  -3.220  0.00  0.00    -0.058 A 
ATOM     51  H   LIG d   1       5.374  -2.024  -2.056  0.00  0.00     0.065 H 
ATOM     52  C   LIG d   1       7.709  -1.869  -4.491  0.00  0.00    -0.061 A 
ATOM     53  H   LIG d   1       7.813  -1.925  -2.357  0.00  0.00     0.062 H 
ATOM     54  C   LIG d   1       6.887  -1.876  -5.600  0.00  0.00    -0.050 A 
ATOM     55  H   LIG d   1       8.780  -1.827  -4.616  0.00  0.00     0.062 H 
ATOM     56  H   LIG d   1       7.315  -1.837  -6.591  0.00  0.00     0.062 H 
BRANCH  48  57
ATOM     57  O   LIG d   1       3.609  -2.036  -3.989  0.00  0.00    -0.494 OA
BRANCH  57  58
ATOM     58  C   LIG d   1       3.024  -1.071  -3.114  0.00  0.00     0.079 C 
ATOM     59  H   LIG d   1       3.251  -0.058  -3.481  0.00  0.00     0.066 H 
ATOM     60  H   LIG d   1       3.434  -1.196  -2.102  0.00  0.00     0.066 H 
ATOM     61  H   LIG d   1       1.933  -1.213  -3.088  0.00  0.00     0.066 H 
ENDBRANCH  57  58
ENDBRANCH  48  57
ENDBRANCH   2  47
TORSDOF 7
ENDMDL
MODEL 2
REMARK VINA RESULT:      -6.6      1.977      2.892
REMARK  7 active torsions:
REMARK  status: ('A' for Active; 'I' for Inactive)
REMARK    1  A    between atoms: C_1  and  C_2 
REMARK    2  A    between atoms: C_3  and  C_25 
REMARK    3  A    between atoms: N_14  and  C_17 
REMARK    4  A    between atoms: C_17  and  C_18 
REMARK    5  A    between atoms: C_18  and  N_19 
REMARK    6  A    between atoms: C_30  and  O_31 
REMARK    7  A    between atoms: O_31  and  C_32 
ROOT
ATOM      1  C   LIG d   1       4.345  -1.960  -6.243  0.00  0.00     0.114 A 
ATOM      2  C   LIG d   1       3.953  -0.720  -5.857  0.00  0.00     0.071 A 
ATOM      3  C   LIG d   1       3.294   0.149  -6.848  0.00  0.00     0.201 A 
ATOM      4  O   LIG d   1       2.916   1.274  -6.569  0.00  0.00    -0.286 OA
ATOM      5  C   LIG d   1       3.118  -0.418  -8.199  0.00  0.00     0.065 A 
ATOM      6  C   LIG d   1       2.506   0.318  -9.215  0.00  0.00    -0.044 A 
ATOM      7  C   LIG d   1       2.358  -0.234 -10.453  0.00  0.00    -0.018 A 
ATOM      8  C   LIG d   1       2.812  -1.530 -10.710  0.00  0.00     0.138 A 
ATOM      9  C   LIG d   1       3.419  -2.268  -9.713  0.00  0.00     0.082 A 
ATOM     10  C   LIG d   1       3.580  -1.721  -8.442  0.00  0.00     0.150 A 
ATOM     11  O   LIG d   1       4.171  -2.441  -7.471  0.00  0.00    -0.459 OA
ATOM     12  C   LIG d   1       3.917  -3.666  -9.978  0.00  0.00     0.005 C 
ATOM     13  N   LIG d   1       3.296  -4.186 -11.205  0.00  0.00     0.268 N 
ATOM     14  C   LIG d   1       3.420  -3.201 -12.292  0.00  0.00     0.117 C 
ATOM     15  O   LIG d   1       2.643  -2.050 -11.955  0.00  0.00    -0.454 OA
ATOM     16  H   LIG d   1       2.154   1.319  -9.022  0.00  0.00     0.063 H 
ATOM     17  H   LIG d   1       1.885   0.334 -11.241  0.00  0.00     0.065 H 
ATOM     18  H   LIG d   1       5.010  -3.649 -10.101  0.00  0.00     0.087 H 
ATOM     19  H   LIG d   1       3.653  -4.316  -9.131  0.00  0.00     0.087 H 
ATOM     20  H   LIG d   1       4.476  -2.917 -12.411  0.00  0.00     0.130 H 
ATOM     21  H   LIG d   1       3.051  -3.640 -13.230  0.00  0.00     0.130 H 
ATOM     22  H   LIG d   1       2.228  -4.359 -11.009  0.00  0.00     0.207 HD
ENDROOT
BRANCH  13  23
ATOM     23  C   LIG d   1       3.890  -5.472 -11.592  0.00  0.00    -0.015 C 
ATOM     24  H   LIG d   1       4.133  -5.457 -12.664  0.00  0.00     0.083 H 
ATOM     25  H   LIG d   1       4.808  -5.642 -11.010  0.00  0.00     0.083 H 
BRANCH  23  26
ATOM     26  C   LIG d   1       2.894  -6.600 -11.310  0.00  0.00     0.039 C 
ATOM     27  H   LIG d   1       3.022  -7.397 -12.057  0.00  0.00     0.048 H 
ATOM     28  H   LIG d   1       3.077  -7.007 -10.305  0.00  0.00     0.048 H 
BRANCH  26  29
ATOM     29  N   LIG d   1       1.525  -6.075 -11.384  0.00  0.00    -0.293 N 
ATOM     30  C   LIG d   1       0.877  -6.466 -12.644  0.00  0.00     0.023 C 
ATOM     31  C   LIG d   1      -0.523  -5.848 -12.706  0.00  0.00     0.060 C 
ATOM     32  H   LIG d   1       1.477  -6.104 -13.492  0.00  0.00     0.045 H 
ATOM     33  H   LIG d   1       0.799  -7.561 -12.692  0.00  0.00     0.045 H 
ATOM     34  O   LIG d   1      -1.272  -6.264 -11.560  0.00  0.00    -0.377 OA
ATOM     35  H   LIG d   1      -1.033  -6.185 -13.620  0.00  0.00     0.057 H 
ATOM     36  H   LIG d   1      -0.442  -4.751 -12.712  0.00  0.00     0.057 H 
ATOM     37  C   LIG d   1      -0.671  -5.899 -10.315  0.00  0.00     0.060 C 
ATOM     38  C   LIG d   1       0.728  -6.516 -10.230  0.00  0.00     0.023 C 
ATOM     39  H   LIG d   1      -1.287  -6.272  -9.484  0.00  0.00     0.057 H 
ATOM     40  H   LIG d   1      -0.592  -4.804 -10.250  0.00  0.00     0.057 H 
ATOM     41  H   LIG d   1       0.648  -7.613 -10.238  0.00  0.00     0.045 H 
ATOM     42  H   LIG d   1       1.218  -6.192  -9.300  0.00  0.00     0.045 H 
ENDBRANCH  26  29
ENDBRANCH  23  26
ENDBRANCH  13  23
BRANCH   1  43
ATOM     43  C   LIG d   1       5.017  -2.842  -5.223  0.00  0.00    -0.006 C 
ATOM     44  H   LIG d   1       4.852  -3.898  -5.485  0.00  0.00     0.031 H 
ATOM     45  H   LIG d   1       4.594  -2.641  -4.227  0.00  0.00     0.031 H 
ATOM     46  H   LIG d   1       6.097  -2.632  -5.210  0.00  0.00     0.031 H 
ENDBRANCH   1  43
BRANCH   2  47
ATOM     47  C   LIG d   1       4.182  -0.249  -4.469  0.00  0.00     0.031 A 
ATOM     48  C   LIG d   1       5.395   0.353  -4.123  0.00  0.00     0.128 A 
ATOM     49  C   LIG d   1       5.601   0.790  -2.825  0.00  0.00    -0.019 A 
ATOM     50  C   LIG d   1       4.608   0.630  -1.875  0.00  0.00    -0.058 A 
ATOM     51  H   LIG d   1       6.536   1.256  -2.554  0.00  0.00     0.065 H 
ATOM     52  C   LIG d   1       3.407   0.034  -2.214  0.00  0.00    -0.061 A 
ATOM     53  H   LIG d   1       4.772   0.972  -0.864  0.00  0.00     0.062 H 
ATOM     54  C   LIG d   1       3.187  -0.400  -3.506  0.00  0.00    -0.050 A 
ATOM     55  H   LIG d   1       2.636  -0.087  -1.468  0.00  0.00     0.062 H 
ATOM     56  H   LIG d   1       2.246  -0.861  -3.769  0.00  0.00     0.062 H 
BRANCH  48  57
ATOM     57  O   LIG d   1       6.370   0.509  -5.057  0.00  0.00    -0.494 OA
BRANCH  57  58
ATOM     58  C   LIG d   1       7.647  -0.062  -4.763  0.00  0.00     0.079 C 
ATOM     59  H   LIG d   1       8.428   0.489  -5.308  0.00  0.00     0.066 H 
ATOM     60  H   LIG d   1       7.657  -1.117  -5.073  0.00  0.00     0.066 H 
ATOM     61  H   LIG d   1       7.839   0.005  -3.682  0.00  0.00     0.066 H 
ENDBRANCH  57  58
ENDBRANCH  48  57
ENDBRANCH   2  47
TORSDOF 7
ENDMDL
MODEL 3
REMARK VINA RESULT:      -6.5      3.308      4.275
REMARK  7 active torsions:
REMARK  status: ('A' for Active; 'I' for Inactive)
REMARK    1  A    between atoms: C_1  and  C_2 
REMARK    2  A    between atoms: C_3  and  C_25 
REMARK    3  A    between atoms: N_14  and  C_17 
REMARK    4  A    between atoms: C_17  and  C_18 
REMARK    5  A    between atoms: C_18  and  N_19 
REMARK    6  A    between atoms: C_30  and  O_31 
REMARK    7  A    between atoms: O_31  and  C_32 
ROOT
ATOM      1  C   LIG d   1       4.480  -1.934  -6.140  0.00  0.00     0.114 A 
ATOM      2  C   LIG d   1       4.003  -0.739  -5.712  0.00  0.00     0.071 A 
ATOM      3  C   LIG d   1       3.250   0.100  -6.661  0.00  0.00     0.201 A 
ATOM      4  O   LIG d   1       2.793   1.183  -6.341  0.00  0.00    -0.286 OA
ATOM      5  C   LIG d   1       3.079  -0.447  -8.021  0.00  0.00     0.065 A 
ATOM      6  C   LIG d   1       2.382   0.263  -9.000  0.00  0.00    -0.044 A 
ATOM      7  C   LIG d   1       2.241  -0.269 -10.248  0.00  0.00    -0.018 A 
ATOM      8  C   LIG d   1       2.787  -1.518 -10.551  0.00  0.00     0.138 A 
ATOM      9  C   LIG d   1       3.480  -2.230  -9.591  0.00  0.00     0.082 A 
ATOM     10  C   LIG d   1       3.634  -1.703  -8.311  0.00  0.00     0.150 A 
ATOM     11  O   LIG d   1       4.309  -2.397  -7.376  0.00  0.00    -0.459 OA
ATOM     12  C   LIG d   1       4.078  -3.578  -9.907  0.00  0.00     0.005 C 
ATOM     13  N   LIG d   1       3.464  -4.115 -11.130  0.00  0.00     0.268 N 
ATOM     14  C   LIG d   1       3.478  -3.097 -12.193  0.00  0.00     0.117 C 
ATOM     15  O   LIG d   1       2.623  -2.020 -11.804  0.00  0.00    -0.454 OA
ATOM     16  H   LIG d   1       1.958   1.228  -8.771  0.00  0.00     0.063 H 
ATOM     17  H   LIG d   1       1.702   0.279 -11.007  0.00  0.00     0.065 H 
ATOM     18  H   LIG d   1       5.162  -3.471 -10.059  0.00  0.00     0.087 H 
ATOM     19  H   LIG d   1       3.890  -4.267  -9.071  0.00  0.00     0.087 H 
ATOM     20  H   LIG d   1       4.505  -2.727 -12.333  0.00  0.00     0.130 H 
ATOM     21  H   LIG d   1       3.118  -3.541 -13.132  0.00  0.00     0.130 H 
ATOM     22  H   LIG d   1       2.418  -4.377 -10.909  0.00  0.00     0.207 HD
ENDROOT
BRANCH  13  23
ATOM     23  C   LIG d   1       4.144  -5.340 -11.566  0.00  0.00    -0.015 C 
ATOM     24  H   LIG d   1       4.292  -5.310 -12.655  0.00  0.00     0.083 H 
ATOM     25  H   LIG d   1       5.121  -5.415 -11.066  0.00  0.00     0.083 H 
BRANCH  23  26
ATOM     26  C   LIG d   1       3.291  -6.557 -11.201  0.00  0.00     0.039 C 
ATOM     27  H   LIG d   1       2.351  -6.221 -10.740  0.00  0.00     0.048 H 
ATOM     28  H   LIG d   1       3.066  -7.133 -12.111  0.00  0.00     0.048 H 
BRANCH  26  29
ATOM     29  N   LIG d   1       4.026  -7.405 -10.254  0.00  0.00    -0.293 N 
ATOM     30  C   LIG d   1       5.473  -7.159 -10.339  0.00  0.00     0.023 C 
ATOM     31  C   LIG d   1       6.204  -8.103  -9.380  0.00  0.00     0.060 C 
ATOM     32  H   LIG d   1       5.815  -7.341 -11.368  0.00  0.00     0.045 H 
ATOM     33  H   LIG d   1       5.685  -6.116 -10.062  0.00  0.00     0.045 H 
ATOM     34  O   LIG d   1       5.699  -7.912  -8.055  0.00  0.00    -0.377 OA
ATOM     35  H   LIG d   1       7.281  -7.884  -9.398  0.00  0.00     0.057 H 
ATOM     36  H   LIG d   1       6.035  -9.146  -9.689  0.00  0.00     0.057 H 
ATOM     37  C   LIG d   1       4.293  -8.144  -7.935  0.00  0.00     0.060 C 
ATOM     38  C   LIG d   1       3.543  -7.201  -8.880  0.00  0.00     0.023 C 
ATOM     39  H   LIG d   1       3.975  -7.955  -6.900  0.00  0.00     0.057 H 
ATOM     40  H   LIG d   1       4.066  -9.186  -8.204  0.00  0.00     0.057 H 
ATOM     41  H   LIG d   1       3.723  -6.159  -8.579  0.00  0.00     0.045 H 
ATOM     42  H   LIG d   1       2.465  -7.414  -8.835  0.00  0.00     0.045 H 
ENDBRANCH  26  29
ENDBRANCH  23  26
ENDBRANCH  13  23
BRANCH   1  43
ATOM     43  C   LIG d   1       5.249  -2.785  -5.163  0.00  0.00    -0.006 C 
ATOM     44  H   LIG d   1       6.081  -3.281  -5.684  0.00  0.00     0.031 H 
ATOM     45  H   LIG d   1       4.580  -3.545  -4.733  0.00  0.00     0.031 H 
ATOM     46  H   LIG d   1       5.647  -2.150  -4.358  0.00  0.00     0.031 H 
ENDBRANCH   1  43
BRANCH   2  47
ATOM     47  C   LIG d   1       4.235  -0.285  -4.318  0.00  0.00     0.031 A 
ATOM     48  C   LIG d   1       5.406   0.406  -3.991  0.00  0.00     0.128 A 
ATOM     49  C   LIG d   1       5.614   0.826  -2.687  0.00  0.00    -0.019 A 
ATOM     50  C   LIG d   1       4.668   0.561  -1.714  0.00  0.00    -0.058 A 
ATOM     51  H   LIG d   1       6.517   1.360  -2.430  0.00  0.00     0.065 H 
ATOM     52  C   LIG d   1       3.509  -0.122  -2.036  0.00  0.00    -0.061 A 
ATOM     53  H   LIG d   1       4.834   0.891  -0.699  0.00  0.00     0.062 H 
ATOM     54  C   LIG d   1       3.286  -0.541  -3.332  0.00  0.00    -0.050 A 
ATOM     55  H   LIG d   1       2.773  -0.324  -1.272  0.00  0.00     0.062 H 
ATOM     56  H   LIG d   1       2.378  -1.071  -3.581  0.00  0.00     0.062 H 
BRANCH  48  57
ATOM     57  O   LIG d   1       6.336   0.664  -4.947  0.00  0.00    -0.494 OA
BRANCH  57  58
ATOM     58  C   LIG d   1       7.653   0.157  -4.725  0.00  0.00     0.079 C 
ATOM     59  H   LIG d   1       8.160   0.774  -3.968  0.00  0.00     0.066 H 
ATOM     60  H   LIG d   1       8.221   0.189  -5.666  0.00  0.00     0.066 H 
ATOM     61  H   LIG d   1       7.591  -0.882  -4.369  0.00  0.00     0.066 H 
ENDBRANCH  57  58
ENDBRANCH  48  57
ENDBRANCH   2  47
TORSDOF 7
ENDMDL
MODEL 4
REMARK VINA RESULT:      -6.4      1.357      1.572
REMARK  7 active torsions:
REMARK  status: ('A' for Active; 'I' for Inactive)
REMARK    1  A    between atoms: C_1  and  C_2 
REMARK    2  A    between atoms: C_3  and  C_25 
REMARK    3  A    between atoms: N_14  and  C_17 
REMARK    4  A    between atoms: C_17  and  C_18 
REMARK    5  A    between atoms: C_18  and  N_19 
REMARK    6  A    between atoms: C_30  and  O_31 
REMARK    7  A    between atoms: O_31  and  C_32 
ROOT
ATOM      1  C   LIG d   1       4.434  -2.396  -7.104  0.00  0.00     0.114 A 
ATOM      2  C   LIG d   1       4.464  -1.066  -6.841  0.00  0.00     0.071 A 
ATOM      3  C   LIG d   1       3.655  -0.165  -7.681  0.00  0.00     0.201 A 
ATOM      4  O   LIG d   1       3.634   1.040  -7.499  0.00  0.00    -0.286 OA
ATOM      5  C   LIG d   1       2.871  -0.803  -8.756  0.00  0.00     0.065 A 
ATOM      6  C   LIG d   1       2.070  -0.045  -9.611  0.00  0.00    -0.044 A 
ATOM      7  C   LIG d   1       1.357  -0.664 -10.595  0.00  0.00    -0.018 A 
ATOM      8  C   LIG d   1       1.422  -2.050 -10.752  0.00  0.00     0.138 A 
ATOM      9  C   LIG d   1       2.212  -2.812  -9.912  0.00  0.00     0.082 A 
ATOM     10  C   LIG d   1       2.947  -2.198  -8.902  0.00  0.00     0.150 A 
ATOM     11  O   LIG d   1       3.716  -2.940  -8.084  0.00  0.00    -0.459 OA
ATOM     12  C   LIG d   1       2.294  -4.309 -10.073  0.00  0.00     0.005 C 
ATOM     13  N   LIG d   1       1.165  -4.780 -10.887  0.00  0.00     0.268 N 
ATOM     14  C   LIG d   1       1.049  -3.968 -12.110  0.00  0.00     0.117 C 
ATOM     15  O   LIG d   1       0.695  -2.634 -11.741  0.00  0.00    -0.454 OA
ATOM     16  H   LIG d   1       2.016   1.027  -9.495  0.00  0.00     0.063 H 
ATOM     17  H   LIG d   1       0.737  -0.078 -11.258  0.00  0.00     0.065 H 
ATOM     18  H   LIG d   1       3.239  -4.573 -10.571  0.00  0.00     0.087 H 
ATOM     19  H   LIG d   1       2.255  -4.786  -9.083  0.00  0.00     0.087 H 
ATOM     20  H   LIG d   1       2.013  -3.966 -12.641  0.00  0.00     0.130 H 
ATOM     21  H   LIG d   1       0.274  -4.395 -12.762  0.00  0.00     0.130 H 
ATOM     22  H   LIG d   1       0.241  -4.665 -10.302  0.00  0.00     0.207 HD
ENDROOT
BRANCH  13  23
ATOM     23  C   LIG d   1       1.308  -6.204 -11.213  0.00  0.00    -0.015 C 
ATOM     24  H   LIG d   1       1.014  -6.373 -12.259  0.00  0.00     0.083 H 
ATOM     25  H   LIG d   1       2.357  -6.508 -11.075  0.00  0.00     0.083 H 
BRANCH  23  26
ATOM     26  C   LIG d   1       0.412  -7.033 -10.290  0.00  0.00     0.039 C 
ATOM     27  H   LIG d   1       0.448  -8.088 -10.596  0.00  0.00     0.048 H 
ATOM     28  H   LIG d   1       0.768  -6.939  -9.254  0.00  0.00     0.048 H 
BRANCH  26  29
ATOM     29  N   LIG d   1      -0.969  -6.543 -10.380  0.00  0.00    -0.293 N 
ATOM     30  C   LIG d   1      -1.626  -7.037 -11.598  0.00  0.00     0.023 C 
ATOM     31  C   LIG d   1      -3.040  -6.456 -11.682  0.00  0.00     0.060 C 
ATOM     32  H   LIG d   1      -1.046  -6.724 -12.480  0.00  0.00     0.045 H 
ATOM     33  H   LIG d   1      -1.680  -8.135 -11.567  0.00  0.00     0.045 H 
ATOM     34  O   LIG d   1      -3.764  -6.804 -10.498  0.00  0.00    -0.377 OA
ATOM     35  H   LIG d   1      -3.556  -6.867 -12.562  0.00  0.00     0.057 H 
ATOM     36  H   LIG d   1      -2.984  -5.360 -11.768  0.00  0.00     0.057 H 
ATOM     37  C   LIG d   1      -3.153  -6.338  -9.291  0.00  0.00     0.060 C 
ATOM     38  C   LIG d   1      -1.740  -6.918  -9.184  0.00  0.00     0.023 C 
ATOM     39  H   LIG d   1      -3.749  -6.663  -8.426  0.00  0.00     0.057 H 
ATOM     40  H   LIG d   1      -3.097  -5.240  -9.306  0.00  0.00     0.057 H 
ATOM     41  H   LIG d   1      -1.795  -8.013  -9.113  0.00  0.00     0.045 H 
ATOM     42  H   LIG d   1      -1.244  -6.517  -8.288  0.00  0.00     0.045 H 
ENDBRANCH  26  29
ENDBRANCH  23  26
ENDBRANCH  13  23
BRANCH   1  43
ATOM     43  C   LIG d   1       5.264  -3.310  -6.240  0.00  0.00    -0.006 C 
ATOM     44  H   LIG d   1       4.639  -3.719  -5.433  0.00  0.00     0.031 H 
ATOM     45  H   LIG d   1       6.101  -2.744  -5.804  0.00  0.00     0.031 H 
ATOM     46  H   LIG d   1       5.660  -4.134  -6.852  0.00  0.00     0.031 H 
ENDBRANCH   1  43
BRANCH   2  47
ATOM     47  C   LIG d   1       5.291  -0.530  -5.732  0.00  0.00     0.031 A 
ATOM     48  C   LIG d   1       4.743  -0.388  -4.454  0.00  0.00     0.128 A 
ATOM     49  C   LIG d   1       5.523   0.113  -3.424  0.00  0.00    -0.019 A 
ATOM     50  C   LIG d   1       6.837   0.471  -3.661  0.00  0.00    -0.058 A 
ATOM     51  H   LIG d   1       5.104   0.225  -2.435  0.00  0.00     0.065 H 
ATOM     52  C   LIG d   1       7.382   0.331  -4.925  0.00  0.00    -0.061 A 
ATOM     53  H   LIG d   1       7.442   0.861  -2.855  0.00  0.00     0.062 H 
ATOM     54  C   LIG d   1       6.618  -0.172  -5.959  0.00  0.00    -0.050 A 
ATOM     55  H   LIG d   1       8.409   0.612  -5.103  0.00  0.00     0.062 H 
ATOM     56  H   LIG d   1       7.047  -0.284  -6.944  0.00  0.00     0.062 H 
BRANCH  48  57
ATOM     57  O   LIG d   1       3.452  -0.739  -4.222  0.00  0.00    -0.494 OA
BRANCH  57  58
ATOM     58  C   LIG d   1       3.027  -0.787  -2.859  0.00  0.00     0.079 C 
ATOM     59  H   LIG d   1       3.414  -1.703  -2.387  0.00  0.00     0.066 H 
ATOM     60  H   LIG d   1       1.928  -0.788  -2.817  0.00  0.00     0.066 H 
ATOM     61  H   LIG d   1       3.414   0.092  -2.322  0.00  0.00     0.066 H 
ENDBRANCH  57  58
ENDBRANCH  48  57
ENDBRANCH   2  47
TORSDOF 7
ENDMDL
MODEL 5
REMARK VINA RESULT:      -6.3      3.650      5.276
REMARK  7 active torsions:
REMARK  status: ('A' for Active; 'I' for Inactive)
REMARK    1  A    between atoms: C_1  and  C_2 
REMARK    2  A    between atoms: C_3  and  C_25 
REMARK    3  A    between atoms: N_14  and  C_17 
REMARK    4  A    between atoms: C_17  and  C_18 
REMARK    5  A    between atoms: C_18  and  N_19 
REMARK    6  A    between atoms: C_30  and  O_31 
REMARK    7  A    between atoms: O_31  and  C_32 
ROOT
ATOM      1  C   LIG d   1       4.480  -2.594  -5.306  0.00  0.00     0.114 A 
ATOM      2  C   LIG d   1       4.336  -1.254  -5.463  0.00  0.00     0.071 A 
ATOM      3  C   LIG d   1       4.029  -0.732  -6.806  0.00  0.00     0.201 A 
ATOM      4  O   LIG d   1       3.885   0.460  -7.017  0.00  0.00    -0.286 OA
ATOM      5  C   LIG d   1       3.904  -1.734  -7.882  0.00  0.00     0.065 A 
ATOM      6  C   LIG d   1       3.614  -1.350  -9.193  0.00  0.00    -0.044 A 
ATOM      7  C   LIG d   1       3.506  -2.299 -10.166  0.00  0.00    -0.018 A 
ATOM      8  C   LIG d   1       3.680  -3.651  -9.860  0.00  0.00     0.138 A 
ATOM      9  C   LIG d   1       3.968  -4.043  -8.567  0.00  0.00     0.082 A 
ATOM     10  C   LIG d   1       4.083  -3.088  -7.560  0.00  0.00     0.150 A 
ATOM     11  O   LIG d   1       4.362  -3.471  -6.300  0.00  0.00    -0.459 OA
ATOM     12  C   LIG d   1       4.162  -5.498  -8.224  0.00  0.00     0.005 C 
ATOM     13  N   LIG d   1       3.603  -6.336  -9.295  0.00  0.00     0.268 N 
ATOM     14  C   LIG d   1       4.090  -5.873 -10.605  0.00  0.00     0.117 C 
ATOM     15  O   LIG d   1       3.560  -4.570 -10.854  0.00  0.00    -0.454 OA
ATOM     16  H   LIG d   1       3.479  -0.307  -9.435  0.00  0.00     0.063 H 
ATOM     17  H   LIG d   1       3.282  -2.004 -11.181  0.00  0.00     0.065 H 
ATOM     18  H   LIG d   1       5.236  -5.709  -8.118  0.00  0.00     0.087 H 
ATOM     19  H   LIG d   1       3.648  -5.724  -7.278  0.00  0.00     0.087 H 
ATOM     20  H   LIG d   1       5.189  -5.834 -10.595  0.00  0.00     0.130 H 
ATOM     21  H   LIG d   1       3.755  -6.570 -11.388  0.00  0.00     0.130 H 
ATOM     22  H   LIG d   1       2.508  -6.243  -9.275  0.00  0.00     0.207 HD
ENDROOT
BRANCH  13  23
ATOM     23  C   LIG d   1       3.931  -7.751  -9.082  0.00  0.00    -0.015 C 
ATOM     24  H   LIG d   1       3.025  -8.298  -8.785  0.00  0.00     0.083 H 
ATOM     25  H   LIG d   1       4.329  -8.179 -10.014  0.00  0.00     0.083 H 
BRANCH  23  26
ATOM     26  C   LIG d   1       4.984  -7.871  -7.977  0.00  0.00     0.039 C 
ATOM     27  H   LIG d   1       5.928  -8.234  -8.408  0.00  0.00     0.048 H 
ATOM     28  H   LIG d   1       5.146  -6.885  -7.518  0.00  0.00     0.048 H 
BRANCH  26  29
ATOM     29  N   LIG d   1       4.516  -8.817  -6.956  0.00  0.00    -0.293 N 
ATOM     30  C   LIG d   1       4.853 -10.199  -7.323  0.00  0.00     0.023 C 
ATOM     31  C   LIG d   1       4.295 -11.154  -6.264  0.00  0.00     0.060 C 
ATOM     32  H   LIG d   1       4.410 -10.436  -8.302  0.00  0.00     0.045 H 
ATOM     33  H   LIG d   1       5.945 -10.308  -7.379  0.00  0.00     0.045 H 
ATOM     34  O   LIG d   1       4.818 -10.792  -4.982  0.00  0.00    -0.377 OA
ATOM     35  H   LIG d   1       4.594 -12.185  -6.504  0.00  0.00     0.057 H 
ATOM     36  H   LIG d   1       3.197 -11.084  -6.245  0.00  0.00     0.057 H 
ATOM     37  C   LIG d   1       4.508  -9.451  -4.591  0.00  0.00     0.060 C 
ATOM     38  C   LIG d   1       5.067  -8.480  -5.635  0.00  0.00     0.023 C 
ATOM     39  H   LIG d   1       4.961  -9.238  -3.612  0.00  0.00     0.057 H 
ATOM     40  H   LIG d   1       3.417  -9.329  -4.525  0.00  0.00     0.057 H 
ATOM     41  H   LIG d   1       6.163  -8.561  -5.663  0.00  0.00     0.045 H 
ATOM     42  H   LIG d   1       4.782  -7.451  -5.370  0.00  0.00     0.045 H 
ENDBRANCH  26  29
ENDBRANCH  23  26
ENDBRANCH  13  23
BRANCH   1  43
ATOM     43  C   LIG d   1       4.795  -3.119  -3.929  0.00  0.00    -0.006 C 
ATOM     44  H   LIG d   1       4.958  -2.275  -3.243  0.00  0.00     0.031 H 
ATOM     45  H   LIG d   1       5.703  -3.739  -3.971  0.00  0.00     0.031 H 
ATOM     46  H   LIG d   1       3.953  -3.728  -3.568  0.00  0.00     0.031 H 
ENDBRANCH   1  43
BRANCH   2  47
ATOM     47  C   LIG d   1       4.484  -0.335  -4.307  0.00  0.00     0.031 A 
ATOM     48  C   LIG d   1       5.736   0.208  -3.999  0.00  0.00     0.128 A 
ATOM     49  C   LIG d   1       5.865   1.065  -2.919  0.00  0.00    -0.019 A 
ATOM     50  C   LIG d   1       4.760   1.382  -2.149  0.00  0.00    -0.058 A 
ATOM     51  H   LIG d   1       6.829   1.487  -2.677  0.00  0.00     0.065 H 
ATOM     52  C   LIG d   1       3.522   0.846  -2.452  0.00  0.00    -0.061 A 
ATOM     53  H   LIG d   1       4.865   2.051  -1.308  0.00  0.00     0.062 H 
ATOM     54  C   LIG d   1       3.377  -0.006  -3.529  0.00  0.00    -0.050 A 
ATOM     55  H   LIG d   1       2.663   1.098  -1.848  0.00  0.00     0.062 H 
ATOM     56  H   LIG d   1       2.408  -0.419  -3.766  0.00  0.00     0.062 H 
BRANCH  48  57
ATOM     57  O   LIG d   1       6.820  -0.104  -4.755  0.00  0.00    -0.494 OA
BRANCH  57  58
ATOM     58  C   LIG d   1       7.769   0.938  -4.990  0.00  0.00     0.079 C 
ATOM     59  H   LIG d   1       8.120   0.885  -6.031  0.00  0.00     0.066 H 
ATOM     60  H   LIG d   1       8.623   0.817  -4.307  0.00  0.00     0.066 H 
ATOM     61  H   LIG d   1       7.293   1.914  -4.813  0.00  0.00     0.066 H 
ENDBRANCH  57  58
ENDBRANCH  48  57
ENDBRANCH   2  47
TORSDOF 7
ENDMDL
MODEL 6
REMARK VINA RESULT:      -6.2      9.033     12.287
REMARK  7 active torsions:
REMARK  status: ('A' for Active; 'I' for Inactive)
REMARK    1  A    between atoms: C_1  and  C_2 
REMARK    2  A    between atoms: C_3  and  C_25 
REMARK    3  A    between atoms: N_14  and  C_17 
REMARK    4  A    between atoms: C_17  and  C_18 
REMARK    5  A    between atoms: C_18  and  N_19 
REMARK    6  A    between atoms: C_30  and  O_31 
REMARK    7  A    between atoms: O_31  and  C_32 
ROOT
ATOM      1  C   LIG d   1      10.713   6.144  -1.192  0.00  0.00     0.114 A 
ATOM      2  C   LIG d   1      11.185   7.337  -1.630  0.00  0.00     0.071 A 
ATOM      3  C   LIG d   1      11.176   7.610  -3.078  0.00  0.00     0.201 A 
ATOM      4  O   LIG d   1      11.584   8.662  -3.539  0.00  0.00    -0.286 OA
ATOM      5  C   LIG d   1      10.644   6.537  -3.940  0.00  0.00     0.065 A 
ATOM      6  C   LIG d   1      10.588   6.688  -5.326  0.00  0.00    -0.044 A 
ATOM      7  C   LIG d   1      10.091   5.677  -6.096  0.00  0.00    -0.018 A 
ATOM      8  C   LIG d   1       9.637   4.495  -5.507  0.00  0.00     0.138 A 
ATOM      9  C   LIG d   1       9.688   4.334  -4.136  0.00  0.00     0.082 A 
ATOM     10  C   LIG d   1      10.192   5.354  -3.334  0.00  0.00     0.150 A 
ATOM     11  O   LIG d   1      10.241   5.196  -1.998  0.00  0.00    -0.459 OA
ATOM     12  C   LIG d   1       9.205   3.061  -3.488  0.00  0.00     0.005 C 
ATOM     13  N   LIG d   1       8.357   2.318  -4.432  0.00  0.00     0.268 N 
ATOM     14  C   LIG d   1       9.031   2.205  -5.736  0.00  0.00     0.117 C 
ATOM     15  O   LIG d   1       9.144   3.511  -6.305  0.00  0.00    -0.454 OA
ATOM     16  H   LIG d   1      10.938   7.599  -5.787  0.00  0.00     0.063 H 
ATOM     17  H   LIG d   1      10.047   5.793  -7.170  0.00  0.00     0.065 H 
ATOM     18  H   LIG d   1      10.069   2.441  -3.207  0.00  0.00     0.087 H 
ATOM     19  H   LIG d   1       8.621   3.306  -2.589  0.00  0.00     0.087 H 
ATOM     20  H   LIG d   1      10.032   1.771  -5.596  0.00  0.00     0.130 H 
ATOM     21  H   LIG d   1       8.440   1.557  -6.400  0.00  0.00     0.130 H 
ATOM     22  H   LIG d   1       7.418   2.873  -4.569  0.00  0.00     0.207 HD
ENDROOT
BRANCH  13  23
ATOM     23  C   LIG d   1       8.015   0.993  -3.901  0.00  0.00    -0.015 C 
ATOM     24  H   LIG d   1       8.901   0.342  -3.937  0.00  0.00     0.083 H 
ATOM     25  H   LIG d   1       7.676   1.091  -2.859  0.00  0.00     0.083 H 
BRANCH  23  26
ATOM     26  C   LIG d   1       6.896   0.378  -4.745  0.00  0.00     0.039 C 
ATOM     27  H   LIG d   1       6.582   1.096  -5.516  0.00  0.00     0.048 H 
ATOM     28  H   LIG d   1       7.263  -0.540  -5.227  0.00  0.00     0.048 H 
BRANCH  26  29
ATOM     29  N   LIG d   1       5.753   0.054  -3.882  0.00  0.00    -0.293 N 
ATOM     30  C   LIG d   1       5.918  -1.268  -3.262  0.00  0.00     0.023 C 
ATOM     31  C   LIG d   1       4.679  -1.590  -2.421  0.00  0.00     0.060 C 
ATOM     32  H   LIG d   1       6.037  -2.029  -4.048  0.00  0.00     0.045 H 
ATOM     33  H   LIG d   1       6.809  -1.263  -2.618  0.00  0.00     0.045 H 
ATOM     34  O   LIG d   1       4.488  -0.557  -1.449  0.00  0.00    -0.377 OA
ATOM     35  H   LIG d   1       4.822  -2.553  -1.909  0.00  0.00     0.057 H 
ATOM     36  H   LIG d   1       3.795  -1.648  -3.073  0.00  0.00     0.057 H 
ATOM     37  C   LIG d   1       4.323   0.745  -2.018  0.00  0.00     0.060 C 
ATOM     38  C   LIG d   1       5.557   1.090  -2.856  0.00  0.00     0.023 C 
ATOM     39  H   LIG d   1       4.207   1.487  -1.215  0.00  0.00     0.057 H 
ATOM     40  H   LIG d   1       3.430   0.757  -2.660  0.00  0.00     0.057 H 
ATOM     41  H   LIG d   1       6.443   1.133  -2.206  0.00  0.00     0.045 H 
ATOM     42  H   LIG d   1       5.412   2.065  -3.343  0.00  0.00     0.045 H 
ENDBRANCH  26  29
ENDBRANCH  23  26
ENDBRANCH  13  23
BRANCH   1  43
ATOM     43  C   LIG d   1      10.727   5.874   0.290  0.00  0.00    -0.006 C 
ATOM     44  H   LIG d   1       9.892   5.206   0.549  0.00  0.00     0.031 H 
ATOM     45  H   LIG d   1      10.619   6.823   0.837  0.00  0.00     0.031 H 
ATOM     46  H   LIG d   1      11.678   5.398   0.568  0.00  0.00     0.031 H 
ENDBRANCH   1  43
BRANCH   2  47
ATOM     47  C   LIG d   1      11.700   8.347  -0.672  0.00  0.00     0.031 A 
ATOM     48  C   LIG d   1      10.842   9.322  -0.153  0.00  0.00     0.128 A 
ATOM     49  C   LIG d   1      11.331  10.261   0.741  0.00  0.00    -0.019 A 
ATOM     50  C   LIG d   1      12.661  10.233   1.117  0.00  0.00    -0.058 A 
ATOM     51  H   LIG d   1      10.672  11.016   1.145  0.00  0.00     0.065 H 
ATOM     52  C   LIG d   1      13.511   9.270   0.606  0.00  0.00    -0.061 A 
ATOM     53  H   LIG d   1      13.038  10.967   1.815  0.00  0.00     0.062 H 
ATOM     54  C   LIG d   1      13.036   8.324  -0.282  0.00  0.00    -0.050 A 
ATOM     55  H   LIG d   1      14.548   9.252   0.904  0.00  0.00     0.062 H 
ATOM     56  H   LIG d   1      13.702   7.570  -0.676  0.00  0.00     0.062 H 
BRANCH  48  57
ATOM     57  O   LIG d   1       9.536   9.350  -0.524  0.00  0.00    -0.494 OA
BRANCH  57  58
ATOM     58  C   LIG d   1       9.143  10.373  -1.440  0.00  0.00     0.079 C 
ATOM     59  H   LIG d   1       9.237   9.998  -2.471  0.00  0.00     0.066 H 
ATOM     60  H   LIG d   1       9.791  11.252  -1.309  0.00  0.00     0.066 H 
ATOM     61  H   LIG d   1       8.098  10.656  -1.248  0.00  0.00     0.066 H 
ENDBRANCH  57  58
ENDBRANCH  48  57
ENDBRANCH   2  47
TORSDOF 7
ENDMDL
MODEL 7
REMARK VINA RESULT:      -6.0      5.765     11.142
REMARK  7 active torsions:
REMARK  status: ('A' for Active; 'I' for Inactive)
REMARK    1  A    between atoms: C_1  and  C_2 
REMARK    2  A    between atoms: C_3  and  C_25 
REMARK    3  A    between atoms: N_14  and  C_17 
REMARK    4  A    between atoms: C_17  and  C_18 
REMARK    5  A    between atoms: C_18  and  N_19 
REMARK    6  A    between atoms: C_30  and  O_31 
REMARK    7  A    between atoms: O_31  and  C_32 
ROOT
ATOM      1  C   LIG d   1       6.824  -1.725  -4.059  0.00  0.00     0.114 A 
ATOM      2  C   LIG d   1       5.627  -2.211  -4.470  0.00  0.00     0.071 A 
ATOM      3  C   LIG d   1       5.567  -3.591  -4.984  0.00  0.00     0.201 A 
ATOM      4  O   LIG d   1       4.524  -4.091  -5.369  0.00  0.00    -0.286 OA
ATOM      5  C   LIG d   1       6.841  -4.335  -5.006  0.00  0.00     0.065 A 
ATOM      6  C   LIG d   1       6.900  -5.649  -5.472  0.00  0.00    -0.044 A 
ATOM      7  C   LIG d   1       8.093  -6.311  -5.480  0.00  0.00    -0.018 A 
ATOM      8  C   LIG d   1       9.254  -5.683  -5.023  0.00  0.00     0.138 A 
ATOM      9  C   LIG d   1       9.209  -4.382  -4.560  0.00  0.00     0.082 A 
ATOM     10  C   LIG d   1       8.000  -3.690  -4.545  0.00  0.00     0.150 A 
ATOM     11  O   LIG d   1       7.956  -2.423  -4.093  0.00  0.00    -0.459 OA
ATOM     12  C   LIG d   1      10.455  -3.691  -4.068  0.00  0.00     0.005 C 
ATOM     13  N   LIG d   1      11.494  -4.692  -3.784  0.00  0.00     0.268 N 
ATOM     14  C   LIG d   1      11.630  -5.616  -4.921  0.00  0.00     0.117 C 
ATOM     15  O   LIG d   1      10.424  -6.374  -5.041  0.00  0.00    -0.454 OA
ATOM     16  H   LIG d   1       6.006  -6.139  -5.826  0.00  0.00     0.063 H 
ATOM     17  H   LIG d   1       8.140  -7.328  -5.840  0.00  0.00     0.065 H 
ATOM     18  H   LIG d   1      10.818  -2.997  -4.840  0.00  0.00     0.087 H 
ATOM     19  H   LIG d   1      10.226  -3.131  -3.150  0.00  0.00     0.087 H 
ATOM     20  H   LIG d   1      11.804  -5.041  -5.843  0.00  0.00     0.130 H 
ATOM     21  H   LIG d   1      12.481  -6.291  -4.746  0.00  0.00     0.130 H 
ATOM     22  H   LIG d   1      11.189  -5.268  -2.898  0.00  0.00     0.207 HD
ENDROOT
BRANCH  13  23
ATOM     23  C   LIG d   1      12.776  -4.047  -3.474  0.00  0.00    -0.015 C 
ATOM     24  H   LIG d   1      12.655  -3.389  -2.601  0.00  0.00     0.083 H 
ATOM     25  H   LIG d   1      13.529  -4.817  -3.250  0.00  0.00     0.083 H 
BRANCH  23  26
ATOM     26  C   LIG d   1      13.236  -3.219  -4.676  0.00  0.00     0.039 C 
ATOM     27  H   LIG d   1      13.853  -3.845  -5.337  0.00  0.00     0.048 H 
ATOM     28  H   LIG d   1      12.356  -2.859  -5.231  0.00  0.00     0.048 H 
BRANCH  26  29
ATOM     29  N   LIG d   1      14.024  -2.072  -4.209  0.00  0.00    -0.293 N 
ATOM     30  C   LIG d   1      13.157  -0.925  -3.906  0.00  0.00     0.023 C 
ATOM     31  C   LIG d   1      14.024   0.265  -3.482  0.00  0.00     0.060 C 
ATOM     32  H   LIG d   1      12.578  -0.657  -4.802  0.00  0.00     0.045 H 
ATOM     33  H   LIG d   1      12.470  -1.189  -3.091  0.00  0.00     0.045 H 
ATOM     34  O   LIG d   1      14.829  -0.115  -2.362  0.00  0.00    -0.377 OA
ATOM     35  H   LIG d   1      13.377   1.108  -3.199  0.00  0.00     0.057 H 
ATOM     36  H   LIG d   1      14.674   0.564  -4.316  0.00  0.00     0.057 H 
ATOM     37  C   LIG d   1      15.687  -1.230  -2.622  0.00  0.00     0.060 C 
ATOM     38  C   LIG d   1      14.838  -2.434  -3.039  0.00  0.00     0.023 C 
ATOM     39  H   LIG d   1      16.254  -1.479  -1.713  0.00  0.00     0.057 H 
ATOM     40  H   LIG d   1      16.386  -0.977  -3.432  0.00  0.00     0.057 H 
ATOM     41  H   LIG d   1      14.177  -2.724  -2.209  0.00  0.00     0.045 H 
ATOM     42  H   LIG d   1      15.495  -3.278  -3.296  0.00  0.00     0.045 H 
ENDBRANCH  26  29
ENDBRANCH  23  26
ENDBRANCH  13  23
BRANCH   1  43
ATOM     43  C   LIG d   1       6.876  -0.313  -3.535  0.00  0.00    -0.006 C 
ATOM     44  H   LIG d   1       6.386  -0.269  -2.551  0.00  0.00     0.031 H 
ATOM     45  H   LIG d   1       6.354   0.357  -4.235  0.00  0.00     0.031 H 
ATOM     46  H   LIG d   1       7.925   0.004  -3.438  0.00  0.00     0.031 H 
ENDBRANCH   1  43
BRANCH   2  47
ATOM     47  C   LIG d   1       4.405  -1.373  -4.405  0.00  0.00     0.031 A 
ATOM     48  C   LIG d   1       4.043  -0.573  -5.494  0.00  0.00     0.128 A 
ATOM     49  C   LIG d   1       2.900   0.207  -5.425  0.00  0.00    -0.019 A 
ATOM     50  C   LIG d   1       2.121   0.194  -4.282  0.00  0.00    -0.058 A 
ATOM     51  H   LIG d   1       2.617   0.825  -6.263  0.00  0.00     0.065 H 
ATOM     52  C   LIG d   1       2.476  -0.597  -3.204  0.00  0.00    -0.061 A 
ATOM     53  H   LIG d   1       1.230   0.802  -4.233  0.00  0.00     0.062 H 
ATOM     54  C   LIG d   1       3.610  -1.383  -3.262  0.00  0.00    -0.050 A 
ATOM     55  H   LIG d   1       1.863  -0.603  -2.316  0.00  0.00     0.062 H 
ATOM     56  H   LIG d   1       3.882  -2.002  -2.420  0.00  0.00     0.062 H 
BRANCH  48  57
ATOM     57  O   LIG d   1       4.810  -0.560  -6.615  0.00  0.00    -0.494 OA
BRANCH  57  58
ATOM     58  C   LIG d   1       4.249  -1.146  -7.792  0.00  0.00     0.079 C 
ATOM     59  H   LIG d   1       4.839  -0.841  -8.669  0.00  0.00     0.066 H 
ATOM     60  H   LIG d   1       3.210  -0.806  -7.911  0.00  0.00     0.066 H 
ATOM     61  H   LIG d   1       4.269  -2.242  -7.701  0.00  0.00     0.066 H 
ENDBRANCH  57  58
ENDBRANCH  48  57
ENDBRANCH   2  47
TORSDOF 7
ENDMDL
MODEL 8
REMARK VINA RESULT:      -6.0      8.535     11.666
REMARK  7 active torsions:
REMARK  status: ('A' for Active; 'I' for Inactive)
REMARK    1  A    between atoms: C_1  and  C_2 
REMARK    2  A    between atoms: C_3  and  C_25 
REMARK    3  A    between atoms: N_14  and  C_17 
REMARK    4  A    between atoms: C_17  and  C_18 
REMARK    5  A    between atoms: C_18  and  N_19 
REMARK    6  A    between atoms: C_30  and  O_31 
REMARK    7  A    between atoms: O_31  and  C_32 
ROOT
ATOM      1  C   LIG d   1      10.408   6.018  -2.114  0.00  0.00     0.114 A 
ATOM      2  C   LIG d   1      11.003   7.052  -2.759  0.00  0.00     0.071 A 
ATOM      3  C   LIG d   1      11.065   7.021  -4.231  0.00  0.00     0.201 A 
ATOM      4  O   LIG d   1      11.584   7.918  -4.873  0.00  0.00    -0.286 OA
ATOM      5  C   LIG d   1      10.462   5.844  -4.884  0.00  0.00     0.065 A 
ATOM      6  C   LIG d   1      10.464   5.712  -6.274  0.00  0.00    -0.044 A 
ATOM      7  C   LIG d   1       9.898   4.612  -6.848  0.00  0.00    -0.018 A 
ATOM      8  C   LIG d   1       9.317   3.619  -6.057  0.00  0.00     0.138 A 
ATOM      9  C   LIG d   1       9.310   3.738  -4.680  0.00  0.00     0.082 A 
ATOM     10  C   LIG d   1       9.882   4.854  -4.075  0.00  0.00     0.150 A 
ATOM     11  O   LIG d   1       9.874   4.970  -2.735  0.00  0.00    -0.459 OA
ATOM     12  C   LIG d   1       8.689   2.671  -3.814  0.00  0.00     0.005 C 
ATOM     13  N   LIG d   1       7.806   1.826  -4.630  0.00  0.00     0.268 N 
ATOM     14  C   LIG d   1       8.506   1.391  -5.850  0.00  0.00     0.117 C 
ATOM     15  O   LIG d   1       8.759   2.538  -6.664  0.00  0.00    -0.454 OA
ATOM     16  H   LIG d   1      10.911   6.476  -6.890  0.00  0.00     0.063 H 
ATOM     17  H   LIG d   1       9.899   4.508  -7.924  0.00  0.00     0.065 H 
ATOM     18  H   LIG d   1       9.482   2.051  -3.372  0.00  0.00     0.087 H 
ATOM     19  H   LIG d   1       8.103   3.145  -3.013  0.00  0.00     0.087 H 
ATOM     20  H   LIG d   1       9.457   0.910  -5.575  0.00  0.00     0.130 H 
ATOM     21  H   LIG d   1       7.878   0.674  -6.398  0.00  0.00     0.130 H 
ATOM     22  H   LIG d   1       6.927   2.420  -4.923  0.00  0.00     0.207 HD
ENDROOT
BRANCH  13  23
ATOM     23  C   LIG d   1       7.324   0.672  -3.861  0.00  0.00    -0.015 C 
ATOM     24  H   LIG d   1       7.148  -0.175  -4.540  0.00  0.00     0.083 H 
ATOM     25  H   LIG d   1       8.078   0.389  -3.112  0.00  0.00     0.083 H 
BRANCH  23  26
ATOM     26  C   LIG d   1       6.017   1.038  -3.154  0.00  0.00     0.039 C 
ATOM     27  H   LIG d   1       6.195   1.116  -2.072  0.00  0.00     0.048 H 
ATOM     28  H   LIG d   1       5.653   2.003  -3.535  0.00  0.00     0.048 H 
BRANCH  26  29
ATOM     29  N   LIG d   1       5.012  -0.001  -3.411  0.00  0.00    -0.293 N 
ATOM     30  C   LIG d   1       5.506  -1.324  -3.002  0.00  0.00     0.023 C 
ATOM     31  C   LIG d   1       4.454  -2.384  -3.343  0.00  0.00     0.060 C 
ATOM     32  H   LIG d   1       6.441  -1.548  -3.538  0.00  0.00     0.045 H 
ATOM     33  H   LIG d   1       5.695  -1.327  -1.919  0.00  0.00     0.045 H 
ATOM     34  O   LIG d   1       3.220  -2.045  -2.702  0.00  0.00    -0.377 OA
ATOM     35  H   LIG d   1       4.794  -3.368  -2.987  0.00  0.00     0.057 H 
ATOM     36  H   LIG d   1       4.304  -2.418  -4.432  0.00  0.00     0.057 H 
ATOM     37  C   LIG d   1       2.710  -0.763  -3.077  0.00  0.00     0.060 C 
ATOM     38  C   LIG d   1       3.745   0.313  -2.735  0.00  0.00     0.023 C 
ATOM     39  H   LIG d   1       1.778  -0.562  -2.529  0.00  0.00     0.057 H 
ATOM     40  H   LIG d   1       2.510  -0.747  -4.159  0.00  0.00     0.057 H 
ATOM     41  H   LIG d   1       3.905   0.336  -1.648  0.00  0.00     0.045 H 
ATOM     42  H   LIG d   1       3.382   1.294  -3.074  0.00  0.00     0.045 H 
ENDBRANCH  26  29
ENDBRANCH  23  26
ENDBRANCH  13  23
BRANCH   1  43
ATOM     43  C   LIG d   1      10.349   6.058  -0.608  0.00  0.00    -0.006 C 
ATOM     44  H   LIG d   1      10.832   6.978  -0.247  0.00  0.00     0.031 H 
ATOM     45  H   LIG d   1      10.874   5.183  -0.198  0.00  0.00     0.031 H 
ATOM     46  H   LIG d   1       9.299   6.042  -0.282  0.00  0.00     0.031 H 
ENDBRANCH   1  43
BRANCH   2  47
ATOM     47  C   LIG d   1      11.580   8.189  -1.999  0.00  0.00     0.031 A 
ATOM     48  C   LIG d   1      12.912   8.146  -1.575  0.00  0.00     0.128 A 
ATOM     49  C   LIG d   1      13.442   9.212  -0.867  0.00  0.00    -0.019 A 
ATOM     50  C   LIG d   1      12.656  10.313  -0.581  0.00  0.00    -0.058 A 
ATOM     51  H   LIG d   1      14.470   9.183  -0.538  0.00  0.00     0.065 H 
ATOM     52  C   LIG d   1      11.338  10.358  -0.999  0.00  0.00    -0.061 A 
ATOM     53  H   LIG d   1      13.074  11.143  -0.029  0.00  0.00     0.062 H 
ATOM     54  C   LIG d   1      10.799   9.305  -1.711  0.00  0.00    -0.050 A 
ATOM     55  H   LIG d   1      10.731  11.222  -0.773  0.00  0.00     0.062 H 
ATOM     56  H   LIG d   1       9.771   9.346  -2.040  0.00  0.00     0.062 H 
BRANCH  48  57
ATOM     57  O   LIG d   1      13.682   7.064  -1.856  0.00  0.00    -0.494 OA
BRANCH  57  58
ATOM     58  C   LIG d   1      14.070   6.240  -0.755  0.00  0.00     0.079 C 
ATOM     59  H   LIG d   1      15.038   6.585  -0.362  0.00  0.00     0.066 H 
ATOM     60  H   LIG d   1      14.160   5.197  -1.091  0.00  0.00     0.066 H 
ATOM     61  H   LIG d   1      13.310   6.305   0.038  0.00  0.00     0.066 H 
ENDBRANCH  57  58
ENDBRANCH  48  57
ENDBRANCH   2  47
TORSDOF 7
ENDMDL
MODEL 9
REMARK VINA RESULT:      -6.0      5.754      8.681
REMARK  7 active torsions:
REMARK  status: ('A' for Active; 'I' for Inactive)
REMARK    1  A    between atoms: C_1  and  C_2 
REMARK    2  A    between atoms: C_3  and  C_25 
REMARK    3  A    between atoms: N_14  and  C_17 
REMARK    4  A    between atoms: C_17  and  C_18 
REMARK    5  A    between atoms: C_18  and  N_19 
REMARK    6  A    between atoms: C_30  and  O_31 
REMARK    7  A    between atoms: O_31  and  C_32 
ROOT
ATOM      1  C   LIG d   1       5.715  -2.716  -3.957  0.00  0.00     0.114 A 
ATOM      2  C   LIG d   1       6.056  -1.405  -4.014  0.00  0.00     0.071 A 
ATOM      3  C   LIG d   1       7.393  -1.046  -4.519  0.00  0.00     0.201 A 
ATOM      4  O   LIG d   1       7.763   0.112  -4.598  0.00  0.00    -0.286 OA
ATOM      5  C   LIG d   1       8.260  -2.169  -4.925  0.00  0.00     0.065 A 
ATOM      6  C   LIG d   1       9.546  -1.945  -5.418  0.00  0.00    -0.044 A 
ATOM      7  C   LIG d   1      10.323  -3.004  -5.785  0.00  0.00    -0.018 A 
ATOM      8  C   LIG d   1       9.840  -4.309  -5.672  0.00  0.00     0.138 A 
ATOM      9  C   LIG d   1       8.569  -4.545  -5.184  0.00  0.00     0.082 A 
ATOM     10  C   LIG d   1       7.761  -3.476  -4.804  0.00  0.00     0.150 A 
ATOM     11  O   LIG d   1       6.523  -3.706  -4.330  0.00  0.00    -0.459 OA
ATOM     12  C   LIG d   1       8.038  -5.950  -5.053  0.00  0.00     0.005 C 
ATOM     13  N   LIG d   1       8.851  -6.862  -5.869  0.00  0.00     0.268 N 
ATOM     14  C   LIG d   1      10.282  -6.647  -5.596  0.00  0.00     0.117 C 
ATOM     15  O   LIG d   1      10.641  -5.341  -6.051  0.00  0.00    -0.454 OA
ATOM     16  H   LIG d   1       9.924  -0.938  -5.508  0.00  0.00     0.063 H 
ATOM     17  H   LIG d   1      11.319  -2.832  -6.167  0.00  0.00     0.065 H 
ATOM     18  H   LIG d   1       8.083  -6.262  -4.000  0.00  0.00     0.087 H 
ATOM     19  H   LIG d   1       6.995  -5.981  -5.401  0.00  0.00     0.087 H 
ATOM     20  H   LIG d   1      10.465  -6.730  -4.514  0.00  0.00     0.130 H 
ATOM     21  H   LIG d   1      10.875  -7.405  -6.127  0.00  0.00     0.130 H 
ATOM     22  H   LIG d   1       8.660  -6.646  -6.930  0.00  0.00     0.207 HD
ENDROOT
BRANCH  13  23
ATOM     23  C   LIG d   1       8.475  -8.261  -5.628  0.00  0.00    -0.015 C 
ATOM     24  H   LIG d   1       8.283  -8.761  -6.589  0.00  0.00     0.083 H 
ATOM     25  H   LIG d   1       9.294  -8.776  -5.104  0.00  0.00     0.083 H 
BRANCH  23  26
ATOM     26  C   LIG d   1       7.211  -8.309  -4.767  0.00  0.00     0.039 C 
ATOM     27  H   LIG d   1       6.998  -7.306  -4.371  0.00  0.00     0.048 H 
ATOM     28  H   LIG d   1       6.363  -8.648  -5.380  0.00  0.00     0.048 H 
BRANCH  26  29
ATOM     29  N   LIG d   1       7.413  -9.243  -3.652  0.00  0.00    -0.293 N 
ATOM     30  C   LIG d   1       8.159  -8.604  -2.558  0.00  0.00     0.023 C 
ATOM     31  C   LIG d   1       8.399  -9.628  -1.445  0.00  0.00     0.060 C 
ATOM     32  H   LIG d   1       9.125  -8.239  -2.938  0.00  0.00     0.045 H 
ATOM     33  H   LIG d   1       7.578  -7.759  -2.162  0.00  0.00     0.045 H 
ATOM     34  O   LIG d   1       7.142 -10.153  -1.008  0.00  0.00    -0.377 OA
ATOM     35  H   LIG d   1       8.906  -9.140  -0.599  0.00  0.00     0.057 H 
ATOM     36  H   LIG d   1       9.026 -10.448  -1.826  0.00  0.00     0.057 H 
ATOM     37  C   LIG d   1       6.388 -10.783  -2.048  0.00  0.00     0.060 C 
ATOM     38  C   LIG d   1       6.129  -9.771  -3.168  0.00  0.00     0.023 C 
ATOM     39  H   LIG d   1       5.428 -11.138  -1.645  0.00  0.00     0.057 H 
ATOM     40  H   LIG d   1       6.955 -11.636  -2.450  0.00  0.00     0.057 H 
ATOM     41  H   LIG d   1       5.515  -8.945  -2.782  0.00  0.00     0.045 H 
ATOM     42  H   LIG d   1       5.600 -10.265  -3.996  0.00  0.00     0.045 H 
ENDBRANCH  26  29
ENDBRANCH  23  26
ENDBRANCH  13  23
BRANCH   1  43
ATOM     43  C   LIG d   1       4.346  -3.074  -3.439  0.00  0.00    -0.006 C 
ATOM     44  H   LIG d   1       3.742  -2.160  -3.340  0.00  0.00     0.031 H 
ATOM     45  H   LIG d   1       4.441  -3.559  -2.456  0.00  0.00     0.031 H 
ATOM     46  H   LIG d   1       3.857  -3.764  -4.142  0.00  0.00     0.031 H 
ENDBRANCH   1  43
BRANCH   2  47
ATOM     47  C   LIG d   1       5.103  -0.354  -3.577  0.00  0.00     0.031 A 
ATOM     48  C   LIG d   1       4.117   0.108  -4.455  0.00  0.00     0.128 A 
ATOM     49  C   LIG d   1       3.232   1.089  -4.040  0.00  0.00    -0.019 A 
ATOM     50  C   LIG d   1       3.324   1.609  -2.762  0.00  0.00    -0.058 A 
ATOM     51  H   LIG d   1       2.469   1.448  -4.714  0.00  0.00     0.065 H 
ATOM     52  C   LIG d   1       4.299   1.154  -1.891  0.00  0.00    -0.061 A 
ATOM     53  H   LIG d   1       2.632   2.373  -2.441  0.00  0.00     0.062 H 
ATOM     54  C   LIG d   1       5.184   0.172  -2.291  0.00  0.00    -0.050 A 
ATOM     55  H   LIG d   1       4.365   1.563  -0.895  0.00  0.00     0.062 H 
ATOM     56  H   LIG d   1       5.941  -0.184  -1.607  0.00  0.00     0.062 H 
BRANCH  48  57
ATOM     57  O   LIG d   1       4.028  -0.403  -5.711  0.00  0.00    -0.494 OA
BRANCH  57  58
ATOM     58  C   LIG d   1       3.036   0.159  -6.571  0.00  0.00     0.079 C 
ATOM     59  H   LIG d   1       3.447   0.261  -7.587  0.00  0.00     0.066 H 
ATOM     60  H   LIG d   1       2.742   1.149  -6.193  0.00  0.00     0.066 H 
ATOM     61  H   LIG d   1       2.156  -0.500  -6.597  0.00  0.00     0.066 H 
ENDBRANCH  57  58
ENDBRANCH  48  57
ENDBRANCH   2  47
TORSDOF 7
ENDMDL
