MODEL 1
REMARK VINA RESULT:      -6.0      0.000      0.000
REMARK  8 active torsions:
REMARK  status: ('A' for Active; 'I' for Inactive)
REMARK    1  A    between atoms: C_1  and  C_2 
REMARK    2  A    between atoms: C_2  and  C_3 
REMARK    3  A    between atoms: C_8  and  O_9 
REMARK    4  A    between atoms: O_9  and  C_10 
REMARK    5  A    between atoms: C_10  and  C_12 
REMARK    6  A    between atoms: C_10  and  C_13 
REMARK    7  A    between atoms: C_17  and  C_20 
REMARK    8  A    between atoms: C_22  and  C_25 
ROOT
ATOM      1  C   LIG d   1       5.601  -2.193  -3.886  0.00  0.00    -0.005 A 
ATOM      2  C   LIG d   1       5.920  -0.895  -3.601  0.00  0.00    -0.041 A 
ATOM      3  C   LIG d   1       7.118  -0.357  -4.072  0.00  0.00     0.065 A 
ATOM      4  C   LIG d   1       7.999  -1.141  -4.837  0.00  0.00     0.142 A 
ATOM      5  C   LIG d   1       7.659  -2.459  -5.118  0.00  0.00     0.023 A 
ATOM      6  C   LIG d   1       6.466  -2.978  -4.644  0.00  0.00     0.128 A 
ATOM      7  O   LIG d   1       9.157  -0.621  -5.290  0.00  0.00    -0.462 OA
ATOM      8  C   LIG d   1       9.538   0.635  -5.053  0.00  0.00     0.106 A 
ATOM      9  C   LIG d   1       8.786   1.503  -4.322  0.00  0.00     0.089 A 
ATOM     10  C   LIG d   1       7.495   1.038  -3.783  0.00  0.00     0.202 A 
ATOM     11  O   LIG d   1       6.776   1.771  -3.125  0.00  0.00    -0.286 OA
ATOM     12  H   LIG d   1       5.247  -0.289  -3.014  0.00  0.00     0.063 H 
ATOM     13  H   LIG d   1       8.324  -3.076  -5.704  0.00  0.00     0.069 H 
ATOM     14  H   LIG d   1      10.482   0.976  -5.452  0.00  0.00     0.104 H 
ENDROOT
BRANCH   6  15
ATOM     15  O   LIG d   1       6.137  -4.266  -4.921  0.00  0.00    -0.483 OA
BRANCH  15  16
ATOM     16  C   LIG d   1       5.615  -4.537  -6.223  0.00  0.00     0.136 C 
ATOM     17  H   LIG d   1       5.444  -3.597  -6.748  0.00  0.00     0.079 H 
BRANCH  16  18
ATOM     18  C   LIG d   1       6.617  -5.385  -7.009  0.00  0.00    -0.022 C 
ATOM     19  H   LIG d   1       7.080  -4.776  -7.784  0.00  0.00     0.027 H 
ATOM     20  H   LIG d   1       7.386  -5.760  -6.333  0.00  0.00     0.027 H 
ATOM     21  H   LIG d   1       6.098  -6.226  -7.469  0.00  0.00     0.027 H 
ENDBRANCH  16  18
BRANCH  16  22
ATOM     22  C   LIG d   1       4.314  -5.287  -6.096  0.00  0.00     0.082 C 
ATOM     23  O   LIG d   1       4.041  -5.855  -5.065  0.00  0.00    -0.546 OA
ATOM     24  O   LIG d   1       3.457  -5.322  -7.128  0.00  0.00    -0.546 OA
ENDBRANCH  16  22
ENDBRANCH  15  16
ENDBRANCH   6  15
BRANCH   1  25
ATOM     25  C   LIG d   1       4.307  -2.776  -3.379  0.00  0.00    -0.027 C 
ATOM     26  H   LIG d   1       3.643  -2.971  -4.220  0.00  0.00     0.031 H 
ATOM     27  H   LIG d   1       4.510  -3.707  -2.852  0.00  0.00     0.031 H 
BRANCH  25  28
ATOM     28  C   LIG d   1       3.642  -1.783  -2.424  0.00  0.00    -0.061 C 
ATOM     29  H   LIG d   1       3.330  -2.304  -1.518  0.00  0.00     0.023 H 
ATOM     30  H   LIG d   1       4.351  -0.996  -2.165  0.00  0.00     0.023 H 
ATOM     31  H   LIG d   1       2.770  -1.342  -2.907  0.00  0.00     0.023 H 
ENDBRANCH  25  28
ENDBRANCH   1  25
BRANCH   9  32
ATOM     32  C   LIG d   1       9.250   2.885  -4.081  0.00  0.00     0.115 A 
ATOM     33  S   LIG d   1       9.484   4.222  -5.244  0.00  0.00    -0.075 SA
ATOM     34  C   LIG d   1      10.042   5.443  -4.062  0.00  0.00    -0.001 A 
ATOM     35  C   LIG d   1       9.996   4.721  -2.914  0.00  0.00     0.046 A 
ATOM     36  H   LIG d   1      10.336   6.471  -4.218  0.00  0.00     0.071 H 
ATOM     37  N   LIG d   1       9.599   3.468  -2.943  0.00  0.00    -0.244 NA
BRANCH  35  38
ATOM     38  C   LIG d   1      10.391   5.356  -1.605  0.00  0.00    -0.022 C 
ATOM     39  H   LIG d   1       9.497   5.676  -1.071  0.00  0.00     0.029 H 
ATOM     40  H   LIG d   1      10.937   4.633  -1.000  0.00  0.00     0.029 H 
ATOM     41  H   LIG d   1      11.027   6.221  -1.799  0.00  0.00     0.029 H 
ENDBRANCH  35  38
ENDBRANCH   9  32
TORSDOF 8
ENDMDL
MODEL 2
REMARK VINA RESULT:      -5.9      6.056      9.149
REMARK  8 active torsions:
REMARK  status: ('A' for Active; 'I' for Inactive)
REMARK    1  A    between atoms: C_1  and  C_2 
REMARK    2  A    between atoms: C_2  and  C_3 
REMARK    3  A    between atoms: C_8  and  O_9 
REMARK    4  A    between atoms: O_9  and  C_10 
REMARK    5  A    between atoms: C_10  and  C_12 
REMARK    6  A    between atoms: C_10  and  C_13 
REMARK    7  A    between atoms: C_17  and  C_20 
REMARK    8  A    between atoms: C_22  and  C_25 
ROOT
ATOM      1  C   LIG d   1       4.737  -2.102  -6.149  0.00  0.00    -0.005 A 
ATOM      2  C   LIG d   1       4.396  -2.553  -7.392  0.00  0.00    -0.041 A 
ATOM      3  C   LIG d   1       3.587  -1.769  -8.215  0.00  0.00     0.065 A 
ATOM      4  C   LIG d   1       3.120  -0.519  -7.773  0.00  0.00     0.142 A 
ATOM      5  C   LIG d   1       3.477  -0.075  -6.506  0.00  0.00     0.023 A 
ATOM      6  C   LIG d   1       4.282  -0.864  -5.702  0.00  0.00     0.128 A 
ATOM      7  O   LIG d   1       2.337   0.237  -8.568  0.00  0.00    -0.462 OA
ATOM      8  C   LIG d   1       1.961  -0.135  -9.793  0.00  0.00     0.106 A 
ATOM      9  C   LIG d   1       2.334  -1.322 -10.345  0.00  0.00     0.089 A 
ATOM     10  C   LIG d   1       3.197  -2.225  -9.562  0.00  0.00     0.202 A 
ATOM     11  O   LIG d   1       3.567  -3.298 -10.005  0.00  0.00    -0.286 OA
ATOM     12  H   LIG d   1       4.751  -3.513  -7.737  0.00  0.00     0.063 H 
ATOM     13  H   LIG d   1       3.128   0.883  -6.150  0.00  0.00     0.069 H 
ATOM     14  H   LIG d   1       1.331   0.529 -10.367  0.00  0.00     0.104 H 
ENDROOT
BRANCH   6  15
ATOM     15  O   LIG d   1       4.629  -0.427  -4.464  0.00  0.00    -0.483 OA
BRANCH  15  16
ATOM     16  C   LIG d   1       3.575  -0.276  -3.510  0.00  0.00     0.136 C 
ATOM     17  H   LIG d   1       2.613  -0.326  -4.021  0.00  0.00     0.079 H 
BRANCH  16  18
ATOM     18  C   LIG d   1       3.661  -1.396  -2.472  0.00  0.00    -0.022 C 
ATOM     19  H   LIG d   1       4.346  -1.102  -1.677  0.00  0.00     0.027 H 
ATOM     20  H   LIG d   1       2.673  -1.579  -2.051  0.00  0.00     0.027 H 
ATOM     21  H   LIG d   1       4.027  -2.305  -2.948  0.00  0.00     0.027 H 
ENDBRANCH  16  18
BRANCH  16  22
ATOM     22  C   LIG d   1       3.710   1.059  -2.822  0.00  0.00     0.082 C 
ATOM     23  O   LIG d   1       3.993   1.108  -1.649  0.00  0.00    -0.546 OA
ATOM     24  O   LIG d   1       3.515   2.192  -3.513  0.00  0.00    -0.546 OA
ENDBRANCH  16  22
ENDBRANCH  15  16
ENDBRANCH   6  15
BRANCH   1  25
ATOM     25  C   LIG d   1       5.612  -2.947  -5.259  0.00  0.00    -0.027 C 
ATOM     26  H   LIG d   1       6.620  -2.982  -5.669  0.00  0.00     0.031 H 
ATOM     27  H   LIG d   1       5.641  -2.513  -4.260  0.00  0.00     0.031 H 
BRANCH  25  28
ATOM     28  C   LIG d   1       5.042  -4.364  -5.182  0.00  0.00    -0.061 C 
ATOM     29  H   LIG d   1       5.825  -5.055  -4.869  0.00  0.00     0.023 H 
ATOM     30  H   LIG d   1       4.225  -4.389  -4.461  0.00  0.00     0.023 H 
ATOM     31  H   LIG d   1       4.669  -4.660  -6.164  0.00  0.00     0.023 H 
ENDBRANCH  25  28
ENDBRANCH   1  25
BRANCH   9  32
ATOM     32  C   LIG d   1       1.889  -1.694 -11.704  0.00  0.00     0.115 A 
ATOM     33  S   LIG d   1       2.840  -1.831 -13.211  0.00  0.00    -0.075 SA
ATOM     34  C   LIG d   1       1.489  -2.318 -14.277  0.00  0.00    -0.001 A 
ATOM     35  C   LIG d   1       0.461  -2.328 -13.391  0.00  0.00     0.046 A 
ATOM     36  H   LIG d   1       1.490  -2.541 -15.334  0.00  0.00     0.071 H 
ATOM     37  N   LIG d   1       0.678  -2.024 -12.131  0.00  0.00    -0.244 NA
BRANCH  35  38
ATOM     38  C   LIG d   1      -0.928  -2.694 -13.850  0.00  0.00    -0.022 C 
ATOM     39  H   LIG d   1      -0.893  -3.632 -14.402  0.00  0.00     0.029 H 
ATOM     40  H   LIG d   1      -1.579  -2.806 -12.983  0.00  0.00     0.029 H 
ATOM     41  H   LIG d   1      -1.316  -1.906 -14.496  0.00  0.00     0.029 H 
ENDBRANCH  35  38
ENDBRANCH   9  32
TORSDOF 8
ENDMDL
MODEL 3
REMARK VINA RESULT:      -5.7      7.272     10.635
REMARK  8 active torsions:
REMARK  status: ('A' for Active; 'I' for Inactive)
REMARK    1  A    between atoms: C_1  and  C_2 
REMARK    2  A    between atoms: C_2  and  C_3 
REMARK    3  A    between atoms: C_8  and  O_9 
REMARK    4  A    between atoms: O_9  and  C_10 
REMARK    5  A    between atoms: C_10  and  C_12 
REMARK    6  A    between atoms: C_10  and  C_13 
REMARK    7  A    between atoms: C_17  and  C_20 
REMARK    8  A    between atoms: C_22  and  C_25 
ROOT
ATOM      1  C   LIG d   1       2.840   0.628  -8.656  0.00  0.00    -0.005 A 
ATOM      2  C   LIG d   1       2.135   0.137  -9.718  0.00  0.00    -0.041 A 
ATOM      3  C   LIG d   1       2.107  -1.238  -9.953  0.00  0.00     0.065 A 
ATOM      4  C   LIG d   1       2.799  -2.121  -9.106  0.00  0.00     0.142 A 
ATOM      5  C   LIG d   1       3.510  -1.604  -8.030  0.00  0.00     0.023 A 
ATOM      6  C   LIG d   1       3.528  -0.238  -7.809  0.00  0.00     0.128 A 
ATOM      7  O   LIG d   1       2.772  -3.449  -9.335  0.00  0.00    -0.462 OA
ATOM      8  C   LIG d   1       2.108  -4.003 -10.350  0.00  0.00     0.106 A 
ATOM      9  C   LIG d   1       1.400  -3.269 -11.251  0.00  0.00     0.089 A 
ATOM     10  C   LIG d   1       1.358  -1.804 -11.091  0.00  0.00     0.202 A 
ATOM     11  O   LIG d   1       0.737  -1.094 -11.863  0.00  0.00    -0.286 OA
ATOM     12  H   LIG d   1       1.602   0.810 -10.373  0.00  0.00     0.063 H 
ATOM     13  H   LIG d   1       4.047  -2.267  -7.368  0.00  0.00     0.069 H 
ATOM     14  H   LIG d   1       2.136  -5.077 -10.465  0.00  0.00     0.104 H 
ENDROOT
BRANCH   6  15
ATOM     15  O   LIG d   1       4.224   0.264  -6.757  0.00  0.00    -0.483 OA
BRANCH  15  16
ATOM     16  C   LIG d   1       4.097  -0.421  -5.509  0.00  0.00     0.136 C 
ATOM     17  H   LIG d   1       3.834  -1.463  -5.692  0.00  0.00     0.079 H 
BRANCH  16  18
ATOM     18  C   LIG d   1       5.426  -0.355  -4.753  0.00  0.00    -0.022 C 
ATOM     19  H   LIG d   1       5.387   0.452  -4.021  0.00  0.00     0.027 H 
ATOM     20  H   LIG d   1       5.601  -1.301  -4.242  0.00  0.00     0.027 H 
ATOM     21  H   LIG d   1       6.236  -0.167  -5.458  0.00  0.00     0.027 H 
ENDBRANCH  16  18
BRANCH  16  22
ATOM     22  C   LIG d   1       3.017   0.232  -4.686  0.00  0.00     0.082 C 
ATOM     23  O   LIG d   1       2.721   1.387  -4.883  0.00  0.00    -0.546 OA
ATOM     24  O   LIG d   1       2.384  -0.469  -3.733  0.00  0.00    -0.546 OA
ENDBRANCH  16  22
ENDBRANCH  15  16
ENDBRANCH   6  15
BRANCH   1  25
ATOM     25  C   LIG d   1       2.871   2.113  -8.400  0.00  0.00    -0.027 C 
ATOM     26  H   LIG d   1       1.900   2.543  -8.638  0.00  0.00     0.031 H 
ATOM     27  H   LIG d   1       3.103   2.295  -7.350  0.00  0.00     0.031 H 
BRANCH  25  28
ATOM     28  C   LIG d   1       3.944   2.758  -9.278  0.00  0.00    -0.061 C 
ATOM     29  H   LIG d   1       4.615   3.351  -8.656  0.00  0.00     0.023 H 
ATOM     30  H   LIG d   1       4.513   1.980  -9.788  0.00  0.00     0.023 H 
ATOM     31  H   LIG d   1       3.469   3.404 -10.017  0.00  0.00     0.023 H 
ENDBRANCH  25  28
ENDBRANCH   1  25
BRANCH   9  32
ATOM     32  C   LIG d   1       0.684  -3.926 -12.364  0.00  0.00     0.115 A 
ATOM     33  S   LIG d   1       1.245  -4.276 -14.025  0.00  0.00    -0.075 SA
ATOM     34  C   LIG d   1      -0.256  -5.058 -14.602  0.00  0.00    -0.001 A 
ATOM     35  C   LIG d   1      -1.027  -4.976 -13.487  0.00  0.00     0.046 A 
ATOM     36  H   LIG d   1      -0.487  -5.478 -15.570  0.00  0.00     0.071 H 
ATOM     37  N   LIG d   1      -0.546  -4.422 -12.397  0.00  0.00    -0.244 NA
BRANCH  35  38
ATOM     38  C   LIG d   1      -2.430  -5.527 -13.497  0.00  0.00    -0.022 C 
ATOM     39  H   LIG d   1      -2.757  -5.708 -12.473  0.00  0.00     0.029 H 
ATOM     40  H   LIG d   1      -3.099  -4.808 -13.970  0.00  0.00     0.029 H 
ATOM     41  H   LIG d   1      -2.448  -6.463 -14.055  0.00  0.00     0.029 H 
ENDBRANCH  35  38
ENDBRANCH   9  32
TORSDOF 8
ENDMDL
MODEL 4
REMARK VINA RESULT:      -5.5      2.467      3.107
REMARK  8 active torsions:
REMARK  status: ('A' for Active; 'I' for Inactive)
REMARK    1  A    between atoms: C_1  and  C_2 
REMARK    2  A    between atoms: C_2  and  C_3 
REMARK    3  A    between atoms: C_8  and  O_9 
REMARK    4  A    between atoms: O_9  and  C_10 
REMARK    5  A    between atoms: C_10  and  C_12 
REMARK    6  A    between atoms: C_10  and  C_13 
REMARK    7  A    between atoms: C_17  and  C_20 
REMARK    8  A    between atoms: C_22  and  C_25 
ROOT
ATOM      1  C   LIG d   1       5.906   0.776  -3.655  0.00  0.00    -0.005 A 
ATOM      2  C   LIG d   1       6.969   1.603  -3.425  0.00  0.00    -0.041 A 
ATOM      3  C   LIG d   1       8.208   1.313  -3.998  0.00  0.00     0.065 A 
ATOM      4  C   LIG d   1       8.370   0.176  -4.808  0.00  0.00     0.142 A 
ATOM      5  C   LIG d   1       7.279  -0.654  -5.032  0.00  0.00     0.023 A 
ATOM      6  C   LIG d   1       6.055  -0.353  -4.458  0.00  0.00     0.128 A 
ATOM      7  O   LIG d   1       9.567  -0.103  -5.360  0.00  0.00    -0.462 OA
ATOM      8  C   LIG d   1      10.650   0.655  -5.182  0.00  0.00     0.106 A 
ATOM      9  C   LIG d   1      10.639   1.781  -4.417  0.00  0.00     0.089 A 
ATOM     10  C   LIG d   1       9.377   2.183  -3.771  0.00  0.00     0.202 A 
ATOM     11  O   LIG d   1       9.304   3.183  -3.078  0.00  0.00    -0.286 OA
ATOM     12  H   LIG d   1       6.851   2.477  -2.803  0.00  0.00     0.063 H 
ATOM     13  H   LIG d   1       7.384  -1.531  -5.652  0.00  0.00     0.069 H 
ATOM     14  H   LIG d   1      11.574   0.361  -5.659  0.00  0.00     0.104 H 
ENDROOT
BRANCH   6  15
ATOM     15  O   LIG d   1       4.991  -1.166  -4.678  0.00  0.00    -0.483 OA
BRANCH  15  16
ATOM     16  C   LIG d   1       5.053  -2.481  -4.123  0.00  0.00     0.136 C 
ATOM     17  H   LIG d   1       6.065  -2.677  -3.766  0.00  0.00     0.079 H 
BRANCH  16  18
ATOM     18  C   LIG d   1       4.070  -2.590  -2.956  0.00  0.00    -0.022 C 
ATOM     19  H   LIG d   1       4.602  -2.918  -2.063  0.00  0.00     0.027 H 
ATOM     20  H   LIG d   1       3.615  -1.617  -2.771  0.00  0.00     0.027 H 
ATOM     21  H   LIG d   1       3.293  -3.314  -3.202  0.00  0.00     0.027 H 
ENDBRANCH  16  18
BRANCH  16  22
ATOM     22  C   LIG d   1       4.689  -3.491  -5.181  0.00  0.00     0.082 C 
ATOM     23  O   LIG d   1       4.742  -3.188  -6.350  0.00  0.00    -0.546 OA
ATOM     24  O   LIG d   1       4.307  -4.727  -4.826  0.00  0.00    -0.546 OA
ENDBRANCH  16  22
ENDBRANCH  15  16
ENDBRANCH   6  15
BRANCH   1  25
ATOM     25  C   LIG d   1       4.567   1.087  -3.038  0.00  0.00    -0.027 C 
ATOM     26  H   LIG d   1       4.326   2.136  -3.204  0.00  0.00     0.031 H 
ATOM     27  H   LIG d   1       3.802   0.461  -3.496  0.00  0.00     0.031 H 
BRANCH  25  28
ATOM     28  C   LIG d   1       4.622   0.808  -1.535  0.00  0.00    -0.061 C 
ATOM     29  H   LIG d   1       3.725   0.267  -1.233  0.00  0.00     0.023 H 
ATOM     30  H   LIG d   1       5.503   0.207  -1.308  0.00  0.00     0.023 H 
ATOM     31  H   LIG d   1       4.677   1.752  -0.991  0.00  0.00     0.023 H 
ENDBRANCH  25  28
ENDBRANCH   1  25
BRANCH   9  32
ATOM     32  C   LIG d   1      11.865   2.587  -4.244  0.00  0.00     0.115 A 
ATOM     33  S   LIG d   1      12.199   4.268  -4.754  0.00  0.00    -0.075 SA
ATOM     34  C   LIG d   1      13.872   4.356  -4.128  0.00  0.00    -0.001 A 
ATOM     35  C   LIG d   1      14.010   3.113  -3.601  0.00  0.00     0.046 A 
ATOM     36  H   LIG d   1      14.579   5.172  -4.163  0.00  0.00     0.071 H 
ATOM     37  N   LIG d   1      13.012   2.260  -3.663  0.00  0.00    -0.244 NA
BRANCH  35  38
ATOM     38  C   LIG d   1      15.303   2.713  -2.939  0.00  0.00    -0.022 C 
ATOM     39  H   LIG d   1      16.046   2.479  -3.701  0.00  0.00     0.029 H 
ATOM     40  H   LIG d   1      15.664   3.534  -2.320  0.00  0.00     0.029 H 
ATOM     41  H   LIG d   1      15.134   1.835  -2.315  0.00  0.00     0.029 H 
ENDBRANCH  35  38
ENDBRANCH   9  32
TORSDOF 8
ENDMDL
MODEL 5
REMARK VINA RESULT:      -5.4      5.714      8.770
REMARK  8 active torsions:
REMARK  status: ('A' for Active; 'I' for Inactive)
REMARK    1  A    between atoms: C_1  and  C_2 
REMARK    2  A    between atoms: C_2  and  C_3 
REMARK    3  A    between atoms: C_8  and  O_9 
REMARK    4  A    between atoms: O_9  and  C_10 
REMARK    5  A    between atoms: C_10  and  C_12 
REMARK    6  A    between atoms: C_10  and  C_13 
REMARK    7  A    between atoms: C_17  and  C_20 
REMARK    8  A    between atoms: C_22  and  C_25 
ROOT
ATOM      1  C   LIG d   1       5.634  -1.908  -5.920  0.00  0.00    -0.005 A 
ATOM      2  C   LIG d   1       5.317  -2.338  -7.177  0.00  0.00    -0.041 A 
ATOM      3  C   LIG d   1       4.258  -1.745  -7.865  0.00  0.00     0.065 A 
ATOM      4  C   LIG d   1       3.515  -0.709  -7.273  0.00  0.00     0.142 A 
ATOM      5  C   LIG d   1       3.851  -0.283  -5.995  0.00  0.00     0.023 A 
ATOM      6  C   LIG d   1       4.906  -0.880  -5.325  0.00  0.00     0.128 A 
ATOM      7  O   LIG d   1       2.491  -0.138  -7.939  0.00  0.00    -0.462 OA
ATOM      8  C   LIG d   1       2.121  -0.503  -9.167  0.00  0.00     0.106 A 
ATOM      9  C   LIG d   1       2.748  -1.496  -9.856  0.00  0.00     0.089 A 
ATOM     10  C   LIG d   1       3.887  -2.185  -9.223  0.00  0.00     0.202 A 
ATOM     11  O   LIG d   1       4.490  -3.079  -9.792  0.00  0.00    -0.286 OA
ATOM     12  H   LIG d   1       5.884  -3.134  -7.636  0.00  0.00     0.063 H 
ATOM     13  H   LIG d   1       3.292   0.512  -5.525  0.00  0.00     0.069 H 
ATOM     14  H   LIG d   1       1.289   0.005  -9.631  0.00  0.00     0.104 H 
ENDROOT
BRANCH   6  15
ATOM     15  O   LIG d   1       5.232  -0.462  -4.075  0.00  0.00    -0.483 OA
BRANCH  15  16
ATOM     16  C   LIG d   1       4.162  -0.324  -3.138  0.00  0.00     0.136 C 
ATOM     17  H   LIG d   1       3.210  -0.457  -3.651  0.00  0.00     0.079 H 
BRANCH  16  18
ATOM     18  C   LIG d   1       4.305  -1.383  -2.042  0.00  0.00    -0.022 C 
ATOM     19  H   LIG d   1       4.310  -2.374  -2.494  0.00  0.00     0.027 H 
ATOM     20  H   LIG d   1       5.237  -1.224  -1.501  0.00  0.00     0.027 H 
ATOM     21  H   LIG d   1       3.465  -1.304  -1.351  0.00  0.00     0.027 H 
ENDBRANCH  16  18
BRANCH  16  22
ATOM     22  C   LIG d   1       4.211   1.049  -2.518  0.00  0.00     0.082 C 
ATOM     23  O   LIG d   1       4.688   1.199  -1.418  0.00  0.00    -0.546 OA
ATOM     24  O   LIG d   1       3.725   2.105  -3.189  0.00  0.00    -0.546 OA
ENDBRANCH  16  22
ENDBRANCH  15  16
ENDBRANCH   6  15
BRANCH   1  25
ATOM     25  C   LIG d   1       6.778  -2.546  -5.175  0.00  0.00    -0.027 C 
ATOM     26  H   LIG d   1       6.753  -2.232  -4.133  0.00  0.00     0.031 H 
ATOM     27  H   LIG d   1       6.688  -3.631  -5.231  0.00  0.00     0.031 H 
BRANCH  25  28
ATOM     28  C   LIG d   1       8.102  -2.112  -5.808  0.00  0.00    -0.061 C 
ATOM     29  H   LIG d   1       8.932  -2.525  -5.234  0.00  0.00     0.023 H 
ATOM     30  H   LIG d   1       8.152  -2.477  -6.834  0.00  0.00     0.023 H 
ATOM     31  H   LIG d   1       8.166  -1.023  -5.806  0.00  0.00     0.023 H 
ENDBRANCH  25  28
ENDBRANCH   1  25
BRANCH   9  32
ATOM     32  C   LIG d   1       2.300  -1.871 -11.213  0.00  0.00     0.115 A 
ATOM     33  S   LIG d   1       0.871  -2.823 -11.712  0.00  0.00    -0.075 SA
ATOM     34  C   LIG d   1       1.163  -2.743 -13.475  0.00  0.00    -0.001 A 
ATOM     35  C   LIG d   1       2.304  -2.009 -13.508  0.00  0.00     0.046 A 
ATOM     36  H   LIG d   1       0.590  -3.164 -14.289  0.00  0.00     0.071 H 
ATOM     37  N   LIG d   1       2.844  -1.586 -12.388  0.00  0.00    -0.244 NA
BRANCH  35  38
ATOM     38  C   LIG d   1       2.948  -1.674 -14.829  0.00  0.00    -0.022 C 
ATOM     39  H   LIG d   1       3.020  -0.592 -14.935  0.00  0.00     0.029 H 
ATOM     40  H   LIG d   1       3.947  -2.109 -14.867  0.00  0.00     0.029 H 
ATOM     41  H   LIG d   1       2.344  -2.079 -15.641  0.00  0.00     0.029 H 
ENDBRANCH  35  38
ENDBRANCH   9  32
TORSDOF 8
ENDMDL
MODEL 6
REMARK VINA RESULT:      -5.2      5.582      8.903
REMARK  8 active torsions:
REMARK  status: ('A' for Active; 'I' for Inactive)
REMARK    1  A    between atoms: C_1  and  C_2 
REMARK    2  A    between atoms: C_2  and  C_3 
REMARK    3  A    between atoms: C_8  and  O_9 
REMARK    4  A    between atoms: O_9  and  C_10 
REMARK    5  A    between atoms: C_10  and  C_12 
REMARK    6  A    between atoms: C_10  and  C_13 
REMARK    7  A    between atoms: C_17  and  C_20 
REMARK    8  A    between atoms: C_22  and  C_25 
ROOT
ATOM      1  C   LIG d   1       4.367  -1.077  -5.600  0.00  0.00    -0.005 A 
ATOM      2  C   LIG d   1       4.323  -2.381  -5.193  0.00  0.00    -0.041 A 
ATOM      3  C   LIG d   1       4.541  -3.402  -6.119  0.00  0.00     0.065 A 
ATOM      4  C   LIG d   1       4.805  -3.098  -7.466  0.00  0.00     0.142 A 
ATOM      5  C   LIG d   1       4.847  -1.767  -7.862  0.00  0.00     0.023 A 
ATOM      6  C   LIG d   1       4.630  -0.765  -6.931  0.00  0.00     0.128 A 
ATOM      7  O   LIG d   1       5.014  -4.085  -8.359  0.00  0.00    -0.462 OA
ATOM      8  C   LIG d   1       4.986  -5.380  -8.040  0.00  0.00     0.106 A 
ATOM      9  C   LIG d   1       4.737  -5.818  -6.775  0.00  0.00     0.089 A 
ATOM     10  C   LIG d   1       4.499  -4.820  -5.717  0.00  0.00     0.202 A 
ATOM     11  O   LIG d   1       4.275  -5.151  -4.565  0.00  0.00    -0.286 OA
ATOM     12  H   LIG d   1       4.119  -2.620  -4.160  0.00  0.00     0.063 H 
ATOM     13  H   LIG d   1       5.049  -1.515  -8.892  0.00  0.00     0.069 H 
ATOM     14  H   LIG d   1       5.164  -6.110  -8.816  0.00  0.00     0.104 H 
ENDROOT
BRANCH   6  15
ATOM     15  O   LIG d   1       4.671   0.534  -7.321  0.00  0.00    -0.483 OA
BRANCH  15  16
ATOM     16  C   LIG d   1       4.056   0.857  -8.570  0.00  0.00     0.136 C 
ATOM     17  H   LIG d   1       3.756  -0.061  -9.075  0.00  0.00     0.079 H 
BRANCH  16  18
ATOM     18  C   LIG d   1       2.824   1.730  -8.323  0.00  0.00    -0.022 C 
ATOM     19  H   LIG d   1       3.139   2.752  -8.115  0.00  0.00     0.027 H 
ATOM     20  H   LIG d   1       2.186   1.718  -9.206  0.00  0.00     0.027 H 
ATOM     21  H   LIG d   1       2.270   1.340  -7.469  0.00  0.00     0.027 H 
ENDBRANCH  16  18
BRANCH  16  22
ATOM     22  C   LIG d   1       5.038   1.608  -9.434  0.00  0.00     0.082 C 
ATOM     23  O   LIG d   1       5.759   1.005 -10.193  0.00  0.00    -0.546 OA
ATOM     24  O   LIG d   1       5.110   2.946  -9.360  0.00  0.00    -0.546 OA
ENDBRANCH  16  22
ENDBRANCH  15  16
ENDBRANCH   6  15
BRANCH   1  25
ATOM     25  C   LIG d   1       4.132   0.027  -4.601  0.00  0.00    -0.027 C 
ATOM     26  H   LIG d   1       4.487  -0.288  -3.621  0.00  0.00     0.031 H 
ATOM     27  H   LIG d   1       4.673   0.920  -4.914  0.00  0.00     0.031 H 
BRANCH  25  28
ATOM     28  C   LIG d   1       2.636   0.337  -4.527  0.00  0.00    -0.061 C 
ATOM     29  H   LIG d   1       2.474   1.396  -4.728  0.00  0.00     0.023 H 
ATOM     30  H   LIG d   1       2.104  -0.260  -5.268  0.00  0.00     0.023 H 
ATOM     31  H   LIG d   1       2.264   0.096  -3.531  0.00  0.00     0.023 H 
ENDBRANCH  25  28
ENDBRANCH   1  25
BRANCH   9  32
ATOM     32  C   LIG d   1       4.710  -7.263  -6.469  0.00  0.00     0.115 A 
ATOM     33  S   LIG d   1       4.702  -8.659  -7.586  0.00  0.00    -0.075 SA
ATOM     34  C   LIG d   1       4.670  -9.937  -6.336  0.00  0.00    -0.001 A 
ATOM     35  C   LIG d   1       4.668  -9.184  -5.206  0.00  0.00     0.046 A 
ATOM     36  H   LIG d   1       4.654 -11.011  -6.448  0.00  0.00     0.071 H 
ATOM     37  N   LIG d   1       4.694  -7.873  -5.292  0.00  0.00    -0.244 NA
BRANCH  35  38
ATOM     38  C   LIG d   1       4.645  -9.851  -3.854  0.00  0.00    -0.022 C 
ATOM     39  H   LIG d   1       5.319  -9.327  -3.178  0.00  0.00     0.029 H 
ATOM     40  H   LIG d   1       3.632  -9.821  -3.452  0.00  0.00     0.029 H 
ATOM     41  H   LIG d   1       4.965 -10.888  -3.956  0.00  0.00     0.029 H 
ENDBRANCH  35  38
ENDBRANCH   9  32
TORSDOF 8
ENDMDL
MODEL 7
REMARK VINA RESULT:      -5.1      8.574     10.724
REMARK  8 active torsions:
REMARK  status: ('A' for Active; 'I' for Inactive)
REMARK    1  A    between atoms: C_1  and  C_2 
REMARK    2  A    between atoms: C_2  and  C_3 
REMARK    3  A    between atoms: C_8  and  O_9 
REMARK    4  A    between atoms: O_9  and  C_10 
REMARK    5  A    between atoms: C_10  and  C_12 
REMARK    6  A    between atoms: C_10  and  C_13 
REMARK    7  A    between atoms: C_17  and  C_20 
REMARK    8  A    between atoms: C_22  and  C_25 
ROOT
ATOM      1  C   LIG d   1       4.569 -10.168  -3.422  0.00  0.00    -0.005 A 
ATOM      2  C   LIG d   1       5.315 -10.661  -2.389  0.00  0.00    -0.041 A 
ATOM      3  C   LIG d   1       6.643 -10.258  -2.241  0.00  0.00     0.065 A 
ATOM      4  C   LIG d   1       7.217  -9.349  -3.146  0.00  0.00     0.142 A 
ATOM      5  C   LIG d   1       6.444  -8.857  -4.190  0.00  0.00     0.023 A 
ATOM      6  C   LIG d   1       5.128  -9.265  -4.323  0.00  0.00     0.128 A 
ATOM      7  O   LIG d   1       8.500  -8.962  -3.002  0.00  0.00    -0.462 OA
ATOM      8  C   LIG d   1       9.292  -9.399  -2.022  0.00  0.00     0.106 A 
ATOM      9  C   LIG d   1       8.869 -10.285  -1.079  0.00  0.00     0.089 A 
ATOM     10  C   LIG d   1       7.478 -10.771  -1.139  0.00  0.00     0.202 A 
ATOM     11  O   LIG d   1       7.042 -11.561  -0.321  0.00  0.00    -0.286 OA
ATOM     12  H   LIG d   1       4.880 -11.360  -1.691  0.00  0.00     0.063 H 
ATOM     13  H   LIG d   1       6.868  -8.157  -4.895  0.00  0.00     0.069 H 
ATOM     14  H   LIG d   1      10.309  -9.039  -1.977  0.00  0.00     0.104 H 
ENDROOT
BRANCH   6  15
ATOM     15  O   LIG d   1       4.375  -8.782  -5.345  0.00  0.00    -0.483 OA
BRANCH  15  16
ATOM     16  C   LIG d   1       5.022  -7.908  -6.271  0.00  0.00     0.136 C 
ATOM     17  H   LIG d   1       6.065  -7.779  -5.981  0.00  0.00     0.079 H 
BRANCH  16  18
ATOM     18  C   LIG d   1       4.952  -8.509  -7.676  0.00  0.00    -0.022 C 
ATOM     19  H   LIG d   1       4.211  -9.307  -7.693  0.00  0.00     0.027 H 
ATOM     20  H   LIG d   1       4.670  -7.735  -8.390  0.00  0.00     0.027 H 
ATOM     21  H   LIG d   1       5.928  -8.914  -7.946  0.00  0.00     0.027 H 
ENDBRANCH  16  18
BRANCH  16  22
ATOM     22  C   LIG d   1       4.330  -6.568  -6.263  0.00  0.00     0.082 C 
ATOM     23  O   LIG d   1       3.905  -6.101  -7.293  0.00  0.00    -0.546 OA
ATOM     24  O   LIG d   1       4.187  -5.894  -5.112  0.00  0.00    -0.546 OA
ENDBRANCH  16  22
ENDBRANCH  15  16
ENDBRANCH   6  15
BRANCH   1  25
ATOM     25  C   LIG d   1       3.135 -10.601  -3.584  0.00  0.00    -0.027 C 
ATOM     26  H   LIG d   1       2.770 -11.009  -2.642  0.00  0.00     0.031 H 
ATOM     27  H   LIG d   1       2.526  -9.743  -3.868  0.00  0.00     0.031 H 
BRANCH  25  28
ATOM     28  C   LIG d   1       3.046 -11.672  -4.672  0.00  0.00    -0.061 C 
ATOM     29  H   LIG d   1       2.475 -12.522  -4.300  0.00  0.00     0.023 H 
ATOM     30  H   LIG d   1       2.551 -11.258  -5.551  0.00  0.00     0.023 H 
ATOM     31  H   LIG d   1       4.050 -12.000  -4.942  0.00  0.00     0.023 H 
ENDBRANCH  25  28
ENDBRANCH   1  25
BRANCH   9  32
ATOM     32  C   LIG d   1       9.783 -10.746  -0.014  0.00  0.00     0.115 A 
ATOM     33  S   LIG d   1      10.597 -12.327   0.176  0.00  0.00    -0.075 SA
ATOM     34  C   LIG d   1      11.456 -11.947   1.698  0.00  0.00    -0.001 A 
ATOM     35  C   LIG d   1      11.043 -10.671   1.908  0.00  0.00     0.046 A 
ATOM     36  H   LIG d   1      12.119 -12.563   2.288  0.00  0.00     0.071 H 
ATOM     37  N   LIG d   1      10.226 -10.097   1.054  0.00  0.00    -0.244 NA
BRANCH  35  38
ATOM     38  C   LIG d   1      11.527  -9.910   3.116  0.00  0.00    -0.022 C 
ATOM     39  H   LIG d   1      12.403 -10.407   3.533  0.00  0.00     0.029 H 
ATOM     40  H   LIG d   1      11.791  -8.894   2.823  0.00  0.00     0.029 H 
ATOM     41  H   LIG d   1      10.736  -9.878   3.865  0.00  0.00     0.029 H 
ENDBRANCH  35  38
ENDBRANCH   9  32
TORSDOF 8
ENDMDL
MODEL 8
REMARK VINA RESULT:      -5.1      6.966     10.195
REMARK  8 active torsions:
REMARK  status: ('A' for Active; 'I' for Inactive)
REMARK    1  A    between atoms: C_1  and  C_2 
REMARK    2  A    between atoms: C_2  and  C_3 
REMARK    3  A    between atoms: C_8  and  O_9 
REMARK    4  A    between atoms: O_9  and  C_10 
REMARK    5  A    between atoms: C_10  and  C_12 
REMARK    6  A    between atoms: C_10  and  C_13 
REMARK    7  A    between atoms: C_17  and  C_20 
REMARK    8  A    between atoms: C_22  and  C_25 
ROOT
ATOM      1  C   LIG d   1      10.174   5.092  -3.381  0.00  0.00    -0.005 A 
ATOM      2  C   LIG d   1      10.217   4.954  -4.740  0.00  0.00    -0.041 A 
ATOM      3  C   LIG d   1       9.913   6.044  -5.556  0.00  0.00     0.065 A 
ATOM      4  C   LIG d   1       9.562   7.282  -4.990  0.00  0.00     0.142 A 
ATOM      5  C   LIG d   1       9.524   7.405  -3.607  0.00  0.00     0.023 A 
ATOM      6  C   LIG d   1       9.830   6.314  -2.810  0.00  0.00     0.128 A 
ATOM      7  O   LIG d   1       9.267   8.334  -5.779  0.00  0.00    -0.462 OA
ATOM      8  C   LIG d   1       9.286   8.277  -7.112  0.00  0.00     0.106 A 
ATOM      9  C   LIG d   1       9.602   7.142  -7.793  0.00  0.00     0.089 A 
ATOM     10  C   LIG d   1       9.947   5.931  -7.026  0.00  0.00     0.202 A 
ATOM     11  O   LIG d   1      10.242   4.887  -7.579  0.00  0.00    -0.286 OA
ATOM     12  H   LIG d   1      10.485   4.005  -5.180  0.00  0.00     0.063 H 
ATOM     13  H   LIG d   1       9.258   8.348  -3.154  0.00  0.00     0.069 H 
ATOM     14  H   LIG d   1       9.037   9.166  -7.673  0.00  0.00     0.104 H 
ENDROOT
BRANCH   6  15
ATOM     15  O   LIG d   1       9.792   6.438  -1.459  0.00  0.00    -0.483 OA
BRANCH  15  16
ATOM     16  C   LIG d   1      10.847   7.180  -0.845  0.00  0.00     0.136 C 
ATOM     17  H   LIG d   1      11.616   7.399  -1.586  0.00  0.00     0.079 H 
BRANCH  16  18
ATOM     18  C   LIG d   1      10.290   8.491  -0.284  0.00  0.00    -0.022 C 
ATOM     19  H   LIG d   1       9.260   8.619  -0.616  0.00  0.00     0.027 H 
ATOM     20  H   LIG d   1      10.321   8.463   0.805  0.00  0.00     0.027 H 
ATOM     21  H   LIG d   1      10.894   9.324  -0.643  0.00  0.00     0.027 H 
ENDBRANCH  16  18
BRANCH  16  22
ATOM     22  C   LIG d   1      11.446   6.369   0.276  0.00  0.00     0.082 C 
ATOM     23  O   LIG d   1      12.638   6.179   0.314  0.00  0.00    -0.546 OA
ATOM     24  O   LIG d   1      10.654   5.858   1.232  0.00  0.00    -0.546 OA
ENDBRANCH  16  22
ENDBRANCH  15  16
ENDBRANCH   6  15
BRANCH   1  25
ATOM     25  C   LIG d   1      10.503   3.916  -2.498  0.00  0.00    -0.027 C 
ATOM     26  H   LIG d   1      11.573   3.902  -2.295  0.00  0.00     0.031 H 
ATOM     27  H   LIG d   1       9.956   4.002  -1.559  0.00  0.00     0.031 H 
BRANCH  25  28
ATOM     28  C   LIG d   1      10.101   2.620  -3.205  0.00  0.00    -0.061 C 
ATOM     29  H   LIG d   1      10.798   2.418  -4.018  0.00  0.00     0.023 H 
ATOM     30  H   LIG d   1      10.123   1.795  -2.492  0.00  0.00     0.023 H 
ATOM     31  H   LIG d   1       9.093   2.724  -3.609  0.00  0.00     0.023 H 
ENDBRANCH  25  28
ENDBRANCH   1  25
BRANCH   9  32
ATOM     32  C   LIG d   1       9.605   7.125  -9.270  0.00  0.00     0.115 A 
ATOM     33  S   LIG d   1       8.848   5.956 -10.392  0.00  0.00    -0.075 SA
ATOM     34  C   LIG d   1       9.374   6.741 -11.911  0.00  0.00    -0.001 A 
ATOM     35  C   LIG d   1      10.065   7.801 -11.419  0.00  0.00     0.046 A 
ATOM     36  H   LIG d   1       9.194   6.451 -12.935  0.00  0.00     0.071 H 
ATOM     37  N   LIG d   1      10.162   7.975 -10.120  0.00  0.00    -0.244 NA
BRANCH  35  38
ATOM     38  C   LIG d   1      10.714   8.782 -12.362  0.00  0.00    -0.022 C 
ATOM     39  H   LIG d   1      11.791   8.787 -12.198  0.00  0.00     0.029 H 
ATOM     40  H   LIG d   1      10.504   8.490 -13.391  0.00  0.00     0.029 H 
ATOM     41  H   LIG d   1      10.314   9.780 -12.179  0.00  0.00     0.029 H 
ENDBRANCH  35  38
ENDBRANCH   9  32
TORSDOF 8
ENDMDL
MODEL 9
REMARK VINA RESULT:      -5.0      4.850      9.050
REMARK  8 active torsions:
REMARK  status: ('A' for Active; 'I' for Inactive)
REMARK    1  A    between atoms: C_1  and  C_2 
REMARK    2  A    between atoms: C_2  and  C_3 
REMARK    3  A    between atoms: C_8  and  O_9 
REMARK    4  A    between atoms: O_9  and  C_10 
REMARK    5  A    between atoms: C_10  and  C_12 
REMARK    6  A    between atoms: C_10  and  C_13 
REMARK    7  A    between atoms: C_17  and  C_20 
REMARK    8  A    between atoms: C_22  and  C_25 
ROOT
ATOM      1  C   LIG d   1       6.853  -2.196  -4.510  0.00  0.00    -0.005 A 
ATOM      2  C   LIG d   1       7.350  -3.432  -4.811  0.00  0.00    -0.041 A 
ATOM      3  C   LIG d   1       6.475  -4.469  -5.138  0.00  0.00     0.065 A 
ATOM      4  C   LIG d   1       5.087  -4.249  -5.160  0.00  0.00     0.142 A 
ATOM      5  C   LIG d   1       4.598  -2.986  -4.852  0.00  0.00     0.023 A 
ATOM      6  C   LIG d   1       5.479  -1.967  -4.531  0.00  0.00     0.128 A 
ATOM      7  O   LIG d   1       4.243  -5.252  -5.474  0.00  0.00    -0.462 OA
ATOM      8  C   LIG d   1       4.651  -6.485  -5.778  0.00  0.00     0.106 A 
ATOM      9  C   LIG d   1       5.965  -6.839  -5.790  0.00  0.00     0.089 A 
ATOM     10  C   LIG d   1       6.976  -5.816  -5.465  0.00  0.00     0.202 A 
ATOM     11  O   LIG d   1       8.167  -6.073  -5.464  0.00  0.00    -0.286 OA
ATOM     12  H   LIG d   1       8.415  -3.607  -4.794  0.00  0.00     0.063 H 
ATOM     13  H   LIG d   1       3.535  -2.799  -4.865  0.00  0.00     0.069 H 
ATOM     14  H   LIG d   1       3.909  -7.233  -6.019  0.00  0.00     0.104 H 
ENDROOT
BRANCH   6  15
ATOM     15  O   LIG d   1       4.999  -0.733  -4.231  0.00  0.00    -0.483 OA
BRANCH  15  16
ATOM     16  C   LIG d   1       3.919  -0.666  -3.298  0.00  0.00     0.136 C 
ATOM     17  H   LIG d   1       3.108  -1.314  -3.633  0.00  0.00     0.079 H 
BRANCH  16  18
ATOM     18  C   LIG d   1       4.404  -1.126  -1.921  0.00  0.00    -0.022 C 
ATOM     19  H   LIG d   1       4.110  -2.163  -1.761  0.00  0.00     0.027 H 
ATOM     20  H   LIG d   1       5.489  -1.044  -1.871  0.00  0.00     0.027 H 
ATOM     21  H   LIG d   1       3.956  -0.499  -1.151  0.00  0.00     0.027 H 
ENDBRANCH  16  18
BRANCH  16  22
ATOM     22  C   LIG d   1       3.422   0.754  -3.206  0.00  0.00     0.082 C 
ATOM     23  O   LIG d   1       3.056   1.332  -4.202  0.00  0.00    -0.546 OA
ATOM     24  O   LIG d   1       3.385   1.376  -2.017  0.00  0.00    -0.546 OA
ENDBRANCH  16  22
ENDBRANCH  15  16
ENDBRANCH   6  15
BRANCH   1  25
ATOM     25  C   LIG d   1       7.796  -1.074  -4.158  0.00  0.00    -0.027 C 
ATOM     26  H   LIG d   1       7.232  -0.247  -3.729  0.00  0.00     0.031 H 
ATOM     27  H   LIG d   1       8.528  -1.430  -3.433  0.00  0.00     0.031 H 
BRANCH  25  28
ATOM     28  C   LIG d   1       8.517  -0.600  -5.420  0.00  0.00    -0.061 C 
ATOM     29  H   LIG d   1       8.247   0.435  -5.626  0.00  0.00     0.023 H 
ATOM     30  H   LIG d   1       9.595  -0.672  -5.272  0.00  0.00     0.023 H 
ATOM     31  H   LIG d   1       8.224  -1.227  -6.264  0.00  0.00     0.023 H 
ENDBRANCH  25  28
ENDBRANCH   1  25
BRANCH   9  32
ATOM     32  C   LIG d   1       6.370  -8.219  -6.127  0.00  0.00     0.115 A 
ATOM     33  S   LIG d   1       6.862  -9.554  -5.043  0.00  0.00    -0.075 SA
ATOM     34  C   LIG d   1       7.149 -10.775  -6.318  0.00  0.00    -0.001 A 
ATOM     35  C   LIG d   1       6.847 -10.055  -7.428  0.00  0.00     0.046 A 
ATOM     36  H   LIG d   1       7.475 -11.801  -6.229  0.00  0.00     0.071 H 
ATOM     37  N   LIG d   1       6.461  -8.804  -7.314  0.00  0.00    -0.244 NA
BRANCH  35  38
ATOM     38  C   LIG d   1       6.945 -10.691  -8.791  0.00  0.00    -0.022 C 
ATOM     39  H   LIG d   1       6.788 -11.766  -8.703  0.00  0.00     0.029 H 
ATOM     40  H   LIG d   1       6.185 -10.265  -9.447  0.00  0.00     0.029 H 
ATOM     41  H   LIG d   1       7.934 -10.502  -9.209  0.00  0.00     0.029 H 
ENDBRANCH  35  38
ENDBRANCH   9  32
TORSDOF 8
ENDMDL
MODEL 10
REMARK VINA RESULT:      -5.0      4.628      9.457
REMARK  8 active torsions:
REMARK  status: ('A' for Active; 'I' for Inactive)
REMARK    1  A    between atoms: C_1  and  C_2 
REMARK    2  A    between atoms: C_2  and  C_3 
REMARK    3  A    between atoms: C_8  and  O_9 
REMARK    4  A    between atoms: O_9  and  C_10 
REMARK    5  A    between atoms: C_10  and  C_12 
REMARK    6  A    between atoms: C_10  and  C_13 
REMARK    7  A    between atoms: C_17  and  C_20 
REMARK    8  A    between atoms: C_22  and  C_25 
ROOT
ATOM      1  C   LIG d   1      10.156   4.850  -8.363  0.00  0.00    -0.005 A 
ATOM      2  C   LIG d   1       9.333   3.848  -7.935  0.00  0.00    -0.041 A 
ATOM      3  C   LIG d   1       9.207   3.592  -6.570  0.00  0.00     0.065 A 
ATOM      4  C   LIG d   1       9.921   4.358  -5.632  0.00  0.00     0.142 A 
ATOM      5  C   LIG d   1      10.753   5.374  -6.085  0.00  0.00     0.023 A 
ATOM      6  C   LIG d   1      10.867   5.617  -7.443  0.00  0.00     0.128 A 
ATOM      7  O   LIG d   1       9.799   4.109  -4.313  0.00  0.00    -0.462 OA
ATOM      8  C   LIG d   1       9.017   3.148  -3.818  0.00  0.00     0.106 A 
ATOM      9  C   LIG d   1       8.275   2.327  -4.610  0.00  0.00     0.089 A 
ATOM     10  C   LIG d   1       8.329   2.517  -6.071  0.00  0.00     0.202 A 
ATOM     11  O   LIG d   1       7.683   1.816  -6.831  0.00  0.00    -0.286 OA
ATOM     12  H   LIG d   1       8.783   3.255  -8.651  0.00  0.00     0.063 H 
ATOM     13  H   LIG d   1      11.309   5.973  -5.379  0.00  0.00     0.069 H 
ATOM     14  H   LIG d   1       8.975   3.013  -2.747  0.00  0.00     0.104 H 
ENDROOT
BRANCH   6  15
ATOM     15  O   LIG d   1      11.681   6.610  -7.882  0.00  0.00    -0.483 OA
BRANCH  15  16
ATOM     16  C   LIG d   1      11.429   7.925  -7.381  0.00  0.00     0.136 C 
ATOM     17  H   LIG d   1      11.214   7.871  -6.313  0.00  0.00     0.079 H 
BRANCH  16  18
ATOM     18  C   LIG d   1      12.661   8.803  -7.609  0.00  0.00    -0.022 C 
ATOM     19  H   LIG d   1      12.581   9.294  -8.579  0.00  0.00     0.027 H 
ATOM     20  H   LIG d   1      12.721   9.557  -6.824  0.00  0.00     0.027 H 
ATOM     21  H   LIG d   1      13.557   8.184  -7.589  0.00  0.00     0.027 H 
ENDBRANCH  16  18
BRANCH  16  22
ATOM     22  C   LIG d   1      10.247   8.519  -8.102  0.00  0.00     0.082 C 
ATOM     23  O   LIG d   1       9.173   8.586  -7.552  0.00  0.00    -0.546 OA
ATOM     24  O   LIG d   1      10.387   8.976  -9.357  0.00  0.00    -0.546 OA
ENDBRANCH  16  22
ENDBRANCH  15  16
ENDBRANCH   6  15
BRANCH   1  25
ATOM     25  C   LIG d   1      10.293   5.129  -9.838  0.00  0.00    -0.027 C 
ATOM     26  H   LIG d   1      11.141   5.791 -10.005  0.00  0.00     0.031 H 
ATOM     27  H   LIG d   1      10.453   4.192 -10.372  0.00  0.00     0.031 H 
BRANCH  25  28
ATOM     28  C   LIG d   1       9.016   5.796 -10.351  0.00  0.00    -0.061 C 
ATOM     29  H   LIG d   1       8.283   5.031 -10.605  0.00  0.00     0.023 H 
ATOM     30  H   LIG d   1       8.609   6.446  -9.576  0.00  0.00     0.023 H 
ATOM     31  H   LIG d   1       9.245   6.388 -11.237  0.00  0.00     0.023 H 
ENDBRANCH  25  28
ENDBRANCH   1  25
BRANCH   9  32
ATOM     32  C   LIG d   1       7.427   1.272  -4.018  0.00  0.00     0.115 A 
ATOM     33  S   LIG d   1       7.534  -0.503  -4.198  0.00  0.00    -0.075 SA
ATOM     34  C   LIG d   1       6.143  -0.912  -3.150  0.00  0.00    -0.001 A 
ATOM     35  C   LIG d   1       5.740   0.328  -2.773  0.00  0.00     0.046 A 
ATOM     36  H   LIG d   1       5.736  -1.878  -2.891  0.00  0.00     0.071 H 
ATOM     37  N   LIG d   1       6.386   1.387  -3.205  0.00  0.00    -0.244 NA
BRANCH  35  38
ATOM     38  C   LIG d   1       4.557   0.489  -1.853  0.00  0.00    -0.022 C 
ATOM     39  H   LIG d   1       3.699   0.847  -2.422  0.00  0.00     0.029 H 
ATOM     40  H   LIG d   1       4.316  -0.471  -1.397  0.00  0.00     0.029 H 
ATOM     41  H   LIG d   1       4.800   1.210  -1.072  0.00  0.00     0.029 H 
ENDBRANCH  35  38
ENDBRANCH   9  32
TORSDOF 8
ENDMDL
