MODEL 1
REMARK VINA RESULT:      -5.8      0.000      0.000
REMARK  15 active torsions:
REMARK  status: ('A' for Active; 'I' for Inactive)
REMARK    1  A    between atoms: C_1  and  C_2 
REMARK    2  A    between atoms: C_2  and  C_3 
REMARK    3  A    between atoms: C_3  and  C_4 
REMARK    4  A    between atoms: C_13  and  O_16 
REMARK    5  A    between atoms: C_14  and  C_15 
REMARK    6  A    between atoms: O_16  and  C_17 
REMARK    7  A    between atoms: C_17  and  C_19 
REMARK    8  A    between atoms: C_19  and  C_20 
REMARK    9  A    between atoms: C_20  and  C_21 
REMARK   10  A    between atoms: C_21  and  N_22 
REMARK       I    between atoms: N_22  and  C_23 
REMARK   11  A    between atoms: C_23  and  O_25 
REMARK   12  A    between atoms: O_25  and  C_26 
REMARK   13  A    between atoms: C_26  and  C_27 
REMARK   14  A    between atoms: C_26  and  C_28 
REMARK   15  A    between atoms: C_26  and  C_29 
ROOT
ATOM      1  O   LIG d   1       9.585   0.473  -5.608  0.00  0.00    -0.425 OA
ENDROOT
BRANCH   1   2
ATOM      2  C   LIG d   1       8.462   0.016  -4.997  0.00  0.00     0.138 A 
ATOM      3  C   LIG d   1       7.898   0.747  -3.954  0.00  0.00    -0.018 A 
ATOM      4  C   LIG d   1       6.769   0.301  -3.329  0.00  0.00    -0.047 A 
ATOM      5  H   LIG d   1       8.354   1.674  -3.640  0.00  0.00     0.066 H 
ATOM      6  C   LIG d   1       6.174  -0.897  -3.738  0.00  0.00     0.021 A 
ATOM      7  H   LIG d   1       6.336   0.873  -2.522  0.00  0.00     0.063 H 
ATOM      8  C   LIG d   1       4.962  -1.400  -3.087  0.00  0.00    -0.030 A 
ATOM      9  C   LIG d   1       6.740  -1.640  -4.792  0.00  0.00     0.146 A 
ATOM     10  C   LIG d   1       4.434  -2.570  -3.530  0.00  0.00     0.027 A 
ATOM     11  C   LIG d   1       5.054  -3.262  -4.590  0.00  0.00     0.338 A 
ATOM     12  H   LIG d   1       3.541  -2.969  -3.070  0.00  0.00     0.069 H 
ATOM     13  O   LIG d   1       4.569  -4.310  -4.978  0.00  0.00    -0.245 OA
ATOM     14  O   LIG d   1       6.163  -2.796  -5.185  0.00  0.00    -0.422 OA
ATOM     15  C   LIG d   1       7.887  -1.172  -5.416  0.00  0.00     0.035 A 
BRANCH   8  16
ATOM     16  C   LIG d   1       4.321  -0.640  -1.954  0.00  0.00    -0.027 C 
ATOM     17  H   LIG d   1       3.966  -1.343  -1.201  0.00  0.00     0.031 H 
ATOM     18  H   LIG d   1       5.053   0.033  -1.508  0.00  0.00     0.031 H 
BRANCH  16  19
ATOM     19  C   LIG d   1       3.141   0.173  -2.490  0.00  0.00    -0.052 C 
ATOM     20  H   LIG d   1       2.826  -0.233  -3.451  0.00  0.00     0.027 H 
ATOM     21  H   LIG d   1       2.312   0.119  -1.784  0.00  0.00     0.027 H 
BRANCH  19  22
ATOM     22  C   LIG d   1       3.566   1.633  -2.666  0.00  0.00    -0.065 C 
ATOM     23  H   LIG d   1       3.640   2.110  -1.690  0.00  0.00     0.023 H 
ATOM     24  H   LIG d   1       4.535   1.671  -3.164  0.00  0.00     0.023 H 
ATOM     25  H   LIG d   1       2.825   2.156  -3.271  0.00  0.00     0.023 H 
ENDBRANCH  19  22
ENDBRANCH  16  19
ENDBRANCH   8  16
BRANCH  15  26
ATOM     26  C   LIG d   1       8.505  -1.955  -6.545  0.00  0.00    -0.033 C 
ATOM     27  H   LIG d   1       8.737  -1.282  -7.370  0.00  0.00     0.028 H 
ATOM     28  H   LIG d   1       9.421  -2.432  -6.196  0.00  0.00     0.028 H 
ATOM     29  H   LIG d   1       7.804  -2.718  -6.885  0.00  0.00     0.028 H 
ENDBRANCH  15  26
ENDBRANCH   1   2
BRANCH   1  30
ATOM     30  C   LIG d   1       9.561   1.737  -6.061  0.00  0.00     0.312 C 
ATOM     31  O   LIG d   1      10.401   2.525  -5.699  0.00  0.00    -0.250 OA
BRANCH  30  32
ATOM     32  C   LIG d   1       8.485   2.171  -7.024  0.00  0.00     0.047 C 
ATOM     33  H   LIG d   1       7.518   1.805  -6.678  0.00  0.00     0.038 H 
ATOM     34  H   LIG d   1       8.463   3.259  -7.079  0.00  0.00     0.038 H 
BRANCH  32  35
ATOM     35  C   LIG d   1       8.781   1.596  -8.410  0.00  0.00    -0.027 C 
ATOM     36  H   LIG d   1       9.536   2.208  -8.904  0.00  0.00     0.029 H 
ATOM     37  H   LIG d   1       9.149   0.575  -8.310  0.00  0.00     0.029 H 
BRANCH  35  38
ATOM     38  C   LIG d   1       7.499   1.596  -9.247  0.00  0.00     0.015 C 
ATOM     39  H   LIG d   1       7.460   2.501  -9.852  0.00  0.00     0.046 H 
ATOM     40  H   LIG d   1       7.491   0.722  -9.898  0.00  0.00     0.046 H 
BRANCH  38  41
ATOM     41  N   LIG d   1       6.336   1.553  -8.358  0.00  0.00    -0.281 N 
ATOM     42  C   LIG d   1       5.091   1.560  -8.876  0.00  0.00     0.401 C 
ATOM     43  O   LIG d   1       4.934   1.602 -10.079  0.00  0.00    -0.227 OA
ATOM     44  H   LIG d   1       6.460   1.519  -7.396  0.00  0.00     0.152 HD
BRANCH  42  45
ATOM     45  O   LIG d   1       4.022   1.521  -8.058  0.00  0.00    -0.445 OA
BRANCH  45  46
ATOM     46  C   LIG d   1       3.524   0.208  -7.689  0.00  0.00     0.107 C 
BRANCH  46  47
ATOM     47  C   LIG d   1       4.659  -0.814  -7.782  0.00  0.00    -0.025 C 
ATOM     48  H   LIG d   1       5.607  -0.325  -7.559  0.00  0.00     0.027 H 
ATOM     49  H   LIG d   1       4.486  -1.616  -7.065  0.00  0.00     0.027 H 
ATOM     50  H   LIG d   1       4.693  -1.228  -8.790  0.00  0.00     0.027 H 
ENDBRANCH  46  47
BRANCH  46  51
ATOM     51  C   LIG d   1       2.992   0.249  -6.255  0.00  0.00    -0.025 C 
ATOM     52  H   LIG d   1       1.928   0.488  -6.268  0.00  0.00     0.027 H 
ATOM     53  H   LIG d   1       3.139  -0.723  -5.785  0.00  0.00     0.027 H 
ATOM     54  H   LIG d   1       3.528   1.012  -5.690  0.00  0.00     0.027 H 
ENDBRANCH  46  51
BRANCH  46  55
ATOM     55  C   LIG d   1       2.395  -0.195  -8.639  0.00  0.00    -0.025 C 
ATOM     56  H   LIG d   1       2.818  -0.672  -9.525  0.00  0.00     0.027 H 
ATOM     57  H   LIG d   1       1.727  -0.894  -8.136  0.00  0.00     0.027 H 
ATOM     58  H   LIG d   1       1.835   0.692  -8.937  0.00  0.00     0.027 H 
ENDBRANCH  46  55
ENDBRANCH  45  46
ENDBRANCH  42  45
ENDBRANCH  38  41
ENDBRANCH  35  38
ENDBRANCH  32  35
ENDBRANCH  30  32
ENDBRANCH   1  30
TORSDOF 15
ENDMDL
MODEL 2
REMARK VINA RESULT:      -5.7      2.560      4.673
REMARK  15 active torsions:
REMARK  status: ('A' for Active; 'I' for Inactive)
REMARK    1  A    between atoms: C_1  and  C_2 
REMARK    2  A    between atoms: C_2  and  C_3 
REMARK    3  A    between atoms: C_3  and  C_4 
REMARK    4  A    between atoms: C_13  and  O_16 
REMARK    5  A    between atoms: C_14  and  C_15 
REMARK    6  A    between atoms: O_16  and  C_17 
REMARK    7  A    between atoms: C_17  and  C_19 
REMARK    8  A    between atoms: C_19  and  C_20 
REMARK    9  A    between atoms: C_20  and  C_21 
REMARK   10  A    between atoms: C_21  and  N_22 
REMARK       I    between atoms: N_22  and  C_23 
REMARK   11  A    between atoms: C_23  and  O_25 
REMARK   12  A    between atoms: O_25  and  C_26 
REMARK   13  A    between atoms: C_26  and  C_27 
REMARK   14  A    between atoms: C_26  and  C_28 
REMARK   15  A    between atoms: C_26  and  C_29 
ROOT
ATOM      1  O   LIG d   1       5.530  -0.221  -2.196  0.00  0.00    -0.425 OA
ENDROOT
BRANCH   1   2
ATOM      2  C   LIG d   1       5.818  -1.160  -3.133  0.00  0.00     0.138 A 
ATOM      3  C   LIG d   1       6.982  -1.046  -3.890  0.00  0.00    -0.018 A 
ATOM      4  C   LIG d   1       7.287  -1.981  -4.836  0.00  0.00    -0.047 A 
ATOM      5  H   LIG d   1       7.651  -0.214  -3.724  0.00  0.00     0.066 H 
ATOM      6  C   LIG d   1       6.424  -3.062  -5.048  0.00  0.00     0.021 A 
ATOM      7  H   LIG d   1       8.191  -1.888  -5.419  0.00  0.00     0.063 H 
ATOM      8  C   LIG d   1       6.725  -4.081  -6.056  0.00  0.00    -0.030 A 
ATOM      9  C   LIG d   1       5.246  -3.183  -4.286  0.00  0.00     0.146 A 
ATOM     10  C   LIG d   1       5.847  -5.106  -6.214  0.00  0.00     0.027 A 
ATOM     11  C   LIG d   1       4.685  -5.164  -5.417  0.00  0.00     0.338 A 
ATOM     12  H   LIG d   1       6.038  -5.874  -6.950  0.00  0.00     0.069 H 
ATOM     13  O   LIG d   1       3.907  -6.088  -5.569  0.00  0.00    -0.245 OA
ATOM     14  O   LIG d   1       4.416  -4.228  -4.494  0.00  0.00    -0.422 OA
ATOM     15  C   LIG d   1       4.953  -2.223  -3.329  0.00  0.00     0.035 A 
BRANCH   8  16
ATOM     16  C   LIG d   1       7.973  -3.994  -6.896  0.00  0.00    -0.027 C 
ATOM     17  H   LIG d   1       8.664  -3.282  -6.446  0.00  0.00     0.031 H 
ATOM     18  H   LIG d   1       8.445  -4.975  -6.949  0.00  0.00     0.031 H 
BRANCH  16  19
ATOM     19  C   LIG d   1       7.606  -3.529  -8.306  0.00  0.00    -0.052 C 
ATOM     20  H   LIG d   1       7.886  -4.296  -9.027  0.00  0.00     0.027 H 
ATOM     21  H   LIG d   1       6.532  -3.353  -8.364  0.00  0.00     0.027 H 
BRANCH  19  22
ATOM     22  C   LIG d   1       8.352  -2.231  -8.625  0.00  0.00    -0.065 C 
ATOM     23  H   LIG d   1       8.122  -1.920  -9.643  0.00  0.00     0.023 H 
ATOM     24  H   LIG d   1       8.042  -1.454  -7.928  0.00  0.00     0.023 H 
ATOM     25  H   LIG d   1       9.426  -2.397  -8.531  0.00  0.00     0.023 H 
ENDBRANCH  19  22
ENDBRANCH  16  19
ENDBRANCH   8  16
BRANCH  15  26
ATOM     26  C   LIG d   1       3.696  -2.338  -2.506  0.00  0.00    -0.033 C 
ATOM     27  H   LIG d   1       3.577  -1.440  -1.898  0.00  0.00     0.028 H 
ATOM     28  H   LIG d   1       2.837  -2.445  -3.168  0.00  0.00     0.028 H 
ATOM     29  H   LIG d   1       3.765  -3.210  -1.856  0.00  0.00     0.028 H 
ENDBRANCH  15  26
ENDBRANCH   1   2
BRANCH   1  30
ATOM     30  C   LIG d   1       5.174   0.996  -2.642  0.00  0.00     0.312 C 
ATOM     31  O   LIG d   1       6.000   1.724  -3.136  0.00  0.00    -0.250 OA
BRANCH  30  32
ATOM     32  C   LIG d   1       3.741   1.450  -2.525  0.00  0.00     0.047 C 
ATOM     33  H   LIG d   1       3.423   1.388  -1.485  0.00  0.00     0.038 H 
ATOM     34  H   LIG d   1       3.657   2.480  -2.870  0.00  0.00     0.038 H 
BRANCH  32  35
ATOM     35  C   LIG d   1       2.851   0.551  -3.385  0.00  0.00    -0.027 C 
ATOM     36  H   LIG d   1       3.294  -0.442  -3.453  0.00  0.00     0.029 H 
ATOM     37  H   LIG d   1       1.863   0.477  -2.931  0.00  0.00     0.029 H 
BRANCH  35  38
ATOM     38  C   LIG d   1       2.723   1.149  -4.787  0.00  0.00     0.015 C 
ATOM     39  H   LIG d   1       1.820   1.757  -4.843  0.00  0.00     0.046 H 
ATOM     40  H   LIG d   1       3.594   1.772  -4.997  0.00  0.00     0.046 H 
BRANCH  38  41
ATOM     41  N   LIG d   1       2.648   0.069  -5.774  0.00  0.00    -0.281 N 
ATOM     42  C   LIG d   1       2.815   0.341  -7.084  0.00  0.00     0.401 C 
ATOM     43  O   LIG d   1       3.029   1.480  -7.446  0.00  0.00    -0.227 OA
ATOM     44  H   LIG d   1       2.477  -0.841  -5.485  0.00  0.00     0.152 HD
BRANCH  42  45
ATOM     45  O   LIG d   1       2.745  -0.652  -7.991  0.00  0.00    -0.445 OA
BRANCH  45  46
ATOM     46  C   LIG d   1       3.998  -1.263  -8.396  0.00  0.00     0.107 C 
BRANCH  46  47
ATOM     47  C   LIG d   1       5.139  -0.701  -7.546  0.00  0.00    -0.025 C 
ATOM     48  H   LIG d   1       4.746   0.052  -6.863  0.00  0.00     0.027 H 
ATOM     49  H   LIG d   1       5.597  -1.507  -6.973  0.00  0.00     0.027 H 
ATOM     50  H   LIG d   1       5.887  -0.246  -8.195  0.00  0.00     0.027 H 
ENDBRANCH  46  47
BRANCH  46  51
ATOM     51  C   LIG d   1       3.915  -2.778  -8.199  0.00  0.00    -0.025 C 
ATOM     52  H   LIG d   1       3.035  -3.019  -7.601  0.00  0.00     0.027 H 
ATOM     53  H   LIG d   1       3.838  -3.267  -9.170  0.00  0.00     0.027 H 
ATOM     54  H   LIG d   1       4.810  -3.128  -7.685  0.00  0.00     0.027 H 
ENDBRANCH  46  51
BRANCH  46  55
ATOM     55  C   LIG d   1       4.262  -0.955  -9.871  0.00  0.00    -0.025 C 
ATOM     56  H   LIG d   1       3.314  -0.908 -10.408  0.00  0.00     0.027 H 
ATOM     57  H   LIG d   1       4.776   0.002  -9.958  0.00  0.00     0.027 H 
ATOM     58  H   LIG d   1       4.884  -1.741 -10.301  0.00  0.00     0.027 H 
ENDBRANCH  46  55
ENDBRANCH  45  46
ENDBRANCH  42  45
ENDBRANCH  38  41
ENDBRANCH  35  38
ENDBRANCH  32  35
ENDBRANCH  30  32
ENDBRANCH   1  30
TORSDOF 15
ENDMDL
MODEL 3
REMARK VINA RESULT:      -5.6      3.039      6.908
REMARK  15 active torsions:
REMARK  status: ('A' for Active; 'I' for Inactive)
REMARK    1  A    between atoms: C_1  and  C_2 
REMARK    2  A    between atoms: C_2  and  C_3 
REMARK    3  A    between atoms: C_3  and  C_4 
REMARK    4  A    between atoms: C_13  and  O_16 
REMARK    5  A    between atoms: C_14  and  C_15 
REMARK    6  A    between atoms: O_16  and  C_17 
REMARK    7  A    between atoms: C_17  and  C_19 
REMARK    8  A    between atoms: C_19  and  C_20 
REMARK    9  A    between atoms: C_20  and  C_21 
REMARK   10  A    between atoms: C_21  and  N_22 
REMARK       I    between atoms: N_22  and  C_23 
REMARK   11  A    between atoms: C_23  and  O_25 
REMARK   12  A    between atoms: O_25  and  C_26 
REMARK   13  A    between atoms: C_26  and  C_27 
REMARK   14  A    between atoms: C_26  and  C_28 
REMARK   15  A    between atoms: C_26  and  C_29 
ROOT
ATOM      1  O   LIG d   1       4.794  -4.742  -7.645  0.00  0.00    -0.425 OA
ENDROOT
BRANCH   1   2
ATOM      2  C   LIG d   1       4.211  -3.583  -8.046  0.00  0.00     0.138 A 
ATOM      3  C   LIG d   1       4.475  -2.402  -7.355  0.00  0.00    -0.018 A 
ATOM      4  C   LIG d   1       3.898  -1.229  -7.746  0.00  0.00    -0.047 A 
ATOM      5  H   LIG d   1       5.145  -2.414  -6.508  0.00  0.00     0.066 H 
ATOM      6  C   LIG d   1       3.034  -1.211  -8.846  0.00  0.00     0.021 A 
ATOM      7  H   LIG d   1       4.107  -0.316  -7.207  0.00  0.00     0.063 H 
ATOM      8  C   LIG d   1       2.400   0.033  -9.288  0.00  0.00    -0.030 A 
ATOM      9  C   LIG d   1       2.763  -2.402  -9.548  0.00  0.00     0.146 A 
ATOM     10  C   LIG d   1       1.570  -0.017 -10.363  0.00  0.00     0.027 A 
ATOM     11  C   LIG d   1       1.344  -1.244 -11.018  0.00  0.00     0.338 A 
ATOM     12  H   LIG d   1       1.085   0.883 -10.714  0.00  0.00     0.069 H 
ATOM     13  O   LIG d   1       0.599  -1.273 -11.982  0.00  0.00    -0.245 OA
ATOM     14  O   LIG d   1       1.929  -2.381 -10.610  0.00  0.00    -0.422 OA
ATOM     15  C   LIG d   1       3.360  -3.584  -9.138  0.00  0.00     0.035 A 
BRANCH   8  16
ATOM     16  C   LIG d   1       2.658   1.331  -8.568  0.00  0.00    -0.027 C 
ATOM     17  H   LIG d   1       1.708   1.785  -8.286  0.00  0.00     0.031 H 
ATOM     18  H   LIG d   1       3.249   1.139  -7.673  0.00  0.00     0.031 H 
BRANCH  16  19
ATOM     19  C   LIG d   1       3.424   2.281  -9.490  0.00  0.00    -0.052 C 
ATOM     20  H   LIG d   1       3.131   2.100 -10.524  0.00  0.00     0.027 H 
ATOM     21  H   LIG d   1       3.193   3.313  -9.224  0.00  0.00     0.027 H 
BRANCH  19  22
ATOM     22  C   LIG d   1       4.927   2.040  -9.336  0.00  0.00    -0.065 C 
ATOM     23  H   LIG d   1       5.095   1.246  -8.610  0.00  0.00     0.023 H 
ATOM     24  H   LIG d   1       5.349   1.749 -10.297  0.00  0.00     0.023 H 
ATOM     25  H   LIG d   1       5.409   2.956  -8.990  0.00  0.00     0.023 H 
ENDBRANCH  19  22
ENDBRANCH  16  19
ENDBRANCH   8  16
BRANCH  15  26
ATOM     26  C   LIG d   1       3.080  -4.867  -9.878  0.00  0.00    -0.033 C 
ATOM     27  H   LIG d   1       3.103  -4.679 -10.951  0.00  0.00     0.028 H 
ATOM     28  H   LIG d   1       3.840  -5.606  -9.622  0.00  0.00     0.028 H 
ATOM     29  H   LIG d   1       2.097  -5.243  -9.595  0.00  0.00     0.028 H 
ENDBRANCH  15  26
ENDBRANCH   1   2
BRANCH   1  30
ATOM     30  C   LIG d   1       4.488  -5.183  -6.413  0.00  0.00     0.312 C 
ATOM     31  O   LIG d   1       3.333  -5.320  -6.090  0.00  0.00    -0.250 OA
BRANCH  30  32
ATOM     32  C   LIG d   1       5.588  -5.509  -5.436  0.00  0.00     0.047 C 
ATOM     33  H   LIG d   1       5.251  -5.293  -4.423  0.00  0.00     0.038 H 
ATOM     34  H   LIG d   1       5.847  -6.564  -5.517  0.00  0.00     0.038 H 
BRANCH  32  35
ATOM     35  C   LIG d   1       6.820  -4.658  -5.754  0.00  0.00    -0.027 C 
ATOM     36  H   LIG d   1       7.694  -5.302  -5.845  0.00  0.00     0.029 H 
ATOM     37  H   LIG d   1       6.662  -4.125  -6.691  0.00  0.00     0.029 H 
BRANCH  35  38
ATOM     38  C   LIG d   1       7.047  -3.649  -4.626  0.00  0.00     0.015 C 
ATOM     39  H   LIG d   1       6.979  -4.157  -3.664  0.00  0.00     0.046 H 
ATOM     40  H   LIG d   1       8.037  -3.203  -4.732  0.00  0.00     0.046 H 
BRANCH  38  41
ATOM     41  N   LIG d   1       6.029  -2.598  -4.697  0.00  0.00    -0.281 N 
ATOM     42  C   LIG d   1       6.103  -1.530  -3.877  0.00  0.00     0.401 C 
ATOM     43  O   LIG d   1       7.015  -1.439  -3.081  0.00  0.00    -0.227 OA
ATOM     44  H   LIG d   1       5.300  -2.671  -5.334  0.00  0.00     0.152 HD
BRANCH  42  45
ATOM     45  O   LIG d   1       5.167  -0.565  -3.943  0.00  0.00    -0.445 OA
BRANCH  45  46
ATOM     46  C   LIG d   1       4.093  -0.622  -2.967  0.00  0.00     0.107 C 
BRANCH  46  47
ATOM     47  C   LIG d   1       2.772  -0.241  -3.638  0.00  0.00    -0.025 C 
ATOM     48  H   LIG d   1       1.980  -0.896  -3.276  0.00  0.00     0.027 H 
ATOM     49  H   LIG d   1       2.527   0.793  -3.398  0.00  0.00     0.027 H 
ATOM     50  H   LIG d   1       2.868  -0.351  -4.718  0.00  0.00     0.027 H 
ENDBRANCH  46  47
BRANCH  46  51
ATOM     51  C   LIG d   1       3.989  -2.041  -2.405  0.00  0.00    -0.025 C 
ATOM     52  H   LIG d   1       4.481  -2.738  -3.085  0.00  0.00     0.027 H 
ATOM     53  H   LIG d   1       4.475  -2.083  -1.430  0.00  0.00     0.027 H 
ATOM     54  H   LIG d   1       2.939  -2.315  -2.302  0.00  0.00     0.027 H 
ENDBRANCH  46  51
BRANCH  46  55
ATOM     55  C   LIG d   1       4.387   0.356  -1.828  0.00  0.00    -0.025 C 
ATOM     56  H   LIG d   1       4.856  -0.179  -1.001  0.00  0.00     0.027 H 
ATOM     57  H   LIG d   1       5.061   1.136  -2.183  0.00  0.00     0.027 H 
ATOM     58  H   LIG d   1       3.456   0.808  -1.487  0.00  0.00     0.027 H 
ENDBRANCH  46  55
ENDBRANCH  45  46
ENDBRANCH  42  45
ENDBRANCH  38  41
ENDBRANCH  35  38
ENDBRANCH  32  35
ENDBRANCH  30  32
ENDBRANCH   1  30
TORSDOF 15
ENDMDL
MODEL 4
REMARK VINA RESULT:      -5.6      2.263      4.860
REMARK  15 active torsions:
REMARK  status: ('A' for Active; 'I' for Inactive)
REMARK    1  A    between atoms: C_1  and  C_2 
REMARK    2  A    between atoms: C_2  and  C_3 
REMARK    3  A    between atoms: C_3  and  C_4 
REMARK    4  A    between atoms: C_13  and  O_16 
REMARK    5  A    between atoms: C_14  and  C_15 
REMARK    6  A    between atoms: O_16  and  C_17 
REMARK    7  A    between atoms: C_17  and  C_19 
REMARK    8  A    between atoms: C_19  and  C_20 
REMARK    9  A    between atoms: C_20  and  C_21 
REMARK   10  A    between atoms: C_21  and  N_22 
REMARK       I    between atoms: N_22  and  C_23 
REMARK   11  A    between atoms: C_23  and  O_25 
REMARK   12  A    between atoms: O_25  and  C_26 
REMARK   13  A    between atoms: C_26  and  C_27 
REMARK   14  A    between atoms: C_26  and  C_28 
REMARK   15  A    between atoms: C_26  and  C_29 
ROOT
ATOM      1  O   LIG d   1       5.450  -4.805  -5.471  0.00  0.00    -0.425 OA
ENDROOT
BRANCH   1   2
ATOM      2  C   LIG d   1       5.502  -3.596  -4.857  0.00  0.00     0.138 A 
ATOM      3  C   LIG d   1       4.506  -3.239  -3.949  0.00  0.00    -0.018 A 
ATOM      4  C   LIG d   1       4.543  -2.028  -3.323  0.00  0.00    -0.047 A 
ATOM      5  H   LIG d   1       3.702  -3.929  -3.737  0.00  0.00     0.066 H 
ATOM      6  C   LIG d   1       5.587  -1.136  -3.594  0.00  0.00     0.021 A 
ATOM      7  H   LIG d   1       3.769  -1.757  -2.620  0.00  0.00     0.063 H 
ATOM      8  C   LIG d   1       5.653   0.171  -2.937  0.00  0.00    -0.030 A 
ATOM      9  C   LIG d   1       6.596  -1.491  -4.510  0.00  0.00     0.146 A 
ATOM     10  C   LIG d   1       6.692   0.992  -3.244  0.00  0.00     0.027 A 
ATOM     11  C   LIG d   1       7.667   0.572  -4.171  0.00  0.00     0.338 A 
ATOM     12  H   LIG d   1       6.769   1.964  -2.777  0.00  0.00     0.069 H 
ATOM     13  O   LIG d   1       8.593   1.317  -4.435  0.00  0.00    -0.245 OA
ATOM     14  O   LIG d   1       7.602  -0.628  -4.769  0.00  0.00    -0.422 OA
ATOM     15  C   LIG d   1       6.542  -2.727  -5.136  0.00  0.00     0.035 A 
BRANCH   8  16
ATOM     16  C   LIG d   1       4.596   0.596  -1.950  0.00  0.00    -0.027 C 
ATOM     17  H   LIG d   1       3.983  -0.265  -1.683  0.00  0.00     0.031 H 
ATOM     18  H   LIG d   1       5.073   0.994  -1.055  0.00  0.00     0.031 H 
BRANCH  16  19
ATOM     19  C   LIG d   1       3.714   1.675  -2.581  0.00  0.00    -0.052 C 
ATOM     20  H   LIG d   1       2.985   2.022  -1.850  0.00  0.00     0.027 H 
ATOM     21  H   LIG d   1       4.335   2.512  -2.900  0.00  0.00     0.027 H 
BRANCH  19  22
ATOM     22  C   LIG d   1       2.984   1.091  -3.793  0.00  0.00    -0.065 C 
ATOM     23  H   LIG d   1       1.987   1.525  -3.861  0.00  0.00     0.023 H 
ATOM     24  H   LIG d   1       3.544   1.322  -4.699  0.00  0.00     0.023 H 
ATOM     25  H   LIG d   1       2.902   0.009  -3.682  0.00  0.00     0.023 H 
ENDBRANCH  19  22
ENDBRANCH  16  19
ENDBRANCH   8  16
BRANCH  15  26
ATOM     26  C   LIG d   1       7.614  -3.121  -6.120  0.00  0.00    -0.033 C 
ATOM     27  H   LIG d   1       8.434  -3.606  -5.589  0.00  0.00     0.028 H 
ATOM     28  H   LIG d   1       7.197  -3.812  -6.852  0.00  0.00     0.028 H 
ATOM     29  H   LIG d   1       7.986  -2.232  -6.628  0.00  0.00     0.028 H 
ENDBRANCH  15  26
ENDBRANCH   1   2
BRANCH   1  30
ATOM     30  C   LIG d   1       4.433  -5.013  -6.323  0.00  0.00     0.312 C 
ATOM     31  O   LIG d   1       3.557  -5.795  -6.040  0.00  0.00    -0.250 OA
BRANCH  30  32
ATOM     32  C   LIG d   1       4.384  -4.269  -7.633  0.00  0.00     0.047 C 
ATOM     33  H   LIG d   1       4.025  -3.254  -7.462  0.00  0.00     0.038 H 
ATOM     34  H   LIG d   1       5.382  -4.232  -8.069  0.00  0.00     0.038 H 
BRANCH  32  35
ATOM     35  C   LIG d   1       3.435  -4.989  -8.593  0.00  0.00    -0.027 C 
ATOM     36  H   LIG d   1       3.991  -5.732  -9.164  0.00  0.00     0.029 H 
ATOM     37  H   LIG d   1       2.647  -5.483  -8.024  0.00  0.00     0.029 H 
BRANCH  35  38
ATOM     38  C   LIG d   1       2.811  -3.973  -9.552  0.00  0.00     0.015 C 
ATOM     39  H   LIG d   1       3.487  -3.799 -10.388  0.00  0.00     0.046 H 
ATOM     40  H   LIG d   1       1.862  -4.361  -9.925  0.00  0.00     0.046 H 
BRANCH  38  41
ATOM     41  N   LIG d   1       2.577  -2.712  -8.843  0.00  0.00    -0.281 N 
ATOM     42  C   LIG d   1       2.228  -1.606  -9.532  0.00  0.00     0.401 C 
ATOM     43  O   LIG d   1       2.107  -1.656 -10.739  0.00  0.00    -0.227 OA
ATOM     44  H   LIG d   1       2.672  -2.673  -7.878  0.00  0.00     0.152 HD
BRANCH  42  45
ATOM     45  O   LIG d   1       2.013  -0.448  -8.880  0.00  0.00    -0.445 OA
BRANCH  45  46
ATOM     46  C   LIG d   1       3.186   0.295  -8.455  0.00  0.00     0.107 C 
BRANCH  46  47
ATOM     47  C   LIG d   1       3.641  -0.208  -7.084  0.00  0.00    -0.025 C 
ATOM     48  H   LIG d   1       2.792  -0.645  -6.558  0.00  0.00     0.027 H 
ATOM     49  H   LIG d   1       4.417  -0.963  -7.213  0.00  0.00     0.027 H 
ATOM     50  H   LIG d   1       4.037   0.625  -6.504  0.00  0.00     0.027 H 
ENDBRANCH  46  47
BRANCH  46  51
ATOM     51  C   LIG d   1       4.312   0.095  -9.471  0.00  0.00    -0.025 C 
ATOM     52  H   LIG d   1       4.050  -0.718 -10.149  0.00  0.00     0.027 H 
ATOM     53  H   LIG d   1       4.454   1.013 -10.042  0.00  0.00     0.027 H 
ATOM     54  H   LIG d   1       5.235  -0.153  -8.947  0.00  0.00     0.027 H 
ENDBRANCH  46  51
BRANCH  46  55
ATOM     55  C   LIG d   1       2.841   1.783  -8.364  0.00  0.00    -0.025 C 
ATOM     56  H   LIG d   1       2.782   2.205  -9.368  0.00  0.00     0.027 H 
ATOM     57  H   LIG d   1       1.881   1.904  -7.863  0.00  0.00     0.027 H 
ATOM     58  H   LIG d   1       3.614   2.302  -7.797  0.00  0.00     0.027 H 
ENDBRANCH  46  55
ENDBRANCH  45  46
ENDBRANCH  42  45
ENDBRANCH  38  41
ENDBRANCH  35  38
ENDBRANCH  32  35
ENDBRANCH  30  32
ENDBRANCH   1  30
TORSDOF 15
ENDMDL
MODEL 5
REMARK VINA RESULT:      -5.5      2.989      5.424
REMARK  15 active torsions:
REMARK  status: ('A' for Active; 'I' for Inactive)
REMARK    1  A    between atoms: C_1  and  C_2 
REMARK    2  A    between atoms: C_2  and  C_3 
REMARK    3  A    between atoms: C_3  and  C_4 
REMARK    4  A    between atoms: C_13  and  O_16 
REMARK    5  A    between atoms: C_14  and  C_15 
REMARK    6  A    between atoms: O_16  and  C_17 
REMARK    7  A    between atoms: C_17  and  C_19 
REMARK    8  A    between atoms: C_19  and  C_20 
REMARK    9  A    between atoms: C_20  and  C_21 
REMARK   10  A    between atoms: C_21  and  N_22 
REMARK       I    between atoms: N_22  and  C_23 
REMARK   11  A    between atoms: C_23  and  O_25 
REMARK   12  A    between atoms: O_25  and  C_26 
REMARK   13  A    between atoms: C_26  and  C_27 
REMARK   14  A    between atoms: C_26  and  C_28 
REMARK   15  A    between atoms: C_26  and  C_29 
ROOT
ATOM      1  O   LIG d   1       4.193  -1.228 -10.644  0.00  0.00    -0.425 OA
ENDROOT
BRANCH   1   2
ATOM      2  C   LIG d   1       4.718  -1.714  -9.491  0.00  0.00     0.138 A 
ATOM      3  C   LIG d   1       5.881  -1.151  -8.970  0.00  0.00    -0.018 A 
ATOM      4  C   LIG d   1       6.421  -1.629  -7.812  0.00  0.00    -0.047 A 
ATOM      5  H   LIG d   1       6.355  -0.328  -9.484  0.00  0.00     0.066 H 
ATOM      6  C   LIG d   1       5.804  -2.691  -7.142  0.00  0.00     0.021 A 
ATOM      7  H   LIG d   1       7.323  -1.188  -7.412  0.00  0.00     0.063 H 
ATOM      8  C   LIG d   1       6.362  -3.225  -5.897  0.00  0.00    -0.030 A 
ATOM      9  C   LIG d   1       4.629  -3.265  -7.664  0.00  0.00     0.146 A 
ATOM     10  C   LIG d   1       5.716  -4.258  -5.297  0.00  0.00     0.027 A 
ATOM     11  C   LIG d   1       4.543  -4.784  -5.875  0.00  0.00     0.338 A 
ATOM     12  H   LIG d   1       6.102  -4.676  -4.377  0.00  0.00     0.069 H 
ATOM     13  O   LIG d   1       3.974  -5.709  -5.325  0.00  0.00    -0.245 OA
ATOM     14  O   LIG d   1       4.036  -4.290  -7.015  0.00  0.00    -0.422 OA
ATOM     15  C   LIG d   1       4.093  -2.766  -8.842  0.00  0.00     0.035 A 
BRANCH   8  16
ATOM     16  C   LIG d   1       7.619  -2.645  -5.301  0.00  0.00    -0.027 C 
ATOM     17  H   LIG d   1       8.488  -3.082  -5.792  0.00  0.00     0.031 H 
ATOM     18  H   LIG d   1       7.624  -1.565  -5.445  0.00  0.00     0.031 H 
BRANCH  16  19
ATOM     19  C   LIG d   1       7.665  -2.960  -3.805  0.00  0.00    -0.052 C 
ATOM     20  H   LIG d   1       7.636  -2.031  -3.236  0.00  0.00     0.027 H 
ATOM     21  H   LIG d   1       6.807  -3.577  -3.536  0.00  0.00     0.027 H 
BRANCH  19  22
ATOM     22  C   LIG d   1       8.956  -3.716  -3.483  0.00  0.00    -0.065 C 
ATOM     23  H   LIG d   1       9.695  -3.521  -4.259  0.00  0.00     0.023 H 
ATOM     24  H   LIG d   1       9.342  -3.382  -2.521  0.00  0.00     0.023 H 
ATOM     25  H   LIG d   1       8.749  -4.786  -3.440  0.00  0.00     0.023 H 
ENDBRANCH  19  22
ENDBRANCH  16  19
ENDBRANCH   8  16
BRANCH  15  26
ATOM     26  C   LIG d   1       2.836  -3.368  -9.414  0.00  0.00    -0.033 C 
ATOM     27  H   LIG d   1       2.512  -4.198  -8.786  0.00  0.00     0.028 H 
ATOM     28  H   LIG d   1       2.053  -2.610  -9.447  0.00  0.00     0.028 H 
ATOM     29  H   LIG d   1       3.033  -3.731 -10.422  0.00  0.00     0.028 H 
ENDBRANCH  15  26
ENDBRANCH   1   2
BRANCH   1  30
ATOM     30  C   LIG d   1       3.710   0.026 -10.613  0.00  0.00     0.312 C 
ATOM     31  O   LIG d   1       4.244   0.896 -11.257  0.00  0.00    -0.250 OA
BRANCH  30  32
ATOM     32  C   LIG d   1       2.499   0.345  -9.773  0.00  0.00     0.047 C 
ATOM     33  H   LIG d   1       1.821   0.982 -10.340  0.00  0.00     0.038 H 
ATOM     34  H   LIG d   1       1.989  -0.580  -9.504  0.00  0.00     0.038 H 
BRANCH  32  35
ATOM     35  C   LIG d   1       2.939   1.073  -8.502  0.00  0.00    -0.027 C 
ATOM     36  H   LIG d   1       4.011   1.266  -8.546  0.00  0.00     0.029 H 
ATOM     37  H   LIG d   1       2.403   2.018  -8.420  0.00  0.00     0.029 H 
BRANCH  35  38
ATOM     38  C   LIG d   1       2.628   0.203  -7.282  0.00  0.00     0.015 C 
ATOM     39  H   LIG d   1       1.551   0.165  -7.128  0.00  0.00     0.046 H 
ATOM     40  H   LIG d   1       3.007  -0.806  -7.450  0.00  0.00     0.046 H 
BRANCH  38  41
ATOM     41  N   LIG d   1       3.272   0.775  -6.097  0.00  0.00    -0.281 N 
ATOM     42  C   LIG d   1       2.710   0.616  -4.882  0.00  0.00     0.401 C 
ATOM     43  O   LIG d   1       1.671  -0.002  -4.770  0.00  0.00    -0.227 OA
ATOM     44  H   LIG d   1       4.103   1.268  -6.187  0.00  0.00     0.152 HD
BRANCH  42  45
ATOM     45  O   LIG d   1       3.302   1.142  -3.793  0.00  0.00    -0.445 OA
BRANCH  45  46
ATOM     46  C   LIG d   1       4.182   0.270  -3.036  0.00  0.00     0.107 C 
BRANCH  46  47
ATOM     47  C   LIG d   1       4.525   0.927  -1.698  0.00  0.00    -0.025 C 
ATOM     48  H   LIG d   1       4.059   0.365  -0.888  0.00  0.00     0.027 H 
ATOM     49  H   LIG d   1       5.606   0.932  -1.561  0.00  0.00     0.027 H 
ATOM     50  H   LIG d   1       4.152   1.951  -1.690  0.00  0.00     0.027 H 
ENDBRANCH  46  47
BRANCH  46  51
ATOM     51  C   LIG d   1       3.481  -1.066  -2.783  0.00  0.00    -0.025 C 
ATOM     52  H   LIG d   1       4.191  -1.775  -2.356  0.00  0.00     0.027 H 
ATOM     53  H   LIG d   1       2.655  -0.918  -2.087  0.00  0.00     0.027 H 
ATOM     54  H   LIG d   1       3.097  -1.460  -3.724  0.00  0.00     0.027 H 
ENDBRANCH  46  51
BRANCH  46  55
ATOM     55  C   LIG d   1       5.467   0.028  -3.830  0.00  0.00    -0.025 C 
ATOM     56  H   LIG d   1       5.345  -0.855  -4.459  0.00  0.00     0.027 H 
ATOM     57  H   LIG d   1       5.676   0.894  -4.457  0.00  0.00     0.027 H 
ATOM     58  H   LIG d   1       6.296  -0.130  -3.140  0.00  0.00     0.027 H 
ENDBRANCH  46  55
ENDBRANCH  45  46
ENDBRANCH  42  45
ENDBRANCH  38  41
ENDBRANCH  35  38
ENDBRANCH  32  35
ENDBRANCH  30  32
ENDBRANCH   1  30
TORSDOF 15
ENDMDL
MODEL 6
REMARK VINA RESULT:      -5.4      2.441      5.018
REMARK  15 active torsions:
REMARK  status: ('A' for Active; 'I' for Inactive)
REMARK    1  A    between atoms: C_1  and  C_2 
REMARK    2  A    between atoms: C_2  and  C_3 
REMARK    3  A    between atoms: C_3  and  C_4 
REMARK    4  A    between atoms: C_13  and  O_16 
REMARK    5  A    between atoms: C_14  and  C_15 
REMARK    6  A    between atoms: O_16  and  C_17 
REMARK    7  A    between atoms: C_17  and  C_19 
REMARK    8  A    between atoms: C_19  and  C_20 
REMARK    9  A    between atoms: C_20  and  C_21 
REMARK   10  A    between atoms: C_21  and  N_22 
REMARK       I    between atoms: N_22  and  C_23 
REMARK   11  A    between atoms: C_23  and  O_25 
REMARK   12  A    between atoms: O_25  and  C_26 
REMARK   13  A    between atoms: C_26  and  C_27 
REMARK   14  A    between atoms: C_26  and  C_28 
REMARK   15  A    between atoms: C_26  and  C_29 
ROOT
ATOM      1  O   LIG d   1       5.526   1.209  -3.476  0.00  0.00    -0.425 OA
ENDROOT
BRANCH   1   2
ATOM      2  C   LIG d   1       6.344   0.168  -3.774  0.00  0.00     0.138 A 
ATOM      3  C   LIG d   1       5.976  -1.126  -3.409  0.00  0.00    -0.018 A 
ATOM      4  C   LIG d   1       6.788  -2.183  -3.701  0.00  0.00    -0.047 A 
ATOM      5  H   LIG d   1       5.040  -1.293  -2.896  0.00  0.00     0.066 H 
ATOM      6  C   LIG d   1       7.997  -1.969  -4.370  0.00  0.00     0.021 A 
ATOM      7  H   LIG d   1       6.497  -3.184  -3.416  0.00  0.00     0.063 H 
ATOM      8  C   LIG d   1       8.888  -3.084  -4.697  0.00  0.00    -0.030 A 
ATOM      9  C   LIG d   1       8.375  -0.664  -4.741  0.00  0.00     0.146 A 
ATOM     10  C   LIG d   1      10.049  -2.809  -5.346  0.00  0.00     0.027 A 
ATOM     11  C   LIG d   1      10.364  -1.478  -5.687  0.00  0.00     0.338 A 
ATOM     12  H   LIG d   1      10.729  -3.610  -5.601  0.00  0.00     0.069 H 
ATOM     13  O   LIG d   1      11.407  -1.247  -6.271  0.00  0.00    -0.245 OA
ATOM     14  O   LIG d   1       9.543  -0.460  -5.387  0.00  0.00    -0.422 OA
ATOM     15  C   LIG d   1       7.538   0.399  -4.437  0.00  0.00     0.035 A 
BRANCH   8  16
ATOM     16  C   LIG d   1       8.528  -4.498  -4.319  0.00  0.00    -0.027 C 
ATOM     17  H   LIG d   1       7.588  -4.498  -3.769  0.00  0.00     0.031 H 
ATOM     18  H   LIG d   1       8.421  -5.100  -5.222  0.00  0.00     0.031 H 
BRANCH  16  19
ATOM     19  C   LIG d   1       9.633  -5.088  -3.441  0.00  0.00    -0.052 C 
ATOM     20  H   LIG d   1       9.440  -6.148  -3.276  0.00  0.00     0.027 H 
ATOM     21  H   LIG d   1      10.596  -4.968  -3.938  0.00  0.00     0.027 H 
BRANCH  19  22
ATOM     22  C   LIG d   1       9.659  -4.359  -2.096  0.00  0.00    -0.065 C 
ATOM     23  H   LIG d   1       8.786  -3.713  -2.016  0.00  0.00     0.023 H 
ATOM     24  H   LIG d   1       9.647  -5.089  -1.287  0.00  0.00     0.023 H 
ATOM     25  H   LIG d   1      10.565  -3.755  -2.028  0.00  0.00     0.023 H 
ENDBRANCH  19  22
ENDBRANCH  16  19
ENDBRANCH   8  16
BRANCH  15  26
ATOM     26  C   LIG d   1       7.927   1.802  -4.827  0.00  0.00    -0.033 C 
ATOM     27  H   LIG d   1       8.983   1.959  -4.611  0.00  0.00     0.028 H 
ATOM     28  H   LIG d   1       7.748   1.945  -5.892  0.00  0.00     0.028 H 
ATOM     29  H   LIG d   1       7.329   2.515  -4.259  0.00  0.00     0.028 H 
ENDBRANCH  15  26
ENDBRANCH   1   2
BRANCH   1  30
ATOM     30  C   LIG d   1       4.648   1.028  -2.476  0.00  0.00     0.312 C 
ATOM     31  O   LIG d   1       5.001   1.169  -1.329  0.00  0.00    -0.250 OA
BRANCH  30  32
ATOM     32  C   LIG d   1       3.222   0.649  -2.785  0.00  0.00     0.047 C 
ATOM     33  H   LIG d   1       3.136  -0.436  -2.835  0.00  0.00     0.038 H 
ATOM     34  H   LIG d   1       2.567   1.030  -2.002  0.00  0.00     0.038 H 
BRANCH  32  35
ATOM     35  C   LIG d   1       2.815   1.255  -4.129  0.00  0.00    -0.027 C 
ATOM     36  H   LIG d   1       1.855   1.761  -4.024  0.00  0.00     0.029 H 
ATOM     37  H   LIG d   1       3.571   1.973  -4.449  0.00  0.00     0.029 H 
BRANCH  35  38
ATOM     38  C   LIG d   1       2.693   0.144  -5.174  0.00  0.00     0.015 C 
ATOM     39  H   LIG d   1       2.838  -0.823  -4.694  0.00  0.00     0.046 H 
ATOM     40  H   LIG d   1       1.701   0.179  -5.627  0.00  0.00     0.046 H 
BRANCH  38  41
ATOM     41  N   LIG d   1       3.710   0.334  -6.210  0.00  0.00    -0.281 N 
ATOM     42  C   LIG d   1       3.418   0.065  -7.499  0.00  0.00     0.401 C 
ATOM     43  O   LIG d   1       2.311  -0.334  -7.800  0.00  0.00    -0.227 OA
ATOM     44  H   LIG d   1       4.595   0.652  -5.970  0.00  0.00     0.152 HD
BRANCH  42  45
ATOM     45  O   LIG d   1       4.354   0.239  -8.451  0.00  0.00    -0.445 OA
BRANCH  45  46
ATOM     46  C   LIG d   1       4.288   1.468  -9.221  0.00  0.00     0.107 C 
BRANCH  46  47
ATOM     47  C   LIG d   1       5.624   2.207  -9.118  0.00  0.00    -0.025 C 
ATOM     48  H   LIG d   1       5.476   3.153  -8.597  0.00  0.00     0.027 H 
ATOM     49  H   LIG d   1       6.337   1.595  -8.565  0.00  0.00     0.027 H 
ATOM     50  H   LIG d   1       6.010   2.401 -10.118  0.00  0.00     0.027 H 
ENDBRANCH  46  47
BRANCH  46  51
ATOM     51  C   LIG d   1       4.002   1.137 -10.687  0.00  0.00    -0.025 C 
ATOM     52  H   LIG d   1       4.137   0.067 -10.852  0.00  0.00     0.027 H 
ATOM     53  H   LIG d   1       2.975   1.414 -10.929  0.00  0.00     0.027 H 
ATOM     54  H   LIG d   1       4.688   1.691 -11.327  0.00  0.00     0.027 H 
ENDBRANCH  46  51
BRANCH  46  55
ATOM     55  C   LIG d   1       3.170   2.355  -8.672  0.00  0.00    -0.025 C 
ATOM     56  H   LIG d   1       2.960   2.078  -7.638  0.00  0.00     0.027 H 
ATOM     57  H   LIG d   1       3.480   3.399  -8.711  0.00  0.00     0.027 H 
ATOM     58  H   LIG d   1       2.270   2.221  -9.273  0.00  0.00     0.027 H 
ENDBRANCH  46  55
ENDBRANCH  45  46
ENDBRANCH  42  45
ENDBRANCH  38  41
ENDBRANCH  35  38
ENDBRANCH  32  35
ENDBRANCH  30  32
ENDBRANCH   1  30
TORSDOF 15
ENDMDL
MODEL 7
REMARK VINA RESULT:      -5.3      5.204      7.697
REMARK  15 active torsions:
REMARK  status: ('A' for Active; 'I' for Inactive)
REMARK    1  A    between atoms: C_1  and  C_2 
REMARK    2  A    between atoms: C_2  and  C_3 
REMARK    3  A    between atoms: C_3  and  C_4 
REMARK    4  A    between atoms: C_13  and  O_16 
REMARK    5  A    between atoms: C_14  and  C_15 
REMARK    6  A    between atoms: O_16  and  C_17 
REMARK    7  A    between atoms: C_17  and  C_19 
REMARK    8  A    between atoms: C_19  and  C_20 
REMARK    9  A    between atoms: C_20  and  C_21 
REMARK   10  A    between atoms: C_21  and  N_22 
REMARK       I    between atoms: N_22  and  C_23 
REMARK   11  A    between atoms: C_23  and  O_25 
REMARK   12  A    between atoms: O_25  and  C_26 
REMARK   13  A    between atoms: C_26  and  C_27 
REMARK   14  A    between atoms: C_26  and  C_28 
REMARK   15  A    between atoms: C_26  and  C_29 
ROOT
ATOM      1  O   LIG d   1       7.370  -6.333  -6.790  0.00  0.00    -0.425 OA
ENDROOT
BRANCH   1   2
ATOM      2  C   LIG d   1       7.052  -7.244  -5.835  0.00  0.00     0.138 A 
ATOM      3  C   LIG d   1       8.045  -7.735  -4.991  0.00  0.00    -0.018 A 
ATOM      4  C   LIG d   1       7.741  -8.651  -4.026  0.00  0.00    -0.047 A 
ATOM      5  H   LIG d   1       9.061  -7.385  -5.098  0.00  0.00     0.066 H 
ATOM      6  C   LIG d   1       6.424  -9.101  -3.883  0.00  0.00     0.021 A 
ATOM      7  H   LIG d   1       8.516  -9.028  -3.373  0.00  0.00     0.063 H 
ATOM      8  C   LIG d   1       6.069 -10.083  -2.856  0.00  0.00    -0.030 A 
ATOM      9  C   LIG d   1       5.416  -8.608  -4.734  0.00  0.00     0.146 A 
ATOM     10  C   LIG d   1       4.772 -10.480  -2.770  0.00  0.00     0.027 A 
ATOM     11  C   LIG d   1       3.815  -9.945  -3.655  0.00  0.00     0.338 A 
ATOM     12  H   LIG d   1       4.477 -11.204  -2.024  0.00  0.00     0.069 H 
ATOM     13  O   LIG d   1       2.656 -10.309  -3.565  0.00  0.00    -0.245 OA
ATOM     14  O   LIG d   1       4.146  -9.044  -4.593  0.00  0.00    -0.422 OA
ATOM     15  C   LIG d   1       5.743  -7.677  -5.708  0.00  0.00     0.035 A 
BRANCH   8  16
ATOM     16  C   LIG d   1       7.114 -10.640  -1.923  0.00  0.00    -0.027 C 
ATOM     17  H   LIG d   1       7.805 -11.267  -2.486  0.00  0.00     0.031 H 
ATOM     18  H   LIG d   1       7.661  -9.819  -1.460  0.00  0.00     0.031 H 
BRANCH  16  19
ATOM     19  C   LIG d   1       6.433 -11.476  -0.838  0.00  0.00    -0.052 C 
ATOM     20  H   LIG d   1       6.543 -10.981   0.126  0.00  0.00     0.027 H 
ATOM     21  H   LIG d   1       5.374 -11.584  -1.072  0.00  0.00     0.027 H 
BRANCH  19  22
ATOM     22  C   LIG d   1       7.084 -12.860  -0.778  0.00  0.00    -0.065 C 
ATOM     23  H   LIG d   1       6.311 -13.627  -0.782  0.00  0.00     0.023 H 
ATOM     24  H   LIG d   1       7.733 -12.993  -1.644  0.00  0.00     0.023 H 
ATOM     25  H   LIG d   1       7.675 -12.944   0.135  0.00  0.00     0.023 H 
ENDBRANCH  19  22
ENDBRANCH  16  19
ENDBRANCH   8  16
BRANCH  15  26
ATOM     26  C   LIG d   1       4.676  -7.140  -6.627  0.00  0.00    -0.033 C 
ATOM     27  H   LIG d   1       3.702  -7.234  -6.147  0.00  0.00     0.028 H 
ATOM     28  H   LIG d   1       4.876  -6.090  -6.840  0.00  0.00     0.028 H 
ATOM     29  H   LIG d   1       4.678  -7.708  -7.558  0.00  0.00     0.028 H 
ENDBRANCH  15  26
ENDBRANCH   1   2
BRANCH   1  30
ATOM     30  C   LIG d   1       7.960  -5.199  -6.378  0.00  0.00     0.312 C 
ATOM     31  O   LIG d   1       9.091  -4.946  -6.720  0.00  0.00    -0.250 OA
BRANCH  30  32
ATOM     32  C   LIG d   1       7.209  -4.241  -5.489  0.00  0.00     0.047 C 
ATOM     33  H   LIG d   1       7.027  -3.311  -6.028  0.00  0.00     0.038 H 
ATOM     34  H   LIG d   1       6.258  -4.684  -5.196  0.00  0.00     0.038 H 
BRANCH  32  35
ATOM     35  C   LIG d   1       8.041  -3.949  -4.239  0.00  0.00    -0.027 C 
ATOM     36  H   LIG d   1       7.686  -4.566  -3.413  0.00  0.00     0.029 H 
ATOM     37  H   LIG d   1       9.089  -4.175  -4.437  0.00  0.00     0.029 H 
BRANCH  35  38
ATOM     38  C   LIG d   1       7.901  -2.471  -3.866  0.00  0.00     0.015 C 
ATOM     39  H   LIG d   1       8.174  -2.332  -2.821  0.00  0.00     0.046 H 
ATOM     40  H   LIG d   1       8.561  -1.873  -4.496  0.00  0.00     0.046 H 
BRANCH  38  41
ATOM     41  N   LIG d   1       6.514  -2.045  -4.070  0.00  0.00    -0.281 N 
ATOM     42  C   LIG d   1       6.148  -0.780  -3.780  0.00  0.00     0.401 C 
ATOM     43  O   LIG d   1       6.967   0.006  -3.350  0.00  0.00    -0.227 OA
ATOM     44  H   LIG d   1       5.859  -2.673  -4.414  0.00  0.00     0.152 HD
BRANCH  42  45
ATOM     45  O   LIG d   1       4.873  -0.390  -3.967  0.00  0.00    -0.445 OA
BRANCH  45  46
ATOM     46  C   LIG d   1       3.999  -0.416  -2.808  0.00  0.00     0.107 C 
BRANCH  46  47
ATOM     47  C   LIG d   1       4.429  -1.546  -1.870  0.00  0.00    -0.025 C 
ATOM     48  H   LIG d   1       5.461  -1.821  -2.083  0.00  0.00     0.027 H 
ATOM     49  H   LIG d   1       4.347  -1.211  -0.836  0.00  0.00     0.027 H 
ATOM     50  H   LIG d   1       3.784  -2.411  -2.024  0.00  0.00     0.027 H 
ENDBRANCH  46  47
BRANCH  46  51
ATOM     51  C   LIG d   1       4.090   0.921  -2.070  0.00  0.00    -0.025 C 
ATOM     52  H   LIG d   1       5.036   1.406  -2.312  0.00  0.00     0.027 H 
ATOM     53  H   LIG d   1       3.264   1.563  -2.378  0.00  0.00     0.027 H 
ATOM     54  H   LIG d   1       4.035   0.748  -0.995  0.00  0.00     0.027 H 
ENDBRANCH  46  51
BRANCH  46  55
ATOM     55  C   LIG d   1       2.557  -0.650  -3.262  0.00  0.00    -0.025 C 
ATOM     56  H   LIG d   1       2.389  -0.144  -4.214  0.00  0.00     0.027 H 
ATOM     57  H   LIG d   1       2.382  -1.719  -3.384  0.00  0.00     0.027 H 
ATOM     58  H   LIG d   1       1.871  -0.253  -2.514  0.00  0.00     0.027 H 
ENDBRANCH  46  55
ENDBRANCH  45  46
ENDBRANCH  42  45
ENDBRANCH  38  41
ENDBRANCH  35  38
ENDBRANCH  32  35
ENDBRANCH  30  32
ENDBRANCH   1  30
TORSDOF 15
ENDMDL
MODEL 8
REMARK VINA RESULT:      -5.3      1.985      5.165
REMARK  15 active torsions:
REMARK  status: ('A' for Active; 'I' for Inactive)
REMARK    1  A    between atoms: C_1  and  C_2 
REMARK    2  A    between atoms: C_2  and  C_3 
REMARK    3  A    between atoms: C_3  and  C_4 
REMARK    4  A    between atoms: C_13  and  O_16 
REMARK    5  A    between atoms: C_14  and  C_15 
REMARK    6  A    between atoms: O_16  and  C_17 
REMARK    7  A    between atoms: C_17  and  C_19 
REMARK    8  A    between atoms: C_19  and  C_20 
REMARK    9  A    between atoms: C_20  and  C_21 
REMARK   10  A    between atoms: C_21  and  N_22 
REMARK       I    between atoms: N_22  and  C_23 
REMARK   11  A    between atoms: C_23  and  O_25 
REMARK   12  A    between atoms: O_25  and  C_26 
REMARK   13  A    between atoms: C_26  and  C_27 
REMARK   14  A    between atoms: C_26  and  C_28 
REMARK   15  A    between atoms: C_26  and  C_29 
ROOT
ATOM      1  O   LIG d   1       5.569  -1.975  -3.422  0.00  0.00    -0.425 OA
ENDROOT
BRANCH   1   2
ATOM      2  C   LIG d   1       6.268  -0.955  -3.982  0.00  0.00     0.138 A 
ATOM      3  C   LIG d   1       6.644   0.136  -3.201  0.00  0.00    -0.018 A 
ATOM      4  C   LIG d   1       7.348   1.169  -3.749  0.00  0.00    -0.047 A 
ATOM      5  H   LIG d   1       6.382   0.161  -2.153  0.00  0.00     0.066 H 
ATOM      6  C   LIG d   1       7.693   1.134  -5.104  0.00  0.00     0.021 A 
ATOM      7  H   LIG d   1       7.637   2.011  -3.137  0.00  0.00     0.063 H 
ATOM      8  C   LIG d   1       8.447   2.229  -5.719  0.00  0.00    -0.030 A 
ATOM      9  C   LIG d   1       7.315   0.035  -5.899  0.00  0.00     0.146 A 
ATOM     10  C   LIG d   1       8.751   2.135  -7.040  0.00  0.00     0.027 A 
ATOM     11  C   LIG d   1       8.340   1.005  -7.776  0.00  0.00     0.338 A 
ATOM     12  H   LIG d   1       9.305   2.927  -7.525  0.00  0.00     0.069 H 
ATOM     13  O   LIG d   1       8.620   0.935  -8.959  0.00  0.00    -0.245 OA
ATOM     14  O   LIG d   1       7.650   0.005  -7.207  0.00  0.00    -0.422 OA
ATOM     15  C   LIG d   1       6.602  -1.006  -5.325  0.00  0.00     0.035 A 
BRANCH   8  16
ATOM     16  C   LIG d   1       8.872   3.427  -4.909  0.00  0.00    -0.027 C 
ATOM     17  H   LIG d   1       8.814   4.322  -5.527  0.00  0.00     0.031 H 
ATOM     18  H   LIG d   1       8.214   3.535  -4.048  0.00  0.00     0.031 H 
BRANCH  16  19
ATOM     19  C   LIG d   1      10.312   3.231  -4.428  0.00  0.00    -0.052 C 
ATOM     20  H   LIG d   1      10.680   2.263  -4.767  0.00  0.00     0.027 H 
ATOM     21  H   LIG d   1      10.942   4.022  -4.836  0.00  0.00     0.027 H 
BRANCH  19  22
ATOM     22  C   LIG d   1      10.350   3.286  -2.900  0.00  0.00    -0.065 C 
ATOM     23  H   LIG d   1      11.083   4.026  -2.581  0.00  0.00     0.023 H 
ATOM     24  H   LIG d   1       9.366   3.563  -2.522  0.00  0.00     0.023 H 
ATOM     25  H   LIG d   1      10.627   2.307  -2.508  0.00  0.00     0.023 H 
ENDBRANCH  19  22
ENDBRANCH  16  19
ENDBRANCH   8  16
BRANCH  15  26
ATOM     26  C   LIG d   1       6.190  -2.190  -6.162  0.00  0.00    -0.033 C 
ATOM     27  H   LIG d   1       5.227  -1.986  -6.632  0.00  0.00     0.028 H 
ATOM     28  H   LIG d   1       6.940  -2.368  -6.932  0.00  0.00     0.028 H 
ATOM     29  H   LIG d   1       6.104  -3.072  -5.527  0.00  0.00     0.028 H 
ENDBRANCH  15  26
ENDBRANCH   1   2
BRANCH   1  30
ATOM     30  C   LIG d   1       4.422  -1.657  -2.799  0.00  0.00     0.312 C 
ATOM     31  O   LIG d   1       4.391  -1.574  -1.594  0.00  0.00    -0.250 OA
BRANCH  30  32
ATOM     32  C   LIG d   1       3.173  -1.404  -3.604  0.00  0.00     0.047 C 
ATOM     33  H   LIG d   1       3.298  -1.812  -4.607  0.00  0.00     0.038 H 
ATOM     34  H   LIG d   1       2.324  -1.884  -3.119  0.00  0.00     0.038 H 
BRANCH  32  35
ATOM     35  C   LIG d   1       2.923   0.103  -3.695  0.00  0.00    -0.027 C 
ATOM     36  H   LIG d   1       2.211   0.400  -2.925  0.00  0.00     0.029 H 
ATOM     37  H   LIG d   1       3.861   0.637  -3.548  0.00  0.00     0.029 H 
BRANCH  35  38
ATOM     38  C   LIG d   1       2.353   0.443  -5.074  0.00  0.00     0.015 C 
ATOM     39  H   LIG d   1       1.725  -0.377  -5.420  0.00  0.00     0.046 H 
ATOM     40  H   LIG d   1       1.757   1.354  -5.005  0.00  0.00     0.046 H 
BRANCH  38  41
ATOM     41  N   LIG d   1       3.453   0.650  -6.019  0.00  0.00    -0.281 N 
ATOM     42  C   LIG d   1       3.336   0.223  -7.293  0.00  0.00     0.401 C 
ATOM     43  O   LIG d   1       2.318  -0.331  -7.656  0.00  0.00    -0.227 OA
ATOM     44  H   LIG d   1       4.266   1.093  -5.729  0.00  0.00     0.152 HD
BRANCH  42  45
ATOM     45  O   LIG d   1       4.347   0.413  -8.161  0.00  0.00    -0.445 OA
BRANCH  45  46
ATOM     46  C   LIG d   1       4.188   1.481  -9.132  0.00  0.00     0.107 C 
BRANCH  46  47
ATOM     47  C   LIG d   1       2.985   2.345  -8.750  0.00  0.00    -0.025 C 
ATOM     48  H   LIG d   1       3.258   3.398  -8.816  0.00  0.00     0.027 H 
ATOM     49  H   LIG d   1       2.159   2.141  -9.432  0.00  0.00     0.027 H 
ATOM     50  H   LIG d   1       2.680   2.112  -7.730  0.00  0.00     0.027 H 
ENDBRANCH  46  47
BRANCH  46  51
ATOM     51  C   LIG d   1       5.451   2.346  -9.150  0.00  0.00    -0.025 C 
ATOM     52  H   LIG d   1       5.788   2.519  -8.128  0.00  0.00     0.027 H 
ATOM     53  H   LIG d   1       6.235   1.833  -9.708  0.00  0.00     0.027 H 
ATOM     54  H   LIG d   1       5.231   3.302  -9.626  0.00  0.00     0.027 H 
ENDBRANCH  46  51
BRANCH  46  55
ATOM     55  C   LIG d   1       3.964   0.879 -10.521  0.00  0.00    -0.025 C 
ATOM     56  H   LIG d   1       4.263   1.601 -11.282  0.00  0.00     0.027 H 
ATOM     57  H   LIG d   1       4.561  -0.027 -10.626  0.00  0.00     0.027 H 
ATOM     58  H   LIG d   1       2.909   0.635 -10.646  0.00  0.00     0.027 H 
ENDBRANCH  46  55
ENDBRANCH  45  46
ENDBRANCH  42  45
ENDBRANCH  38  41
ENDBRANCH  35  38
ENDBRANCH  32  35
ENDBRANCH  30  32
ENDBRANCH   1  30
TORSDOF 15
ENDMDL
MODEL 9
REMARK VINA RESULT:      -5.3      2.287      5.977
REMARK  15 active torsions:
REMARK  status: ('A' for Active; 'I' for Inactive)
REMARK    1  A    between atoms: C_1  and  C_2 
REMARK    2  A    between atoms: C_2  and  C_3 
REMARK    3  A    between atoms: C_3  and  C_4 
REMARK    4  A    between atoms: C_13  and  O_16 
REMARK    5  A    between atoms: C_14  and  C_15 
REMARK    6  A    between atoms: O_16  and  C_17 
REMARK    7  A    between atoms: C_17  and  C_19 
REMARK    8  A    between atoms: C_19  and  C_20 
REMARK    9  A    between atoms: C_20  and  C_21 
REMARK   10  A    between atoms: C_21  and  N_22 
REMARK       I    between atoms: N_22  and  C_23 
REMARK   11  A    between atoms: C_23  and  O_25 
REMARK   12  A    between atoms: O_25  and  C_26 
REMARK   13  A    between atoms: C_26  and  C_27 
REMARK   14  A    between atoms: C_26  and  C_28 
REMARK   15  A    between atoms: C_26  and  C_29 
ROOT
ATOM      1  O   LIG d   1       4.983  -1.977  -4.014  0.00  0.00    -0.425 OA
ENDROOT
BRANCH   1   2
ATOM      2  C   LIG d   1       4.538  -1.669  -5.259  0.00  0.00     0.138 A 
ATOM      3  C   LIG d   1       3.971  -0.419  -5.500  0.00  0.00    -0.018 A 
ATOM      4  C   LIG d   1       3.519  -0.095  -6.746  0.00  0.00    -0.047 A 
ATOM      5  H   LIG d   1       3.893   0.299  -4.697  0.00  0.00     0.066 H 
ATOM      6  C   LIG d   1       3.625  -1.022  -7.789  0.00  0.00     0.021 A 
ATOM      7  H   LIG d   1       3.082   0.876  -6.928  0.00  0.00     0.063 H 
ATOM      8  C   LIG d   1       3.149  -0.701  -9.136  0.00  0.00    -0.030 A 
ATOM      9  C   LIG d   1       4.197  -2.286  -7.551  0.00  0.00     0.146 A 
ATOM     10  C   LIG d   1       3.279  -1.645 -10.104  0.00  0.00     0.027 A 
ATOM     11  C   LIG d   1       3.862  -2.891  -9.795  0.00  0.00     0.338 A 
ATOM     12  H   LIG d   1       2.937  -1.441 -11.109  0.00  0.00     0.069 H 
ATOM     13  O   LIG d   1       3.973  -3.728 -10.673  0.00  0.00    -0.245 OA
ATOM     14  O   LIG d   1       4.298  -3.179  -8.559  0.00  0.00    -0.422 OA
ATOM     15  C   LIG d   1       4.651  -2.599  -6.278  0.00  0.00     0.035 A 
BRANCH   8  16
ATOM     16  C   LIG d   1       2.529   0.639  -9.439  0.00  0.00    -0.027 C 
ATOM     17  H   LIG d   1       1.645   0.497 -10.061  0.00  0.00     0.031 H 
ATOM     18  H   LIG d   1       2.244   1.126  -8.507  0.00  0.00     0.031 H 
BRANCH  16  19
ATOM     19  C   LIG d   1       3.541   1.512 -10.182  0.00  0.00    -0.052 C 
ATOM     20  H   LIG d   1       4.400   0.908 -10.471  0.00  0.00     0.027 H 
ATOM     21  H   LIG d   1       3.075   1.930 -11.075  0.00  0.00     0.027 H 
BRANCH  19  22
ATOM     22  C   LIG d   1       4.001   2.650  -9.267  0.00  0.00    -0.065 C 
ATOM     23  H   LIG d   1       3.618   3.597  -9.644  0.00  0.00     0.023 H 
ATOM     24  H   LIG d   1       3.623   2.480  -8.259  0.00  0.00     0.023 H 
ATOM     25  H   LIG d   1       5.091   2.681  -9.247  0.00  0.00     0.023 H 
ENDBRANCH  19  22
ENDBRANCH  16  19
ENDBRANCH   8  16
BRANCH  15  26
ATOM     26  C   LIG d   1       5.266  -3.948  -6.007  0.00  0.00    -0.033 C 
ATOM     27  H   LIG d   1       5.126  -4.207  -4.957  0.00  0.00     0.028 H 
ATOM     28  H   LIG d   1       4.785  -4.699  -6.633  0.00  0.00     0.028 H 
ATOM     29  H   LIG d   1       6.332  -3.914  -6.233  0.00  0.00     0.028 H 
ENDBRANCH  15  26
ENDBRANCH   1   2
BRANCH   1  30
ATOM     30  C   LIG d   1       4.185  -1.650  -2.983  0.00  0.00     0.312 C 
ATOM     31  O   LIG d   1       3.035  -2.019  -2.969  0.00  0.00    -0.250 OA
BRANCH  30  32
ATOM     32  C   LIG d   1       4.726  -0.824  -1.845  0.00  0.00     0.047 C 
ATOM     33  H   LIG d   1       4.377  -1.235  -0.898  0.00  0.00     0.038 H 
ATOM     34  H   LIG d   1       5.815  -0.840  -1.869  0.00  0.00     0.038 H 
BRANCH  32  35
ATOM     35  C   LIG d   1       4.235   0.619  -1.985  0.00  0.00    -0.027 C 
ATOM     36  H   LIG d   1       3.295   0.631  -2.536  0.00  0.00     0.029 H 
ATOM     37  H   LIG d   1       4.081   1.048  -0.995  0.00  0.00     0.029 H 
BRANCH  35  38
ATOM     38  C   LIG d   1       5.279   1.443  -2.741  0.00  0.00     0.015 C 
ATOM     39  H   LIG d   1       4.828   1.867  -3.637  0.00  0.00     0.046 H 
ATOM     40  H   LIG d   1       5.640   2.248  -2.099  0.00  0.00     0.046 H 
BRANCH  38  41
ATOM     41  N   LIG d   1       6.401   0.580  -3.119  0.00  0.00    -0.281 N 
ATOM     42  C   LIG d   1       7.378   1.057  -3.918  0.00  0.00     0.401 C 
ATOM     43  O   LIG d   1       7.328   2.201  -4.321  0.00  0.00    -0.227 OA
ATOM     44  H   LIG d   1       6.441  -0.334  -2.797  0.00  0.00     0.152 HD
BRANCH  42  45
ATOM     45  O   LIG d   1       8.409   0.264  -4.266  0.00  0.00    -0.445 OA
BRANCH  45  46
ATOM     46  C   LIG d   1       8.451  -0.194  -5.643  0.00  0.00     0.107 C 
BRANCH  46  47
ATOM     47  C   LIG d   1       8.284  -1.714  -5.681  0.00  0.00    -0.025 C 
ATOM     48  H   LIG d   1       7.581  -1.982  -6.470  0.00  0.00     0.027 H 
ATOM     49  H   LIG d   1       9.248  -2.182  -5.879  0.00  0.00     0.027 H 
ATOM     50  H   LIG d   1       7.901  -2.062  -4.722  0.00  0.00     0.027 H 
ENDBRANCH  46  47
BRANCH  46  51
ATOM     51  C   LIG d   1       7.319   0.463  -6.434  0.00  0.00    -0.025 C 
ATOM     52  H   LIG d   1       7.695   0.794  -7.402  0.00  0.00     0.027 H 
ATOM     53  H   LIG d   1       6.514  -0.257  -6.585  0.00  0.00     0.027 H 
ATOM     54  H   LIG d   1       6.939   1.322  -5.880  0.00  0.00     0.027 H 
ENDBRANCH  46  51
BRANCH  46  55
ATOM     55  C   LIG d   1       9.795   0.187  -6.266  0.00  0.00    -0.025 C 
ATOM     56  H   LIG d   1       9.822   1.263  -6.442  0.00  0.00     0.027 H 
ATOM     57  H   LIG d   1      10.603  -0.090  -5.588  0.00  0.00     0.027 H 
ATOM     58  H   LIG d   1       9.920  -0.339  -7.213  0.00  0.00     0.027 H 
ENDBRANCH  46  55
ENDBRANCH  45  46
ENDBRANCH  42  45
ENDBRANCH  38  41
ENDBRANCH  35  38
ENDBRANCH  32  35
ENDBRANCH  30  32
ENDBRANCH   1  30
TORSDOF 15
ENDMDL
MODEL 10
REMARK VINA RESULT:      -5.2      3.923      6.479
REMARK  15 active torsions:
REMARK  status: ('A' for Active; 'I' for Inactive)
REMARK    1  A    between atoms: C_1  and  C_2 
REMARK    2  A    between atoms: C_2  and  C_3 
REMARK    3  A    between atoms: C_3  and  C_4 
REMARK    4  A    between atoms: C_13  and  O_16 
REMARK    5  A    between atoms: C_14  and  C_15 
REMARK    6  A    between atoms: O_16  and  C_17 
REMARK    7  A    between atoms: C_17  and  C_19 
REMARK    8  A    between atoms: C_19  and  C_20 
REMARK    9  A    between atoms: C_20  and  C_21 
REMARK   10  A    between atoms: C_21  and  N_22 
REMARK       I    between atoms: N_22  and  C_23 
REMARK   11  A    between atoms: C_23  and  O_25 
REMARK   12  A    between atoms: O_25  and  C_26 
REMARK   13  A    between atoms: C_26  and  C_27 
REMARK   14  A    between atoms: C_26  and  C_28 
REMARK   15  A    between atoms: C_26  and  C_29 
ROOT
ATOM      1  O   LIG d   1       9.470   0.358  -5.971  0.00  0.00    -0.425 OA
ENDROOT
BRANCH   1   2
ATOM      2  C   LIG d   1       8.388  -0.046  -5.258  0.00  0.00     0.138 A 
ATOM      3  C   LIG d   1       7.909   0.750  -4.219  0.00  0.00    -0.018 A 
ATOM      4  C   LIG d   1       6.822   0.359  -3.493  0.00  0.00    -0.047 A 
ATOM      5  H   LIG d   1       8.399   1.686  -3.991  0.00  0.00     0.066 H 
ATOM      6  C   LIG d   1       6.184  -0.850  -3.791  0.00  0.00     0.021 A 
ATOM      7  H   LIG d   1       6.455   0.981  -2.690  0.00  0.00     0.063 H 
ATOM      8  C   LIG d   1       5.016  -1.296  -3.028  0.00  0.00    -0.030 A 
ATOM      9  C   LIG d   1       6.664  -1.659  -4.839  0.00  0.00     0.146 A 
ATOM     10  C   LIG d   1       4.443  -2.480  -3.367  0.00  0.00     0.027 A 
ATOM     11  C   LIG d   1       4.976  -3.239  -4.428  0.00  0.00     0.338 A 
ATOM     12  H   LIG d   1       3.580  -2.838  -2.824  0.00  0.00     0.069 H 
ATOM     13  O   LIG d   1       4.451  -4.298  -4.722  0.00  0.00    -0.245 OA
ATOM     14  O   LIG d   1       6.046  -2.825  -5.125  0.00  0.00    -0.422 OA
ATOM     15  C   LIG d   1       7.769  -1.245  -5.567  0.00  0.00     0.035 A 
BRANCH   8  16
ATOM     16  C   LIG d   1       4.467  -0.464  -1.897  0.00  0.00    -0.027 C 
ATOM     17  H   LIG d   1       4.223  -1.112  -1.056  0.00  0.00     0.031 H 
ATOM     18  H   LIG d   1       5.214   0.267  -1.589  0.00  0.00     0.031 H 
BRANCH  16  19
ATOM     19  C   LIG d   1       3.205   0.262  -2.365  0.00  0.00    -0.052 C 
ATOM     20  H   LIG d   1       2.728  -0.312  -3.159  0.00  0.00     0.027 H 
ATOM     21  H   LIG d   1       2.514   0.368  -1.529  0.00  0.00     0.027 H 
BRANCH  19  22
ATOM     22  C   LIG d   1       3.581   1.649  -2.893  0.00  0.00    -0.065 C 
ATOM     23  H   LIG d   1       2.697   2.134  -3.304  0.00  0.00     0.023 H 
ATOM     24  H   LIG d   1       3.980   2.251  -2.077  0.00  0.00     0.023 H 
ATOM     25  H   LIG d   1       4.336   1.548  -3.673  0.00  0.00     0.023 H 
ENDBRANCH  19  22
ENDBRANCH  16  19
ENDBRANCH   8  16
BRANCH  15  26
ATOM     26  C   LIG d   1       8.295  -2.099  -6.692  0.00  0.00    -0.033 C 
ATOM     27  H   LIG d   1       9.343  -2.335  -6.510  0.00  0.00     0.028 H 
ATOM     28  H   LIG d   1       7.719  -3.023  -6.746  0.00  0.00     0.028 H 
ATOM     29  H   LIG d   1       8.202  -1.558  -7.634  0.00  0.00     0.028 H 
ENDBRANCH  15  26
ENDBRANCH   1   2
BRANCH   1  30
ATOM     30  C   LIG d   1      10.643   0.418  -5.318  0.00  0.00     0.312 C 
ATOM     31  O   LIG d   1      11.173  -0.596  -4.932  0.00  0.00    -0.250 OA
BRANCH  30  32
ATOM     32  C   LIG d   1      11.296   1.753  -5.068  0.00  0.00     0.047 C 
ATOM     33  H   LIG d   1      12.278   1.772  -5.539  0.00  0.00     0.038 H 
ATOM     34  H   LIG d   1      10.676   2.546  -5.486  0.00  0.00     0.038 H 
BRANCH  32  35
ATOM     35  C   LIG d   1      11.451   1.969  -3.561  0.00  0.00    -0.027 C 
ATOM     36  H   LIG d   1      11.141   1.069  -3.031  0.00  0.00     0.029 H 
ATOM     37  H   LIG d   1      12.494   2.186  -3.330  0.00  0.00     0.029 H 
BRANCH  35  38
ATOM     38  C   LIG d   1      10.577   3.146  -3.121  0.00  0.00     0.015 C 
ATOM     39  H   LIG d   1      10.641   3.943  -3.861  0.00  0.00     0.046 H 
ATOM     40  H   LIG d   1       9.541   2.815  -3.032  0.00  0.00     0.046 H 
BRANCH  38  41
ATOM     41  N   LIG d   1      11.044   3.643  -1.825  0.00  0.00    -0.281 N 
ATOM     42  C   LIG d   1      11.768   4.779  -1.760  0.00  0.00     0.401 C 
ATOM     43  O   LIG d   1      12.032   5.390  -2.776  0.00  0.00    -0.227 OA
ATOM     44  H   LIG d   1      10.832   3.156  -1.013  0.00  0.00     0.152 HD
BRANCH  42  45
ATOM     45  O   LIG d   1      12.197   5.236  -0.569  0.00  0.00    -0.445 OA
BRANCH  45  46
ATOM     46  C   LIG d   1      11.445   6.326   0.028  0.00  0.00     0.107 C 
BRANCH  46  47
ATOM     47  C   LIG d   1      11.051   5.952   1.458  0.00  0.00    -0.025 C 
ATOM     48  H   LIG d   1       9.985   5.731   1.495  0.00  0.00     0.027 H 
ATOM     49  H   LIG d   1      11.616   5.074   1.773  0.00  0.00     0.027 H 
ATOM     50  H   LIG d   1      11.272   6.785   2.125  0.00  0.00     0.027 H 
ENDBRANCH  46  47
BRANCH  46  51
ATOM     51  C   LIG d   1      12.309   7.589   0.051  0.00  0.00    -0.025 C 
ATOM     52  H   LIG d   1      11.730   8.432  -0.327  0.00  0.00     0.027 H 
ATOM     53  H   LIG d   1      12.625   7.795   1.074  0.00  0.00     0.027 H 
ATOM     54  H   LIG d   1      13.187   7.441  -0.578  0.00  0.00     0.027 H 
ENDBRANCH  46  51
BRANCH  46  55
ATOM     55  C   LIG d   1      10.184   6.587  -0.797  0.00  0.00    -0.025 C 
ATOM     56  H   LIG d   1      10.464   6.977  -1.776  0.00  0.00     0.027 H 
ATOM     57  H   LIG d   1       9.631   5.656  -0.923  0.00  0.00     0.027 H 
ATOM     58  H   LIG d   1       9.556   7.315  -0.283  0.00  0.00     0.027 H 
ENDBRANCH  46  55
ENDBRANCH  45  46
ENDBRANCH  42  45
ENDBRANCH  38  41
ENDBRANCH  35  38
ENDBRANCH  32  35
ENDBRANCH  30  32
ENDBRANCH   1  30
TORSDOF 15
ENDMDL
