MODEL 1
REMARK VINA RESULT:      -5.5      0.000      0.000
REMARK  4 active torsions:
REMARK  status: ('A' for Active; 'I' for Inactive)
REMARK    1  A    between atoms: C_5  and  C_7 
REMARK    2  A    between atoms: C_7  and  C_8 
REMARK    3  A    between atoms: C_9  and  N_15 
REMARK    4  A    between atoms: C_13  and  N_14 
ROOT
ATOM      1  C   LIG d   1       6.068  -3.053  -4.769  0.00  0.00     0.010 C 
ATOM      2  H   LIG d   1       6.974  -2.606  -5.181  0.00  0.00     0.037 H 
ATOM      3  H   LIG d   1       6.317  -3.995  -4.282  0.00  0.00     0.037 H 
ENDROOT
BRANCH   1   4
ATOM      4  C   LIG d   1       5.458  -2.112  -3.761  0.00  0.00    -0.024 A 
ATOM      5  C   LIG d   1       6.051  -0.889  -3.510  0.00  0.00     0.044 A 
ATOM      6  C   LIG d   1       5.489  -0.026  -2.585  0.00  0.00    -0.043 A 
ATOM      7 CL   LIG d   1       7.500  -0.437  -4.352  0.00  0.00    -0.083 Cl
ATOM      8  C   LIG d   1       4.336  -0.386  -1.915  0.00  0.00    -0.060 A 
ATOM      9  H   LIG d   1       5.952   0.930  -2.387  0.00  0.00     0.063 H 
ATOM     10  C   LIG d   1       3.743  -1.609  -2.168  0.00  0.00    -0.061 A 
ATOM     11  H   LIG d   1       3.897   0.287  -1.194  0.00  0.00     0.062 H 
ATOM     12  C   LIG d   1       4.303  -2.472  -3.091  0.00  0.00    -0.057 A 
ATOM     13  H   LIG d   1       2.844  -1.892  -1.642  0.00  0.00     0.062 H 
ATOM     14  H   LIG d   1       3.839  -3.427  -3.289  0.00  0.00     0.062 H 
ENDBRANCH   1   4
BRANCH   1  15
ATOM     15  C   LIG d   1       5.082  -3.306  -5.881  0.00  0.00     0.089 A 
ATOM     16  C   LIG d   1       4.341  -4.462  -6.069  0.00  0.00     0.296 A 
ATOM     17  N   LIG d   1       3.590  -4.292  -7.154  0.00  0.00    -0.109 N 
ATOM     18  N   LIG d   1       3.853  -3.020  -7.678  0.00  0.00    -0.149 N 
ATOM     19  H   LIG d   1       2.968  -4.940  -7.522  0.00  0.00     0.489 HD
ATOM     20  C   LIG d   1       4.758  -2.428  -6.903  0.00  0.00     0.160 A 
ATOM     21  H   LIG d   1       3.446  -2.637  -8.471  0.00  0.00     0.238 HD
BRANCH  16  22
ATOM     22  N   LIG d   1       4.374  -5.598  -5.264  0.00  0.00    -0.303 N 
ATOM     23  H   LIG d   1       3.577  -6.141  -5.159  0.00  0.00     0.148 HD
ATOM     24  H   LIG d   1       5.193  -5.845  -4.807  0.00  0.00     0.148 HD
ENDBRANCH  16  22
BRANCH  20  25
ATOM     25  N   LIG d   1       5.284  -1.152  -7.086  0.00  0.00    -0.340 N 
ATOM     26  H   LIG d   1       5.052  -0.438  -6.470  0.00  0.00     0.144 HD
ATOM     27  H   LIG d   1       5.883  -0.975  -7.828  0.00  0.00     0.144 HD
ENDBRANCH  20  25
ENDBRANCH   1  15
TORSDOF 4
ENDMDL
MODEL 2
REMARK VINA RESULT:      -5.3      2.375      3.053
REMARK  4 active torsions:
REMARK  status: ('A' for Active; 'I' for Inactive)
REMARK    1  A    between atoms: C_5  and  C_7 
REMARK    2  A    between atoms: C_7  and  C_8 
REMARK    3  A    between atoms: C_9  and  N_15 
REMARK    4  A    between atoms: C_13  and  N_14 
ROOT
ATOM      1  C   LIG d   1       4.848  -0.408  -6.461  0.00  0.00     0.010 C 
ATOM      2  H   LIG d   1       5.164   0.635  -6.417  0.00  0.00     0.037 H 
ATOM      3  H   LIG d   1       5.704  -1.037  -6.702  0.00  0.00     0.037 H 
ENDROOT
BRANCH   1   4
ATOM      4  C   LIG d   1       4.283  -0.817  -5.124  0.00  0.00    -0.024 A 
ATOM      5  C   LIG d   1       4.828  -1.890  -4.443  0.00  0.00     0.044 A 
ATOM      6  C   LIG d   1       4.310  -2.264  -3.216  0.00  0.00    -0.043 A 
ATOM      7 CL   LIG d   1       6.161  -2.767  -5.128  0.00  0.00    -0.083 Cl
ATOM      8  C   LIG d   1       3.249  -1.566  -2.672  0.00  0.00    -0.060 A 
ATOM      9  H   LIG d   1       4.735  -3.103  -2.683  0.00  0.00     0.063 H 
ATOM     10  C   LIG d   1       2.705  -0.493  -3.353  0.00  0.00    -0.061 A 
ATOM     11  H   LIG d   1       2.844  -1.858  -1.714  0.00  0.00     0.062 H 
ATOM     12  C   LIG d   1       3.222  -0.118  -4.579  0.00  0.00    -0.057 A 
ATOM     13  H   LIG d   1       1.874   0.050  -2.930  0.00  0.00     0.062 H 
ATOM     14  H   LIG d   1       2.797   0.720  -5.110  0.00  0.00     0.062 H 
ENDBRANCH   1   4
BRANCH   1  15
ATOM     15  C   LIG d   1       3.790  -0.568  -7.522  0.00  0.00     0.089 A 
ATOM     16  C   LIG d   1       3.400  -1.758  -8.116  0.00  0.00     0.296 A 
ATOM     17  N   LIG d   1       2.443  -1.480  -8.997  0.00  0.00    -0.109 N 
ATOM     18  N   LIG d   1       2.217  -0.098  -8.982  0.00  0.00    -0.149 N 
ATOM     19  H   LIG d   1       1.981  -2.124  -9.558  0.00  0.00     0.489 HD
ATOM     20  C   LIG d   1       3.036   0.449  -8.087  0.00  0.00     0.160 A 
ATOM     21  H   LIG d   1       1.574   0.378  -9.530  0.00  0.00     0.238 HD
BRANCH  16  22
ATOM     22  N   LIG d   1       3.916  -3.022  -7.837  0.00  0.00    -0.303 N 
ATOM     23  H   LIG d   1       3.349  -3.699  -7.437  0.00  0.00     0.148 HD
ATOM     24  H   LIG d   1       4.843  -3.223  -8.041  0.00  0.00     0.148 HD
ENDBRANCH  16  22
BRANCH  20  25
ATOM     25  N   LIG d   1       3.119   1.803  -7.773  0.00  0.00    -0.340 N 
ATOM     26  H   LIG d   1       2.804   2.122  -6.912  0.00  0.00     0.144 HD
ATOM     27  H   LIG d   1       3.492   2.428  -8.414  0.00  0.00     0.144 HD
ENDBRANCH  20  25
ENDBRANCH   1  15
TORSDOF 4
ENDMDL
MODEL 3
REMARK VINA RESULT:      -5.3      2.500      3.441
REMARK  4 active torsions:
REMARK  status: ('A' for Active; 'I' for Inactive)
REMARK    1  A    between atoms: C_5  and  C_7 
REMARK    2  A    between atoms: C_7  and  C_8 
REMARK    3  A    between atoms: C_9  and  N_15 
REMARK    4  A    between atoms: C_13  and  N_14 
ROOT
ATOM      1  C   LIG d   1       6.417  -1.151  -5.197  0.00  0.00     0.010 C 
ATOM      2  H   LIG d   1       7.496  -1.100  -5.052  0.00  0.00     0.037 H 
ATOM      3  H   LIG d   1       6.126  -2.181  -5.402  0.00  0.00     0.037 H 
ENDROOT
BRANCH   1   4
ATOM      4  C   LIG d   1       5.719  -0.670  -3.951  0.00  0.00    -0.024 A 
ATOM      5  C   LIG d   1       4.870  -1.517  -3.263  0.00  0.00     0.044 A 
ATOM      6  C   LIG d   1       4.230  -1.075  -2.118  0.00  0.00    -0.043 A 
ATOM      7 CL   LIG d   1       4.607  -3.135  -3.836  0.00  0.00    -0.083 Cl
ATOM      8  C   LIG d   1       4.440   0.213  -1.663  0.00  0.00    -0.060 A 
ATOM      9  H   LIG d   1       3.567  -1.736  -1.580  0.00  0.00     0.063 H 
ATOM     10  C   LIG d   1       5.290   1.059  -2.351  0.00  0.00    -0.061 A 
ATOM     11  H   LIG d   1       3.941   0.558  -0.770  0.00  0.00     0.062 H 
ATOM     12  C   LIG d   1       5.929   0.618  -3.494  0.00  0.00    -0.057 A 
ATOM     13  H   LIG d   1       5.451   2.066  -1.997  0.00  0.00     0.062 H 
ATOM     14  H   LIG d   1       6.593   1.280  -4.031  0.00  0.00     0.062 H 
ENDBRANCH   1   4
BRANCH   1  15
ATOM     15  C   LIG d   1       6.025  -0.277  -6.361  0.00  0.00     0.089 A 
ATOM     16  C   LIG d   1       4.792  -0.262  -6.994  0.00  0.00     0.296 A 
ATOM     17  N   LIG d   1       4.844   0.645  -7.966  0.00  0.00    -0.109 N 
ATOM     18  N   LIG d   1       6.123   1.214  -7.971  0.00  0.00    -0.149 N 
ATOM     19  H   LIG d   1       4.120   0.871  -8.572  0.00  0.00     0.489 HD
ATOM     20  C   LIG d   1       6.834   0.652  -6.996  0.00  0.00     0.160 A 
ATOM     21  H   LIG d   1       6.438   1.900  -8.580  0.00  0.00     0.238 HD
BRANCH  16  22
ATOM     22  N   LIG d   1       3.692  -1.051  -6.667  0.00  0.00    -0.303 N 
ATOM     23  H   LIG d   1       3.378  -1.089  -5.750  0.00  0.00     0.148 HD
ATOM     24  H   LIG d   1       3.240  -1.563  -7.356  0.00  0.00     0.148 HD
ENDBRANCH  16  22
BRANCH  20  25
ATOM     25  N   LIG d   1       8.156   0.946  -6.672  0.00  0.00    -0.340 N 
ATOM     26  H   LIG d   1       8.879   0.443  -7.080  0.00  0.00     0.144 HD
ATOM     27  H   LIG d   1       8.356   1.654  -6.040  0.00  0.00     0.144 HD
ENDBRANCH  20  25
ENDBRANCH   1  15
TORSDOF 4
ENDMDL
MODEL 4
REMARK VINA RESULT:      -5.3      2.367      3.580
REMARK  4 active torsions:
REMARK  status: ('A' for Active; 'I' for Inactive)
REMARK    1  A    between atoms: C_5  and  C_7 
REMARK    2  A    between atoms: C_7  and  C_8 
REMARK    3  A    between atoms: C_9  and  N_15 
REMARK    4  A    between atoms: C_13  and  N_14 
ROOT
ATOM      1  C   LIG d   1       4.859  -0.441  -6.464  0.00  0.00     0.010 C 
ATOM      2  H   LIG d   1       5.187   0.598  -6.424  0.00  0.00     0.037 H 
ATOM      3  H   LIG d   1       5.707  -1.081  -6.704  0.00  0.00     0.037 H 
ENDROOT
BRANCH   1   4
ATOM      4  C   LIG d   1       4.290  -0.840  -5.126  0.00  0.00    -0.024 A 
ATOM      5  C   LIG d   1       4.822  -1.919  -4.444  0.00  0.00     0.044 A 
ATOM      6  C   LIG d   1       4.300  -2.284  -3.214  0.00  0.00    -0.043 A 
ATOM      7 CL   LIG d   1       6.142  -2.815  -5.128  0.00  0.00    -0.083 Cl
ATOM      8  C   LIG d   1       3.249  -1.570  -2.670  0.00  0.00    -0.060 A 
ATOM      9  H   LIG d   1       4.714  -3.127  -2.681  0.00  0.00     0.063 H 
ATOM     10  C   LIG d   1       2.719  -0.492  -3.353  0.00  0.00    -0.061 A 
ATOM     11  H   LIG d   1       2.842  -1.855  -1.711  0.00  0.00     0.062 H 
ATOM     12  C   LIG d   1       3.240  -0.126  -4.580  0.00  0.00    -0.057 A 
ATOM     13  H   LIG d   1       1.896   0.063  -2.930  0.00  0.00     0.062 H 
ATOM     14  H   LIG d   1       2.825   0.717  -5.113  0.00  0.00     0.062 H 
ENDBRANCH   1   4
BRANCH   1  15
ATOM     15  C   LIG d   1       3.799  -0.592  -7.524  0.00  0.00     0.089 A 
ATOM     16  C   LIG d   1       3.039   0.430  -8.074  0.00  0.00     0.296 A 
ATOM     17  N   LIG d   1       2.222  -0.109  -8.975  0.00  0.00    -0.109 N 
ATOM     18  N   LIG d   1       2.446  -1.491  -9.003  0.00  0.00    -0.149 N 
ATOM     19  H   LIG d   1       1.578   0.372  -9.518  0.00  0.00     0.489 HD
ATOM     20  C   LIG d   1       3.402  -1.778  -8.123  0.00  0.00     0.160 A 
ATOM     21  H   LIG d   1       1.984  -2.130  -9.568  0.00  0.00     0.238 HD
BRANCH  16  22
ATOM     22  N   LIG d   1       3.121   1.780  -7.744  0.00  0.00    -0.303 N 
ATOM     23  H   LIG d   1       2.701   2.444  -8.313  0.00  0.00     0.148 HD
ATOM     24  H   LIG d   1       3.599   2.057  -6.947  0.00  0.00     0.148 HD
ENDBRANCH  16  22
BRANCH  20  25
ATOM     25  N   LIG d   1       3.913  -3.045  -7.852  0.00  0.00    -0.340 N 
ATOM     26  H   LIG d   1       3.655  -3.800  -8.403  0.00  0.00     0.144 HD
ATOM     27  H   LIG d   1       4.527  -3.172  -7.112  0.00  0.00     0.144 HD
ENDBRANCH  20  25
ENDBRANCH   1  15
TORSDOF 4
ENDMDL
MODEL 5
REMARK VINA RESULT:      -5.3      2.488      3.764
REMARK  4 active torsions:
REMARK  status: ('A' for Active; 'I' for Inactive)
REMARK    1  A    between atoms: C_5  and  C_7 
REMARK    2  A    between atoms: C_7  and  C_8 
REMARK    3  A    between atoms: C_9  and  N_15 
REMARK    4  A    between atoms: C_13  and  N_14 
ROOT
ATOM      1  C   LIG d   1       6.478  -1.151  -5.145  0.00  0.00     0.010 C 
ATOM      2  H   LIG d   1       7.554  -1.093  -4.971  0.00  0.00     0.037 H 
ATOM      3  H   LIG d   1       6.200  -2.183  -5.356  0.00  0.00     0.037 H 
ENDROOT
BRANCH   1   4
ATOM      4  C   LIG d   1       5.745  -0.673  -3.918  0.00  0.00    -0.024 A 
ATOM      5  C   LIG d   1       4.874  -1.521  -3.260  0.00  0.00     0.044 A 
ATOM      6  C   LIG d   1       4.202  -1.082  -2.132  0.00  0.00    -0.043 A 
ATOM      7 CL   LIG d   1       4.623  -3.136  -3.847  0.00  0.00    -0.083 Cl
ATOM      8  C   LIG d   1       4.401   0.203  -1.665  0.00  0.00    -0.060 A 
ATOM      9  H   LIG d   1       3.520  -1.744  -1.618  0.00  0.00     0.063 H 
ATOM     10  C   LIG d   1       5.273   1.050  -2.324  0.00  0.00    -0.061 A 
ATOM     11  H   LIG d   1       3.877   0.546  -0.786  0.00  0.00     0.062 H 
ATOM     12  C   LIG d   1       5.945   0.613  -3.450  0.00  0.00    -0.057 A 
ATOM     13  H   LIG d   1       5.426   2.055  -1.962  0.00  0.00     0.062 H 
ATOM     14  H   LIG d   1       6.626   1.275  -3.964  0.00  0.00     0.062 H 
ENDBRANCH   1   4
BRANCH   1  15
ATOM     15  C   LIG d   1       6.112  -0.281  -6.320  0.00  0.00     0.089 A 
ATOM     16  C   LIG d   1       6.923   0.671  -6.918  0.00  0.00     0.296 A 
ATOM     17  N   LIG d   1       6.239   1.218  -7.920  0.00  0.00    -0.109 N 
ATOM     18  N   LIG d   1       4.972   0.625  -7.964  0.00  0.00    -0.149 N 
ATOM     19  H   LIG d   1       6.562   1.913  -8.516  0.00  0.00     0.489 HD
ATOM     20  C   LIG d   1       4.900  -0.282  -6.993  0.00  0.00     0.160 A 
ATOM     21  H   LIG d   1       4.266   0.839  -8.595  0.00  0.00     0.238 HD
BRANCH  16  22
ATOM     22  N   LIG d   1       8.225   0.992  -6.542  0.00  0.00    -0.303 N 
ATOM     23  H   LIG d   1       8.793   1.497  -7.144  0.00  0.00     0.148 HD
ATOM     24  H   LIG d   1       8.564   0.711  -5.677  0.00  0.00     0.148 HD
ENDBRANCH  16  22
BRANCH  20  25
ATOM     25  N   LIG d   1       3.802  -1.089  -6.705  0.00  0.00    -0.340 N 
ATOM     26  H   LIG d   1       3.152  -1.289  -7.397  0.00  0.00     0.144 HD
ATOM     27  H   LIG d   1       3.688  -1.453  -5.813  0.00  0.00     0.144 HD
ENDBRANCH  20  25
ENDBRANCH   1  15
TORSDOF 4
ENDMDL
MODEL 6
REMARK VINA RESULT:      -5.2      2.096      2.834
REMARK  4 active torsions:
REMARK  status: ('A' for Active; 'I' for Inactive)
REMARK    1  A    between atoms: C_5  and  C_7 
REMARK    2  A    between atoms: C_7  and  C_8 
REMARK    3  A    between atoms: C_9  and  N_15 
REMARK    4  A    between atoms: C_13  and  N_14 
ROOT
ATOM      1  C   LIG d   1       6.375  -2.304  -3.475  0.00  0.00     0.010 C 
ATOM      2  H   LIG d   1       7.386  -2.338  -3.067  0.00  0.00     0.037 H 
ATOM      3  H   LIG d   1       5.796  -3.140  -3.083  0.00  0.00     0.037 H 
ENDROOT
BRANCH   1   4
ATOM      4  C   LIG d   1       5.717  -1.007  -3.079  0.00  0.00    -0.024 A 
ATOM      5  C   LIG d   1       4.477  -1.020  -2.468  0.00  0.00     0.044 A 
ATOM      6  C   LIG d   1       3.874   0.172  -2.104  0.00  0.00    -0.043 A 
ATOM      7 CL   LIG d   1       3.676  -2.529  -2.158  0.00  0.00    -0.083 Cl
ATOM      8  C   LIG d   1       4.512   1.373  -2.350  0.00  0.00    -0.060 A 
ATOM      9  H   LIG d   1       2.905   0.163  -1.626  0.00  0.00     0.063 H 
ATOM     10  C   LIG d   1       5.752   1.384  -2.961  0.00  0.00    -0.061 A 
ATOM     11  H   LIG d   1       4.041   2.302  -2.066  0.00  0.00     0.062 H 
ATOM     12  C   LIG d   1       6.355   0.195  -3.325  0.00  0.00    -0.057 A 
ATOM     13  H   LIG d   1       6.248   2.322  -3.157  0.00  0.00     0.062 H 
ATOM     14  H   LIG d   1       7.324   0.205  -3.802  0.00  0.00     0.062 H 
ENDBRANCH   1   4
BRANCH   1  15
ATOM     15  C   LIG d   1       6.436  -2.397  -4.978  0.00  0.00     0.089 A 
ATOM     16  C   LIG d   1       5.404  -2.790  -5.817  0.00  0.00     0.296 A 
ATOM     17  N   LIG d   1       5.853  -2.736  -7.068  0.00  0.00    -0.109 N 
ATOM     18  N   LIG d   1       7.189  -2.315  -7.040  0.00  0.00    -0.149 N 
ATOM     19  H   LIG d   1       5.344  -2.955  -7.865  0.00  0.00     0.489 HD
ATOM     20  C   LIG d   1       7.536  -2.111  -5.772  0.00  0.00     0.160 A 
ATOM     21  H   LIG d   1       7.762  -2.194  -7.813  0.00  0.00     0.238 HD
BRANCH  16  22
ATOM     22  N   LIG d   1       4.124  -3.169  -5.420  0.00  0.00    -0.303 N 
ATOM     23  H   LIG d   1       3.992  -3.611  -4.568  0.00  0.00     0.148 HD
ATOM     24  H   LIG d   1       3.365  -2.991  -5.998  0.00  0.00     0.148 HD
ENDBRANCH  16  22
BRANCH  20  25
ATOM     25  N   LIG d   1       8.784  -1.686  -5.323  0.00  0.00    -0.340 N 
ATOM     26  H   LIG d   1       9.590  -1.991  -5.768  0.00  0.00     0.144 HD
ATOM     27  H   LIG d   1       8.847  -1.083  -4.565  0.00  0.00     0.144 HD
ENDBRANCH  20  25
ENDBRANCH   1  15
TORSDOF 4
ENDMDL
MODEL 7
REMARK VINA RESULT:      -5.1      3.102      3.792
REMARK  4 active torsions:
REMARK  status: ('A' for Active; 'I' for Inactive)
REMARK    1  A    between atoms: C_5  and  C_7 
REMARK    2  A    between atoms: C_7  and  C_8 
REMARK    3  A    between atoms: C_9  and  N_15 
REMARK    4  A    between atoms: C_13  and  N_14 
ROOT
ATOM      1  C   LIG d   1       5.520  -1.555  -4.769  0.00  0.00     0.010 C 
ATOM      2  H   LIG d   1       5.497  -2.538  -4.298  0.00  0.00     0.037 H 
ATOM      3  H   LIG d   1       4.999  -1.598  -5.726  0.00  0.00     0.037 H 
ENDROOT
BRANCH   1   4
ATOM      4  C   LIG d   1       4.841  -0.552  -3.872  0.00  0.00    -0.024 A 
ATOM      5  C   LIG d   1       3.776   0.191  -4.346  0.00  0.00     0.044 A 
ATOM      6  C   LIG d   1       3.153   1.111  -3.521  0.00  0.00    -0.043 A 
ATOM      7 CL   LIG d   1       3.222  -0.030  -5.977  0.00  0.00    -0.083 Cl
ATOM      8  C   LIG d   1       3.595   1.286  -2.224  0.00  0.00    -0.060 A 
ATOM      9  H   LIG d   1       2.321   1.692  -3.891  0.00  0.00     0.063 H 
ATOM     10  C   LIG d   1       4.659   0.542  -1.750  0.00  0.00    -0.061 A 
ATOM     11  H   LIG d   1       3.109   2.003  -1.580  0.00  0.00     0.062 H 
ATOM     12  C   LIG d   1       5.282  -0.377  -2.573  0.00  0.00    -0.057 A 
ATOM     13  H   LIG d   1       5.007   0.681  -0.737  0.00  0.00     0.062 H 
ATOM     14  H   LIG d   1       6.114  -0.958  -2.202  0.00  0.00     0.062 H 
ENDBRANCH   1   4
BRANCH   1  15
ATOM     15  C   LIG d   1       6.951  -1.139  -4.995  0.00  0.00     0.089 A 
ATOM     16  C   LIG d   1       8.067  -1.675  -4.370  0.00  0.00     0.296 A 
ATOM     17  N   LIG d   1       9.140  -1.044  -4.841  0.00  0.00    -0.109 N 
ATOM     18  N   LIG d   1       8.716  -0.086  -5.770  0.00  0.00    -0.149 N 
ATOM     19  H   LIG d   1      10.059  -1.216  -4.583  0.00  0.00     0.489 HD
ATOM     20  C   LIG d   1       7.389  -0.148  -5.859  0.00  0.00     0.160 A 
ATOM     21  H   LIG d   1       9.290   0.520  -6.263  0.00  0.00     0.238 HD
BRANCH  16  22
ATOM     22  N   LIG d   1       8.065  -2.696  -3.423  0.00  0.00    -0.303 N 
ATOM     23  H   LIG d   1       8.054  -2.480  -2.478  0.00  0.00     0.148 HD
ATOM     24  H   LIG d   1       8.077  -3.623  -3.708  0.00  0.00     0.148 HD
ENDBRANCH  16  22
BRANCH  20  25
ATOM     25  N   LIG d   1       6.585   0.643  -6.676  0.00  0.00    -0.340 N 
ATOM     26  H   LIG d   1       6.669   1.609  -6.650  0.00  0.00     0.144 HD
ATOM     27  H   LIG d   1       5.941   0.228  -7.271  0.00  0.00     0.144 HD
ENDBRANCH  20  25
ENDBRANCH   1  15
TORSDOF 4
ENDMDL
MODEL 8
REMARK VINA RESULT:      -5.1      3.623      5.615
REMARK  4 active torsions:
REMARK  status: ('A' for Active; 'I' for Inactive)
REMARK    1  A    between atoms: C_5  and  C_7 
REMARK    2  A    between atoms: C_7  and  C_8 
REMARK    3  A    between atoms: C_9  and  N_15 
REMARK    4  A    between atoms: C_13  and  N_14 
ROOT
ATOM      1  C   LIG d   1       4.512  -0.214  -7.040  0.00  0.00     0.010 C 
ATOM      2  H   LIG d   1       5.492  -0.641  -7.257  0.00  0.00     0.037 H 
ATOM      3  H   LIG d   1       4.593   0.871  -6.985  0.00  0.00     0.037 H 
ENDROOT
BRANCH   1   4
ATOM      4  C   LIG d   1       3.545  -0.593  -8.132  0.00  0.00    -0.024 A 
ATOM      5  C   LIG d   1       2.787   0.383  -8.753  0.00  0.00     0.044 A 
ATOM      6  C   LIG d   1       1.900   0.035  -9.757  0.00  0.00    -0.043 A 
ATOM      7 CL   LIG d   1       2.947   2.044  -8.272  0.00  0.00    -0.083 Cl
ATOM      8  C   LIG d   1       1.773  -1.287 -10.139  0.00  0.00    -0.060 A 
ATOM      9  H   LIG d   1       1.307   0.796 -10.242  0.00  0.00     0.063 H 
ATOM     10  C   LIG d   1       2.532  -2.262  -9.518  0.00  0.00    -0.061 A 
ATOM     11  H   LIG d   1       1.081  -1.559 -10.922  0.00  0.00     0.062 H 
ATOM     12  C   LIG d   1       3.418  -1.915  -8.516  0.00  0.00    -0.057 A 
ATOM     13  H   LIG d   1       2.430  -3.295  -9.814  0.00  0.00     0.062 H 
ATOM     14  H   LIG d   1       4.011  -2.677  -8.031  0.00  0.00     0.062 H 
ENDBRANCH   1   4
BRANCH   1  15
ATOM     15  C   LIG d   1       4.013  -0.748  -5.721  0.00  0.00     0.089 A 
ATOM     16  C   LIG d   1       3.131  -0.112  -4.861  0.00  0.00     0.296 A 
ATOM     17  N   LIG d   1       2.939  -0.907  -3.812  0.00  0.00    -0.109 N 
ATOM     18  N   LIG d   1       3.709  -2.063  -3.988  0.00  0.00    -0.149 N 
ATOM     19  H   LIG d   1       2.366  -0.717  -3.053  0.00  0.00     0.489 HD
ATOM     20  C   LIG d   1       4.358  -1.961  -5.146  0.00  0.00     0.160 A 
ATOM     21  H   LIG d   1       3.762  -2.810  -3.371  0.00  0.00     0.238 HD
BRANCH  16  22
ATOM     22  N   LIG d   1       2.547   1.137  -5.062  0.00  0.00    -0.303 N 
ATOM     23  H   LIG d   1       2.137   1.348  -5.915  0.00  0.00     0.148 HD
ATOM     24  H   LIG d   1       2.551   1.795  -4.349  0.00  0.00     0.148 HD
ENDBRANCH  16  22
BRANCH  20  25
ATOM     25  N   LIG d   1       5.227  -2.907  -5.684  0.00  0.00    -0.340 N 
ATOM     26  H   LIG d   1       5.679  -2.728  -6.524  0.00  0.00     0.144 HD
ATOM     27  H   LIG d   1       5.383  -3.744  -5.218  0.00  0.00     0.144 HD
ENDBRANCH  20  25
ENDBRANCH   1  15
TORSDOF 4
ENDMDL
MODEL 9
REMARK VINA RESULT:      -5.1      3.619      5.380
REMARK  4 active torsions:
REMARK  status: ('A' for Active; 'I' for Inactive)
REMARK    1  A    between atoms: C_5  and  C_7 
REMARK    2  A    between atoms: C_7  and  C_8 
REMARK    3  A    between atoms: C_9  and  N_15 
REMARK    4  A    between atoms: C_13  and  N_14 
ROOT
ATOM      1  C   LIG d   1       4.504  -0.204  -6.994  0.00  0.00     0.010 C 
ATOM      2  H   LIG d   1       5.491  -0.619  -7.200  0.00  0.00     0.037 H 
ATOM      3  H   LIG d   1       4.572   0.882  -6.940  0.00  0.00     0.037 H 
ENDROOT
BRANCH   1   4
ATOM      4  C   LIG d   1       3.554  -0.595  -8.097  0.00  0.00    -0.024 A 
ATOM      5  C   LIG d   1       2.785   0.369  -8.720  0.00  0.00     0.044 A 
ATOM      6  C   LIG d   1       1.913   0.009  -9.733  0.00  0.00    -0.043 A 
ATOM      7 CL   LIG d   1       2.911   2.031  -8.233  0.00  0.00    -0.083 Cl
ATOM      8  C   LIG d   1       1.813  -1.313 -10.121  0.00  0.00    -0.060 A 
ATOM      9  H   LIG d   1       1.311   0.762 -10.221  0.00  0.00     0.063 H 
ATOM     10  C   LIG d   1       2.583  -2.277  -9.497  0.00  0.00    -0.061 A 
ATOM     11  H   LIG d   1       1.132  -1.594 -10.911  0.00  0.00     0.062 H 
ATOM     12  C   LIG d   1       3.454  -1.918  -8.486  0.00  0.00    -0.057 A 
ATOM     13  H   LIG d   1       2.501  -3.310  -9.797  0.00  0.00     0.062 H 
ATOM     14  H   LIG d   1       4.055  -2.671  -7.999  0.00  0.00     0.062 H 
ENDBRANCH   1   4
BRANCH   1  15
ATOM     15  C   LIG d   1       3.998  -0.742  -5.680  0.00  0.00     0.089 A 
ATOM     16  C   LIG d   1       4.328  -1.963  -5.114  0.00  0.00     0.296 A 
ATOM     17  N   LIG d   1       3.680  -2.064  -3.956  0.00  0.00    -0.109 N 
ATOM     18  N   LIG d   1       2.916  -0.905  -3.776  0.00  0.00    -0.149 N 
ATOM     19  H   LIG d   1       3.726  -2.815  -3.343  0.00  0.00     0.489 HD
ATOM     20  C   LIG d   1       3.112  -0.107  -4.823  0.00  0.00     0.160 A 
ATOM     21  H   LIG d   1       2.342  -0.715  -3.017  0.00  0.00     0.238 HD
BRANCH  16  22
ATOM     22  N   LIG d   1       5.190  -2.913  -5.658  0.00  0.00    -0.303 N 
ATOM     23  H   LIG d   1       5.965  -3.208  -5.156  0.00  0.00     0.148 HD
ATOM     24  H   LIG d   1       5.014  -3.279  -6.539  0.00  0.00     0.148 HD
ENDBRANCH  16  22
BRANCH  20  25
ATOM     25  N   LIG d   1       2.532   1.143  -5.021  0.00  0.00    -0.340 N 
ATOM     26  H   LIG d   1       2.269   1.420  -5.913  0.00  0.00     0.144 HD
ATOM     27  H   LIG d   1       2.389   1.737  -4.267  0.00  0.00     0.144 HD
ENDBRANCH  20  25
ENDBRANCH   1  15
TORSDOF 4
ENDMDL
