MODEL 1
REMARK VINA RESULT:      -6.8      0.000      0.000
REMARK  9 active torsions:
REMARK  status: ('A' for Active; 'I' for Inactive)
REMARK    1  A    between atoms: C_1  and  N_2 
REMARK    2  A    between atoms: C_9  and  O_33 
REMARK    3  A    between atoms: C_11  and  C_13 
REMARK    4  A    between atoms: C_13  and  N_14 
REMARK    5  A    between atoms: N_14  and  C_15 
REMARK    6  A    between atoms: N_22  and  C_25 
REMARK    7  A    between atoms: C_28  and  O_31 
REMARK    8  A    between atoms: O_31  and  C_32 
REMARK    9  A    between atoms: O_33  and  C_34 
ROOT
ATOM      1  C   LIG d   1       6.627  -0.351  -4.273  0.00  0.00     0.029 C 
ATOM      2  H   LIG d   1       7.094  -0.505  -3.301  0.00  0.00     0.048 H 
ATOM      3  H   LIG d   1       7.038  -1.061  -4.990  0.00  0.00     0.048 H 
ENDROOT
BRANCH   1   4
ATOM      4  C   LIG d   1       5.117  -0.565  -4.153  0.00  0.00     0.055 C 
ATOM      5  N   LIG d   1       4.533   0.539  -3.384  0.00  0.00    -0.297 N 
ATOM      6  C   LIG d   1       3.064   0.450  -3.401  0.00  0.00     0.003 C 
ATOM      7  C   LIG d   1       2.572   0.809  -4.803  0.00  0.00    -0.014 C 
ATOM      8  H   LIG d   1       2.755  -0.567  -3.154  0.00  0.00     0.043 H 
ATOM      9  H   LIG d   1       2.645   1.148  -2.676  0.00  0.00     0.043 H 
ATOM     10  C   LIG d   1       3.325   0.007  -5.834  0.00  0.00    -0.034 A 
ATOM     11  H   LIG d   1       1.507   0.589  -4.881  0.00  0.00     0.033 H 
ATOM     12  H   LIG d   1       2.734   1.871  -4.983  0.00  0.00     0.033 H 
ATOM     13  C   LIG d   1       4.512  -0.625  -5.531  0.00  0.00     0.020 A 
ATOM     14  C   LIG d   1       2.797  -0.085  -7.112  0.00  0.00    -0.012 A 
ATOM     15  C   LIG d   1       5.180  -1.351  -6.514  0.00  0.00     0.170 A 
ATOM     16  C   LIG d   1       4.654  -1.444  -7.795  0.00  0.00     0.208 A 
ATOM     17  C   LIG d   1       3.454  -0.808  -8.095  0.00  0.00     0.170 A 
ATOM     18  O   LIG d   1       5.102  -2.081  -8.916  0.00  0.00    -0.449 OA
ATOM     19  O   LIG d   1       3.148  -1.046  -9.403  0.00  0.00    -0.453 OA
ATOM     20  C   LIG d   1       3.961  -2.169  -9.790  0.00  0.00     0.233 C 
ATOM     21  H   LIG d   1       4.268  -2.080 -10.832  0.00  0.00     0.117 H 
ATOM     22  H   LIG d   1       3.425  -3.105  -9.627  0.00  0.00     0.117 H 
ATOM     23  H   LIG d   1       1.865   0.409  -7.345  0.00  0.00     0.066 H 
ATOM     24  H   LIG d   1       4.927  -1.505  -3.635  0.00  0.00     0.053 H 
BRANCH   5  25
ATOM     25  C   LIG d   1       5.043   0.549  -2.007  0.00  0.00    -0.012 C 
ATOM     26  H   LIG d   1       4.223   0.748  -1.317  0.00  0.00     0.039 H 
ATOM     27  H   LIG d   1       5.485  -0.421  -1.776  0.00  0.00     0.039 H 
ATOM     28  H   LIG d   1       5.801   1.327  -1.906  0.00  0.00     0.039 H 
ENDBRANCH   5  25
BRANCH  15  29
ATOM     29  O   LIG d   1       6.353  -1.971  -6.217  0.00  0.00    -0.491 OA
BRANCH  29  30
ATOM     30  C   LIG d   1       6.331  -3.397  -6.141  0.00  0.00     0.079 C 
ATOM     31  H   LIG d   1       6.329  -3.705  -5.096  0.00  0.00     0.066 H 
ATOM     32  H   LIG d   1       5.434  -3.774  -6.632  0.00  0.00     0.066 H 
ATOM     33  H   LIG d   1       7.214  -3.802  -6.638  0.00  0.00     0.066 H 
ENDBRANCH  29  30
ENDBRANCH  15  29
ENDBRANCH   1   4
BRANCH   1  34
ATOM     34  N   LIG d   1       6.892   1.015  -4.731  0.00  0.00    -0.347 N 
ATOM     35  H   LIG d   1       6.470   1.766  -4.287  0.00  0.00     0.146 HD
BRANCH  34  36
ATOM     36  C   LIG d   1       7.723   1.228  -5.771  0.00  0.00     0.007 C 
ATOM     37  C   LIG d   1       8.688   2.215  -5.694  0.00  0.00     0.113 A 
ATOM     38  C   LIG d   1       8.935   2.953  -4.443  0.00  0.00     0.265 A 
ATOM     39  C   LIG d   1       9.509   2.582  -6.862  0.00  0.00     0.258 A 
ATOM     40  N   LIG d   1       9.896   3.899  -4.440  0.00  0.00    -0.190 N 
ATOM     41  O   LIG d   1       8.294   2.710  -3.437  0.00  0.00    -0.269 OA
ATOM     42  C   LIG d   1      10.606   4.181  -5.542  0.00  0.00     0.320 A 
ATOM     43  N   LIG d   1      10.431   3.555  -6.714  0.00  0.00    -0.235 N 
ATOM     44  O   LIG d   1      11.453   5.049  -5.474  0.00  0.00    -0.251 OA
ATOM     45  H   LIG d   1      10.979   3.809  -7.473  0.00  0.00     0.159 HD
ATOM     46  O   LIG d   1       9.359   2.022  -7.932  0.00  0.00    -0.270 OA
ATOM     47  H   LIG d   1       7.637   0.626  -6.664  0.00  0.00     0.079 H 
BRANCH  40  48
ATOM     48  C   LIG d   1      10.155   4.610  -3.258  0.00  0.00     0.046 A 
ATOM     49  C   LIG d   1       9.543   5.836  -3.036  0.00  0.00    -0.036 A 
ATOM     50  C   LIG d   1       9.794   6.532  -1.871  0.00  0.00    -0.018 A 
ATOM     51  H   LIG d   1       8.867   6.243  -3.774  0.00  0.00     0.064 H 
ATOM     52  C   LIG d   1      10.665   6.013  -0.926  0.00  0.00     0.120 A 
ATOM     53  H   LIG d   1       9.314   7.484  -1.697  0.00  0.00     0.066 H 
ATOM     54  C   LIG d   1      11.282   4.790  -1.149  0.00  0.00    -0.018 A 
ATOM     55  C   LIG d   1      11.027   4.090  -2.312  0.00  0.00    -0.036 A 
ATOM     56  H   LIG d   1      11.961   4.386  -0.413  0.00  0.00     0.066 H 
ATOM     57  H   LIG d   1      11.507   3.138  -2.485  0.00  0.00     0.064 H 
BRANCH  52  58
ATOM     58  O   LIG d   1      10.916   6.701   0.219  0.00  0.00    -0.495 OA
BRANCH  58  59
ATOM     59  C   LIG d   1      11.043   5.936   1.420  0.00  0.00     0.079 C 
ATOM     60  H   LIG d   1      10.052   5.702   1.808  0.00  0.00     0.066 H 
ATOM     61  H   LIG d   1      11.577   5.010   1.206  0.00  0.00     0.066 H 
ATOM     62  H   LIG d   1      11.596   6.512   2.162  0.00  0.00     0.066 H 
ENDBRANCH  58  59
ENDBRANCH  52  58
ENDBRANCH  40  48
ENDBRANCH  34  36
ENDBRANCH   1  34
TORSDOF 9
ENDMDL
MODEL 2
REMARK VINA RESULT:      -6.4      2.232      2.498
REMARK  9 active torsions:
REMARK  status: ('A' for Active; 'I' for Inactive)
REMARK    1  A    between atoms: C_1  and  N_2 
REMARK    2  A    between atoms: C_9  and  O_33 
REMARK    3  A    between atoms: C_11  and  C_13 
REMARK    4  A    between atoms: C_13  and  N_14 
REMARK    5  A    between atoms: N_14  and  C_15 
REMARK    6  A    between atoms: N_22  and  C_25 
REMARK    7  A    between atoms: C_28  and  O_31 
REMARK    8  A    between atoms: O_31  and  C_32 
REMARK    9  A    between atoms: O_33  and  C_34 
ROOT
ATOM      1  C   LIG d   1       6.469   0.435  -5.128  0.00  0.00     0.029 C 
ATOM      2  H   LIG d   1       6.641  -0.191  -6.004  0.00  0.00     0.048 H 
ATOM      3  H   LIG d   1       5.633   1.107  -5.321  0.00  0.00     0.048 H 
ENDROOT
BRANCH   1   4
ATOM      4  C   LIG d   1       6.144  -0.451  -3.925  0.00  0.00     0.055 C 
ATOM      5  N   LIG d   1       4.962   0.080  -3.238  0.00  0.00    -0.297 N 
ATOM      6  C   LIG d   1       4.526  -0.848  -2.183  0.00  0.00     0.003 C 
ATOM      7  C   LIG d   1       3.918  -2.084  -2.845  0.00  0.00    -0.014 C 
ATOM      8  H   LIG d   1       5.382  -1.142  -1.576  0.00  0.00     0.043 H 
ATOM      9  H   LIG d   1       3.777  -0.364  -1.555  0.00  0.00     0.043 H 
ATOM     10  C   LIG d   1       4.859  -2.622  -3.893  0.00  0.00    -0.034 A 
ATOM     11  H   LIG d   1       3.742  -2.850  -2.090  0.00  0.00     0.033 H 
ATOM     12  H   LIG d   1       2.971  -1.816  -3.313  0.00  0.00     0.033 H 
ATOM     13  C   LIG d   1       5.889  -1.859  -4.399  0.00  0.00     0.020 A 
ATOM     14  C   LIG d   1       4.668  -3.918  -4.347  0.00  0.00    -0.012 A 
ATOM     15  C   LIG d   1       6.732  -2.392  -5.370  0.00  0.00     0.170 A 
ATOM     16  C   LIG d   1       6.543  -3.687  -5.828  0.00  0.00     0.208 A 
ATOM     17  C   LIG d   1       5.505  -4.455  -5.312  0.00  0.00     0.170 A 
ATOM     18  O   LIG d   1       7.216  -4.430  -6.755  0.00  0.00    -0.449 OA
ATOM     19  O   LIG d   1       5.527  -5.681  -5.913  0.00  0.00    -0.453 OA
ATOM     20  C   LIG d   1       6.834  -5.796  -6.503  0.00  0.00     0.233 C 
ATOM     21  H   LIG d   1       6.785  -6.358  -7.437  0.00  0.00     0.117 H 
ATOM     22  H   LIG d   1       7.529  -6.267  -5.808  0.00  0.00     0.117 H 
ATOM     23  H   LIG d   1       3.861  -4.514  -3.946  0.00  0.00     0.066 H 
ATOM     24  H   LIG d   1       6.990  -0.450  -3.238  0.00  0.00     0.053 H 
BRANCH   5  25
ATOM     25  C   LIG d   1       5.231   1.415  -2.687  0.00  0.00    -0.012 C 
ATOM     26  H   LIG d   1       6.248   1.450  -2.299  0.00  0.00     0.039 H 
ATOM     27  H   LIG d   1       5.115   2.162  -3.472  0.00  0.00     0.039 H 
ATOM     28  H   LIG d   1       4.527   1.623  -1.881  0.00  0.00     0.039 H 
ENDBRANCH   5  25
BRANCH  15  29
ATOM     29  O   LIG d   1       7.746  -1.637  -5.873  0.00  0.00    -0.491 OA
BRANCH  29  30
ATOM     30  C   LIG d   1       9.076  -2.022  -5.522  0.00  0.00     0.079 C 
ATOM     31  H   LIG d   1       9.631  -2.276  -6.425  0.00  0.00     0.066 H 
ATOM     32  H   LIG d   1       9.572  -1.196  -5.012  0.00  0.00     0.066 H 
ATOM     33  H   LIG d   1       9.042  -2.888  -4.861  0.00  0.00     0.066 H 
ENDBRANCH  29  30
ENDBRANCH  15  29
ENDBRANCH   1   4
BRANCH   1  34
ATOM     34  N   LIG d   1       7.673   1.220  -4.846  0.00  0.00    -0.347 N 
ATOM     35  H   LIG d   1       7.945   1.377  -3.929  0.00  0.00     0.146 HD
BRANCH  34  36
ATOM     36  C   LIG d   1       8.401   1.725  -5.862  0.00  0.00     0.007 C 
ATOM     37  C   LIG d   1       9.168   2.860  -5.665  0.00  0.00     0.113 A 
ATOM     38  C   LIG d   1       9.330   3.455  -4.327  0.00  0.00     0.265 A 
ATOM     39  C   LIG d   1       9.851   3.530  -6.786  0.00  0.00     0.258 A 
ATOM     40  N   LIG d   1      10.098   4.559  -4.210  0.00  0.00    -0.190 N 
ATOM     41  O   LIG d   1       8.793   2.961  -3.353  0.00  0.00    -0.269 OA
ATOM     42  C   LIG d   1      10.691   5.116  -5.275  0.00  0.00     0.320 A 
ATOM     43  N   LIG d   1      10.582   4.632  -6.520  0.00  0.00    -0.235 N 
ATOM     44  O   LIG d   1      11.365   6.113  -5.102  0.00  0.00    -0.251 OA
ATOM     45  H   LIG d   1      11.038   5.085  -7.247  0.00  0.00     0.159 HD
ATOM     46  O   LIG d   1       9.759   3.101  -7.920  0.00  0.00    -0.270 OA
ATOM     47  H   LIG d   1       8.387   1.244  -6.829  0.00  0.00     0.079 H 
BRANCH  40  48
ATOM     48  C   LIG d   1      10.274   5.139  -2.945  0.00  0.00     0.046 A 
ATOM     49  C   LIG d   1       9.543   6.265  -2.589  0.00  0.00    -0.036 A 
ATOM     50  C   LIG d   1       9.713   6.833  -1.343  0.00  0.00    -0.018 A 
ATOM     51  H   LIG d   1       8.838   6.693  -3.287  0.00  0.00     0.064 H 
ATOM     52  C   LIG d   1      10.622   6.287  -0.449  0.00  0.00     0.120 A 
ATOM     53  H   LIG d   1       9.141   7.706  -1.065  0.00  0.00     0.066 H 
ATOM     54  C   LIG d   1      11.357   5.165  -0.805  0.00  0.00    -0.018 A 
ATOM     55  C   LIG d   1      11.184   4.593  -2.051  0.00  0.00    -0.036 A 
ATOM     56  H   LIG d   1      12.064   4.740  -0.109  0.00  0.00     0.066 H 
ATOM     57  H   LIG d   1      11.756   3.720  -2.327  0.00  0.00     0.064 H 
BRANCH  52  58
ATOM     58  O   LIG d   1      10.792   6.849   0.777  0.00  0.00    -0.495 OA
BRANCH  58  59
ATOM     59  C   LIG d   1      11.418   8.133   0.819  0.00  0.00     0.079 C 
ATOM     60  H   LIG d   1      11.662   8.384   1.851  0.00  0.00     0.066 H 
ATOM     61  H   LIG d   1      12.331   8.113   0.225  0.00  0.00     0.066 H 
ATOM     62  H   LIG d   1      10.738   8.883   0.415  0.00  0.00     0.066 H 
ENDBRANCH  58  59
ENDBRANCH  52  58
ENDBRANCH  40  48
ENDBRANCH  34  36
ENDBRANCH   1  34
TORSDOF 9
ENDMDL
MODEL 3
REMARK VINA RESULT:      -6.3      1.688      2.007
REMARK  9 active torsions:
REMARK  status: ('A' for Active; 'I' for Inactive)
REMARK    1  A    between atoms: C_1  and  N_2 
REMARK    2  A    between atoms: C_9  and  O_33 
REMARK    3  A    between atoms: C_11  and  C_13 
REMARK    4  A    between atoms: C_13  and  N_14 
REMARK    5  A    between atoms: N_14  and  C_15 
REMARK    6  A    between atoms: N_22  and  C_25 
REMARK    7  A    between atoms: C_28  and  O_31 
REMARK    8  A    between atoms: O_31  and  C_32 
REMARK    9  A    between atoms: O_33  and  C_34 
ROOT
ATOM      1  C   LIG d   1       5.885  -2.071  -3.960  0.00  0.00     0.029 C 
ATOM      2  H   LIG d   1       6.152  -2.326  -2.936  0.00  0.00     0.048 H 
ATOM      3  H   LIG d   1       5.988  -2.951  -4.593  0.00  0.00     0.048 H 
ENDROOT
BRANCH   1   4
ATOM      4  C   LIG d   1       4.437  -1.579  -4.002  0.00  0.00     0.055 C 
ATOM      5  N   LIG d   1       4.299  -0.406  -3.134  0.00  0.00    -0.297 N 
ATOM      6  C   LIG d   1       2.962   0.190  -3.290  0.00  0.00     0.003 C 
ATOM      7  C   LIG d   1       2.886   0.860  -4.662  0.00  0.00    -0.014 C 
ATOM      8  H   LIG d   1       2.204  -0.590  -3.221  0.00  0.00     0.043 H 
ATOM      9  H   LIG d   1       2.799   0.934  -2.510  0.00  0.00     0.043 H 
ATOM     10  C   LIG d   1       3.344  -0.101  -5.730  0.00  0.00    -0.034 A 
ATOM     11  H   LIG d   1       1.857   1.159  -4.862  0.00  0.00     0.033 H 
ATOM     12  H   LIG d   1       3.526   1.741  -4.670  0.00  0.00     0.033 H 
ATOM     13  C   LIG d   1       4.071  -1.231  -5.421  0.00  0.00     0.020 A 
ATOM     14  C   LIG d   1       3.017   0.175  -7.048  0.00  0.00    -0.012 A 
ATOM     15  C   LIG d   1       4.480  -2.089  -6.439  0.00  0.00     0.170 A 
ATOM     16  C   LIG d   1       4.156  -1.815  -7.759  0.00  0.00     0.208 A 
ATOM     17  C   LIG d   1       3.419  -0.676  -8.065  0.00  0.00     0.170 A 
ATOM     18  O   LIG d   1       4.429  -2.482  -8.919  0.00  0.00    -0.449 OA
ATOM     19  O   LIG d   1       3.228  -0.628  -9.416  0.00  0.00    -0.453 OA
ATOM     20  C   LIG d   1       3.504  -1.958  -9.891  0.00  0.00     0.233 C 
ATOM     21  H   LIG d   1       3.964  -1.925 -10.879  0.00  0.00     0.117 H 
ATOM     22  H   LIG d   1       2.592  -2.555  -9.912  0.00  0.00     0.117 H 
ATOM     23  H   LIG d   1       2.445   1.060  -7.285  0.00  0.00     0.066 H 
ATOM     24  H   LIG d   1       3.778  -2.371  -3.644  0.00  0.00     0.053 H 
BRANCH   5  25
ATOM     25  C   LIG d   1       4.559  -0.755  -1.732  0.00  0.00    -0.012 C 
ATOM     26  H   LIG d   1       5.483  -0.279  -1.404  0.00  0.00     0.039 H 
ATOM     27  H   LIG d   1       3.732  -0.409  -1.111  0.00  0.00     0.039 H 
ATOM     28  H   LIG d   1       4.655  -1.837  -1.639  0.00  0.00     0.039 H 
ENDBRANCH   5  25
BRANCH  15  29
ATOM     29  O   LIG d   1       5.201  -3.202  -6.136  0.00  0.00    -0.491 OA
BRANCH  29  30
ATOM     30  C   LIG d   1       4.544  -4.461  -6.288  0.00  0.00     0.079 C 
ATOM     31  H   LIG d   1       4.254  -4.840  -5.308  0.00  0.00     0.066 H 
ATOM     32  H   LIG d   1       3.655  -4.336  -6.906  0.00  0.00     0.066 H 
ATOM     33  H   LIG d   1       5.221  -5.170  -6.765  0.00  0.00     0.066 H 
ENDBRANCH  29  30
ENDBRANCH  15  29
ENDBRANCH   1   4
BRANCH   1  34
ATOM     34  N   LIG d   1       6.774  -1.012  -4.447  0.00  0.00    -0.347 N 
ATOM     35  H   LIG d   1       6.563  -0.083  -4.270  0.00  0.00     0.146 HD
BRANCH  34  36
ATOM     36  C   LIG d   1       7.884  -1.332  -5.141  0.00  0.00     0.007 C 
ATOM     37  C   LIG d   1       8.876  -0.387  -5.332  0.00  0.00     0.113 A 
ATOM     38  C   LIG d   1       8.822   0.928  -4.670  0.00  0.00     0.265 A 
ATOM     39  C   LIG d   1      10.028  -0.648  -6.214  0.00  0.00     0.258 A 
ATOM     40  N   LIG d   1       9.827   1.798  -4.899  0.00  0.00    -0.190 N 
ATOM     41  O   LIG d   1       7.900   1.219  -3.931  0.00  0.00    -0.269 OA
ATOM     42  C   LIG d   1      10.846   1.493  -5.715  0.00  0.00     0.320 A 
ATOM     43  N   LIG d   1      10.956   0.320  -6.354  0.00  0.00    -0.235 N 
ATOM     44  O   LIG d   1      11.717   2.324  -5.883  0.00  0.00    -0.251 OA
ATOM     45  H   LIG d   1      11.721   0.164  -6.931  0.00  0.00     0.159 HD
ATOM     46  O   LIG d   1      10.138  -1.708  -6.800  0.00  0.00    -0.270 OA
ATOM     47  H   LIG d   1       8.001  -2.327  -5.546  0.00  0.00     0.079 H 
BRANCH  40  48
ATOM     48  C   LIG d   1       9.802   3.054  -4.273  0.00  0.00     0.046 A 
ATOM     49  C   LIG d   1       9.289   4.155  -4.946  0.00  0.00    -0.036 A 
ATOM     50  C   LIG d   1       9.261   5.389  -4.328  0.00  0.00    -0.018 A 
ATOM     51  H   LIG d   1       8.909   4.044  -5.951  0.00  0.00     0.064 H 
ATOM     52  C   LIG d   1       9.754   5.532  -3.040  0.00  0.00     0.120 A 
ATOM     53  H   LIG d   1       8.857   6.244  -4.850  0.00  0.00     0.066 H 
ATOM     54  C   LIG d   1      10.272   4.434  -2.369  0.00  0.00    -0.018 A 
ATOM     55  C   LIG d   1      10.296   3.197  -2.985  0.00  0.00    -0.036 A 
ATOM     56  H   LIG d   1      10.655   4.546  -1.366  0.00  0.00     0.066 H 
ATOM     57  H   LIG d   1      10.699   2.343  -2.462  0.00  0.00     0.064 H 
BRANCH  52  58
ATOM     58  O   LIG d   1       9.729   6.749  -2.434  0.00  0.00    -0.495 OA
BRANCH  58  59
ATOM     59  C   LIG d   1      10.216   6.814  -1.092  0.00  0.00     0.079 C 
ATOM     60  H   LIG d   1       9.782   6.002  -0.508  0.00  0.00     0.066 H 
ATOM     61  H   LIG d   1      11.302   6.718  -1.094  0.00  0.00     0.066 H 
ATOM     62  H   LIG d   1       9.937   7.769  -0.649  0.00  0.00     0.066 H 
ENDBRANCH  58  59
ENDBRANCH  52  58
ENDBRANCH  40  48
ENDBRANCH  34  36
ENDBRANCH   1  34
TORSDOF 9
ENDMDL
MODEL 4
REMARK VINA RESULT:      -6.3      6.659     11.403
REMARK  9 active torsions:
REMARK  status: ('A' for Active; 'I' for Inactive)
REMARK    1  A    between atoms: C_1  and  N_2 
REMARK    2  A    between atoms: C_9  and  O_33 
REMARK    3  A    between atoms: C_11  and  C_13 
REMARK    4  A    between atoms: C_13  and  N_14 
REMARK    5  A    between atoms: N_14  and  C_15 
REMARK    6  A    between atoms: N_22  and  C_25 
REMARK    7  A    between atoms: C_28  and  O_31 
REMARK    8  A    between atoms: O_31  and  C_32 
REMARK    9  A    between atoms: O_33  and  C_34 
ROOT
ATOM      1  C   LIG d   1       8.886  10.802  -1.835  0.00  0.00     0.029 C 
ATOM      2  H   LIG d   1       8.460   9.909  -1.379  0.00  0.00     0.048 H 
ATOM      3  H   LIG d   1       8.281  11.669  -1.568  0.00  0.00     0.048 H 
ENDROOT
BRANCH   1   4
ATOM      4  C   LIG d   1      10.315  11.002  -1.327  0.00  0.00     0.055 C 
ATOM      5  N   LIG d   1      10.417  12.310  -0.673  0.00  0.00    -0.297 N 
ATOM      6  C   LIG d   1      11.730  12.455  -0.025  0.00  0.00     0.003 C 
ATOM      7  C   LIG d   1      11.771  11.539   1.199  0.00  0.00    -0.014 C 
ATOM      8  H   LIG d   1      12.517  12.168  -0.723  0.00  0.00     0.043 H 
ATOM      9  H   LIG d   1      11.874  13.490   0.288  0.00  0.00     0.043 H 
ATOM     10  C   LIG d   1      11.339  10.147   0.814  0.00  0.00    -0.034 A 
ATOM     11  H   LIG d   1      12.786  11.507   1.594  0.00  0.00     0.033 H 
ATOM     12  H   LIG d   1      11.099  11.928   1.964  0.00  0.00     0.033 H 
ATOM     13  C   LIG d   1      10.656   9.900  -0.358  0.00  0.00     0.020 A 
ATOM     14  C   LIG d   1      11.645   9.102   1.673  0.00  0.00    -0.012 A 
ATOM     15  C   LIG d   1      10.270   8.600  -0.672  0.00  0.00     0.170 A 
ATOM     16  C   LIG d   1      10.573   7.552   0.185  0.00  0.00     0.208 A 
ATOM     17  C   LIG d   1      11.266   7.805   1.364  0.00  0.00     0.170 A 
ATOM     18  O   LIG d   1      10.314   6.214   0.110  0.00  0.00    -0.449 OA
ATOM     19  O   LIG d   1      11.443   6.626   2.029  0.00  0.00    -0.453 OA
ATOM     20  C   LIG d   1      11.211   5.596   1.052  0.00  0.00     0.233 C 
ATOM     21  H   LIG d   1      10.742   4.727   1.515  0.00  0.00     0.117 H 
ATOM     22  H   LIG d   1      12.144   5.313   0.563  0.00  0.00     0.117 H 
ATOM     23  H   LIG d   1      12.182   9.299   2.588  0.00  0.00     0.066 H 
ATOM     24  H   LIG d   1      11.005  10.966  -2.170  0.00  0.00     0.053 H 
BRANCH   5  25
ATOM     25  C   LIG d   1      10.181  13.397  -1.632  0.00  0.00    -0.012 C 
ATOM     26  H   LIG d   1       9.802  12.983  -2.566  0.00  0.00     0.039 H 
ATOM     27  H   LIG d   1       9.450  14.093  -1.220  0.00  0.00     0.039 H 
ATOM     28  H   LIG d   1      11.117  13.924  -1.821  0.00  0.00     0.039 H 
ENDBRANCH   5  25
BRANCH  15  29
ATOM     29  O   LIG d   1       9.592   8.357  -1.825  0.00  0.00    -0.491 OA
BRANCH  29  30
ATOM     30  C   LIG d   1      10.152   7.390  -2.715  0.00  0.00     0.079 C 
ATOM     31  H   LIG d   1      11.124   7.737  -3.065  0.00  0.00     0.066 H 
ATOM     32  H   LIG d   1      10.273   6.441  -2.192  0.00  0.00     0.066 H 
ATOM     33  H   LIG d   1       9.487   7.251  -3.568  0.00  0.00     0.066 H 
ENDBRANCH  29  30
ENDBRANCH  15  29
ENDBRANCH   1   4
BRANCH   1  34
ATOM     34  N   LIG d   1       8.902  10.646  -3.291  0.00  0.00    -0.347 N 
ATOM     35  H   LIG d   1       8.709   9.784  -3.689  0.00  0.00     0.146 HD
BRANCH  34  36
ATOM     36  C   LIG d   1       9.187  11.703  -4.079  0.00  0.00     0.007 C 
ATOM     37  C   LIG d   1       9.646  11.501  -5.367  0.00  0.00     0.113 A 
ATOM     38  C   LIG d   1       9.694  10.154  -5.964  0.00  0.00     0.265 A 
ATOM     39  C   LIG d   1      10.115  12.622  -6.202  0.00  0.00     0.258 A 
ATOM     40  N   LIG d   1      10.148  10.033  -7.229  0.00  0.00    -0.190 N 
ATOM     41  O   LIG d   1       9.328   9.179  -5.335  0.00  0.00    -0.269 OA
ATOM     42  C   LIG d   1      10.559  11.099  -7.930  0.00  0.00     0.320 A 
ATOM     43  N   LIG d   1      10.549  12.350  -7.450  0.00  0.00    -0.235 N 
ATOM     44  O   LIG d   1      10.963  10.921  -9.063  0.00  0.00    -0.251 OA
ATOM     45  H   LIG d   1      10.861  13.077  -8.012  0.00  0.00     0.159 HD
ATOM     46  O   LIG d   1      10.110  13.761  -5.776  0.00  0.00    -0.270 OA
ATOM     47  H   LIG d   1       9.056  12.708  -3.704  0.00  0.00     0.079 H 
BRANCH  40  48
ATOM     48  C   LIG d   1      10.196   8.762  -7.820  0.00  0.00     0.046 A 
ATOM     49  C   LIG d   1      11.370   8.021  -7.779  0.00  0.00    -0.036 A 
ATOM     50  C   LIG d   1      11.415   6.769  -8.357  0.00  0.00    -0.018 A 
ATOM     51  H   LIG d   1      12.245   8.423  -7.289  0.00  0.00     0.064 H 
ATOM     52  C   LIG d   1      10.294   6.255  -8.989  0.00  0.00     0.120 A 
ATOM     53  H   LIG d   1      12.326   6.190  -8.320  0.00  0.00     0.066 H 
ATOM     54  C   LIG d   1       9.122   6.997  -9.037  0.00  0.00    -0.018 A 
ATOM     55  C   LIG d   1       9.074   8.248  -8.454  0.00  0.00    -0.036 A 
ATOM     56  H   LIG d   1       8.249   6.596  -9.529  0.00  0.00     0.066 H 
ATOM     57  H   LIG d   1       8.162   8.825  -8.490  0.00  0.00     0.064 H 
BRANCH  52  58
ATOM     58  O   LIG d   1      10.340   5.023  -9.563  0.00  0.00    -0.495 OA
BRANCH  58  59
ATOM     59  C   LIG d   1       9.182   4.197  -9.420  0.00  0.00     0.079 C 
ATOM     60  H   LIG d   1       9.262   3.340 -10.088  0.00  0.00     0.066 H 
ATOM     61  H   LIG d   1       9.110   3.849  -8.390  0.00  0.00     0.066 H 
ATOM     62  H   LIG d   1       8.292   4.772  -9.672  0.00  0.00     0.066 H 
ENDBRANCH  58  59
ENDBRANCH  52  58
ENDBRANCH  40  48
ENDBRANCH  34  36
ENDBRANCH   1  34
TORSDOF 9
ENDMDL
MODEL 5
REMARK VINA RESULT:      -6.3      5.356     10.400
REMARK  9 active torsions:
REMARK  status: ('A' for Active; 'I' for Inactive)
REMARK    1  A    between atoms: C_1  and  N_2 
REMARK    2  A    between atoms: C_9  and  O_33 
REMARK    3  A    between atoms: C_11  and  C_13 
REMARK    4  A    between atoms: C_13  and  N_14 
REMARK    5  A    between atoms: N_14  and  C_15 
REMARK    6  A    between atoms: N_22  and  C_25 
REMARK    7  A    between atoms: C_28  and  O_31 
REMARK    8  A    between atoms: O_31  and  C_32 
REMARK    9  A    between atoms: O_33  and  C_34 
ROOT
ATOM      1  C   LIG d   1       5.515  -2.951  -7.042  0.00  0.00     0.029 C 
ATOM      2  H   LIG d   1       6.033  -3.357  -7.910  0.00  0.00     0.048 H 
ATOM      3  H   LIG d   1       6.182  -2.968  -6.181  0.00  0.00     0.048 H 
ENDROOT
BRANCH   1   4
ATOM      4  C   LIG d   1       5.091  -1.510  -7.330  0.00  0.00     0.055 C 
ATOM      5  N   LIG d   1       4.112  -1.503  -8.422  0.00  0.00    -0.297 N 
ATOM      6  C   LIG d   1       3.559  -0.151  -8.603  0.00  0.00     0.003 C 
ATOM      7  C   LIG d   1       2.643   0.160  -7.419  0.00  0.00    -0.014 C 
ATOM      8  H   LIG d   1       4.371   0.575  -8.638  0.00  0.00     0.043 H 
ATOM      9  H   LIG d   1       2.986  -0.110  -9.529  0.00  0.00     0.043 H 
ATOM     10  C   LIG d   1       3.360  -0.126  -6.124  0.00  0.00    -0.034 A 
ATOM     11  H   LIG d   1       2.358   1.212  -7.449  0.00  0.00     0.033 H 
ATOM     12  H   LIG d   1       1.748  -0.458  -7.481  0.00  0.00     0.033 H 
ATOM     13  C   LIG d   1       4.495  -0.909  -6.084  0.00  0.00     0.020 A 
ATOM     14  C   LIG d   1       2.852   0.419  -4.955  0.00  0.00    -0.012 A 
ATOM     15  C   LIG d   1       5.123  -1.154  -4.866  0.00  0.00     0.170 A 
ATOM     16  C   LIG d   1       4.617  -0.612  -3.694  0.00  0.00     0.208 A 
ATOM     17  C   LIG d   1       3.474   0.181  -3.740  0.00  0.00     0.170 A 
ATOM     18  O   LIG d   1       5.037  -0.697  -2.398  0.00  0.00    -0.449 OA
ATOM     19  O   LIG d   1       3.178   0.594  -2.473  0.00  0.00    -0.453 OA
ATOM     20  C   LIG d   1       4.380   0.383  -1.709  0.00  0.00     0.233 C 
ATOM     21  H   LIG d   1       4.137   0.094  -0.685  0.00  0.00     0.117 H 
ATOM     22  H   LIG d   1       5.002   1.278  -1.717  0.00  0.00     0.117 H 
ATOM     23  H   LIG d   1       1.965   1.034  -4.990  0.00  0.00     0.066 H 
ATOM     24  H   LIG d   1       5.965  -0.930  -7.627  0.00  0.00     0.053 H 
BRANCH   5  25
ATOM     25  C   LIG d   1       4.711  -1.997  -9.669  0.00  0.00    -0.012 C 
ATOM     26  H   LIG d   1       4.042  -1.785 -10.502  0.00  0.00     0.039 H 
ATOM     27  H   LIG d   1       5.667  -1.500  -9.835  0.00  0.00     0.039 H 
ATOM     28  H   LIG d   1       4.869  -3.073  -9.594  0.00  0.00     0.039 H 
ENDBRANCH   5  25
BRANCH  15  29
ATOM     29  O   LIG d   1       6.239  -1.930  -4.826  0.00  0.00    -0.491 OA
BRANCH  29  30
ATOM     30  C   LIG d   1       7.475  -1.274  -4.535  0.00  0.00     0.079 C 
ATOM     31  H   LIG d   1       8.288  -1.999  -4.568  0.00  0.00     0.066 H 
ATOM     32  H   LIG d   1       7.655  -0.493  -5.273  0.00  0.00     0.066 H 
ATOM     33  H   LIG d   1       7.425  -0.829  -3.540  0.00  0.00     0.066 H 
ENDBRANCH  29  30
ENDBRANCH  15  29
ENDBRANCH   1   4
BRANCH   1  34
ATOM     34  N   LIG d   1       4.329  -3.762  -6.758  0.00  0.00    -0.347 N 
ATOM     35  H   LIG d   1       3.918  -3.730  -5.880  0.00  0.00     0.146 HD
BRANCH  34  36
ATOM     36  C   LIG d   1       3.808  -4.553  -7.717  0.00  0.00     0.007 C 
ATOM     37  C   LIG d   1       3.993  -5.922  -7.659  0.00  0.00     0.113 A 
ATOM     38  C   LIG d   1       4.623  -6.564  -6.491  0.00  0.00     0.265 A 
ATOM     39  C   LIG d   1       3.577  -6.803  -8.765  0.00  0.00     0.258 A 
ATOM     40  N   LIG d   1       4.766  -7.906  -6.501  0.00  0.00    -0.190 N 
ATOM     41  O   LIG d   1       4.998  -5.903  -5.541  0.00  0.00    -0.269 OA
ATOM     42  C   LIG d   1       4.363  -8.645  -7.545  0.00  0.00     0.320 A 
ATOM     43  N   LIG d   1       3.789  -8.129  -8.640  0.00  0.00    -0.235 N 
ATOM     44  O   LIG d   1       4.526  -9.849  -7.493  0.00  0.00    -0.251 OA
ATOM     45  H   LIG d   1       3.521  -8.722  -9.359  0.00  0.00     0.159 HD
ATOM     46  O   LIG d   1       3.055  -6.346  -9.765  0.00  0.00    -0.270 OA
ATOM     47  H   LIG d   1       3.245  -4.119  -8.530  0.00  0.00     0.079 H 
BRANCH  40  48
ATOM     48  C   LIG d   1       5.356  -8.540  -5.398  0.00  0.00     0.046 A 
ATOM     49  C   LIG d   1       6.730  -8.474  -5.211  0.00  0.00    -0.036 A 
ATOM     50  C   LIG d   1       7.309  -9.094  -4.123  0.00  0.00    -0.018 A 
ATOM     51  H   LIG d   1       7.345  -7.933  -5.916  0.00  0.00     0.064 H 
ATOM     52  C   LIG d   1       6.521  -9.793  -3.221  0.00  0.00     0.120 A 
ATOM     53  H   LIG d   1       8.378  -9.039  -3.975  0.00  0.00     0.066 H 
ATOM     54  C   LIG d   1       5.148  -9.865  -3.409  0.00  0.00    -0.018 A 
ATOM     55  C   LIG d   1       4.567  -9.240  -4.496  0.00  0.00    -0.036 A 
ATOM     56  H   LIG d   1       4.534 -10.409  -2.707  0.00  0.00     0.066 H 
ATOM     57  H   LIG d   1       3.499  -9.295  -4.642  0.00  0.00     0.064 H 
BRANCH  52  58
ATOM     58  O   LIG d   1       7.092 -10.408  -2.151  0.00  0.00    -0.495 OA
BRANCH  58  59
ATOM     59  C   LIG d   1       6.209 -10.991  -1.191  0.00  0.00     0.079 C 
ATOM     60  H   LIG d   1       6.623 -11.936  -0.843  0.00  0.00     0.066 H 
ATOM     61  H   LIG d   1       6.092 -10.313  -0.346  0.00  0.00     0.066 H 
ATOM     62  H   LIG d   1       5.237 -11.168  -1.651  0.00  0.00     0.066 H 
ENDBRANCH  58  59
ENDBRANCH  52  58
ENDBRANCH  40  48
ENDBRANCH  34  36
ENDBRANCH   1  34
TORSDOF 9
ENDMDL
MODEL 6
REMARK VINA RESULT:      -6.3      2.034      4.756
REMARK  9 active torsions:
REMARK  status: ('A' for Active; 'I' for Inactive)
REMARK    1  A    between atoms: C_1  and  N_2 
REMARK    2  A    between atoms: C_9  and  O_33 
REMARK    3  A    between atoms: C_11  and  C_13 
REMARK    4  A    between atoms: C_13  and  N_14 
REMARK    5  A    between atoms: N_14  and  C_15 
REMARK    6  A    between atoms: N_22  and  C_25 
REMARK    7  A    between atoms: C_28  and  O_31 
REMARK    8  A    between atoms: O_31  and  C_32 
REMARK    9  A    between atoms: O_33  and  C_34 
ROOT
ATOM      1  C   LIG d   1       6.482  -0.444  -4.208  0.00  0.00     0.029 C 
ATOM      2  H   LIG d   1       6.826  -0.646  -3.194  0.00  0.00     0.048 H 
ATOM      3  H   LIG d   1       7.066  -1.035  -4.913  0.00  0.00     0.048 H 
ENDROOT
BRANCH   1   4
ATOM      4  C   LIG d   1       5.004  -0.817  -4.330  0.00  0.00     0.055 C 
ATOM      5  N   LIG d   1       4.227  -0.035  -3.363  0.00  0.00    -0.297 N 
ATOM      6  C   LIG d   1       2.786  -0.247  -3.577  0.00  0.00     0.003 C 
ATOM      7  C   LIG d   1       2.381   0.452  -4.874  0.00  0.00    -0.014 C 
ATOM      8  H   LIG d   1       2.580  -1.315  -3.656  0.00  0.00     0.043 H 
ATOM      9  H   LIG d   1       2.226   0.176  -2.743  0.00  0.00     0.043 H 
ATOM     10  C   LIG d   1       3.312   0.047  -5.989  0.00  0.00    -0.034 A 
ATOM     11  H   LIG d   1       1.361   0.168  -5.135  0.00  0.00     0.033 H 
ATOM     12  H   LIG d   1       2.431   1.531  -4.736  0.00  0.00     0.033 H 
ATOM     13  C   LIG d   1       4.535  -0.536  -5.733  0.00  0.00     0.020 A 
ATOM     14  C   LIG d   1       2.913   0.276  -7.297  0.00  0.00    -0.012 A 
ATOM     15  C   LIG d   1       5.368  -0.889  -6.792  0.00  0.00     0.170 A 
ATOM     16  C   LIG d   1       4.972  -0.660  -8.102  0.00  0.00     0.208 A 
ATOM     17  C   LIG d   1       3.736  -0.074  -8.355  0.00  0.00     0.170 A 
ATOM     18  O   LIG d   1       5.589  -0.908  -9.294  0.00  0.00    -0.449 OA
ATOM     19  O   LIG d   1       3.576   0.043  -9.706  0.00  0.00    -0.453 OA
ATOM     20  C   LIG d   1       4.548  -0.846 -10.286  0.00  0.00     0.233 C 
ATOM     21  H   LIG d   1       4.933  -0.435 -11.221  0.00  0.00     0.117 H 
ATOM     22  H   LIG d   1       4.115  -1.833 -10.450  0.00  0.00     0.117 H 
ATOM     23  H   LIG d   1       1.953   0.731  -7.493  0.00  0.00     0.066 H 
ATOM     24  H   LIG d   1       4.882  -1.879  -4.115  0.00  0.00     0.053 H 
BRANCH   5  25
ATOM     25  C   LIG d   1       4.609  -0.373  -1.985  0.00  0.00    -0.012 C 
ATOM     26  H   LIG d   1       4.087  -1.277  -1.674  0.00  0.00     0.039 H 
ATOM     27  H   LIG d   1       5.686  -0.540  -1.938  0.00  0.00     0.039 H 
ATOM     28  H   LIG d   1       4.340   0.450  -1.322  0.00  0.00     0.039 H 
ENDBRANCH   5  25
BRANCH  15  29
ATOM     29  O   LIG d   1       6.575  -1.460  -6.540  0.00  0.00    -0.491 OA
BRANCH  29  30
ATOM     30  C   LIG d   1       6.717  -2.845  -6.862  0.00  0.00     0.079 C 
ATOM     31  H   LIG d   1       7.658  -3.217  -6.457  0.00  0.00     0.066 H 
ATOM     32  H   LIG d   1       5.889  -3.406  -6.429  0.00  0.00     0.066 H 
ATOM     33  H   LIG d   1       6.713  -2.969  -7.945  0.00  0.00     0.066 H 
ENDBRANCH  29  30
ENDBRANCH  15  29
ENDBRANCH   1   4
BRANCH   1  34
ATOM     34  N   LIG d   1       6.653   0.980  -4.506  0.00  0.00    -0.347 N 
ATOM     35  H   LIG d   1       6.119   1.398  -5.200  0.00  0.00     0.146 HD
BRANCH  34  36
ATOM     36  C   LIG d   1       7.553   1.710  -3.817  0.00  0.00     0.007 C 
ATOM     37  C   LIG d   1       8.583   2.347  -4.484  0.00  0.00     0.113 A 
ATOM     38  C   LIG d   1       8.644   2.375  -5.957  0.00  0.00     0.265 A 
ATOM     39  C   LIG d   1       9.672   3.021  -3.755  0.00  0.00     0.258 A 
ATOM     40  N   LIG d   1       9.675   3.021  -6.540  0.00  0.00    -0.190 N 
ATOM     41  O   LIG d   1       7.783   1.837  -6.628  0.00  0.00    -0.269 OA
ATOM     42  C   LIG d   1      10.632   3.614  -5.811  0.00  0.00     0.320 A 
ATOM     43  N   LIG d   1      10.644   3.622  -4.472  0.00  0.00    -0.235 N 
ATOM     44  O   LIG d   1      11.537   4.174  -6.399  0.00  0.00    -0.251 OA
ATOM     45  H   LIG d   1      11.368   4.070  -4.006  0.00  0.00     0.159 HD
ATOM     46  O   LIG d   1       9.693   3.035  -2.539  0.00  0.00    -0.270 OA
ATOM     47  H   LIG d   1       7.470   1.798  -2.744  0.00  0.00     0.079 H 
BRANCH  40  48
ATOM     48  C   LIG d   1       9.750   3.068  -7.940  0.00  0.00     0.046 A 
ATOM     49  C   LIG d   1       9.224   4.153  -8.628  0.00  0.00    -0.036 A 
ATOM     50  C   LIG d   1       9.302   4.201 -10.005  0.00  0.00    -0.018 A 
ATOM     51  H   LIG d   1       8.758   4.962  -8.084  0.00  0.00     0.064 H 
ATOM     52  C   LIG d   1       9.896   3.160 -10.703  0.00  0.00     0.120 A 
ATOM     53  H   LIG d   1       8.898   5.047 -10.540  0.00  0.00     0.066 H 
ATOM     54  C   LIG d   1      10.418   2.072 -10.017  0.00  0.00    -0.018 A 
ATOM     55  C   LIG d   1      10.344   2.027  -8.638  0.00  0.00    -0.036 A 
ATOM     56  H   LIG d   1      10.880   1.263 -10.561  0.00  0.00     0.066 H 
ATOM     57  H   LIG d   1      10.750   1.180  -8.105  0.00  0.00     0.064 H 
BRANCH  52  58
ATOM     58  O   LIG d   1       9.970   3.205 -12.060  0.00  0.00    -0.495 OA
BRANCH  58  59
ATOM     59  C   LIG d   1      10.372   4.445 -12.646  0.00  0.00     0.079 C 
ATOM     60  H   LIG d   1      10.367   5.225 -11.886  0.00  0.00     0.066 H 
ATOM     61  H   LIG d   1      11.378   4.344 -13.055  0.00  0.00     0.066 H 
ATOM     62  H   LIG d   1       9.680   4.712 -13.445  0.00  0.00     0.066 H 
ENDBRANCH  58  59
ENDBRANCH  52  58
ENDBRANCH  40  48
ENDBRANCH  34  36
ENDBRANCH   1  34
TORSDOF 9
ENDMDL
MODEL 7
REMARK VINA RESULT:      -6.2      2.584      4.443
REMARK  9 active torsions:
REMARK  status: ('A' for Active; 'I' for Inactive)
REMARK    1  A    between atoms: C_1  and  N_2 
REMARK    2  A    between atoms: C_9  and  O_33 
REMARK    3  A    between atoms: C_11  and  C_13 
REMARK    4  A    between atoms: C_13  and  N_14 
REMARK    5  A    between atoms: N_14  and  C_15 
REMARK    6  A    between atoms: N_22  and  C_25 
REMARK    7  A    between atoms: C_28  and  O_31 
REMARK    8  A    between atoms: O_31  and  C_32 
REMARK    9  A    between atoms: O_33  and  C_34 
ROOT
ATOM      1  C   LIG d   1       5.517  -1.445  -7.914  0.00  0.00     0.029 C 
ATOM      2  H   LIG d   1       5.692  -1.855  -8.908  0.00  0.00     0.048 H 
ATOM      3  H   LIG d   1       4.983  -0.499  -8.000  0.00  0.00     0.048 H 
ENDROOT
BRANCH   1   4
ATOM      4  C   LIG d   1       4.681  -2.431  -7.095  0.00  0.00     0.055 C 
ATOM      5  N   LIG d   1       5.314  -3.752  -7.137  0.00  0.00    -0.297 N 
ATOM      6  C   LIG d   1       4.627  -4.676  -6.220  0.00  0.00     0.003 C 
ATOM      7  C   LIG d   1       4.955  -4.266  -4.784  0.00  0.00    -0.014 C 
ATOM      8  H   LIG d   1       3.550  -4.618  -6.380  0.00  0.00     0.043 H 
ATOM      9  H   LIG d   1       4.972  -5.694  -6.397  0.00  0.00     0.043 H 
ATOM     10  C   LIG d   1       4.702  -2.791  -4.599  0.00  0.00    -0.034 A 
ATOM     11  H   LIG d   1       4.327  -4.830  -4.094  0.00  0.00     0.033 H 
ATOM     12  H   LIG d   1       6.003  -4.482  -4.576  0.00  0.00     0.033 H 
ATOM     13  C   LIG d   1       4.581  -1.938  -5.675  0.00  0.00     0.020 A 
ATOM     14  C   LIG d   1       4.591  -2.299  -3.307  0.00  0.00    -0.012 A 
ATOM     15  C   LIG d   1       4.354  -0.581  -5.460  0.00  0.00     0.170 A 
ATOM     16  C   LIG d   1       4.244  -0.085  -4.170  0.00  0.00     0.208 A 
ATOM     17  C   LIG d   1       4.362  -0.950  -3.087  0.00  0.00     0.170 A 
ATOM     18  O   LIG d   1       4.025   1.177  -3.698  0.00  0.00    -0.449 OA
ATOM     19  O   LIG d   1       4.216  -0.232  -1.935  0.00  0.00    -0.453 OA
ATOM     20  C   LIG d   1       3.603   1.009  -2.331  0.00  0.00     0.233 C 
ATOM     21  H   LIG d   1       3.967   1.831  -1.713  0.00  0.00     0.117 H 
ATOM     22  H   LIG d   1       2.517   0.936  -2.272  0.00  0.00     0.117 H 
ATOM     23  H   LIG d   1       4.683  -2.970  -2.467  0.00  0.00     0.066 H 
ATOM     24  H   LIG d   1       3.681  -2.496  -7.525  0.00  0.00     0.053 H 
BRANCH   5  25
ATOM     25  C   LIG d   1       5.329  -4.286  -8.506  0.00  0.00    -0.012 C 
ATOM     26  H   LIG d   1       5.543  -5.354  -8.477  0.00  0.00     0.039 H 
ATOM     27  H   LIG d   1       4.356  -4.123  -8.970  0.00  0.00     0.039 H 
ATOM     28  H   LIG d   1       6.098  -3.775  -9.086  0.00  0.00     0.039 H 
ENDBRANCH   5  25
BRANCH  15  29
ATOM     29  O   LIG d   1       4.240   0.261  -6.522  0.00  0.00    -0.491 OA
BRANCH  29  30
ATOM     30  C   LIG d   1       2.918   0.575  -6.961  0.00  0.00     0.079 C 
ATOM     31  H   LIG d   1       2.826   1.653  -7.095  0.00  0.00     0.066 H 
ATOM     32  H   LIG d   1       2.720   0.073  -7.908  0.00  0.00     0.066 H 
ATOM     33  H   LIG d   1       2.197   0.239  -6.215  0.00  0.00     0.066 H 
ENDBRANCH  29  30
ENDBRANCH  15  29
ENDBRANCH   1   4
BRANCH   1  34
ATOM     34  N   LIG d   1       6.802  -1.222  -7.245  0.00  0.00    -0.347 N 
ATOM     35  H   LIG d   1       6.825  -0.993  -6.304  0.00  0.00     0.146 HD
BRANCH  34  36
ATOM     36  C   LIG d   1       7.951  -1.335  -7.941  0.00  0.00     0.007 C 
ATOM     37  C   LIG d   1       8.998  -0.466  -7.692  0.00  0.00     0.113 A 
ATOM     38  C   LIG d   1       8.949   0.497  -6.576  0.00  0.00     0.265 A 
ATOM     39  C   LIG d   1      10.207  -0.456  -8.534  0.00  0.00     0.258 A 
ATOM     40  N   LIG d   1      10.009   1.310  -6.390  0.00  0.00    -0.190 N 
ATOM     41  O   LIG d   1       7.982   0.551  -5.840  0.00  0.00    -0.269 OA
ATOM     42  C   LIG d   1      11.078   1.264  -7.197  0.00  0.00     0.320 A 
ATOM     43  N   LIG d   1      11.188   0.420  -8.232  0.00  0.00    -0.235 N 
ATOM     44  O   LIG d   1      11.998   2.028  -6.978  0.00  0.00    -0.251 OA
ATOM     45  H   LIG d   1      11.990   0.439  -8.778  0.00  0.00     0.159 HD
ATOM     46  O   LIG d   1      10.317  -1.216  -9.477  0.00  0.00    -0.270 OA
ATOM     47  H   LIG d   1       8.056  -2.104  -8.692  0.00  0.00     0.079 H 
BRANCH  40  48
ATOM     48  C   LIG d   1       9.989   2.229  -5.330  0.00  0.00     0.046 A 
ATOM     49  C   LIG d   1      10.486   1.865  -4.085  0.00  0.00    -0.036 A 
ATOM     50  C   LIG d   1      10.470   2.770  -3.044  0.00  0.00    -0.018 A 
ATOM     51  H   LIG d   1      10.888   0.874  -3.934  0.00  0.00     0.064 H 
ATOM     52  C   LIG d   1       9.949   4.041  -3.237  0.00  0.00     0.120 A 
ATOM     53  H   LIG d   1      10.861   2.489  -2.077  0.00  0.00     0.066 H 
ATOM     54  C   LIG d   1       9.447   4.404  -4.479  0.00  0.00    -0.018 A 
ATOM     55  C   LIG d   1       9.467   3.499  -5.523  0.00  0.00    -0.036 A 
ATOM     56  H   LIG d   1       9.042   5.393  -4.629  0.00  0.00     0.066 H 
ATOM     57  H   LIG d   1       9.077   3.783  -6.489  0.00  0.00     0.064 H 
BRANCH  52  58
ATOM     58  O   LIG d   1       9.929   4.932  -2.210  0.00  0.00    -0.495 OA
BRANCH  58  59
ATOM     59  C   LIG d   1       9.658   6.295  -2.541  0.00  0.00     0.079 C 
ATOM     60  H   LIG d   1      10.535   6.736  -3.014  0.00  0.00     0.066 H 
ATOM     61  H   LIG d   1       8.813   6.341  -3.228  0.00  0.00     0.066 H 
ATOM     62  H   LIG d   1       9.418   6.849  -1.633  0.00  0.00     0.066 H 
ENDBRANCH  58  59
ENDBRANCH  52  58
ENDBRANCH  40  48
ENDBRANCH  34  36
ENDBRANCH   1  34
TORSDOF 9
ENDMDL
MODEL 8
REMARK VINA RESULT:      -6.0      2.076      4.059
REMARK  9 active torsions:
REMARK  status: ('A' for Active; 'I' for Inactive)
REMARK    1  A    between atoms: C_1  and  N_2 
REMARK    2  A    between atoms: C_9  and  O_33 
REMARK    3  A    between atoms: C_11  and  C_13 
REMARK    4  A    between atoms: C_13  and  N_14 
REMARK    5  A    between atoms: N_14  and  C_15 
REMARK    6  A    between atoms: N_22  and  C_25 
REMARK    7  A    between atoms: C_28  and  O_31 
REMARK    8  A    between atoms: O_31  and  C_32 
REMARK    9  A    between atoms: O_33  and  C_34 
ROOT
ATOM      1  C   LIG d   1       6.295  -0.516  -7.831  0.00  0.00     0.029 C 
ATOM      2  H   LIG d   1       6.498  -0.903  -8.829  0.00  0.00     0.048 H 
ATOM      3  H   LIG d   1       5.315  -0.039  -7.820  0.00  0.00     0.048 H 
ENDROOT
BRANCH   1   4
ATOM      4  C   LIG d   1       6.315  -1.667  -6.824  0.00  0.00     0.055 C 
ATOM      5  N   LIG d   1       7.624  -2.325  -6.868  0.00  0.00    -0.297 N 
ATOM      6  C   LIG d   1       7.730  -3.322  -5.791  0.00  0.00     0.003 C 
ATOM      7  C   LIG d   1       7.845  -2.585  -4.457  0.00  0.00    -0.014 C 
ATOM      8  H   LIG d   1       6.839  -3.952  -5.786  0.00  0.00     0.043 H 
ATOM      9  H   LIG d   1       8.616  -3.938  -5.947  0.00  0.00     0.043 H 
ATOM     10  C   LIG d   1       6.749  -1.555  -4.342  0.00  0.00    -0.034 A 
ATOM     11  H   LIG d   1       7.756  -3.300  -3.639  0.00  0.00     0.033 H 
ATOM     12  H   LIG d   1       8.814  -2.089  -4.400  0.00  0.00     0.033 H 
ATOM     13  C   LIG d   1       6.043  -1.125  -5.445  0.00  0.00     0.020 A 
ATOM     14  C   LIG d   1       6.458  -1.040  -3.088  0.00  0.00    -0.012 A 
ATOM     15  C   LIG d   1       5.043  -0.168  -5.296  0.00  0.00     0.170 A 
ATOM     16  C   LIG d   1       4.751   0.351  -4.043  0.00  0.00     0.208 A 
ATOM     17  C   LIG d   1       5.463  -0.089  -2.932  0.00  0.00     0.170 A 
ATOM     18  O   LIG d   1       3.836   1.279  -3.635  0.00  0.00    -0.449 OA
ATOM     19  O   LIG d   1       4.994   0.561  -1.827  0.00  0.00    -0.453 OA
ATOM     20  C   LIG d   1       3.717   1.101  -2.211  0.00  0.00     0.233 C 
ATOM     21  H   LIG d   1       3.541   2.058  -1.718  0.00  0.00     0.117 H 
ATOM     22  H   LIG d   1       2.917   0.397  -1.979  0.00  0.00     0.117 H 
ATOM     23  H   LIG d   1       7.012  -1.382  -2.226  0.00  0.00     0.066 H 
ATOM     24  H   LIG d   1       5.540  -2.387  -7.087  0.00  0.00     0.053 H 
BRANCH   5  25
ATOM     25  C   LIG d   1       7.858  -2.942  -8.181  0.00  0.00    -0.012 C 
ATOM     26  H   LIG d   1       8.287  -2.204  -8.858  0.00  0.00     0.039 H 
ATOM     27  H   LIG d   1       8.549  -3.778  -8.071  0.00  0.00     0.039 H 
ATOM     28  H   LIG d   1       6.913  -3.303  -8.587  0.00  0.00     0.039 H 
ENDBRANCH   5  25
BRANCH  15  29
ATOM     29  O   LIG d   1       4.350   0.261  -6.385  0.00  0.00    -0.491 OA
BRANCH  29  30
ATOM     30  C   LIG d   1       2.953  -0.036  -6.421  0.00  0.00     0.079 C 
ATOM     31  H   LIG d   1       2.791  -1.065  -6.100  0.00  0.00     0.066 H 
ATOM     32  H   LIG d   1       2.420   0.641  -5.753  0.00  0.00     0.066 H 
ATOM     33  H   LIG d   1       2.581   0.091  -7.438  0.00  0.00     0.066 H 
ENDBRANCH  29  30
ENDBRANCH  15  29
ENDBRANCH   1   4
BRANCH   1  34
ATOM     34  N   LIG d   1       7.320   0.467  -7.471  0.00  0.00    -0.347 N 
ATOM     35  H   LIG d   1       7.525   0.634  -6.538  0.00  0.00     0.146 HD
BRANCH  34  36
ATOM     36  C   LIG d   1       7.979   1.138  -8.437  0.00  0.00     0.007 C 
ATOM     37  C   LIG d   1       8.773   2.221  -8.107  0.00  0.00     0.113 A 
ATOM     38  C   LIG d   1       9.043   2.577  -6.702  0.00  0.00     0.265 A 
ATOM     39  C   LIG d   1       9.382   3.074  -9.144  0.00  0.00     0.258 A 
ATOM     40  N   LIG d   1       9.832   3.643  -6.456  0.00  0.00    -0.190 N 
ATOM     41  O   LIG d   1       8.572   1.924  -5.790  0.00  0.00    -0.269 OA
ATOM     42  C   LIG d   1      10.353   4.375  -7.451  0.00  0.00     0.320 A 
ATOM     43  N   LIG d   1      10.145   4.113  -8.748  0.00  0.00    -0.235 N 
ATOM     44  O   LIG d   1      11.051   5.327  -7.160  0.00  0.00    -0.251 OA
ATOM     45  H   LIG d   1      10.552   4.684  -9.419  0.00  0.00     0.159 HD
ATOM     46  O   LIG d   1       9.200   2.846 -10.325  0.00  0.00    -0.270 OA
ATOM     47  H   LIG d   1       7.887   0.831  -9.468  0.00  0.00     0.079 H 
BRANCH  40  48
ATOM     48  C   LIG d   1      10.109   3.997  -5.126  0.00  0.00     0.046 A 
ATOM     49  C   LIG d   1       9.403   5.028  -4.520  0.00  0.00    -0.036 A 
ATOM     50  C   LIG d   1       9.672   5.372  -3.212  0.00  0.00    -0.018 A 
ATOM     51  H   LIG d   1       8.639   5.556  -5.073  0.00  0.00     0.064 H 
ATOM     52  C   LIG d   1      10.656   4.698  -2.504  0.00  0.00     0.120 A 
ATOM     53  H   LIG d   1       9.120   6.171  -2.738  0.00  0.00     0.066 H 
ATOM     54  C   LIG d   1      11.367   3.671  -3.110  0.00  0.00    -0.018 A 
ATOM     55  C   LIG d   1      11.094   3.322  -4.419  0.00  0.00    -0.036 A 
ATOM     56  H   LIG d   1      12.132   3.146  -2.560  0.00  0.00     0.066 H 
ATOM     57  H   LIG d   1      11.646   2.524  -4.890  0.00  0.00     0.064 H 
BRANCH  52  58
ATOM     58  O   LIG d   1      10.925   5.040  -1.216  0.00  0.00    -0.495 OA
BRANCH  58  59
ATOM     59  C   LIG d   1      12.271   5.408  -0.911  0.00  0.00     0.079 C 
ATOM     60  H   LIG d   1      12.595   4.887  -0.011  0.00  0.00     0.066 H 
ATOM     61  H   LIG d   1      12.920   5.134  -1.742  0.00  0.00     0.066 H 
ATOM     62  H   LIG d   1      12.327   6.484  -0.747  0.00  0.00     0.066 H 
ENDBRANCH  58  59
ENDBRANCH  52  58
ENDBRANCH  40  48
ENDBRANCH  34  36
ENDBRANCH   1  34
TORSDOF 9
ENDMDL
MODEL 9
REMARK VINA RESULT:      -6.0      5.740      9.338
REMARK  9 active torsions:
REMARK  status: ('A' for Active; 'I' for Inactive)
REMARK    1  A    between atoms: C_1  and  N_2 
REMARK    2  A    between atoms: C_9  and  O_33 
REMARK    3  A    between atoms: C_11  and  C_13 
REMARK    4  A    between atoms: C_13  and  N_14 
REMARK    5  A    between atoms: N_14  and  C_15 
REMARK    6  A    between atoms: N_22  and  C_25 
REMARK    7  A    between atoms: C_28  and  O_31 
REMARK    8  A    between atoms: O_31  and  C_32 
REMARK    9  A    between atoms: O_33  and  C_34 
ROOT
ATOM      1  C   LIG d   1       5.604  -3.568  -4.836  0.00  0.00     0.029 C 
ATOM      2  H   LIG d   1       4.901  -4.344  -4.535  0.00  0.00     0.048 H 
ATOM      3  H   LIG d   1       5.899  -2.986  -3.963  0.00  0.00     0.048 H 
ENDROOT
BRANCH   1   4
ATOM      4  C   LIG d   1       6.842  -4.216  -5.459  0.00  0.00     0.055 C 
ATOM      5  N   LIG d   1       8.038  -3.757  -4.747  0.00  0.00    -0.297 N 
ATOM      6  C   LIG d   1       9.223  -4.495  -5.211  0.00  0.00     0.003 C 
ATOM      7  C   LIG d   1       9.134  -5.930  -4.691  0.00  0.00    -0.014 C 
ATOM      8  H   LIG d   1       9.246  -4.502  -6.301  0.00  0.00     0.043 H 
ATOM      9  H   LIG d   1      10.125  -4.021  -4.826  0.00  0.00     0.043 H 
ATOM     10  C   LIG d   1       7.784  -6.514  -5.017  0.00  0.00    -0.034 A 
ATOM     11  H   LIG d   1       9.912  -6.534  -5.159  0.00  0.00     0.033 H 
ATOM     12  H   LIG d   1       9.278  -5.933  -3.610  0.00  0.00     0.033 H 
ATOM     13  C   LIG d   1       6.717  -5.714  -5.368  0.00  0.00     0.020 A 
ATOM     14  C   LIG d   1       7.629  -7.891  -4.958  0.00  0.00    -0.012 A 
ATOM     15  C   LIG d   1       5.484  -6.294  -5.656  0.00  0.00     0.170 A 
ATOM     16  C   LIG d   1       5.325  -7.671  -5.596  0.00  0.00     0.208 A 
ATOM     17  C   LIG d   1       6.406  -8.474  -5.246  0.00  0.00     0.170 A 
ATOM     18  O   LIG d   1       4.244  -8.471  -5.828  0.00  0.00    -0.449 OA
ATOM     19  O   LIG d   1       6.003  -9.778  -5.259  0.00  0.00    -0.453 OA
ATOM     20  C   LIG d   1       4.779  -9.795  -6.015  0.00  0.00     0.233 C 
ATOM     21  H   LIG d   1       4.094 -10.546  -5.619  0.00  0.00     0.117 H 
ATOM     22  H   LIG d   1       4.982  -9.981  -7.070  0.00  0.00     0.117 H 
ATOM     23  H   LIG d   1       8.468  -8.514  -4.686  0.00  0.00     0.066 H 
ATOM     24  H   LIG d   1       6.912  -3.924  -6.507  0.00  0.00     0.053 H 
BRANCH   5  25
ATOM     25  C   LIG d   1       8.223  -2.309  -4.910  0.00  0.00    -0.012 C 
ATOM     26  H   LIG d   1       7.512  -1.778  -4.278  0.00  0.00     0.039 H 
ATOM     27  H   LIG d   1       9.239  -2.038  -4.621  0.00  0.00     0.039 H 
ATOM     28  H   LIG d   1       8.057  -2.036  -5.953  0.00  0.00     0.039 H 
ENDBRANCH   5  25
BRANCH  15  29
ATOM     29  O   LIG d   1       4.430  -5.505  -5.997  0.00  0.00    -0.491 OA
BRANCH  29  30
ATOM     30  C   LIG d   1       3.965  -5.592  -7.345  0.00  0.00     0.079 C 
ATOM     31  H   LIG d   1       3.570  -6.592  -7.529  0.00  0.00     0.066 H 
ATOM     32  H   LIG d   1       3.177  -4.856  -7.506  0.00  0.00     0.066 H 
ATOM     33  H   LIG d   1       4.791  -5.396  -8.028  0.00  0.00     0.066 H 
ENDBRANCH  29  30
ENDBRANCH  15  29
ENDBRANCH   1   4
BRANCH   1  34
ATOM     34  N   LIG d   1       4.967  -2.687  -5.818  0.00  0.00    -0.347 N 
ATOM     35  H   LIG d   1       5.005  -2.905  -6.762  0.00  0.00     0.146 HD
BRANCH  34  36
ATOM     36  C   LIG d   1       4.328  -1.573  -5.409  0.00  0.00     0.007 C 
ATOM     37  C   LIG d   1       3.842  -0.673  -6.341  0.00  0.00     0.113 A 
ATOM     38  C   LIG d   1       3.871  -0.970  -7.784  0.00  0.00     0.265 A 
ATOM     39  C   LIG d   1       3.279   0.627  -5.934  0.00  0.00     0.258 A 
ATOM     40  N   LIG d   1       3.374  -0.048  -8.634  0.00  0.00    -0.190 N 
ATOM     41  O   LIG d   1       4.325  -2.021  -8.197  0.00  0.00    -0.269 OA
ATOM     42  C   LIG d   1       2.876   1.116  -8.193  0.00  0.00     0.320 A 
ATOM     43  N   LIG d   1       2.824   1.454  -6.897  0.00  0.00    -0.235 N 
ATOM     44  O   LIG d   1       2.449   1.906  -9.012  0.00  0.00    -0.251 OA
ATOM     45  H   LIG d   1       2.450   2.314  -6.646  0.00  0.00     0.159 HD
ATOM     46  O   LIG d   1       3.226   0.945  -4.761  0.00  0.00    -0.270 OA
ATOM     47  H   LIG d   1       4.194  -1.382  -4.355  0.00  0.00     0.079 H 
BRANCH  40  48
ATOM     48  C   LIG d   1       3.384  -0.312 -10.012  0.00  0.00     0.046 A 
ATOM     49  C   LIG d   1       2.309  -0.964 -10.603  0.00  0.00    -0.036 A 
ATOM     50  C   LIG d   1       2.317  -1.218 -11.959  0.00  0.00    -0.018 A 
ATOM     51  H   LIG d   1       1.465  -1.267 -10.001  0.00  0.00     0.064 H 
ATOM     52  C   LIG d   1       3.403  -0.833 -12.731  0.00  0.00     0.120 A 
ATOM     53  H   LIG d   1       1.480  -1.721 -12.420  0.00  0.00     0.066 H 
ATOM     54  C   LIG d   1       4.480  -0.186 -12.141  0.00  0.00    -0.018 A 
ATOM     55  C   LIG d   1       4.470   0.073 -10.785  0.00  0.00    -0.036 A 
ATOM     56  H   LIG d   1       5.325   0.113 -12.743  0.00  0.00     0.066 H 
ATOM     57  H   LIG d   1       5.308   0.576 -10.326  0.00  0.00     0.064 H 
BRANCH  52  58
ATOM     58  O   LIG d   1       3.413  -1.088 -14.067  0.00  0.00    -0.495 OA
BRANCH  58  59
ATOM     59  C   LIG d   1       4.454  -0.480 -14.834  0.00  0.00     0.079 C 
ATOM     60  H   LIG d   1       4.021   0.241 -15.527  0.00  0.00     0.066 H 
ATOM     61  H   LIG d   1       5.148   0.030 -14.166  0.00  0.00     0.066 H 
ATOM     62  H   LIG d   1       4.988  -1.247 -15.396  0.00  0.00     0.066 H 
ENDBRANCH  58  59
ENDBRANCH  52  58
ENDBRANCH  40  48
ENDBRANCH  34  36
ENDBRANCH   1  34
TORSDOF 9
ENDMDL
MODEL 10
REMARK VINA RESULT:      -6.0      4.241      7.836
REMARK  9 active torsions:
REMARK  status: ('A' for Active; 'I' for Inactive)
REMARK    1  A    between atoms: C_1  and  N_2 
REMARK    2  A    between atoms: C_9  and  O_33 
REMARK    3  A    between atoms: C_11  and  C_13 
REMARK    4  A    between atoms: C_13  and  N_14 
REMARK    5  A    between atoms: N_14  and  C_15 
REMARK    6  A    between atoms: N_22  and  C_25 
REMARK    7  A    between atoms: C_28  and  O_31 
REMARK    8  A    between atoms: O_31  and  C_32 
REMARK    9  A    between atoms: O_33  and  C_34 
ROOT
ATOM      1  C   LIG d   1       7.227   0.095  -3.854  0.00  0.00     0.029 C 
ATOM      2  H   LIG d   1       7.444   0.962  -3.231  0.00  0.00     0.048 H 
ATOM      3  H   LIG d   1       8.156  -0.421  -4.094  0.00  0.00     0.048 H 
ENDROOT
BRANCH   1   4
ATOM      4  C   LIG d   1       6.296  -0.855  -3.099  0.00  0.00     0.055 C 
ATOM      5  N   LIG d   1       5.023  -0.177  -2.837  0.00  0.00    -0.297 N 
ATOM      6  C   LIG d   1       4.050  -1.123  -2.267  0.00  0.00     0.003 C 
ATOM      7  C   LIG d   1       3.616  -2.093  -3.366  0.00  0.00    -0.014 C 
ATOM      8  H   LIG d   1       4.513  -1.677  -1.451  0.00  0.00     0.043 H 
ATOM      9  H   LIG d   1       3.181  -0.578  -1.897  0.00  0.00     0.043 H 
ATOM     10  C   LIG d   1       4.829  -2.675  -4.047  0.00  0.00    -0.034 A 
ATOM     11  H   LIG d   1       3.027  -2.899  -2.926  0.00  0.00     0.033 H 
ATOM     12  H   LIG d   1       3.010  -1.563  -4.099  0.00  0.00     0.033 H 
ATOM     13  C   LIG d   1       6.073  -2.094  -3.927  0.00  0.00     0.020 A 
ATOM     14  C   LIG d   1       4.670  -3.823  -4.808  0.00  0.00    -0.012 A 
ATOM     15  C   LIG d   1       7.167  -2.660  -4.577  0.00  0.00     0.170 A 
ATOM     16  C   LIG d   1       7.011  -3.807  -5.341  0.00  0.00     0.208 A 
ATOM     17  C   LIG d   1       5.754  -4.393  -5.456  0.00  0.00     0.170 A 
ATOM     18  O   LIG d   1       7.904  -4.545  -6.064  0.00  0.00    -0.449 OA
ATOM     19  O   LIG d   1       5.858  -5.499  -6.249  0.00  0.00    -0.453 OA
ATOM     20  C   LIG d   1       7.262  -5.815  -6.285  0.00  0.00     0.233 C 
ATOM     21  H   LIG d   1       7.538  -6.220  -7.260  0.00  0.00     0.117 H 
ATOM     22  H   LIG d   1       7.518  -6.518  -5.492  0.00  0.00     0.117 H 
ATOM     23  H   LIG d   1       3.695  -4.277  -4.897  0.00  0.00     0.066 H 
ATOM     24  H   LIG d   1       6.758  -1.133  -2.152  0.00  0.00     0.053 H 
BRANCH   5  25
ATOM     25  C   LIG d   1       5.215   0.978  -1.950  0.00  0.00    -0.012 C 
ATOM     26  H   LIG d   1       6.190   1.425  -2.141  0.00  0.00     0.039 H 
ATOM     27  H   LIG d   1       4.434   1.715  -2.140  0.00  0.00     0.039 H 
ATOM     28  H   LIG d   1       5.161   0.651  -0.911  0.00  0.00     0.039 H 
ENDBRANCH   5  25
BRANCH  15  29
ATOM     29  O   LIG d   1       8.393  -2.084  -4.463  0.00  0.00    -0.491 OA
BRANCH  29  30
ATOM     30  C   LIG d   1       9.468  -2.925  -4.042  0.00  0.00     0.079 C 
ATOM     31  H   LIG d   1      10.366  -2.680  -4.609  0.00  0.00     0.066 H 
ATOM     32  H   LIG d   1       9.656  -2.770  -2.979  0.00  0.00     0.066 H 
ATOM     33  H   LIG d   1       9.202  -3.969  -4.214  0.00  0.00     0.066 H 
ENDBRANCH  29  30
ENDBRANCH  15  29
ENDBRANCH   1   4
BRANCH   1  34
ATOM     34  N   LIG d   1       6.578   0.535  -5.092  0.00  0.00    -0.347 N 
ATOM     35  H   LIG d   1       5.612   0.510  -5.168  0.00  0.00     0.146 HD
BRANCH  34  36
ATOM     36  C   LIG d   1       7.325   0.973  -6.125  0.00  0.00     0.007 C 
ATOM     37  C   LIG d   1       6.986   0.625  -7.420  0.00  0.00     0.113 A 
ATOM     38  C   LIG d   1       5.736  -0.097  -7.719  0.00  0.00     0.265 A 
ATOM     39  C   LIG d   1       7.861   0.952  -8.559  0.00  0.00     0.258 A 
ATOM     40  N   LIG d   1       5.467  -0.398  -9.007  0.00  0.00    -0.190 N 
ATOM     41  O   LIG d   1       4.964  -0.405  -6.831  0.00  0.00    -0.269 OA
ATOM     42  C   LIG d   1       6.312  -0.069  -9.994  0.00  0.00     0.320 A 
ATOM     43  N   LIG d   1       7.467   0.581  -9.794  0.00  0.00    -0.235 N 
ATOM     44  O   LIG d   1       6.013  -0.375 -11.132  0.00  0.00    -0.251 OA
ATOM     45  H   LIG d   1       8.032   0.789 -10.555  0.00  0.00     0.159 HD
ATOM     46  O   LIG d   1       8.912   1.541  -8.390  0.00  0.00    -0.270 OA
ATOM     47  H   LIG d   1       8.187   1.597  -5.943  0.00  0.00     0.079 H 
BRANCH  40  48
ATOM     48  C   LIG d   1       4.280  -1.078  -9.317  0.00  0.00     0.046 A 
ATOM     49  C   LIG d   1       4.258  -2.466  -9.334  0.00  0.00    -0.036 A 
ATOM     50  C   LIG d   1       3.089  -3.134  -9.636  0.00  0.00    -0.018 A 
ATOM     51  H   LIG d   1       5.156  -3.022  -9.107  0.00  0.00     0.064 H 
ATOM     52  C   LIG d   1       1.938  -2.420  -9.932  0.00  0.00     0.120 A 
ATOM     53  H   LIG d   1       3.071  -4.214  -9.644  0.00  0.00     0.066 H 
ATOM     54  C   LIG d   1       1.959  -1.033  -9.921  0.00  0.00    -0.018 A 
ATOM     55  C   LIG d   1       3.128  -0.363  -9.615  0.00  0.00    -0.036 A 
ATOM     56  H   LIG d   1       1.063  -0.477 -10.152  0.00  0.00     0.066 H 
ATOM     57  H   LIG d   1       3.145   0.716  -9.606  0.00  0.00     0.064 H 
BRANCH  52  58
ATOM     58  O   LIG d   1       0.787  -3.079 -10.233  0.00  0.00    -0.495 OA
BRANCH  58  59
ATOM     59  C   LIG d   1       0.907  -4.448 -10.625  0.00  0.00     0.079 C 
ATOM     60  H   LIG d   1       0.292  -4.629 -11.507  0.00  0.00     0.066 H 
ATOM     61  H   LIG d   1       1.949  -4.669 -10.858  0.00  0.00     0.066 H 
ATOM     62  H   LIG d   1       0.572  -5.090  -9.811  0.00  0.00     0.066 H 
ENDBRANCH  58  59
ENDBRANCH  52  58
ENDBRANCH  40  48
ENDBRANCH  34  36
ENDBRANCH   1  34
TORSDOF 9
ENDMDL
