MODEL 1
REMARK VINA RESULT:      -5.9      0.000      0.000
REMARK  6 active torsions:
REMARK  status: ('A' for Active; 'I' for Inactive)
REMARK    1  A    between atoms: C_1  and  C_2 
REMARK    2  A    between atoms: C_2  and  O_3 
REMARK    3  A    between atoms: O_3  and  C_4 
REMARK    4  A    between atoms: C_7  and  C_10 
REMARK    5  A    between atoms: C_12  and  O_13 
REMARK    6  A    between atoms: C_17  and  N_21 
ROOT
ATOM      1  C   LIG d   1       3.350  -0.267  -8.139  0.00  0.00     0.139 A 
ATOM      2  C   LIG d   1       4.024   0.579  -8.965  0.00  0.00     0.023 A 
ATOM      3  C   LIG d   1       3.863   0.463 -10.365  0.00  0.00     0.131 A 
ATOM      4  C   LIG d   1       2.956  -0.590 -10.859  0.00  0.00     0.059 A 
ATOM      5  C   LIG d   1       2.738  -0.778 -12.224  0.00  0.00    -0.041 A 
ATOM      6  C   LIG d   1       1.889  -1.760 -12.647  0.00  0.00     0.010 A 
ATOM      7  C   LIG d   1       1.245  -2.581 -11.722  0.00  0.00     0.203 A 
ATOM      8  C   LIG d   1       1.452  -2.407 -10.361  0.00  0.00     0.052 A 
ATOM      9  C   LIG d   1       2.309  -1.411  -9.918  0.00  0.00     0.145 A 
ATOM     10  O   LIG d   1       2.526  -1.221  -8.599  0.00  0.00    -0.454 OA
ATOM     11  H   LIG d   1       4.677   1.334  -8.554  0.00  0.00     0.069 H 
ATOM     12  H   LIG d   1       3.238  -0.146 -12.944  0.00  0.00     0.063 H 
ATOM     13  H   LIG d   1       1.717  -1.902 -13.704  0.00  0.00     0.068 H 
ATOM     14  H   LIG d   1       0.948  -3.044  -9.650  0.00  0.00     0.072 H 
ENDROOT
BRANCH   1  15
ATOM     15  C   LIG d   1       3.531  -0.128  -6.682  0.00  0.00     0.018 A 
ATOM     16  C   LIG d   1       2.493   0.375  -5.892  0.00  0.00    -0.048 A 
ATOM     17  C   LIG d   1       2.665   0.503  -4.532  0.00  0.00    -0.019 A 
ATOM     18  H   LIG d   1       1.556   0.662  -6.348  0.00  0.00     0.063 H 
ATOM     19  C   LIG d   1       3.868   0.131  -3.943  0.00  0.00     0.120 A 
ATOM     20  H   LIG d   1       1.864   0.891  -3.920  0.00  0.00     0.065 H 
ATOM     21  C   LIG d   1       4.903  -0.369  -4.726  0.00  0.00    -0.019 A 
ATOM     22  C   LIG d   1       4.738  -0.504  -6.085  0.00  0.00    -0.048 A 
ATOM     23  H   LIG d   1       5.837  -0.656  -4.265  0.00  0.00     0.065 H 
ATOM     24  H   LIG d   1       5.541  -0.897  -6.692  0.00  0.00     0.063 H 
BRANCH  19  25
ATOM     25  O   LIG d   1       4.034   0.259  -2.602  0.00  0.00    -0.492 OA
BRANCH  25  26
ATOM     26  C   LIG d   1       4.579  -0.863  -1.906  0.00  0.00     0.087 C 
ATOM     27  H   LIG d   1       4.551  -0.672  -0.823  0.00  0.00     0.069 H 
ATOM     28  H   LIG d   1       5.621  -1.021  -2.223  0.00  0.00     0.069 H 
BRANCH  26  29
ATOM     29  C   LIG d   1       3.755  -2.111  -2.226  0.00  0.00    -0.031 C 
ATOM     30  H   LIG d   1       3.571  -2.677  -1.301  0.00  0.00     0.026 H 
ATOM     31  H   LIG d   1       4.305  -2.742  -2.939  0.00  0.00     0.026 H 
ATOM     32  H   LIG d   1       2.793  -1.811  -2.669  0.00  0.00     0.026 H 
ENDBRANCH  26  29
ENDBRANCH  25  26
ENDBRANCH  19  25
ENDBRANCH   1  15
BRANCH   3  33
ATOM     33  O   LIG d   1       4.452   1.203 -11.136  0.00  0.00    -0.506 OA
ATOM     34  H   LIG d   1       3.888   1.912 -11.758  0.00  0.00     0.292 HD
ENDBRANCH   3  33
BRANCH   7  35
ATOM     35  N   LIG d   1       0.384  -3.581 -12.167  0.00  0.00    -0.254 N 
ATOM     36  H   LIG d   1       0.758  -4.372 -12.832  0.00  0.00     0.443 HD
ATOM     37  H   LIG d   1      -0.669  -3.580 -11.852  0.00  0.00     0.443 HD
ENDBRANCH   7  35
TORSDOF 6
ENDMDL
MODEL 2
REMARK VINA RESULT:      -5.8      1.896      2.503
REMARK  6 active torsions:
REMARK  status: ('A' for Active; 'I' for Inactive)
REMARK    1  A    between atoms: C_1  and  C_2 
REMARK    2  A    between atoms: C_2  and  O_3 
REMARK    3  A    between atoms: O_3  and  C_4 
REMARK    4  A    between atoms: C_7  and  C_10 
REMARK    5  A    between atoms: C_12  and  O_13 
REMARK    6  A    between atoms: C_17  and  N_21 
ROOT
ATOM      1  C   LIG d   1       3.352  -0.383  -8.260  0.00  0.00     0.139 A 
ATOM      2  C   LIG d   1       2.080  -0.540  -8.715  0.00  0.00     0.023 A 
ATOM      3  C   LIG d   1       1.850  -0.702 -10.102  0.00  0.00     0.131 A 
ATOM      4  C   LIG d   1       3.027  -0.692 -10.990  0.00  0.00     0.059 A 
ATOM      5  C   LIG d   1       2.894  -0.843 -12.371  0.00  0.00    -0.041 A 
ATOM      6  C   LIG d   1       4.005  -0.834 -13.164  0.00  0.00     0.010 A 
ATOM      7  C   LIG d   1       5.270  -0.663 -12.603  0.00  0.00     0.203 A 
ATOM      8  C   LIG d   1       5.418  -0.510 -11.232  0.00  0.00     0.052 A 
ATOM      9  C   LIG d   1       4.299  -0.523 -10.414  0.00  0.00     0.145 A 
ATOM     10  O   LIG d   1       4.416  -0.376  -9.078  0.00  0.00    -0.454 OA
ATOM     11  H   LIG d   1       1.250  -0.540  -8.024  0.00  0.00     0.069 H 
ATOM     12  H   LIG d   1       1.916  -0.973 -12.810  0.00  0.00     0.063 H 
ATOM     13  H   LIG d   1       3.903  -0.955 -14.233  0.00  0.00     0.068 H 
ATOM     14  H   LIG d   1       6.401  -0.381 -10.804  0.00  0.00     0.072 H 
ENDROOT
BRANCH   1  15
ATOM     15  C   LIG d   1       3.570  -0.217  -6.811  0.00  0.00     0.018 A 
ATOM     16  C   LIG d   1       2.551   0.299  -6.004  0.00  0.00    -0.048 A 
ATOM     17  C   LIG d   1       2.758   0.453  -4.651  0.00  0.00    -0.019 A 
ATOM     18  H   LIG d   1       1.603   0.576  -6.441  0.00  0.00     0.063 H 
ATOM     19  C   LIG d   1       3.977   0.095  -4.087  0.00  0.00     0.120 A 
ATOM     20  H   LIG d   1       1.972   0.851  -4.027  0.00  0.00     0.065 H 
ATOM     21  C   LIG d   1       4.992  -0.418  -4.886  0.00  0.00    -0.019 A 
ATOM     22  C   LIG d   1       4.793  -0.579  -6.238  0.00  0.00    -0.048 A 
ATOM     23  H   LIG d   1       5.939  -0.695  -4.444  0.00  0.00     0.065 H 
ATOM     24  H   LIG d   1       5.581  -0.982  -6.857  0.00  0.00     0.063 H 
BRANCH  19  25
ATOM     25  O   LIG d   1       4.177   0.248  -2.753  0.00  0.00    -0.492 OA
BRANCH  25  26
ATOM     26  C   LIG d   1       4.654  -0.890  -2.034  0.00  0.00     0.087 C 
ATOM     27  H   LIG d   1       4.664  -0.665  -0.957  0.00  0.00     0.069 H 
ATOM     28  H   LIG d   1       5.674  -1.134  -2.367  0.00  0.00     0.069 H 
BRANCH  26  29
ATOM     29  C   LIG d   1       3.733  -2.082  -2.298  0.00  0.00    -0.031 C 
ATOM     30  H   LIG d   1       4.109  -2.653  -3.160  0.00  0.00     0.026 H 
ATOM     31  H   LIG d   1       2.717  -1.721  -2.512  0.00  0.00     0.026 H 
ATOM     32  H   LIG d   1       3.711  -2.733  -1.410  0.00  0.00     0.026 H 
ENDBRANCH  26  29
ENDBRANCH  25  26
ENDBRANCH  19  25
ENDBRANCH   1  15
BRANCH   3  33
ATOM     33  O   LIG d   1       0.722  -0.844 -10.546  0.00  0.00    -0.506 OA
ATOM     34  H   LIG d   1       0.571  -1.338 -11.516  0.00  0.00     0.292 HD
ENDBRANCH   3  33
BRANCH   7  35
ATOM     35  N   LIG d   1       6.395  -0.650 -13.424  0.00  0.00    -0.254 N 
ATOM     36  H   LIG d   1       6.830  -1.596 -13.775  0.00  0.00     0.443 HD
ATOM     37  H   LIG d   1       6.846   0.308 -13.723  0.00  0.00     0.443 HD
ENDBRANCH   7  35
TORSDOF 6
ENDMDL
MODEL 3
REMARK VINA RESULT:      -5.8     10.613     12.466
REMARK  6 active torsions:
REMARK  status: ('A' for Active; 'I' for Inactive)
REMARK    1  A    between atoms: C_1  and  C_2 
REMARK    2  A    between atoms: C_2  and  O_3 
REMARK    3  A    between atoms: O_3  and  C_4 
REMARK    4  A    between atoms: C_7  and  C_10 
REMARK    5  A    between atoms: C_12  and  O_13 
REMARK    6  A    between atoms: C_17  and  N_21 
ROOT
ATOM      1  C   LIG d   1      10.210   7.227  -2.759  0.00  0.00     0.139 A 
ATOM      2  C   LIG d   1       9.928   6.024  -3.330  0.00  0.00     0.023 A 
ATOM      3  C   LIG d   1       9.611   5.963  -4.707  0.00  0.00     0.131 A 
ATOM      4  C   LIG d   1       9.602   7.232  -5.458  0.00  0.00     0.059 A 
ATOM      5  C   LIG d   1       9.297   7.266  -6.820  0.00  0.00    -0.041 A 
ATOM      6  C   LIG d   1       9.303   8.458  -7.486  0.00  0.00     0.010 A 
ATOM      7  C   LIG d   1       9.601   9.641  -6.811  0.00  0.00     0.203 A 
ATOM      8  C   LIG d   1       9.905   9.624  -5.458  0.00  0.00     0.052 A 
ATOM      9  C   LIG d   1       9.907   8.419  -4.769  0.00  0.00     0.145 A 
ATOM     10  O   LIG d   1      10.199   8.375  -3.453  0.00  0.00    -0.454 OA
ATOM     11  H   LIG d   1       9.948   5.122  -2.737  0.00  0.00     0.069 H 
ATOM     12  H   LIG d   1       9.063   6.352  -7.345  0.00  0.00     0.063 H 
ATOM     13  H   LIG d   1       9.072   8.484  -8.541  0.00  0.00     0.068 H 
ATOM     14  H   LIG d   1      10.137  10.543  -4.942  0.00  0.00     0.072 H 
ENDROOT
BRANCH   1  15
ATOM     15  C   LIG d   1      10.540   7.269  -1.322  0.00  0.00     0.018 A 
ATOM     16  C   LIG d   1      10.627   6.081  -0.589  0.00  0.00    -0.048 A 
ATOM     17  C   LIG d   1      10.936   6.124   0.753  0.00  0.00    -0.019 A 
ATOM     18  H   LIG d   1      10.453   5.132  -1.073  0.00  0.00     0.063 H 
ATOM     19  C   LIG d   1      11.163   7.345   1.378  0.00  0.00     0.120 A 
ATOM     20  H   LIG d   1      11.004   5.208   1.320  0.00  0.00     0.065 H 
ATOM     21  C   LIG d   1      11.077   8.527   0.651  0.00  0.00    -0.019 A 
ATOM     22  C   LIG d   1      10.773   8.493  -0.690  0.00  0.00    -0.048 A 
ATOM     23  H   LIG d   1      11.253   9.474   1.141  0.00  0.00     0.065 H 
ATOM     24  H   LIG d   1      10.711   9.413  -1.255  0.00  0.00     0.063 H 
BRANCH  19  25
ATOM     25  O   LIG d   1      11.467   7.383   2.700  0.00  0.00    -0.492 OA
BRANCH  25  26
ATOM     26  C   LIG d   1      10.975   6.313   3.509  0.00  0.00     0.087 C 
ATOM     27  H   LIG d   1      11.526   5.391   3.272  0.00  0.00     0.069 H 
ATOM     28  H   LIG d   1       9.903   6.163   3.308  0.00  0.00     0.069 H 
BRANCH  26  29
ATOM     29  C   LIG d   1      11.171   6.659   4.986  0.00  0.00    -0.031 C 
ATOM     30  H   LIG d   1      11.541   5.774   5.525  0.00  0.00     0.026 H 
ATOM     31  H   LIG d   1      10.212   6.977   5.420  0.00  0.00     0.026 H 
ATOM     32  H   LIG d   1      11.903   7.476   5.077  0.00  0.00     0.026 H 
ENDBRANCH  26  29
ENDBRANCH  25  26
ENDBRANCH  19  25
ENDBRANCH   1  15
BRANCH   3  33
ATOM     33  O   LIG d   1       9.352   4.902  -5.252  0.00  0.00    -0.506 OA
ATOM     34  H   LIG d   1       8.320   4.523  -5.257  0.00  0.00     0.292 HD
ENDBRANCH   3  33
BRANCH   7  35
ATOM     35  N   LIG d   1       9.598  10.850  -7.502  0.00  0.00    -0.254 N 
ATOM     36  H   LIG d   1      10.542  11.387  -7.675  0.00  0.00     0.443 HD
ATOM     37  H   LIG d   1       8.652  11.268  -7.875  0.00  0.00     0.443 HD
ENDBRANCH   7  35
TORSDOF 6
ENDMDL
MODEL 4
REMARK VINA RESULT:      -5.7      5.550      7.935
REMARK  6 active torsions:
REMARK  status: ('A' for Active; 'I' for Inactive)
REMARK    1  A    between atoms: C_1  and  C_2 
REMARK    2  A    between atoms: C_2  and  O_3 
REMARK    3  A    between atoms: O_3  and  C_4 
REMARK    4  A    between atoms: C_7  and  C_10 
REMARK    5  A    between atoms: C_12  and  O_13 
REMARK    6  A    between atoms: C_17  and  N_21 
ROOT
ATOM      1  C   LIG d   1       7.051   1.041  -4.168  0.00  0.00     0.139 A 
ATOM      2  C   LIG d   1       6.392   1.519  -3.077  0.00  0.00     0.023 A 
ATOM      3  C   LIG d   1       5.410   0.717  -2.448  0.00  0.00     0.131 A 
ATOM      4  C   LIG d   1       5.152  -0.615  -3.025  0.00  0.00     0.059 A 
ATOM      5  C   LIG d   1       4.200  -1.472  -2.472  0.00  0.00    -0.041 A 
ATOM      6  C   LIG d   1       3.989  -2.701  -3.027  0.00  0.00     0.010 A 
ATOM      7  C   LIG d   1       4.712  -3.100  -4.151  0.00  0.00     0.203 A 
ATOM      8  C   LIG d   1       5.662  -2.259  -4.713  0.00  0.00     0.052 A 
ATOM      9  C   LIG d   1       5.890  -1.010  -4.155  0.00  0.00     0.145 A 
ATOM     10  O   LIG d   1       6.808  -0.173  -4.683  0.00  0.00    -0.454 OA
ATOM     11  H   LIG d   1       6.618   2.502  -2.692  0.00  0.00     0.069 H 
ATOM     12  H   LIG d   1       3.635  -1.165  -1.603  0.00  0.00     0.063 H 
ATOM     13  H   LIG d   1       3.254  -3.366  -2.597  0.00  0.00     0.068 H 
ATOM     14  H   LIG d   1       6.220  -2.575  -5.580  0.00  0.00     0.072 H 
ENDROOT
BRANCH   1  15
ATOM     15  C   LIG d   1       8.072   1.892  -4.807  0.00  0.00     0.018 A 
ATOM     16  C   LIG d   1       8.834   2.773  -4.033  0.00  0.00    -0.048 A 
ATOM     17  C   LIG d   1       9.786   3.566  -4.634  0.00  0.00    -0.019 A 
ATOM     18  H   LIG d   1       8.676   2.832  -2.966  0.00  0.00     0.063 H 
ATOM     19  C   LIG d   1       9.993   3.491  -6.006  0.00  0.00     0.120 A 
ATOM     20  H   LIG d   1      10.376   4.246  -4.037  0.00  0.00     0.065 H 
ATOM     21  C   LIG d   1       9.237   2.616  -6.778  0.00  0.00    -0.019 A 
ATOM     22  C   LIG d   1       8.285   1.817  -6.186  0.00  0.00    -0.048 A 
ATOM     23  H   LIG d   1       9.399   2.560  -7.845  0.00  0.00     0.065 H 
ATOM     24  H   LIG d   1       7.702   1.134  -6.787  0.00  0.00     0.063 H 
BRANCH  19  25
ATOM     25  O   LIG d   1      10.933   4.274  -6.594  0.00  0.00    -0.492 OA
BRANCH  25  26
ATOM     26  C   LIG d   1      10.881   5.673  -6.310  0.00  0.00     0.087 C 
ATOM     27  H   LIG d   1      11.875   6.116  -6.471  0.00  0.00     0.069 H 
ATOM     28  H   LIG d   1      10.577   5.824  -5.263  0.00  0.00     0.069 H 
BRANCH  26  29
ATOM     29  C   LIG d   1       9.866   6.344  -7.237  0.00  0.00    -0.031 C 
ATOM     30  H   LIG d   1       9.698   5.708  -8.119  0.00  0.00     0.026 H 
ATOM     31  H   LIG d   1      10.253   7.322  -7.559  0.00  0.00     0.026 H 
ATOM     32  H   LIG d   1       8.916   6.484  -6.701  0.00  0.00     0.026 H 
ENDBRANCH  26  29
ENDBRANCH  25  26
ENDBRANCH  19  25
ENDBRANCH   1  15
BRANCH   3  33
ATOM     33  O   LIG d   1       4.800   1.113  -1.469  0.00  0.00    -0.506 OA
ATOM     34  H   LIG d   1       5.342   1.362  -0.546  0.00  0.00     0.292 HD
ENDBRANCH   3  33
BRANCH   7  35
ATOM     35  N   LIG d   1       4.483  -4.354  -4.711  0.00  0.00    -0.254 N 
ATOM     36  H   LIG d   1       3.464  -4.764  -4.744  0.00  0.00     0.443 HD
ATOM     37  H   LIG d   1       5.323  -4.934  -5.120  0.00  0.00     0.443 HD
ENDBRANCH   7  35
TORSDOF 6
ENDMDL
MODEL 5
REMARK VINA RESULT:      -5.5      9.166     10.245
REMARK  6 active torsions:
REMARK  status: ('A' for Active; 'I' for Inactive)
REMARK    1  A    between atoms: C_1  and  C_2 
REMARK    2  A    between atoms: C_2  and  O_3 
REMARK    3  A    between atoms: O_3  and  C_4 
REMARK    4  A    between atoms: C_7  and  C_10 
REMARK    5  A    between atoms: C_12  and  O_13 
REMARK    6  A    between atoms: C_17  and  N_21 
ROOT
ATOM      1  C   LIG d   1       9.614   6.976  -5.699  0.00  0.00     0.139 A 
ATOM      2  C   LIG d   1       9.285   8.160  -6.284  0.00  0.00     0.023 A 
ATOM      3  C   LIG d   1       9.143   8.228  -7.690  0.00  0.00     0.131 A 
ATOM      4  C   LIG d   1       9.367   6.986  -8.455  0.00  0.00     0.059 A 
ATOM      5  C   LIG d   1       9.251   6.961  -9.846  0.00  0.00    -0.041 A 
ATOM      6  C   LIG d   1       9.459   5.794 -10.522  0.00  0.00     0.010 A 
ATOM      7  C   LIG d   1       9.798   4.631  -9.833  0.00  0.00     0.203 A 
ATOM      8  C   LIG d   1       9.918   4.640  -8.451  0.00  0.00     0.052 A 
ATOM      9  C   LIG d   1       9.704   5.818  -7.750  0.00  0.00     0.145 A 
ATOM     10  O   LIG d   1       9.814   5.853  -6.405  0.00  0.00    -0.454 OA
ATOM     11  H   LIG d   1       9.131   9.041  -5.680  0.00  0.00     0.069 H 
ATOM     12  H   LIG d   1       8.992   7.861 -10.383  0.00  0.00     0.063 H 
ATOM     13  H   LIG d   1       9.366   5.773 -11.598  0.00  0.00     0.068 H 
ATOM     14  H   LIG d   1      10.177   3.735  -7.923  0.00  0.00     0.072 H 
ENDROOT
BRANCH   1  15
ATOM     15  C   LIG d   1       9.755   6.927  -4.232  0.00  0.00     0.018 A 
ATOM     16  C   LIG d   1       9.702   5.699  -3.564  0.00  0.00    -0.048 A 
ATOM     17  C   LIG d   1       9.835   5.657  -2.194  0.00  0.00    -0.019 A 
ATOM     18  H   LIG d   1       9.558   4.786  -4.122  0.00  0.00     0.063 H 
ATOM     19  C   LIG d   1      10.022   6.831  -1.475  0.00  0.00     0.120 A 
ATOM     20  H   LIG d   1       9.795   4.709  -1.677  0.00  0.00     0.065 H 
ATOM     21  C   LIG d   1      10.075   8.054  -2.136  0.00  0.00    -0.019 A 
ATOM     22  C   LIG d   1       9.947   8.105  -3.505  0.00  0.00    -0.048 A 
ATOM     23  H   LIG d   1      10.220   8.965  -1.573  0.00  0.00     0.065 H 
ATOM     24  H   LIG d   1       9.993   9.055  -4.017  0.00  0.00     0.063 H 
BRANCH  19  25
ATOM     25  O   LIG d   1      10.152   6.785  -0.124  0.00  0.00    -0.492 OA
BRANCH  25  26
ATOM     26  C   LIG d   1      11.224   5.998   0.397  0.00  0.00     0.087 C 
ATOM     27  H   LIG d   1      12.167   6.559   0.311  0.00  0.00     0.069 H 
ATOM     28  H   LIG d   1      11.302   5.060  -0.173  0.00  0.00     0.069 H 
BRANCH  26  29
ATOM     29  C   LIG d   1      10.954   5.679   1.868  0.00  0.00    -0.031 C 
ATOM     30  H   LIG d   1      11.544   6.354   2.505  0.00  0.00     0.026 H 
ATOM     31  H   LIG d   1      11.237   4.637   2.076  0.00  0.00     0.026 H 
ATOM     32  H   LIG d   1       9.883   5.817   2.082  0.00  0.00     0.026 H 
ENDBRANCH  26  29
ENDBRANCH  25  26
ENDBRANCH  19  25
ENDBRANCH   1  15
BRANCH   3  33
ATOM     33  O   LIG d   1       8.850   9.272  -8.249  0.00  0.00    -0.506 OA
ATOM     34  H   LIG d   1       8.608   9.273  -9.321  0.00  0.00     0.292 HD
ENDBRANCH   3  33
BRANCH   7  35
ATOM     35  N   LIG d   1      10.013   3.448 -10.536  0.00  0.00    -0.254 N 
ATOM     36  H   LIG d   1      10.533   3.471 -11.504  0.00  0.00     0.443 HD
ATOM     37  H   LIG d   1       9.663   2.491 -10.122  0.00  0.00     0.443 HD
ENDBRANCH   7  35
TORSDOF 6
ENDMDL
MODEL 6
REMARK VINA RESULT:      -5.4     10.910     13.246
REMARK  6 active torsions:
REMARK  status: ('A' for Active; 'I' for Inactive)
REMARK    1  A    between atoms: C_1  and  C_2 
REMARK    2  A    between atoms: C_2  and  O_3 
REMARK    3  A    between atoms: O_3  and  C_4 
REMARK    4  A    between atoms: C_7  and  C_10 
REMARK    5  A    between atoms: C_12  and  O_13 
REMARK    6  A    between atoms: C_17  and  N_21 
ROOT
ATOM      1  C   LIG d   1      -4.049   6.958 -14.476  0.00  0.00     0.139 A 
ATOM      2  C   LIG d   1      -5.340   7.379 -14.390  0.00  0.00     0.023 A 
ATOM      3  C   LIG d   1      -6.347   6.468 -13.993  0.00  0.00     0.131 A 
ATOM      4  C   LIG d   1      -5.929   5.086 -13.690  0.00  0.00     0.059 A 
ATOM      5  C   LIG d   1      -6.854   4.119 -13.293  0.00  0.00    -0.041 A 
ATOM      6  C   LIG d   1      -6.432   2.851 -13.016  0.00  0.00     0.010 A 
ATOM      7  C   LIG d   1      -5.085   2.514 -13.138  0.00  0.00     0.203 A 
ATOM      8  C   LIG d   1      -4.153   3.463 -13.532  0.00  0.00     0.052 A 
ATOM      9  C   LIG d   1      -4.567   4.757 -13.812  0.00  0.00     0.145 A 
ATOM     10  O   LIG d   1      -3.681   5.698 -14.198  0.00  0.00    -0.454 OA
ATOM     11  H   LIG d   1      -5.596   8.402 -14.622  0.00  0.00     0.069 H 
ATOM     12  H   LIG d   1      -7.899   4.376 -13.201  0.00  0.00     0.063 H 
ATOM     13  H   LIG d   1      -7.148   2.104 -12.705  0.00  0.00     0.068 H 
ATOM     14  H   LIG d   1      -3.111   3.196 -13.622  0.00  0.00     0.072 H 
ENDROOT
BRANCH   1  15
ATOM     15  C   LIG d   1      -3.016   7.925 -14.891  0.00  0.00     0.018 A 
ATOM     16  C   LIG d   1      -3.388   9.163 -15.423  0.00  0.00    -0.048 A 
ATOM     17  C   LIG d   1      -2.420  10.064 -15.808  0.00  0.00    -0.019 A 
ATOM     18  H   LIG d   1      -4.433   9.414 -15.530  0.00  0.00     0.063 H 
ATOM     19  C   LIG d   1      -1.074   9.744 -15.668  0.00  0.00     0.120 A 
ATOM     20  H   LIG d   1      -2.706  11.021 -16.218  0.00  0.00     0.065 H 
ATOM     21  C   LIG d   1      -0.701   8.513 -15.140  0.00  0.00    -0.019 A 
ATOM     22  C   LIG d   1      -1.661   7.609 -14.749  0.00  0.00    -0.048 A 
ATOM     23  H   LIG d   1       0.346   8.268 -15.033  0.00  0.00     0.065 H 
ATOM     24  H   LIG d   1      -1.370   6.655 -14.334  0.00  0.00     0.063 H 
BRANCH  19  25
ATOM     25  O   LIG d   1      -0.123  10.634 -16.050  0.00  0.00    -0.492 OA
BRANCH  25  26
ATOM     26  C   LIG d   1       1.239  10.227 -15.911  0.00  0.00     0.087 C 
ATOM     27  H   LIG d   1       1.380   9.248 -16.393  0.00  0.00     0.069 H 
ATOM     28  H   LIG d   1       1.493  10.151 -14.843  0.00  0.00     0.069 H 
BRANCH  26  29
ATOM     29  C   LIG d   1       2.150  11.259 -16.578  0.00  0.00    -0.031 C 
ATOM     30  H   LIG d   1       1.728  12.266 -16.439  0.00  0.00     0.026 H 
ATOM     31  H   LIG d   1       2.228  11.040 -17.653  0.00  0.00     0.026 H 
ATOM     32  H   LIG d   1       3.151  11.215 -16.122  0.00  0.00     0.026 H 
ENDBRANCH  26  29
ENDBRANCH  25  26
ENDBRANCH  19  25
ENDBRANCH   1  15
BRANCH   3  33
ATOM     33  O   LIG d   1      -7.515   6.810 -13.906  0.00  0.00    -0.506 OA
ATOM     34  H   LIG d   1      -8.157   6.378 -13.125  0.00  0.00     0.292 HD
ENDBRANCH   3  33
BRANCH   7  35
ATOM     35  N   LIG d   1      -4.669   1.214 -12.857  0.00  0.00    -0.254 N 
ATOM     36  H   LIG d   1      -4.194   0.986 -11.893  0.00  0.00     0.443 HD
ATOM     37  H   LIG d   1      -4.818   0.417 -13.600  0.00  0.00     0.443 HD
ENDBRANCH   7  35
TORSDOF 6
ENDMDL
MODEL 7
REMARK VINA RESULT:      -5.4      9.992     13.307
REMARK  6 active torsions:
REMARK  status: ('A' for Active; 'I' for Inactive)
REMARK    1  A    between atoms: C_1  and  C_2 
REMARK    2  A    between atoms: C_2  and  O_3 
REMARK    3  A    between atoms: O_3  and  C_4 
REMARK    4  A    between atoms: C_7  and  C_10 
REMARK    5  A    between atoms: C_12  and  O_13 
REMARK    6  A    between atoms: C_17  and  N_21 
ROOT
ATOM      1  C   LIG d   1      10.277   6.256  -3.905  0.00  0.00     0.139 A 
ATOM      2  C   LIG d   1      10.433   4.975  -3.471  0.00  0.00     0.023 A 
ATOM      3  C   LIG d   1      10.720   4.731  -2.107  0.00  0.00     0.131 A 
ATOM      4  C   LIG d   1      10.836   5.902  -1.218  0.00  0.00     0.059 A 
ATOM      5  C   LIG d   1      11.119   5.755   0.140  0.00  0.00    -0.041 A 
ATOM      6  C   LIG d   1      11.216   6.860   0.937  0.00  0.00     0.010 A 
ATOM      7  C   LIG d   1      11.044   8.134   0.397  0.00  0.00     0.203 A 
ATOM      8  C   LIG d   1      10.763   8.297  -0.952  0.00  0.00     0.052 A 
ATOM      9  C   LIG d   1      10.657   7.182  -1.771  0.00  0.00     0.145 A 
ATOM     10  O   LIG d   1      10.385   7.314  -3.087  0.00  0.00    -0.454 OA
ATOM     11  H   LIG d   1      10.338   4.151  -4.162  0.00  0.00     0.069 H 
ATOM     12  H   LIG d   1      11.256   4.770   0.561  0.00  0.00     0.063 H 
ATOM     13  H   LIG d   1      11.430   6.746   1.989  0.00  0.00     0.068 H 
ATOM     14  H   LIG d   1      10.628   9.286  -1.363  0.00  0.00     0.072 H 
ENDROOT
BRANCH   1  15
ATOM     15  C   LIG d   1       9.977   6.489  -5.330  0.00  0.00     0.018 A 
ATOM     16  C   LIG d   1       9.568   7.754  -5.762  0.00  0.00    -0.048 A 
ATOM     17  C   LIG d   1       9.289   7.968  -7.093  0.00  0.00    -0.019 A 
ATOM     18  H   LIG d   1       9.471   8.562  -5.052  0.00  0.00     0.063 H 
ATOM     19  C   LIG d   1       9.415   6.929  -8.008  0.00  0.00     0.120 A 
ATOM     20  H   LIG d   1       8.973   8.945  -7.428  0.00  0.00     0.065 H 
ATOM     21  C   LIG d   1       9.822   5.669  -7.582  0.00  0.00    -0.019 A 
ATOM     22  C   LIG d   1      10.107   5.448  -6.254  0.00  0.00    -0.048 A 
ATOM     23  H   LIG d   1       9.919   4.864  -8.296  0.00  0.00     0.065 H 
ATOM     24  H   LIG d   1      10.427   4.470  -5.925  0.00  0.00     0.063 H 
BRANCH  19  25
ATOM     25  O   LIG d   1       9.139   7.144  -9.320  0.00  0.00    -0.492 OA
BRANCH  25  26
ATOM     26  C   LIG d   1       8.702   6.019 -10.084  0.00  0.00     0.087 C 
ATOM     27  H   LIG d   1       7.611   5.913  -9.989  0.00  0.00     0.069 H 
ATOM     28  H   LIG d   1       9.192   5.107  -9.709  0.00  0.00     0.069 H 
BRANCH  26  29
ATOM     29  C   LIG d   1       9.068   6.227 -11.554  0.00  0.00    -0.031 C 
ATOM     30  H   LIG d   1      10.157   6.359 -11.646  0.00  0.00     0.026 H 
ATOM     31  H   LIG d   1       8.557   7.122 -11.937  0.00  0.00     0.026 H 
ATOM     32  H   LIG d   1       8.756   5.348 -12.138  0.00  0.00     0.026 H 
ENDBRANCH  26  29
ENDBRANCH  25  26
ENDBRANCH  19  25
ENDBRANCH   1  15
BRANCH   3  33
ATOM     33  O   LIG d   1      10.867   3.596  -1.683  0.00  0.00    -0.506 OA
ATOM     34  H   LIG d   1      11.544   3.408  -0.838  0.00  0.00     0.292 HD
ENDBRANCH   3  33
BRANCH   7  35
ATOM     35  N   LIG d   1      11.149   9.253   1.219  0.00  0.00    -0.254 N 
ATOM     36  H   LIG d   1      10.844  10.241   0.846  0.00  0.00     0.443 HD
ATOM     37  H   LIG d   1      11.538   9.148   2.243  0.00  0.00     0.443 HD
ENDBRANCH   7  35
TORSDOF 6
ENDMDL
MODEL 8
REMARK VINA RESULT:      -5.4     10.142     13.366
REMARK  6 active torsions:
REMARK  status: ('A' for Active; 'I' for Inactive)
REMARK    1  A    between atoms: C_1  and  C_2 
REMARK    2  A    between atoms: C_2  and  O_3 
REMARK    3  A    between atoms: O_3  and  C_4 
REMARK    4  A    between atoms: C_7  and  C_10 
REMARK    5  A    between atoms: C_12  and  O_13 
REMARK    6  A    between atoms: C_17  and  N_21 
ROOT
ATOM      1  C   LIG d   1      10.344   6.222  -1.706  0.00  0.00     0.139 A 
ATOM      2  C   LIG d   1      10.836   5.966  -0.464  0.00  0.00     0.023 A 
ATOM      3  C   LIG d   1      11.037   7.036   0.440  0.00  0.00     0.131 A 
ATOM      4  C   LIG d   1      10.696   8.392  -0.027  0.00  0.00     0.059 A 
ATOM      5  C   LIG d   1      10.865   9.506   0.796  0.00  0.00    -0.041 A 
ATOM      6  C   LIG d   1      10.535  10.748   0.334  0.00  0.00     0.010 A 
ATOM      7  C   LIG d   1      10.041  10.909  -0.960  0.00  0.00     0.203 A 
ATOM      8  C   LIG d   1       9.868   9.811  -1.791  0.00  0.00     0.052 A 
ATOM      9  C   LIG d   1      10.195   8.544  -1.332  0.00  0.00     0.145 A 
ATOM     10  O   LIG d   1      10.036   7.460  -2.121  0.00  0.00    -0.454 OA
ATOM     11  H   LIG d   1      11.070   4.954  -0.168  0.00  0.00     0.069 H 
ATOM     12  H   LIG d   1      11.251   9.386   1.798  0.00  0.00     0.063 H 
ATOM     13  H   LIG d   1      10.662  11.609   0.972  0.00  0.00     0.068 H 
ATOM     14  H   LIG d   1       9.482   9.943  -2.790  0.00  0.00     0.072 H 
ENDROOT
BRANCH   1  15
ATOM     15  C   LIG d   1      10.139   5.092  -2.633  0.00  0.00     0.018 A 
ATOM     16  C   LIG d   1      10.608   3.818  -2.298  0.00  0.00    -0.048 A 
ATOM     17  C   LIG d   1      10.414   2.766  -3.165  0.00  0.00    -0.019 A 
ATOM     18  H   LIG d   1      11.119   3.659  -1.360  0.00  0.00     0.063 H 
ATOM     19  C   LIG d   1       9.754   2.969  -4.372  0.00  0.00     0.120 A 
ATOM     20  H   LIG d   1      10.775   1.781  -2.908  0.00  0.00     0.065 H 
ATOM     21  C   LIG d   1       9.288   4.234  -4.708  0.00  0.00    -0.019 A 
ATOM     22  C   LIG d   1       9.473   5.290  -3.845  0.00  0.00    -0.048 A 
ATOM     23  H   LIG d   1       8.776   4.388  -5.647  0.00  0.00     0.065 H 
ATOM     24  H   LIG d   1       9.105   6.273  -4.106  0.00  0.00     0.063 H 
BRANCH  19  25
ATOM     25  O   LIG d   1       9.566   1.929  -5.224  0.00  0.00    -0.492 OA
BRANCH  25  26
ATOM     26  C   LIG d   1       8.217   1.601  -5.559  0.00  0.00     0.087 C 
ATOM     27  H   LIG d   1       8.211   0.884  -6.394  0.00  0.00     0.069 H 
ATOM     28  H   LIG d   1       7.680   2.515  -5.857  0.00  0.00     0.069 H 
BRANCH  26  29
ATOM     29  C   LIG d   1       7.527   0.977  -4.345  0.00  0.00    -0.031 C 
ATOM     30  H   LIG d   1       6.764   0.261  -4.684  0.00  0.00     0.026 H 
ATOM     31  H   LIG d   1       7.048   1.767  -3.749  0.00  0.00     0.026 H 
ATOM     32  H   LIG d   1       8.273   0.453  -3.728  0.00  0.00     0.026 H 
ENDBRANCH  26  29
ENDBRANCH  25  26
ENDBRANCH  19  25
ENDBRANCH   1  15
BRANCH   3  33
ATOM     33  O   LIG d   1      11.477   6.844   1.562  0.00  0.00    -0.506 OA
ATOM     34  H   LIG d   1      10.878   7.116   2.442  0.00  0.00     0.292 HD
ENDBRANCH   3  33
BRANCH   7  35
ATOM     35  N   LIG d   1       9.713  12.182  -1.421  0.00  0.00    -0.254 N 
ATOM     36  H   LIG d   1       9.386  12.956  -0.712  0.00  0.00     0.443 HD
ATOM     37  H   LIG d   1       9.782  12.412  -2.494  0.00  0.00     0.443 HD
ENDBRANCH   7  35
TORSDOF 6
ENDMDL
MODEL 9
REMARK VINA RESULT:      -5.3      3.344      7.782
REMARK  6 active torsions:
REMARK  status: ('A' for Active; 'I' for Inactive)
REMARK    1  A    between atoms: C_1  and  C_2 
REMARK    2  A    between atoms: C_2  and  O_3 
REMARK    3  A    between atoms: O_3  and  C_4 
REMARK    4  A    between atoms: C_7  and  C_10 
REMARK    5  A    between atoms: C_12  and  O_13 
REMARK    6  A    between atoms: C_17  and  N_21 
ROOT
ATOM      1  C   LIG d   1       4.407  -1.365  -7.028  0.00  0.00     0.139 A 
ATOM      2  C   LIG d   1       4.454  -2.693  -6.737  0.00  0.00     0.023 A 
ATOM      3  C   LIG d   1       4.488  -3.111  -5.386  0.00  0.00     0.131 A 
ATOM      4  C   LIG d   1       4.471  -2.060  -4.351  0.00  0.00     0.059 A 
ATOM      5  C   LIG d   1       4.505  -2.380  -2.993  0.00  0.00    -0.041 A 
ATOM      6  C   LIG d   1       4.483  -1.383  -2.060  0.00  0.00     0.010 A 
ATOM      7  C   LIG d   1       4.439  -0.048  -2.458  0.00  0.00     0.203 A 
ATOM      8  C   LIG d   1       4.406   0.287  -3.804  0.00  0.00     0.052 A 
ATOM      9  C   LIG d   1       4.423  -0.717  -4.762  0.00  0.00     0.145 A 
ATOM     10  O   LIG d   1       4.392  -0.418  -6.078  0.00  0.00    -0.454 OA
ATOM     11  H   LIG d   1       4.464  -3.424  -7.532  0.00  0.00     0.069 H 
ATOM     12  H   LIG d   1       4.543  -3.414  -2.681  0.00  0.00     0.063 H 
ATOM     13  H   LIG d   1       4.505  -1.631  -1.010  0.00  0.00     0.068 H 
ATOM     14  H   LIG d   1       4.369   1.322  -4.105  0.00  0.00     0.072 H 
ENDROOT
BRANCH   1  15
ATOM     15  C   LIG d   1       4.370  -0.951  -8.443  0.00  0.00     0.018 A 
ATOM     16  C   LIG d   1       4.151  -1.901  -9.446  0.00  0.00    -0.048 A 
ATOM     17  C   LIG d   1       4.117  -1.510 -10.766  0.00  0.00    -0.019 A 
ATOM     18  H   LIG d   1       4.008  -2.939  -9.185  0.00  0.00     0.063 H 
ATOM     19  C   LIG d   1       4.299  -0.174 -11.103  0.00  0.00     0.120 A 
ATOM     20  H   LIG d   1       3.948  -2.243 -11.541  0.00  0.00     0.065 H 
ATOM     21  C   LIG d   1       4.517   0.773 -10.109  0.00  0.00    -0.019 A 
ATOM     22  C   LIG d   1       4.549   0.392  -8.787  0.00  0.00    -0.048 A 
ATOM     23  H   LIG d   1       4.659   1.811 -10.375  0.00  0.00     0.065 H 
ATOM     24  H   LIG d   1       4.714   1.130  -8.015  0.00  0.00     0.063 H 
BRANCH  19  25
ATOM     25  O   LIG d   1       4.265   0.206 -12.405  0.00  0.00    -0.492 OA
BRANCH  25  26
ATOM     26  C   LIG d   1       4.160  -0.832 -13.382  0.00  0.00     0.087 C 
ATOM     27  H   LIG d   1       3.293  -0.638 -14.031  0.00  0.00     0.069 H 
ATOM     28  H   LIG d   1       4.030  -1.800 -12.875  0.00  0.00     0.069 H 
BRANCH  26  29
ATOM     29  C   LIG d   1       5.434  -0.866 -14.228  0.00  0.00    -0.031 C 
ATOM     30  H   LIG d   1       5.286  -1.536 -15.088  0.00  0.00     0.026 H 
ATOM     31  H   LIG d   1       6.271  -1.233 -13.617  0.00  0.00     0.026 H 
ATOM     32  H   LIG d   1       5.661   0.149 -14.589  0.00  0.00     0.026 H 
ENDBRANCH  26  29
ENDBRANCH  25  26
ENDBRANCH  19  25
ENDBRANCH   1  15
BRANCH   3  33
ATOM     33  O   LIG d   1       4.532  -4.293  -5.088  0.00  0.00    -0.506 OA
ATOM     34  H   LIG d   1       4.306  -5.060  -5.843  0.00  0.00     0.292 HD
ENDBRANCH   3  33
BRANCH   7  35
ATOM     35  N   LIG d   1       4.422   0.960  -1.497  0.00  0.00    -0.254 N 
ATOM     36  H   LIG d   1       4.785   1.966  -1.749  0.00  0.00     0.443 HD
ATOM     37  H   LIG d   1       4.045   0.748  -0.486  0.00  0.00     0.443 HD
ENDBRANCH   7  35
TORSDOF 6
ENDMDL
