MODEL 1
REMARK VINA RESULT:      -8.1      0.000      0.000
REMARK  6 active torsions:
REMARK  status: ('A' for Active; 'I' for Inactive)
REMARK    1  A    between atoms: C_6  and  C_7 
REMARK    2  A    between atoms: C_7  and  N_49 
REMARK    3  A    between atoms: C_15  and  C_17 
REMARK    4  A    between atoms: C_19  and  C_22 
REMARK    5  A    between atoms: C_25  and  O_28 
REMARK    6  A    between atoms: O_28  and  C_29 
ROOT
ATOM      1  C   LIG d   1       6.830   0.218  -5.839  0.00  0.00     0.036 C 
ATOM      2  C   LIG d   1       7.017   0.629  -7.278  0.00  0.00     0.190 A 
ATOM      3  C   LIG d   1       7.877   1.597  -7.669  0.00  0.00     0.156 A 
ATOM      4  N   LIG d   1       7.780   1.700  -9.019  0.00  0.00    -0.247 N 
ATOM      5  H   LIG d   1       8.289   2.329  -9.606  0.00  0.00     0.310 HD
ATOM      6  C   LIG d   1       6.863   0.788  -9.419  0.00  0.00     0.243 A 
ATOM      7  C   LIG d   1       8.747   2.371  -6.712  0.00  0.00     0.065 C 
ATOM      8  C   LIG d   1       8.770   1.612  -5.377  0.00  0.00     0.068 C 
ATOM      9  H   LIG d   1       9.352   0.696  -5.491  0.00  0.00     0.096 H 
ATOM     10  H   LIG d   1       7.350  -0.724  -5.656  0.00  0.00     0.090 H 
ATOM     11  H   LIG d   1       5.769   0.099  -5.624  0.00  0.00     0.090 H 
ATOM     12  H   LIG d   1       6.553   0.614 -10.439  0.00  0.00     0.158 H 
ATOM     13  H   LIG d   1       8.334   3.369  -6.561  0.00  0.00     0.041 H 
ATOM     14  H   LIG d   1       9.758   2.446  -7.111  0.00  0.00     0.041 H 
ATOM     15  N   LIG d   1       7.378   1.298  -4.982  0.00  0.00     0.254 N 
ATOM     16  H   LIG d   1       6.803   2.139  -5.100  0.00  0.00     0.205 HD
ATOM     17  N   LIG d   1       6.414   0.155  -8.368  0.00  0.00    -0.243 N 
ATOM     18  H   LIG d   1       5.709  -0.591  -8.379  0.00  0.00     0.311 HD
ENDROOT
BRANCH   8  19
ATOM     19  C   LIG d   1       9.400   2.478  -4.317  0.00  0.00     0.276 A 
ATOM     20  O   LIG d   1      10.267   2.081  -3.380  0.00  0.00    -0.332 OA
ATOM     21  N   LIG d   1      10.584   3.021  -2.683  0.00  0.00    -0.056 NA
ATOM     22  C   LIG d   1       9.971   4.105  -3.083  0.00  0.00     0.202 A 
ATOM     23  N   LIG d   1       9.202   3.760  -4.141  0.00  0.00    -0.186 NA
BRANCH  22  24
ATOM     24  C   LIG d   1      10.095   5.457  -2.488  0.00  0.00     0.023 A 
ATOM     25  C   LIG d   1      10.405   5.600  -1.136  0.00  0.00    -0.048 A 
ATOM     26  C   LIG d   1      10.520   6.860  -0.586  0.00  0.00    -0.019 A 
ATOM     27  H   LIG d   1      10.555   4.726  -0.521  0.00  0.00     0.063 H 
ATOM     28  C   LIG d   1      10.328   7.984  -1.376  0.00  0.00     0.130 A 
ATOM     29  H   LIG d   1      10.760   6.970   0.461  0.00  0.00     0.065 H 
ATOM     30  C   LIG d   1      10.019   7.845  -2.724  0.00  0.00    -0.019 A 
ATOM     31  C   LIG d   1       9.907   6.589  -3.280  0.00  0.00    -0.048 A 
ATOM     32  H   LIG d   1       9.869   8.722  -3.336  0.00  0.00     0.065 H 
ATOM     33  H   LIG d   1       9.672   6.481  -4.329  0.00  0.00     0.063 H 
BRANCH  28  34
ATOM     34  O   LIG d   1      10.441   9.223  -0.832  0.00  0.00    -0.406 OA
BRANCH  34  35
ATOM     35  C   LIG d   1       9.233   9.961  -0.640  0.00  0.00     0.575 C 
ATOM     36  F   LIG d   1       9.012  10.790  -1.746  0.00  0.00    -0.133 F 
ATOM     37  F   LIG d   1       8.161   9.073  -0.504  0.00  0.00    -0.133 F 
ATOM     38  F   LIG d   1       9.341  10.742   0.515  0.00  0.00    -0.133 F 
ENDBRANCH  34  35
ENDBRANCH  28  34
ENDBRANCH  22  24
ENDBRANCH   8  19
BRANCH  15  39
ATOM     39  C   LIG d   1       7.339   0.885  -3.565  0.00  0.00    -0.005 C 
ATOM     40  H   LIG d   1       8.059   0.089  -3.376  0.00  0.00     0.087 H 
ATOM     41  H   LIG d   1       7.579   1.748  -2.942  0.00  0.00     0.087 H 
BRANCH  39  42
ATOM     42  C   LIG d   1       5.952   0.396  -3.232  0.00  0.00    -0.003 A 
ATOM     43  C   LIG d   1       4.926   1.305  -3.044  0.00  0.00    -0.051 A 
ATOM     44  C   LIG d   1       3.654   0.858  -2.743  0.00  0.00    -0.026 A 
ATOM     45  H   LIG d   1       5.120   2.363  -3.136  0.00  0.00     0.062 H 
ATOM     46  C   LIG d   1       3.408  -0.499  -2.621  0.00  0.00     0.123 A 
ATOM     47  H   LIG d   1       2.852   1.567  -2.602  0.00  0.00     0.065 H 
ATOM     48  C   LIG d   1       4.436  -1.407  -2.804  0.00  0.00    -0.026 A 
ATOM     49  F   LIG d   1       2.165  -0.937  -2.322  0.00  0.00    -0.205 F 
ATOM     50  C   LIG d   1       5.708  -0.958  -3.109  0.00  0.00    -0.051 A 
ATOM     51  H   LIG d   1       4.247  -2.467  -2.707  0.00  0.00     0.065 H 
ATOM     52  H   LIG d   1       6.510  -1.667  -3.252  0.00  0.00     0.062 H 
ENDBRANCH  39  42
ENDBRANCH  15  39
TORSDOF 6
ENDMDL
MODEL 2
REMARK VINA RESULT:      -7.7      2.773      8.686
REMARK  6 active torsions:
REMARK  status: ('A' for Active; 'I' for Inactive)
REMARK    1  A    between atoms: C_6  and  C_7 
REMARK    2  A    between atoms: C_7  and  N_49 
REMARK    3  A    between atoms: C_15  and  C_17 
REMARK    4  A    between atoms: C_19  and  C_22 
REMARK    5  A    between atoms: C_25  and  O_28 
REMARK    6  A    between atoms: O_28  and  C_29 
ROOT
ATOM      1  C   LIG d   1      10.488   7.508  -5.064  0.00  0.00     0.036 C 
ATOM      2  C   LIG d   1      11.526   7.372  -6.150  0.00  0.00     0.190 A 
ATOM      3  C   LIG d   1      11.927   6.180  -6.648  0.00  0.00     0.156 A 
ATOM      4  N   LIG d   1      12.863   6.437  -7.597  0.00  0.00    -0.247 N 
ATOM      5  H   LIG d   1      13.353   5.762  -8.149  0.00  0.00     0.310 HD
ATOM      6  C   LIG d   1      13.008   7.782  -7.656  0.00  0.00     0.243 A 
ATOM      7  C   LIG d   1      11.382   4.856  -6.177  0.00  0.00     0.065 C 
ATOM      8  C   LIG d   1      10.090   5.131  -5.394  0.00  0.00     0.068 C 
ATOM      9  H   LIG d   1       9.306   5.443  -6.086  0.00  0.00     0.096 H 
ATOM     10  H   LIG d   1       9.539   7.821  -5.500  0.00  0.00     0.090 H 
ATOM     11  H   LIG d   1      10.816   8.245  -4.331  0.00  0.00     0.090 H 
ATOM     12  H   LIG d   1      13.678   8.314  -8.314  0.00  0.00     0.158 H 
ATOM     13  H   LIG d   1      12.109   4.367  -5.529  0.00  0.00     0.041 H 
ATOM     14  H   LIG d   1      11.165   4.221  -7.036  0.00  0.00     0.041 H 
ATOM     15  N   LIG d   1      10.353   6.190  -4.395  0.00  0.00     0.254 N 
ATOM     16  H   LIG d   1      11.230   5.975  -3.906  0.00  0.00     0.205 HD
ATOM     17  N   LIG d   1      12.202   8.329  -6.784  0.00  0.00    -0.243 N 
ATOM     18  H   LIG d   1      12.104   9.337  -6.616  0.00  0.00     0.311 HD
ENDROOT
BRANCH   8  19
ATOM     19  C   LIG d   1       9.659   3.876  -4.681  0.00  0.00     0.276 A 
ATOM     20  O   LIG d   1      10.331   3.242  -3.715  0.00  0.00    -0.332 OA
ATOM     21  N   LIG d   1       9.712   2.264  -3.351  0.00  0.00    -0.056 NA
ATOM     22  C   LIG d   1       8.597   2.161  -4.027  0.00  0.00     0.202 A 
ATOM     23  N   LIG d   1       8.556   3.202  -4.890  0.00  0.00    -0.186 NA
BRANCH  22  24
ATOM     24  C   LIG d   1       7.570   1.102  -3.874  0.00  0.00     0.023 A 
ATOM     25  C   LIG d   1       7.870  -0.216  -4.214  0.00  0.00    -0.048 A 
ATOM     26  C   LIG d   1       6.913  -1.198  -4.070  0.00  0.00    -0.019 A 
ATOM     27  H   LIG d   1       8.851  -0.468  -4.588  0.00  0.00     0.063 H 
ATOM     28  C   LIG d   1       5.651  -0.876  -3.588  0.00  0.00     0.130 A 
ATOM     29  H   LIG d   1       7.145  -2.220  -4.334  0.00  0.00     0.065 H 
ATOM     30  C   LIG d   1       5.350   0.437  -3.250  0.00  0.00    -0.019 A 
ATOM     31  C   LIG d   1       6.304   1.423  -3.386  0.00  0.00    -0.048 A 
ATOM     32  H   LIG d   1       4.367   0.685  -2.876  0.00  0.00     0.065 H 
ATOM     33  H   LIG d   1       6.070   2.442  -3.118  0.00  0.00     0.063 H 
BRANCH  28  34
ATOM     34  O   LIG d   1       4.710  -1.845  -3.449  0.00  0.00    -0.406 OA
BRANCH  34  35
ATOM     35  C   LIG d   1       3.854  -1.759  -2.308  0.00  0.00     0.575 C 
ATOM     36  F   LIG d   1       3.467  -3.046  -1.918  0.00  0.00    -0.133 F 
ATOM     37  F   LIG d   1       4.539  -1.141  -1.257  0.00  0.00    -0.133 F 
ATOM     38  F   LIG d   1       2.720  -1.008  -2.632  0.00  0.00    -0.133 F 
ENDBRANCH  34  35
ENDBRANCH  28  34
ENDBRANCH  22  24
ENDBRANCH   8  19
BRANCH  15  39
ATOM     39  C   LIG d   1       9.254   6.236  -3.409  0.00  0.00    -0.005 C 
ATOM     40  H   LIG d   1       8.517   6.988  -3.690  0.00  0.00     0.087 H 
ATOM     41  H   LIG d   1       8.777   5.256  -3.372  0.00  0.00     0.087 H 
BRANCH  39  42
ATOM     42  C   LIG d   1       9.821   6.572  -2.053  0.00  0.00    -0.003 A 
ATOM     43  C   LIG d   1      10.529   5.617  -1.345  0.00  0.00    -0.051 A 
ATOM     44  C   LIG d   1      11.053   5.925  -0.105  0.00  0.00    -0.026 A 
ATOM     45  H   LIG d   1      10.675   4.633  -1.765  0.00  0.00     0.062 H 
ATOM     46  C   LIG d   1      10.862   7.185   0.434  0.00  0.00     0.123 A 
ATOM     47  H   LIG d   1      11.611   5.181   0.445  0.00  0.00     0.065 H 
ATOM     48  C   LIG d   1      10.148   8.138  -0.272  0.00  0.00    -0.026 A 
ATOM     49  F   LIG d   1      11.369   7.486   1.650  0.00  0.00    -0.205 F 
ATOM     50  C   LIG d   1       9.629   7.830  -1.515  0.00  0.00    -0.051 A 
ATOM     51  H   LIG d   1       9.996   9.122   0.148  0.00  0.00     0.065 H 
ATOM     52  H   LIG d   1       9.072   8.573  -2.067  0.00  0.00     0.062 H 
ENDBRANCH  39  42
ENDBRANCH  15  39
TORSDOF 6
ENDMDL
MODEL 3
REMARK VINA RESULT:      -7.6      7.568      9.817
REMARK  6 active torsions:
REMARK  status: ('A' for Active; 'I' for Inactive)
REMARK    1  A    between atoms: C_6  and  C_7 
REMARK    2  A    between atoms: C_7  and  N_49 
REMARK    3  A    between atoms: C_15  and  C_17 
REMARK    4  A    between atoms: C_19  and  C_22 
REMARK    5  A    between atoms: C_25  and  O_28 
REMARK    6  A    between atoms: O_28  and  C_29 
ROOT
ATOM      1  C   LIG d   1       4.775  -0.815 -14.078  0.00  0.00     0.036 C 
ATOM      2  C   LIG d   1       6.214  -1.062 -14.458  0.00  0.00     0.190 A 
ATOM      3  C   LIG d   1       7.076  -1.763 -13.686  0.00  0.00     0.156 A 
ATOM      4  N   LIG d   1       8.269  -1.781 -14.333  0.00  0.00    -0.247 N 
ATOM      5  H   LIG d   1       9.110  -2.221 -14.018  0.00  0.00     0.310 HD
ATOM      6  C   LIG d   1       8.104  -1.092 -15.486  0.00  0.00     0.243 A 
ATOM      7  C   LIG d   1       6.696  -2.377 -12.364  0.00  0.00     0.065 C 
ATOM      8  C   LIG d   1       5.163  -2.409 -12.282  0.00  0.00     0.068 C 
ATOM      9  H   LIG d   1       4.778  -3.158 -12.976  0.00  0.00     0.096 H 
ATOM     10  H   LIG d   1       4.125  -1.478 -14.650  0.00  0.00     0.090 H 
ATOM     11  H   LIG d   1       4.512   0.222 -14.284  0.00  0.00     0.090 H 
ATOM     12  H   LIG d   1       8.867  -0.921 -16.232  0.00  0.00     0.158 H 
ATOM     13  H   LIG d   1       7.096  -1.775 -11.548  0.00  0.00     0.041 H 
ATOM     14  H   LIG d   1       7.090  -3.392 -12.302  0.00  0.00     0.041 H 
ATOM     15  N   LIG d   1       4.638  -1.068 -12.622  0.00  0.00     0.254 N 
ATOM     16  H   LIG d   1       5.179  -0.361 -12.111  0.00  0.00     0.205 HD
ATOM     17  N   LIG d   1       6.870  -0.666 -15.548  0.00  0.00    -0.243 N 
ATOM     18  H   LIG d   1       6.469  -0.116 -16.316  0.00  0.00     0.311 HD
ENDROOT
BRANCH   8  19
ATOM     19  C   LIG d   1       4.742  -2.762 -10.879  0.00  0.00     0.276 A 
ATOM     20  O   LIG d   1       3.853  -3.698 -10.529  0.00  0.00    -0.332 OA
ATOM     21  N   LIG d   1       3.741  -3.733  -9.322  0.00  0.00    -0.056 NA
ATOM     22  C   LIG d   1       4.526  -2.843  -8.772  0.00  0.00     0.202 A 
ATOM     23  N   LIG d   1       5.177  -2.211  -9.774  0.00  0.00    -0.186 NA
BRANCH  22  24
ATOM     24  C   LIG d   1       4.674  -2.578  -7.320  0.00  0.00     0.023 A 
ATOM     25  C   LIG d   1       4.669  -3.636  -6.413  0.00  0.00    -0.048 A 
ATOM     26  C   LIG d   1       4.807  -3.385  -5.063  0.00  0.00    -0.019 A 
ATOM     27  H   LIG d   1       4.558  -4.650  -6.765  0.00  0.00     0.063 H 
ATOM     28  C   LIG d   1       4.951  -2.082  -4.608  0.00  0.00     0.130 A 
ATOM     29  H   LIG d   1       4.803  -4.205  -4.360  0.00  0.00     0.065 H 
ATOM     30  C   LIG d   1       4.956  -1.026  -5.511  0.00  0.00    -0.019 A 
ATOM     31  C   LIG d   1       4.823  -1.270  -6.861  0.00  0.00    -0.048 A 
ATOM     32  H   LIG d   1       5.068  -0.012  -5.154  0.00  0.00     0.065 H 
ATOM     33  H   LIG d   1       4.832  -0.448  -7.562  0.00  0.00     0.063 H 
BRANCH  28  34
ATOM     34  O   LIG d   1       5.086  -1.838  -3.279  0.00  0.00    -0.406 OA
BRANCH  34  35
ATOM     35  C   LIG d   1       3.884  -1.691  -2.521  0.00  0.00     0.575 C 
ATOM     36  F   LIG d   1       3.527  -2.927  -1.968  0.00  0.00    -0.133 F 
ATOM     37  F   LIG d   1       4.091  -0.765  -1.494  0.00  0.00    -0.133 F 
ATOM     38  F   LIG d   1       2.858  -1.240  -3.357  0.00  0.00    -0.133 F 
ENDBRANCH  34  35
ENDBRANCH  28  34
ENDBRANCH  22  24
ENDBRANCH   8  19
BRANCH  15  39
ATOM     39  C   LIG d   1       3.220  -0.966 -12.225  0.00  0.00    -0.005 C 
ATOM     40  H   LIG d   1       2.612  -0.610 -13.057  0.00  0.00     0.087 H 
ATOM     41  H   LIG d   1       2.872  -1.953 -11.917  0.00  0.00     0.087 H 
BRANCH  39  42
ATOM     42  C   LIG d   1       3.098  -0.007 -11.068  0.00  0.00    -0.003 A 
ATOM     43  C   LIG d   1       3.868   1.141 -11.040  0.00  0.00    -0.051 A 
ATOM     44  C   LIG d   1       3.754   2.023  -9.982  0.00  0.00    -0.026 A 
ATOM     45  H   LIG d   1       4.555   1.350 -11.847  0.00  0.00     0.062 H 
ATOM     46  C   LIG d   1       2.876   1.752  -8.947  0.00  0.00     0.123 A 
ATOM     47  H   LIG d   1       4.351   2.923  -9.963  0.00  0.00     0.065 H 
ATOM     48  C   LIG d   1       2.111   0.599  -8.973  0.00  0.00    -0.026 A 
ATOM     49  F   LIG d   1       2.768   2.611  -7.909  0.00  0.00    -0.205 F 
ATOM     50  C   LIG d   1       2.222  -0.279 -10.034  0.00  0.00    -0.051 A 
ATOM     51  H   LIG d   1       1.426   0.385  -8.165  0.00  0.00     0.065 H 
ATOM     52  H   LIG d   1       1.625  -1.179 -10.055  0.00  0.00     0.062 H 
ENDBRANCH  39  42
ENDBRANCH  15  39
TORSDOF 6
ENDMDL
MODEL 4
REMARK VINA RESULT:      -7.6      2.263      3.513
REMARK  6 active torsions:
REMARK  status: ('A' for Active; 'I' for Inactive)
REMARK    1  A    between atoms: C_6  and  C_7 
REMARK    2  A    between atoms: C_7  and  N_49 
REMARK    3  A    between atoms: C_15  and  C_17 
REMARK    4  A    between atoms: C_19  and  C_22 
REMARK    5  A    between atoms: C_25  and  O_28 
REMARK    6  A    between atoms: O_28  and  C_29 
ROOT
ATOM      1  C   LIG d   1       4.399  -1.085  -8.012  0.00  0.00     0.036 C 
ATOM      2  C   LIG d   1       4.235  -0.335  -9.311  0.00  0.00     0.190 A 
ATOM      3  C   LIG d   1       5.094   0.622  -9.729  0.00  0.00     0.156 A 
ATOM      4  N   LIG d   1       4.637   1.077 -10.924  0.00  0.00    -0.247 N 
ATOM      5  H   LIG d   1       5.054   1.788 -11.489  0.00  0.00     0.310 HD
ATOM      6  C   LIG d   1       3.510   0.382 -11.206  0.00  0.00     0.243 A 
ATOM      7  C   LIG d   1       6.311   1.046  -8.948  0.00  0.00     0.065 C 
ATOM      8  C   LIG d   1       6.588  -0.030  -7.888  0.00  0.00     0.068 C 
ATOM      9  H   LIG d   1       6.959  -0.934  -8.375  0.00  0.00     0.096 H 
ATOM     10  H   LIG d   1       4.790  -2.083  -8.211  0.00  0.00     0.090 H 
ATOM     11  H   LIG d   1       3.437  -1.161  -7.507  0.00  0.00     0.090 H 
ATOM     12  H   LIG d   1       2.901   0.503 -12.090  0.00  0.00     0.158 H 
ATOM     13  H   LIG d   1       6.124   2.003  -8.462  0.00  0.00     0.041 H 
ATOM     14  H   LIG d   1       7.167   1.132  -9.618  0.00  0.00     0.041 H 
ATOM     15  N   LIG d   1       5.333  -0.313  -7.155  0.00  0.00     0.254 N 
ATOM     16  H   LIG d   1       4.891   0.578  -6.900  0.00  0.00     0.205 HD
ATOM     17  N   LIG d   1       3.281  -0.459 -10.232  0.00  0.00    -0.243 N 
ATOM     18  H   LIG d   1       2.491  -1.113 -10.185  0.00  0.00     0.311 HD
ENDROOT
BRANCH   8  19
ATOM     19  C   LIG d   1       7.623   0.476  -6.916  0.00  0.00     0.276 A 
ATOM     20  O   LIG d   1       8.582  -0.248  -6.330  0.00  0.00    -0.332 OA
ATOM     21  N   LIG d   1       9.250   0.458  -5.604  0.00  0.00    -0.056 NA
ATOM     22  C   LIG d   1       8.806   1.688  -5.641  0.00  0.00     0.202 A 
ATOM     23  N   LIG d   1       7.752   1.707  -6.489  0.00  0.00    -0.186 NA
BRANCH  22  24
ATOM     24  C   LIG d   1       9.355   2.845  -4.893  0.00  0.00     0.023 A 
ATOM     25  C   LIG d   1       9.557   4.063  -5.540  0.00  0.00    -0.048 A 
ATOM     26  C   LIG d   1      10.068   5.136  -4.841  0.00  0.00    -0.019 A 
ATOM     27  H   LIG d   1       9.314   4.166  -6.586  0.00  0.00     0.063 H 
ATOM     28  C   LIG d   1      10.381   5.005  -3.495  0.00  0.00     0.130 A 
ATOM     29  H   LIG d   1      10.226   6.080  -5.342  0.00  0.00     0.065 H 
ATOM     30  C   LIG d   1      10.181   3.792  -2.848  0.00  0.00    -0.019 A 
ATOM     31  C   LIG d   1       9.666   2.717  -3.540  0.00  0.00    -0.048 A 
ATOM     32  H   LIG d   1      10.426   3.693  -1.800  0.00  0.00     0.065 H 
ATOM     33  H   LIG d   1       9.506   1.776  -3.035  0.00  0.00     0.063 H 
BRANCH  28  34
ATOM     34  O   LIG d   1      10.885   6.064  -2.810  0.00  0.00    -0.406 OA
BRANCH  34  35
ATOM     35  C   LIG d   1      10.032   6.674  -1.839  0.00  0.00     0.575 C 
ATOM     36  F   LIG d   1      10.458   7.985  -1.601  0.00  0.00    -0.133 F 
ATOM     37  F   LIG d   1       8.718   6.691  -2.318  0.00  0.00    -0.133 F 
ATOM     38  F   LIG d   1      10.084   5.943  -0.647  0.00  0.00    -0.133 F 
ENDBRANCH  34  35
ENDBRANCH  28  34
ENDBRANCH  22  24
ENDBRANCH   8  19
BRANCH  15  39
ATOM     39  C   LIG d   1       5.629  -1.071  -5.923  0.00  0.00    -0.005 C 
ATOM     40  H   LIG d   1       5.195  -2.069  -5.972  0.00  0.00     0.087 H 
ATOM     41  H   LIG d   1       6.711  -1.150  -5.813  0.00  0.00     0.087 H 
BRANCH  39  42
ATOM     42  C   LIG d   1       5.057  -0.333  -4.740  0.00  0.00    -0.003 A 
ATOM     43  C   LIG d   1       3.689  -0.162  -4.628  0.00  0.00    -0.051 A 
ATOM     44  C   LIG d   1       3.164   0.510  -3.541  0.00  0.00    -0.026 A 
ATOM     45  H   LIG d   1       3.032  -0.558  -5.388  0.00  0.00     0.062 H 
ATOM     46  C   LIG d   1       4.007   1.021  -2.569  0.00  0.00     0.123 A 
ATOM     47  H   LIG d   1       2.095   0.638  -3.451  0.00  0.00     0.065 H 
ATOM     48  C   LIG d   1       5.376   0.855  -2.685  0.00  0.00    -0.026 A 
ATOM     49  F   LIG d   1       3.494   1.683  -1.509  0.00  0.00    -0.205 F 
ATOM     50  C   LIG d   1       5.900   0.178  -3.770  0.00  0.00    -0.051 A 
ATOM     51  H   LIG d   1       6.036   1.254  -1.928  0.00  0.00     0.065 H 
ATOM     52  H   LIG d   1       6.968   0.048  -3.861  0.00  0.00     0.062 H 
ENDBRANCH  39  42
ENDBRANCH  15  39
TORSDOF 6
ENDMDL
MODEL 5
REMARK VINA RESULT:      -7.5      2.593      3.158
REMARK  6 active torsions:
REMARK  status: ('A' for Active; 'I' for Inactive)
REMARK    1  A    between atoms: C_6  and  C_7 
REMARK    2  A    between atoms: C_7  and  N_49 
REMARK    3  A    between atoms: C_15  and  C_17 
REMARK    4  A    between atoms: C_19  and  C_22 
REMARK    5  A    between atoms: C_25  and  O_28 
REMARK    6  A    between atoms: O_28  and  C_29 
ROOT
ATOM      1  C   LIG d   1       7.785  -3.136  -4.507  0.00  0.00     0.036 C 
ATOM      2  C   LIG d   1       8.362  -3.698  -5.783  0.00  0.00     0.190 A 
ATOM      3  C   LIG d   1       8.931  -2.932  -6.742  0.00  0.00     0.156 A 
ATOM      4  N   LIG d   1       9.332  -3.766  -7.735  0.00  0.00    -0.247 N 
ATOM      5  H   LIG d   1       9.787  -3.502  -8.586  0.00  0.00     0.310 HD
ATOM      6  C   LIG d   1       8.999  -5.022  -7.356  0.00  0.00     0.243 A 
ATOM      7  C   LIG d   1       9.054  -1.433  -6.643  0.00  0.00     0.065 C 
ATOM      8  C   LIG d   1       8.814  -1.036  -5.179  0.00  0.00     0.068 C 
ATOM      9  H   LIG d   1       9.664  -1.354  -4.572  0.00  0.00     0.096 H 
ATOM     10  H   LIG d   1       8.475  -3.315  -3.682  0.00  0.00     0.090 H 
ATOM     11  H   LIG d   1       6.828  -3.611  -4.295  0.00  0.00     0.090 H 
ATOM     12  H   LIG d   1       9.183  -5.921  -7.926  0.00  0.00     0.158 H 
ATOM     13  H   LIG d   1       8.309  -0.958  -7.281  0.00  0.00     0.041 H 
ATOM     14  H   LIG d   1      10.054  -1.126  -6.949  0.00  0.00     0.041 H 
ATOM     15  N   LIG d   1       7.568  -1.681  -4.708  0.00  0.00     0.254 N 
ATOM     16  H   LIG d   1       6.838  -1.549  -5.417  0.00  0.00     0.205 HD
ATOM     17  N   LIG d   1       8.419  -4.967  -6.186  0.00  0.00    -0.243 N 
ATOM     18  H   LIG d   1       8.064  -5.774  -5.659  0.00  0.00     0.311 HD
ENDROOT
BRANCH   8  19
ATOM     19  C   LIG d   1       8.662   0.460  -5.083  0.00  0.00     0.276 A 
ATOM     20  O   LIG d   1       7.767   1.209  -5.736  0.00  0.00    -0.332 OA
ATOM     21  N   LIG d   1       7.908   2.376  -5.438  0.00  0.00    -0.056 NA
ATOM     22  C   LIG d   1       8.886   2.507  -4.580  0.00  0.00     0.202 A 
ATOM     23  N   LIG d   1       9.379   1.270  -4.346  0.00  0.00    -0.186 NA
BRANCH  22  24
ATOM     24  C   LIG d   1       9.364   3.774  -3.977  0.00  0.00     0.023 A 
ATOM     25  C   LIG d   1      10.007   3.761  -2.740  0.00  0.00    -0.048 A 
ATOM     26  C   LIG d   1      10.451   4.942  -2.182  0.00  0.00    -0.019 A 
ATOM     27  H   LIG d   1      10.157   2.827  -2.219  0.00  0.00     0.063 H 
ATOM     28  C   LIG d   1      10.259   6.143  -2.851  0.00  0.00     0.130 A 
ATOM     29  H   LIG d   1      10.948   4.931  -1.223  0.00  0.00     0.065 H 
ATOM     30  C   LIG d   1       9.618   6.159  -4.083  0.00  0.00    -0.019 A 
ATOM     31  C   LIG d   1       9.177   4.982  -4.648  0.00  0.00    -0.048 A 
ATOM     32  H   LIG d   1       9.470   7.096  -4.602  0.00  0.00     0.065 H 
ATOM     33  H   LIG d   1       8.684   4.995  -5.609  0.00  0.00     0.063 H 
BRANCH  28  34
ATOM     34  O   LIG d   1      10.696   7.304  -2.299  0.00  0.00    -0.406 OA
BRANCH  34  35
ATOM     35  C   LIG d   1       9.922   7.845  -1.227  0.00  0.00     0.575 C 
ATOM     36  F   LIG d   1       9.972   9.243  -1.274  0.00  0.00    -0.133 F 
ATOM     37  F   LIG d   1       8.594   7.423  -1.352  0.00  0.00    -0.133 F 
ATOM     38  F   LIG d   1      10.440   7.400  -0.006  0.00  0.00    -0.133 F 
ENDBRANCH  34  35
ENDBRANCH  28  34
ENDBRANCH  22  24
ENDBRANCH   8  19
BRANCH  15  39
ATOM     39  C   LIG d   1       7.127  -1.059  -3.443  0.00  0.00    -0.005 C 
ATOM     40  H   LIG d   1       7.464  -1.645  -2.589  0.00  0.00     0.087 H 
ATOM     41  H   LIG d   1       7.545  -0.054  -3.384  0.00  0.00     0.087 H 
BRANCH  39  42
ATOM     42  C   LIG d   1       5.621  -0.978  -3.433  0.00  0.00    -0.003 A 
ATOM     43  C   LIG d   1       4.967  -0.157  -4.333  0.00  0.00    -0.051 A 
ATOM     44  C   LIG d   1       3.588  -0.085  -4.327  0.00  0.00    -0.026 A 
ATOM     45  H   LIG d   1       5.536   0.425  -5.044  0.00  0.00     0.062 H 
ATOM     46  C   LIG d   1       2.860  -0.828  -3.413  0.00  0.00     0.123 A 
ATOM     47  H   LIG d   1       3.077   0.552  -5.034  0.00  0.00     0.065 H 
ATOM     48  C   LIG d   1       3.516  -1.646  -2.509  0.00  0.00    -0.026 A 
ATOM     49  F   LIG d   1       1.511  -0.755  -3.403  0.00  0.00    -0.205 F 
ATOM     50  C   LIG d   1       4.896  -1.720  -2.519  0.00  0.00    -0.051 A 
ATOM     51  H   LIG d   1       2.949  -2.225  -1.794  0.00  0.00     0.065 H 
ATOM     52  H   LIG d   1       5.408  -2.358  -1.814  0.00  0.00     0.062 H 
ENDBRANCH  39  42
ENDBRANCH  15  39
TORSDOF 6
ENDMDL
MODEL 6
REMARK VINA RESULT:      -7.5      7.447     10.448
REMARK  6 active torsions:
REMARK  status: ('A' for Active; 'I' for Inactive)
REMARK    1  A    between atoms: C_6  and  C_7 
REMARK    2  A    between atoms: C_7  and  N_49 
REMARK    3  A    between atoms: C_15  and  C_17 
REMARK    4  A    between atoms: C_19  and  C_22 
REMARK    5  A    between atoms: C_25  and  O_28 
REMARK    6  A    between atoms: O_28  and  C_29 
ROOT
ATOM      1  C   LIG d   1       6.974  -9.463  -7.587  0.00  0.00     0.036 C 
ATOM      2  C   LIG d   1       6.111  -9.801  -8.777  0.00  0.00     0.190 A 
ATOM      3  C   LIG d   1       5.012  -9.091  -9.123  0.00  0.00     0.156 A 
ATOM      4  N   LIG d   1       4.488  -9.677 -10.230  0.00  0.00    -0.247 N 
ATOM      5  H   LIG d   1       3.671  -9.386 -10.727  0.00  0.00     0.310 HD
ATOM      6  C   LIG d   1       5.283 -10.730 -10.533  0.00  0.00     0.243 A 
ATOM      7  C   LIG d   1       4.529  -7.884  -8.361  0.00  0.00     0.065 C 
ATOM      8  C   LIG d   1       5.673  -7.412  -7.453  0.00  0.00     0.068 C 
ATOM      9  H   LIG d   1       6.463  -6.969  -8.063  0.00  0.00     0.096 H 
ATOM     10  H   LIG d   1       7.887  -8.970  -7.924  0.00  0.00     0.090 H 
ATOM     11  H   LIG d   1       7.228 -10.374  -7.045  0.00  0.00     0.090 H 
ATOM     12  H   LIG d   1       5.141 -11.406 -11.363  0.00  0.00     0.158 H 
ATOM     13  H   LIG d   1       3.663  -8.151  -7.755  0.00  0.00     0.041 H 
ATOM     14  H   LIG d   1       4.261  -7.091  -9.059  0.00  0.00     0.041 H 
ATOM     15  N   LIG d   1       6.192  -8.573  -6.694  0.00  0.00     0.254 N 
ATOM     16  H   LIG d   1       5.398  -9.100  -6.312  0.00  0.00     0.205 HD
ATOM     17  N   LIG d   1       6.250 -10.793  -9.655  0.00  0.00    -0.243 N 
ATOM     18  H   LIG d   1       6.999 -11.494  -9.645  0.00  0.00     0.311 HD
ENDROOT
BRANCH   8  19
ATOM     19  C   LIG d   1       5.153  -6.382  -6.483  0.00  0.00     0.276 A 
ATOM     20  O   LIG d   1       4.267  -6.592  -5.503  0.00  0.00    -0.332 OA
ATOM     21  N   LIG d   1       4.060  -5.558  -4.903  0.00  0.00    -0.056 NA
ATOM     22  C   LIG d   1       4.772  -4.589  -5.418  0.00  0.00     0.202 A 
ATOM     23  N   LIG d   1       5.482  -5.116  -6.441  0.00  0.00    -0.186 NA
BRANCH  22  24
ATOM     24  C   LIG d   1       4.796  -3.178  -4.963  0.00  0.00     0.023 A 
ATOM     25  C   LIG d   1       4.905  -2.883  -3.606  0.00  0.00    -0.048 A 
ATOM     26  C   LIG d   1       4.927  -1.569  -3.187  0.00  0.00    -0.019 A 
ATOM     27  H   LIG d   1       4.972  -3.681  -2.883  0.00  0.00     0.063 H 
ATOM     28  C   LIG d   1       4.842  -0.540  -4.115  0.00  0.00     0.130 A 
ATOM     29  H   LIG d   1       5.010  -1.340  -2.134  0.00  0.00     0.065 H 
ATOM     30  C   LIG d   1       4.733  -0.832  -5.469  0.00  0.00    -0.019 A 
ATOM     31  C   LIG d   1       4.715  -2.143  -5.895  0.00  0.00    -0.048 A 
ATOM     32  H   LIG d   1       4.666  -0.029  -6.190  0.00  0.00     0.065 H 
ATOM     33  H   LIG d   1       4.636  -2.368  -6.948  0.00  0.00     0.063 H 
BRANCH  28  34
ATOM     34  O   LIG d   1       4.863   0.753  -3.700  0.00  0.00    -0.406 OA
BRANCH  34  35
ATOM     35  C   LIG d   1       3.773   1.191  -2.888  0.00  0.00     0.575 C 
ATOM     36  F   LIG d   1       3.387   2.478  -3.280  0.00  0.00    -0.133 F 
ATOM     37  F   LIG d   1       2.694   0.314  -3.043  0.00  0.00    -0.133 F 
ATOM     38  F   LIG d   1       4.168   1.211  -1.546  0.00  0.00    -0.133 F 
ENDBRANCH  34  35
ENDBRANCH  28  34
ENDBRANCH  22  24
ENDBRANCH   8  19
BRANCH  15  39
ATOM     39  C   LIG d   1       7.040  -8.107  -5.579  0.00  0.00    -0.005 C 
ATOM     40  H   LIG d   1       8.095  -8.242  -5.816  0.00  0.00     0.087 H 
ATOM     41  H   LIG d   1       6.839  -7.049  -5.405  0.00  0.00     0.087 H 
BRANCH  39  42
ATOM     42  C   LIG d   1       6.699  -8.894  -4.338  0.00  0.00    -0.003 A 
ATOM     43  C   LIG d   1       5.488  -9.555  -4.251  0.00  0.00    -0.051 A 
ATOM     44  C   LIG d   1       5.177 -10.280  -3.117  0.00  0.00    -0.026 A 
ATOM     45  H   LIG d   1       4.787  -9.508  -5.072  0.00  0.00     0.062 H 
ATOM     46  C   LIG d   1       6.074 -10.337  -2.064  0.00  0.00     0.123 A 
ATOM     47  H   LIG d   1       4.233 -10.801  -3.051  0.00  0.00     0.065 H 
ATOM     48  C   LIG d   1       7.284  -9.670  -2.150  0.00  0.00    -0.026 A 
ATOM     49  F   LIG d   1       5.769 -11.041  -0.952  0.00  0.00    -0.205 F 
ATOM     50  C   LIG d   1       7.595  -8.949  -3.287  0.00  0.00    -0.051 A 
ATOM     51  H   LIG d   1       7.984  -9.711  -1.329  0.00  0.00     0.065 H 
ATOM     52  H   LIG d   1       8.539  -8.428  -3.355  0.00  0.00     0.062 H 
ENDBRANCH  39  42
ENDBRANCH  15  39
TORSDOF 6
ENDMDL
MODEL 7
REMARK VINA RESULT:      -7.4      4.076      8.958
REMARK  6 active torsions:
REMARK  status: ('A' for Active; 'I' for Inactive)
REMARK    1  A    between atoms: C_6  and  C_7 
REMARK    2  A    between atoms: C_7  and  N_49 
REMARK    3  A    between atoms: C_15  and  C_17 
REMARK    4  A    between atoms: C_19  and  C_22 
REMARK    5  A    between atoms: C_25  and  O_28 
REMARK    6  A    between atoms: O_28  and  C_29 
ROOT
ATOM      1  C   LIG d   1      11.597   6.862  -4.431  0.00  0.00     0.036 C 
ATOM      2  C   LIG d   1      11.105   7.551  -3.182  0.00  0.00     0.190 A 
ATOM      3  C   LIG d   1      10.352   6.937  -2.242  0.00  0.00     0.156 A 
ATOM      4  N   LIG d   1      10.095   7.853  -1.273  0.00  0.00    -0.247 N 
ATOM      5  H   LIG d   1       9.561   7.704  -0.441  0.00  0.00     0.310 HD
ATOM      6  C   LIG d   1      10.702   9.004  -1.646  0.00  0.00     0.243 A 
ATOM      7  C   LIG d   1       9.922   5.496  -2.333  0.00  0.00     0.065 C 
ATOM      8  C   LIG d   1      10.790   4.811  -3.399  0.00  0.00     0.068 C 
ATOM      9  H   LIG d   1      11.808   4.699  -3.021  0.00  0.00     0.096 H 
ATOM     10  H   LIG d   1      12.652   6.610  -4.320  0.00  0.00     0.090 H 
ATOM     11  H   LIG d   1      11.464   7.517  -5.291  0.00  0.00     0.090 H 
ATOM     12  H   LIG d   1      10.691   9.930  -1.090  0.00  0.00     0.158 H 
ATOM     13  H   LIG d   1       8.872   5.441  -2.623  0.00  0.00     0.041 H 
ATOM     14  H   LIG d   1      10.066   5.007  -1.370  0.00  0.00     0.041 H 
ATOM     15  N   LIG d   1      10.780   5.638  -4.627  0.00  0.00     0.254 N 
ATOM     16  H   LIG d   1       9.813   5.914  -4.832  0.00  0.00     0.205 HD
ATOM     17  N   LIG d   1      11.302   8.810  -2.791  0.00  0.00    -0.243 N 
ATOM     18  H   LIG d   1      11.841   9.515  -3.307  0.00  0.00     0.311 HD
ENDROOT
BRANCH   8  19
ATOM     19  C   LIG d   1      10.221   3.453  -3.714  0.00  0.00     0.276 A 
ATOM     20  O   LIG d   1      10.877   2.425  -4.262  0.00  0.00    -0.332 OA
ATOM     21  N   LIG d   1      10.134   1.475  -4.384  0.00  0.00    -0.056 NA
ATOM     22  C   LIG d   1       8.941   1.777  -3.939  0.00  0.00     0.202 A 
ATOM     23  N   LIG d   1       8.991   3.056  -3.504  0.00  0.00    -0.186 NA
BRANCH  22  24
ATOM     24  C   LIG d   1       7.758   0.883  -3.915  0.00  0.00     0.023 A 
ATOM     25  C   LIG d   1       6.537   1.353  -3.434  0.00  0.00    -0.048 A 
ATOM     26  C   LIG d   1       5.439   0.519  -3.415  0.00  0.00    -0.019 A 
ATOM     27  H   LIG d   1       6.451   2.368  -3.078  0.00  0.00     0.063 H 
ATOM     28  C   LIG d   1       5.547  -0.786  -3.873  0.00  0.00     0.130 A 
ATOM     29  H   LIG d   1       4.492   0.883  -3.041  0.00  0.00     0.065 H 
ATOM     30  C   LIG d   1       6.763  -1.257  -4.353  0.00  0.00    -0.019 A 
ATOM     31  C   LIG d   1       7.863  -0.427  -4.380  0.00  0.00    -0.048 A 
ATOM     32  H   LIG d   1       6.845  -2.274  -4.709  0.00  0.00     0.065 H 
ATOM     33  H   LIG d   1       8.807  -0.792  -4.758  0.00  0.00     0.063 H 
BRANCH  28  34
ATOM     34  O   LIG d   1       4.464  -1.605  -3.852  0.00  0.00    -0.406 OA
BRANCH  34  35
ATOM     35  C   LIG d   1       3.837  -1.818  -2.586  0.00  0.00     0.575 C 
ATOM     36  F   LIG d   1       2.566  -1.233  -2.590  0.00  0.00    -0.133 F 
ATOM     37  F   LIG d   1       3.716  -3.192  -2.350  0.00  0.00    -0.133 F 
ATOM     38  F   LIG d   1       4.614  -1.239  -1.577  0.00  0.00    -0.133 F 
ENDBRANCH  34  35
ENDBRANCH  28  34
ENDBRANCH  22  24
ENDBRANCH   8  19
BRANCH  15  39
ATOM     39  C   LIG d   1      11.308   4.857  -5.764  0.00  0.00    -0.005 C 
ATOM     40  H   LIG d   1      12.342   5.130  -5.970  0.00  0.00     0.087 H 
ATOM     41  H   LIG d   1      11.254   3.797  -5.514  0.00  0.00     0.087 H 
BRANCH  39  42
ATOM     42  C   LIG d   1      10.464   5.130  -6.983  0.00  0.00    -0.003 A 
ATOM     43  C   LIG d   1       9.736   4.106  -7.561  0.00  0.00    -0.051 A 
ATOM     44  C   LIG d   1       8.958   4.356  -8.676  0.00  0.00    -0.026 A 
ATOM     45  H   LIG d   1       9.771   3.113  -7.138  0.00  0.00     0.062 H 
ATOM     46  C   LIG d   1       8.917   5.628  -9.220  0.00  0.00     0.123 A 
ATOM     47  H   LIG d   1       8.385   3.558  -9.124  0.00  0.00     0.065 H 
ATOM     48  C   LIG d   1       9.651   6.651  -8.643  0.00  0.00    -0.026 A 
ATOM     49  F   LIG d   1       8.161   5.872 -10.313  0.00  0.00    -0.205 F 
ATOM     50  C   LIG d   1      10.424   6.400  -7.526  0.00  0.00    -0.051 A 
ATOM     51  H   LIG d   1       9.621   7.644  -9.068  0.00  0.00     0.065 H 
ATOM     52  H   LIG d   1      10.996   7.198  -7.076  0.00  0.00     0.062 H 
ENDBRANCH  39  42
ENDBRANCH  15  39
TORSDOF 6
ENDMDL
MODEL 8
REMARK VINA RESULT:      -7.2      5.410      9.233
REMARK  6 active torsions:
REMARK  status: ('A' for Active; 'I' for Inactive)
REMARK    1  A    between atoms: C_6  and  C_7 
REMARK    2  A    between atoms: C_7  and  N_49 
REMARK    3  A    between atoms: C_15  and  C_17 
REMARK    4  A    between atoms: C_19  and  C_22 
REMARK    5  A    between atoms: C_25  and  O_28 
REMARK    6  A    between atoms: O_28  and  C_29 
ROOT
ATOM      1  C   LIG d   1       9.313   2.368  -3.533  0.00  0.00     0.036 C 
ATOM      2  C   LIG d   1      10.752   1.965  -3.732  0.00  0.00     0.190 A 
ATOM      3  C   LIG d   1      11.149   1.062  -4.658  0.00  0.00     0.156 A 
ATOM      4  N   LIG d   1      12.498   0.945  -4.552  0.00  0.00    -0.247 N 
ATOM      5  H   LIG d   1      13.089   0.354  -5.100  0.00  0.00     0.310 HD
ATOM      6  C   LIG d   1      12.890   1.783  -3.564  0.00  0.00     0.243 A 
ATOM      7  C   LIG d   1      10.200   0.361  -5.595  0.00  0.00     0.065 C 
ATOM      8  C   LIG d   1       8.869   1.127  -5.577  0.00  0.00     0.068 C 
ATOM      9  H   LIG d   1       8.994   2.084  -6.087  0.00  0.00     0.096 H 
ATOM     10  H   LIG d   1       9.140   3.347  -3.982  0.00  0.00     0.090 H 
ATOM     11  H   LIG d   1       9.085   2.408  -2.468  0.00  0.00     0.090 H 
ATOM     12  H   LIG d   1      13.907   1.928  -3.229  0.00  0.00     0.158 H 
ATOM     13  H   LIG d   1      10.040  -0.664  -5.261  0.00  0.00     0.041 H 
ATOM     14  H   LIG d   1      10.612   0.361  -6.604  0.00  0.00     0.041 H 
ATOM     15  N   LIG d   1       8.458   1.337  -4.171  0.00  0.00     0.254 N 
ATOM     16  H   LIG d   1       8.565   0.454  -3.659  0.00  0.00     0.205 HD
ATOM     17  N   LIG d   1      11.836   2.386  -3.081  0.00  0.00    -0.243 N 
ATOM     18  H   LIG d   1      11.842   3.077  -2.322  0.00  0.00     0.311 HD
ENDROOT
BRANCH   8  19
ATOM     19  C   LIG d   1       7.814   0.316  -6.284  0.00  0.00     0.276 A 
ATOM     20  O   LIG d   1       7.813  -1.010  -6.453  0.00  0.00    -0.332 OA
ATOM     21  N   LIG d   1       6.821  -1.350  -7.063  0.00  0.00    -0.056 NA
ATOM     22  C   LIG d   1       6.089  -0.305  -7.349  0.00  0.00     0.202 A 
ATOM     23  N   LIG d   1       6.726   0.777  -6.847  0.00  0.00    -0.186 NA
BRANCH  22  24
ATOM     24  C   LIG d   1       4.801  -0.307  -8.084  0.00  0.00     0.023 A 
ATOM     25  C   LIG d   1       4.019  -1.461  -8.121  0.00  0.00    -0.048 A 
ATOM     26  C   LIG d   1       2.822  -1.459  -8.806  0.00  0.00    -0.019 A 
ATOM     27  H   LIG d   1       4.350  -2.354  -7.614  0.00  0.00     0.063 H 
ATOM     28  C   LIG d   1       2.395  -0.311  -9.458  0.00  0.00     0.130 A 
ATOM     29  H   LIG d   1       2.217  -2.353  -8.835  0.00  0.00     0.065 H 
ATOM     30  C   LIG d   1       3.172   0.840  -9.423  0.00  0.00    -0.019 A 
ATOM     31  C   LIG d   1       4.367   0.847  -8.736  0.00  0.00    -0.048 A 
ATOM     32  H   LIG d   1       2.837   1.733  -9.932  0.00  0.00     0.065 H 
ATOM     33  H   LIG d   1       4.968   1.743  -8.706  0.00  0.00     0.063 H 
BRANCH  28  34
ATOM     34  O   LIG d   1       1.216  -0.312 -10.132  0.00  0.00    -0.406 OA
BRANCH  34  35
ATOM     35  C   LIG d   1       1.168  -1.054 -11.353  0.00  0.00     0.575 C 
ATOM     36  F   LIG d   1       1.110  -2.422 -11.065  0.00  0.00    -0.133 F 
ATOM     37  F   LIG d   1       0.031  -0.683 -12.079  0.00  0.00    -0.133 F 
ATOM     38  F   LIG d   1       2.313  -0.784 -12.108  0.00  0.00    -0.133 F 
ENDBRANCH  34  35
ENDBRANCH  28  34
ENDBRANCH  22  24
ENDBRANCH   8  19
BRANCH  15  39
ATOM     39  C   LIG d   1       7.042   1.753  -4.118  0.00  0.00    -0.005 C 
ATOM     40  H   LIG d   1       6.941   2.709  -3.603  0.00  0.00     0.087 H 
ATOM     41  H   LIG d   1       6.667   1.848  -5.137  0.00  0.00     0.087 H 
BRANCH  39  42
ATOM     42  C   LIG d   1       6.246   0.703  -3.386  0.00  0.00    -0.003 A 
ATOM     43  C   LIG d   1       5.127   1.067  -2.658  0.00  0.00    -0.051 A 
ATOM     44  C   LIG d   1       4.394   0.104  -1.991  0.00  0.00    -0.026 A 
ATOM     45  H   LIG d   1       4.825   2.103  -2.616  0.00  0.00     0.062 H 
ATOM     46  C   LIG d   1       4.785  -1.223  -2.043  0.00  0.00     0.123 A 
ATOM     47  H   LIG d   1       3.517   0.388  -1.428  0.00  0.00     0.065 H 
ATOM     48  C   LIG d   1       5.908  -1.585  -2.766  0.00  0.00    -0.026 A 
ATOM     49  F   LIG d   1       4.072  -2.164  -1.386  0.00  0.00    -0.205 F 
ATOM     50  C   LIG d   1       6.637  -0.621  -3.437  0.00  0.00    -0.051 A 
ATOM     51  H   LIG d   1       6.215  -2.620  -2.806  0.00  0.00     0.065 H 
ATOM     52  H   LIG d   1       7.513  -0.904  -4.002  0.00  0.00     0.062 H 
ENDBRANCH  39  42
ENDBRANCH  15  39
TORSDOF 6
ENDMDL
MODEL 9
REMARK VINA RESULT:      -7.2      7.362     13.235
REMARK  6 active torsions:
REMARK  status: ('A' for Active; 'I' for Inactive)
REMARK    1  A    between atoms: C_6  and  C_7 
REMARK    2  A    between atoms: C_7  and  N_49 
REMARK    3  A    between atoms: C_15  and  C_17 
REMARK    4  A    between atoms: C_19  and  C_22 
REMARK    5  A    between atoms: C_25  and  O_28 
REMARK    6  A    between atoms: O_28  and  C_29 
ROOT
ATOM      1  C   LIG d   1       5.700  -0.393  -5.202  0.00  0.00     0.036 C 
ATOM      2  C   LIG d   1       5.247  -0.097  -3.794  0.00  0.00     0.190 A 
ATOM      3  C   LIG d   1       4.628  -1.006  -3.006  0.00  0.00     0.156 A 
ATOM      4  N   LIG d   1       4.366  -0.397  -1.821  0.00  0.00    -0.247 N 
ATOM      5  H   LIG d   1       3.913  -0.807  -1.029  0.00  0.00     0.310 HD
ATOM      6  C   LIG d   1       4.835   0.869  -1.915  0.00  0.00     0.243 A 
ATOM      7  C   LIG d   1       4.324  -2.415  -3.445  0.00  0.00     0.065 C 
ATOM      8  C   LIG d   1       5.165  -2.711  -4.695  0.00  0.00     0.068 C 
ATOM      9  H   LIG d   1       6.215  -2.805  -4.412  0.00  0.00     0.096 H 
ATOM     10  H   LIG d   1       6.779  -0.549  -5.215  0.00  0.00     0.090 H 
ATOM     11  H   LIG d   1       5.441   0.441  -5.855  0.00  0.00     0.090 H 
ATOM     12  H   LIG d   1       4.783   1.618  -1.138  0.00  0.00     0.158 H 
ATOM     13  H   LIG d   1       3.264  -2.507  -3.683  0.00  0.00     0.041 H 
ATOM     14  H   LIG d   1       4.586  -3.113  -2.649  0.00  0.00     0.041 H 
ATOM     15  N   LIG d   1       4.984  -1.608  -5.665  0.00  0.00     0.254 N 
ATOM     16  H   LIG d   1       3.983  -1.394  -5.741  0.00  0.00     0.205 HD
ATOM     17  N   LIG d   1       5.359   1.036  -3.101  0.00  0.00    -0.243 N 
ATOM     18  H   LIG d   1       5.790   1.902  -3.444  0.00  0.00     0.311 HD
ENDROOT
BRANCH   8  19
ATOM     19  C   LIG d   1       4.697  -4.000  -5.321  0.00  0.00     0.276 A 
ATOM     20  O   LIG d   1       3.627  -4.157  -6.107  0.00  0.00    -0.332 OA
ATOM     21  N   LIG d   1       3.528  -5.317  -6.446  0.00  0.00    -0.056 NA
ATOM     22  C   LIG d   1       4.502  -6.021  -5.928  0.00  0.00     0.202 A 
ATOM     23  N   LIG d   1       5.262  -5.174  -5.199  0.00  0.00    -0.186 NA
BRANCH  22  24
ATOM     24  C   LIG d   1       4.728  -7.476  -6.108  0.00  0.00     0.023 A 
ATOM     25  C   LIG d   1       4.521  -8.066  -7.354  0.00  0.00    -0.048 A 
ATOM     26  C   LIG d   1       4.733  -9.419  -7.518  0.00  0.00    -0.019 A 
ATOM     27  H   LIG d   1       4.196  -7.465  -8.189  0.00  0.00     0.063 H 
ATOM     28  C   LIG d   1       5.152 -10.193  -6.444  0.00  0.00     0.130 A 
ATOM     29  H   LIG d   1       4.572  -9.877  -8.483  0.00  0.00     0.065 H 
ATOM     30  C   LIG d   1       5.359  -9.607  -5.202  0.00  0.00    -0.019 A 
ATOM     31  C   LIG d   1       5.154  -8.255  -5.033  0.00  0.00    -0.048 A 
ATOM     32  H   LIG d   1       5.685 -10.212  -4.368  0.00  0.00     0.065 H 
ATOM     33  H   LIG d   1       5.319  -7.799  -4.068  0.00  0.00     0.063 H 
BRANCH  28  34
ATOM     34  O   LIG d   1       5.359 -11.526  -6.609  0.00  0.00    -0.406 OA
BRANCH  34  35
ATOM     35  C   LIG d   1       4.203 -12.364  -6.627  0.00  0.00     0.575 C 
ATOM     36  F   LIG d   1       3.236 -11.845  -5.759  0.00  0.00    -0.133 F 
ATOM     37  F   LIG d   1       3.684 -12.414  -7.925  0.00  0.00    -0.133 F 
ATOM     38  F   LIG d   1       4.555 -13.654  -6.215  0.00  0.00    -0.133 F 
ENDBRANCH  34  35
ENDBRANCH  28  34
ENDBRANCH  22  24
ENDBRANCH   8  19
BRANCH  15  39
ATOM     39  C   LIG d   1       5.490  -2.015  -6.991  0.00  0.00    -0.005 C 
ATOM     40  H   LIG d   1       6.579  -1.992  -7.010  0.00  0.00     0.087 H 
ATOM     41  H   LIG d   1       5.144  -3.028  -7.200  0.00  0.00     0.087 H 
BRANCH  39  42
ATOM     42  C   LIG d   1       4.948  -1.073  -8.036  0.00  0.00    -0.003 A 
ATOM     43  C   LIG d   1       5.815  -0.423  -8.895  0.00  0.00    -0.051 A 
ATOM     44  C   LIG d   1       5.320   0.437  -9.856  0.00  0.00    -0.026 A 
ATOM     45  H   LIG d   1       6.880  -0.590  -8.816  0.00  0.00     0.062 H 
ATOM     46  C   LIG d   1       3.956   0.654  -9.954  0.00  0.00     0.123 A 
ATOM     47  H   LIG d   1       5.997   0.941 -10.530  0.00  0.00     0.065 H 
ATOM     48  C   LIG d   1       3.090   0.006  -9.090  0.00  0.00    -0.026 A 
ATOM     49  F   LIG d   1       3.471   1.498 -10.890  0.00  0.00    -0.205 F 
ATOM     50  C   LIG d   1       3.587  -0.857  -8.132  0.00  0.00    -0.051 A 
ATOM     51  H   LIG d   1       2.025   0.176  -9.164  0.00  0.00     0.065 H 
ATOM     52  H   LIG d   1       2.911  -1.362  -7.459  0.00  0.00     0.062 H 
ENDBRANCH  39  42
ENDBRANCH  15  39
TORSDOF 6
ENDMDL
MODEL 10
REMARK VINA RESULT:      -7.2      6.503      9.957
REMARK  6 active torsions:
REMARK  status: ('A' for Active; 'I' for Inactive)
REMARK    1  A    between atoms: C_6  and  C_7 
REMARK    2  A    between atoms: C_7  and  N_49 
REMARK    3  A    between atoms: C_15  and  C_17 
REMARK    4  A    between atoms: C_19  and  C_22 
REMARK    5  A    between atoms: C_25  and  O_28 
REMARK    6  A    between atoms: O_28  and  C_29 
ROOT
ATOM      1  C   LIG d   1      12.653  -6.594  -2.824  0.00  0.00     0.036 C 
ATOM      2  C   LIG d   1      12.203  -7.284  -1.560  0.00  0.00     0.190 A 
ATOM      3  C   LIG d   1      10.926  -7.256  -1.113  0.00  0.00     0.156 A 
ATOM      4  N   LIG d   1      10.889  -7.972   0.040  0.00  0.00    -0.247 N 
ATOM      5  H   LIG d   1      10.086  -8.137   0.612  0.00  0.00     0.310 HD
ATOM      6  C   LIG d   1      12.146  -8.422   0.266  0.00  0.00     0.243 A 
ATOM      7  C   LIG d   1       9.811  -6.536  -1.827  0.00  0.00     0.065 C 
ATOM      8  C   LIG d   1      10.287  -6.232  -3.256  0.00  0.00     0.068 C 
ATOM      9  H   LIG d   1      10.334  -7.159  -3.828  0.00  0.00     0.096 H 
ATOM     10  H   LIG d   1      12.779  -7.330  -3.619  0.00  0.00     0.090 H 
ATOM     11  H   LIG d   1      13.597  -6.080  -2.647  0.00  0.00     0.090 H 
ATOM     12  H   LIG d   1      12.456  -9.027   1.105  0.00  0.00     0.158 H 
ATOM     13  H   LIG d   1       9.581  -5.605  -1.309  0.00  0.00     0.041 H 
ATOM     14  H   LIG d   1       8.926  -7.171  -1.861  0.00  0.00     0.041 H 
ATOM     15  N   LIG d   1      11.620  -5.593  -3.189  0.00  0.00     0.254 N 
ATOM     16  H   LIG d   1      11.601  -4.859  -2.472  0.00  0.00     0.205 HD
ATOM     17  N   LIG d   1      12.922  -8.002  -0.698  0.00  0.00    -0.243 N 
ATOM     18  H   LIG d   1      13.926  -8.196  -0.780  0.00  0.00     0.311 HD
ENDROOT
BRANCH   8  19
ATOM     19  C   LIG d   1       9.318  -5.284  -3.915  0.00  0.00     0.276 A 
ATOM     20  O   LIG d   1       8.970  -5.277  -5.206  0.00  0.00    -0.332 OA
ATOM     21  N   LIG d   1       8.171  -4.390  -5.416  0.00  0.00    -0.056 NA
ATOM     22  C   LIG d   1       7.920  -3.740  -4.309  0.00  0.00     0.202 A 
ATOM     23  N   LIG d   1       8.660  -4.314  -3.333  0.00  0.00    -0.186 NA
BRANCH  22  24
ATOM     24  C   LIG d   1       6.997  -2.590  -4.153  0.00  0.00     0.023 A 
ATOM     25  C   LIG d   1       5.621  -2.777  -4.271  0.00  0.00    -0.048 A 
ATOM     26  C   LIG d   1       4.766  -1.705  -4.125  0.00  0.00    -0.019 A 
ATOM     27  H   LIG d   1       5.225  -3.760  -4.475  0.00  0.00     0.063 H 
ATOM     28  C   LIG d   1       5.273  -0.440  -3.861  0.00  0.00     0.130 A 
ATOM     29  H   LIG d   1       3.699  -1.850  -4.217  0.00  0.00     0.065 H 
ATOM     30  C   LIG d   1       6.644  -0.251  -3.744  0.00  0.00    -0.019 A 
ATOM     31  C   LIG d   1       7.504  -1.319  -3.884  0.00  0.00    -0.048 A 
ATOM     32  H   LIG d   1       7.037   0.735  -3.539  0.00  0.00     0.065 H 
ATOM     33  H   LIG d   1       8.570  -1.172  -3.787  0.00  0.00     0.063 H 
BRANCH  28  34
ATOM     34  O   LIG d   1       4.428   0.614  -3.719  0.00  0.00    -0.406 OA
BRANCH  34  35
ATOM     35  C   LIG d   1       3.715   0.711  -2.485  0.00  0.00     0.575 C 
ATOM     36  F   LIG d   1       3.289   2.031  -2.296  0.00  0.00    -0.133 F 
ATOM     37  F   LIG d   1       2.603  -0.136  -2.521  0.00  0.00    -0.133 F 
ATOM     38  F   LIG d   1       4.554   0.336  -1.431  0.00  0.00    -0.133 F 
ENDBRANCH  34  35
ENDBRANCH  28  34
ENDBRANCH  22  24
ENDBRANCH   8  19
BRANCH  15  39
ATOM     39  C   LIG d   1      11.951  -4.982  -4.492  0.00  0.00    -0.005 C 
ATOM     40  H   LIG d   1      12.728  -5.553  -4.999  0.00  0.00     0.087 H 
ATOM     41  H   LIG d   1      11.051  -4.965  -5.108  0.00  0.00     0.087 H 
BRANCH  39  42
ATOM     42  C   LIG d   1      12.432  -3.571  -4.267  0.00  0.00    -0.003 A 
ATOM     43  C   LIG d   1      11.604  -2.503  -4.562  0.00  0.00    -0.051 A 
ATOM     44  C   LIG d   1      12.042  -1.210  -4.351  0.00  0.00    -0.026 A 
ATOM     45  H   LIG d   1      10.612  -2.682  -4.952  0.00  0.00     0.062 H 
ATOM     46  C   LIG d   1      13.314  -0.983  -3.855  0.00  0.00     0.123 A 
ATOM     47  H   LIG d   1      11.393  -0.377  -4.576  0.00  0.00     0.065 H 
ATOM     48  C   LIG d   1      14.145  -2.052  -3.566  0.00  0.00    -0.026 A 
ATOM     49  F   LIG d   1      13.746   0.282  -3.654  0.00  0.00    -0.205 F 
ATOM     50  C   LIG d   1      13.703  -3.345  -3.773  0.00  0.00    -0.051 A 
ATOM     51  H   LIG d   1      15.139  -1.876  -3.180  0.00  0.00     0.065 H 
ATOM     52  H   LIG d   1      14.350  -4.179  -3.547  0.00  0.00     0.062 H 
ENDBRANCH  39  42
ENDBRANCH  15  39
TORSDOF 6
ENDMDL
