MODEL 1
REMARK VINA RESULT:      -5.8      0.000      0.000
REMARK  7 active torsions:
REMARK  status: ('A' for Active; 'I' for Inactive)
REMARK    1  A    between atoms: C_1  and  N_2 
REMARK    2  A    between atoms: C_7  and  O_25 
REMARK    3  A    between atoms: C_8  and  O_23 
REMARK    4  A    between atoms: C_17  and  O_21 
REMARK    5  A    between atoms: C_18  and  O_20 
REMARK    6  A    between atoms: O_21  and  C_22 
REMARK    7  A    between atoms: O_23  and  C_24 
ROOT
ATOM      1  N   LIG d   1       9.334   8.933  -6.244  0.00  0.00    -0.298 N 
ATOM      2  C   LIG d   1       9.874  10.244  -6.606  0.00  0.00     0.003 C 
ATOM      3  C   LIG d   1       9.591  11.265  -5.518  0.00  0.00    -0.014 C 
ATOM      4  C   LIG d   1       9.718  10.682  -4.139  0.00  0.00    -0.037 A 
ATOM      5  C   LIG d   1       9.633  11.548  -3.054  0.00  0.00    -0.013 A 
ATOM      6  C   LIG d   1       9.764  11.079  -1.760  0.00  0.00     0.159 A 
ATOM      7  C   LIG d   1       9.979   9.724  -1.535  0.00  0.00     0.169 A 
ATOM      8  C   LIG d   1      10.044   8.851  -2.619  0.00  0.00     0.033 A 
ATOM      9  C   LIG d   1       9.922   9.336  -3.925  0.00  0.00    -0.015 A 
ATOM     10  C   LIG d   1      10.042   8.378  -5.081  0.00  0.00     0.040 C 
ATOM     11  H   LIG d   1      11.094   8.241  -5.330  0.00  0.00     0.052 H 
ATOM     12  C   LIG d   1       9.431   7.023  -4.733  0.00  0.00    -0.007 C 
ATOM     13  C   LIG d   1       9.985   6.508  -3.432  0.00  0.00    -0.034 A 
ATOM     14  C   LIG d   1      10.267   7.402  -2.402  0.00  0.00    -0.007 A 
ATOM     15  C   LIG d   1      10.755   6.935  -1.184  0.00  0.00    -0.008 A 
ATOM     16  C   LIG d   1      10.971   5.578  -1.008  0.00  0.00     0.162 A 
ATOM     17  C   LIG d   1      10.703   4.691  -2.046  0.00  0.00     0.159 A 
ATOM     18  C   LIG d   1      10.210   5.158  -3.254  0.00  0.00    -0.013 A 
ATOM     19  H   LIG d   1      10.952  10.161  -6.748  0.00  0.00     0.043 H 
ATOM     20  H   LIG d   1       9.416  10.577  -7.538  0.00  0.00     0.043 H 
ATOM     21  H   LIG d   1      10.294  12.092  -5.617  0.00  0.00     0.033 H 
ATOM     22  H   LIG d   1       8.578  11.647  -5.648  0.00  0.00     0.033 H 
ATOM     23  H   LIG d   1       9.463  12.601  -3.224  0.00  0.00     0.066 H 
ATOM     24  H   LIG d   1       8.349   7.129  -4.646  0.00  0.00     0.033 H 
ATOM     25  H   LIG d   1       9.659   6.312  -5.527  0.00  0.00     0.033 H 
ATOM     26  H   LIG d   1      10.964   7.626  -0.382  0.00  0.00     0.066 H 
ATOM     27  H   LIG d   1      10.003   4.466  -4.057  0.00  0.00     0.066 H 
ENDROOT
BRANCH   7  28
ATOM     28  O   LIG d   1      10.125   9.254  -0.268  0.00  0.00    -0.491 OA
BRANCH  28  29
ATOM     29  C   LIG d   1      11.284   9.678   0.452  0.00  0.00     0.079 C 
ATOM     30  H   LIG d   1      12.119   9.793  -0.239  0.00  0.00     0.066 H 
ATOM     31  H   LIG d   1      11.080  10.630   0.939  0.00  0.00     0.066 H 
ATOM     32  H   LIG d   1      11.537   8.932   1.205  0.00  0.00     0.066 H 
ENDBRANCH  28  29
ENDBRANCH   7  28
BRANCH   6  33
ATOM     33  O   LIG d   1       9.685  11.941  -0.710  0.00  0.00    -0.503 OA
ATOM     34  H   LIG d   1       9.184  11.597   0.042  0.00  0.00     0.292 HD
ENDBRANCH   6  33
BRANCH  16  35
ATOM     35  O   LIG d   1      11.447   5.114   0.179  0.00  0.00    -0.491 OA
BRANCH  35  36
ATOM     36  C   LIG d   1      11.092   5.850   1.352  0.00  0.00     0.079 C 
ATOM     37  H   LIG d   1      11.293   6.909   1.192  0.00  0.00     0.066 H 
ATOM     38  H   LIG d   1      10.031   5.708   1.562  0.00  0.00     0.066 H 
ATOM     39  H   LIG d   1      11.681   5.492   2.198  0.00  0.00     0.066 H 
ENDBRANCH  35  36
ENDBRANCH  16  35
BRANCH   1  40
ATOM     40  C   LIG d   1       9.389   8.008  -7.384  0.00  0.00    -0.012 C 
ATOM     41  H   LIG d   1       8.488   7.393  -7.396  0.00  0.00     0.039 H 
ATOM     42  H   LIG d   1       9.452   8.577  -8.312  0.00  0.00     0.039 H 
ATOM     43  H   LIG d   1      10.265   7.367  -7.290  0.00  0.00     0.039 H 
ENDBRANCH   1  40
BRANCH  17  44
ATOM     44  O   LIG d   1      10.924   3.360  -1.873  0.00  0.00    -0.503 OA
ATOM     45  H   LIG d   1      11.431   2.950  -2.588  0.00  0.00     0.292 HD
ENDBRANCH  17  44
TORSDOF 7
ENDMDL
MODEL 2
REMARK VINA RESULT:      -5.7      2.920      4.888
REMARK  7 active torsions:
REMARK  status: ('A' for Active; 'I' for Inactive)
REMARK    1  A    between atoms: C_1  and  N_2 
REMARK    2  A    between atoms: C_7  and  O_25 
REMARK    3  A    between atoms: C_8  and  O_23 
REMARK    4  A    between atoms: C_17  and  O_21 
REMARK    5  A    between atoms: C_18  and  O_20 
REMARK    6  A    between atoms: O_21  and  C_22 
REMARK    7  A    between atoms: O_23  and  C_24 
ROOT
ATOM      1  N   LIG d   1       9.734   3.544  -6.859  0.00  0.00    -0.298 N 
ATOM      2  C   LIG d   1      10.364   3.687  -8.172  0.00  0.00     0.003 C 
ATOM      3  C   LIG d   1       9.862   4.933  -8.880  0.00  0.00    -0.014 C 
ATOM      4  C   LIG d   1       9.668   6.087  -7.938  0.00  0.00    -0.037 A 
ATOM      5  C   LIG d   1       9.358   7.329  -8.482  0.00  0.00    -0.013 A 
ATOM      6  C   LIG d   1       9.189   8.437  -7.672  0.00  0.00     0.159 A 
ATOM      7  C   LIG d   1       9.324   8.311  -6.294  0.00  0.00     0.169 A 
ATOM      8  C   LIG d   1       9.615   7.065  -5.745  0.00  0.00     0.033 A 
ATOM      9  C   LIG d   1       9.796   5.952  -6.573  0.00  0.00    -0.015 A 
ATOM     10  C   LIG d   1      10.154   4.626  -5.956  0.00  0.00     0.040 C 
ATOM     11  H   LIG d   1      11.233   4.575  -5.809  0.00  0.00     0.052 H 
ATOM     12  C   LIG d   1       9.458   4.443  -4.610  0.00  0.00    -0.007 C 
ATOM     13  C   LIG d   1       9.698   5.633  -3.721  0.00  0.00    -0.034 A 
ATOM     14  C   LIG d   1       9.759   6.908  -4.278  0.00  0.00    -0.007 A 
ATOM     15  C   LIG d   1       9.954   8.019  -3.462  0.00  0.00    -0.008 A 
ATOM     16  C   LIG d   1      10.102   7.849  -2.096  0.00  0.00     0.162 A 
ATOM     17  C   LIG d   1      10.057   6.571  -1.545  0.00  0.00     0.159 A 
ATOM     18  C   LIG d   1       9.855   5.467  -2.360  0.00  0.00    -0.013 A 
ATOM     19  H   LIG d   1      11.444   3.756  -8.046  0.00  0.00     0.043 H 
ATOM     20  H   LIG d   1      10.131   2.811  -8.779  0.00  0.00     0.043 H 
ATOM     21  H   LIG d   1      10.583   5.220  -9.645  0.00  0.00     0.033 H 
ATOM     22  H   LIG d   1       8.910   4.707  -9.362  0.00  0.00     0.033 H 
ATOM     23  H   LIG d   1       9.248   7.430  -9.552  0.00  0.00     0.066 H 
ATOM     24  H   LIG d   1       8.386   4.328  -4.773  0.00  0.00     0.033 H 
ATOM     25  H   LIG d   1       9.845   3.548  -4.124  0.00  0.00     0.033 H 
ATOM     26  H   LIG d   1       9.991   9.008  -3.892  0.00  0.00     0.066 H 
ATOM     27  H   LIG d   1       9.820   4.478  -1.929  0.00  0.00     0.066 H 
ENDROOT
BRANCH   7  28
ATOM     28  O   LIG d   1       9.175   9.397  -5.489  0.00  0.00    -0.491 OA
BRANCH  28  29
ATOM     29  C   LIG d   1      10.133  10.448  -5.633  0.00  0.00     0.079 C 
ATOM     30  H   LIG d   1      10.948  10.296  -4.924  0.00  0.00     0.066 H 
ATOM     31  H   LIG d   1      10.528  10.442  -6.648  0.00  0.00     0.066 H 
ATOM     32  H   LIG d   1       9.654  11.406  -5.435  0.00  0.00     0.066 H 
ENDBRANCH  28  29
ENDBRANCH   7  28
BRANCH   6  33
ATOM     33  O   LIG d   1       8.892   9.645  -8.222  0.00  0.00    -0.503 OA
ATOM     34  H   LIG d   1       8.533  10.285  -7.592  0.00  0.00     0.292 HD
ENDBRANCH   6  33
BRANCH  16  35
ATOM     35  O   LIG d   1      10.293   8.929  -1.292  0.00  0.00    -0.491 OA
BRANCH  35  36
ATOM     36  C   LIG d   1       9.136   9.696  -0.951  0.00  0.00     0.079 C 
ATOM     37  H   LIG d   1       8.930  10.416  -1.742  0.00  0.00     0.066 H 
ATOM     38  H   LIG d   1       8.281   9.029  -0.834  0.00  0.00     0.066 H 
ATOM     39  H   LIG d   1       9.314  10.225  -0.014  0.00  0.00     0.066 H 
ENDBRANCH  35  36
ENDBRANCH  16  35
BRANCH   1  40
ATOM     40  C   LIG d   1      10.025   2.228  -6.275  0.00  0.00    -0.012 C 
ATOM     41  H   LIG d   1       9.248   1.970  -5.555  0.00  0.00     0.039 H 
ATOM     42  H   LIG d   1      10.051   1.477  -7.065  0.00  0.00     0.039 H 
ATOM     43  H   LIG d   1      10.992   2.260  -5.772  0.00  0.00     0.039 H 
ENDBRANCH   1  40
BRANCH  17  44
ATOM     44  O   LIG d   1      10.211   6.405  -0.204  0.00  0.00    -0.503 OA
ATOM     45  H   LIG d   1       9.793   7.096   0.328  0.00  0.00     0.292 HD
ENDBRANCH  17  44
TORSDOF 7
ENDMDL
MODEL 3
REMARK VINA RESULT:      -5.6      2.070      3.597
REMARK  7 active torsions:
REMARK  status: ('A' for Active; 'I' for Inactive)
REMARK    1  A    between atoms: C_1  and  N_2 
REMARK    2  A    between atoms: C_7  and  O_25 
REMARK    3  A    between atoms: C_8  and  O_23 
REMARK    4  A    between atoms: C_17  and  O_21 
REMARK    5  A    between atoms: C_18  and  O_20 
REMARK    6  A    between atoms: O_21  and  C_22 
REMARK    7  A    between atoms: O_23  and  C_24 
ROOT
ATOM      1  N   LIG d   1       9.611   5.185  -6.904  0.00  0.00    -0.298 N 
ATOM      2  C   LIG d   1      10.254   5.638  -8.138  0.00  0.00     0.003 C 
ATOM      3  C   LIG d   1       9.903   7.086  -8.430  0.00  0.00    -0.014 C 
ATOM      4  C   LIG d   1       9.847   7.924  -7.184  0.00  0.00    -0.037 A 
ATOM      5  C   LIG d   1       9.686   9.298  -7.328  0.00  0.00    -0.013 A 
ATOM      6  C   LIG d   1       9.649  10.128  -6.223  0.00  0.00     0.159 A 
ATOM      7  C   LIG d   1       9.768   9.586  -4.948  0.00  0.00     0.169 A 
ATOM      8  C   LIG d   1       9.909   8.208  -4.800  0.00  0.00     0.033 A 
ATOM      9  C   LIG d   1       9.958   7.377  -5.924  0.00  0.00    -0.015 A 
ATOM     10  C   LIG d   1      10.156   5.896  -5.738  0.00  0.00     0.040 C 
ATOM     11  H   LIG d   1      11.222   5.682  -5.650  0.00  0.00     0.052 H 
ATOM     12  C   LIG d   1       9.442   5.403  -4.482  0.00  0.00    -0.007 C 
ATOM     13  C   LIG d   1       9.822   6.241  -3.291  0.00  0.00    -0.034 A 
ATOM     14  C   LIG d   1      10.033   7.609  -3.450  0.00  0.00    -0.007 A 
ATOM     15  C   LIG d   1      10.358   8.399  -2.351  0.00  0.00    -0.008 A 
ATOM     16  C   LIG d   1      10.485   7.816  -1.101  0.00  0.00     0.162 A 
ATOM     17  C   LIG d   1      10.288   6.446  -0.950  0.00  0.00     0.159 A 
ATOM     18  C   LIG d   1       9.957   5.664  -2.045  0.00  0.00    -0.013 A 
ATOM     19  H   LIG d   1      11.335   5.544  -8.035  0.00  0.00     0.043 H 
ATOM     20  H   LIG d   1       9.919   5.014  -8.967  0.00  0.00     0.043 H 
ATOM     21  H   LIG d   1      10.654   7.504  -9.102  0.00  0.00     0.033 H 
ATOM     22  H   LIG d   1       8.932   7.122  -8.924  0.00  0.00     0.033 H 
ATOM     23  H   LIG d   1       9.589   9.722  -8.317  0.00  0.00     0.066 H 
ATOM     24  H   LIG d   1       8.365   5.463  -4.634  0.00  0.00     0.033 H 
ATOM     25  H   LIG d   1       9.721   4.366  -4.294  0.00  0.00     0.033 H 
ATOM     26  H   LIG d   1      10.511   9.460  -2.472  0.00  0.00     0.066 H 
ATOM     27  H   LIG d   1       9.806   4.601  -1.923  0.00  0.00     0.066 H 
ENDROOT
BRANCH   7  28
ATOM     28  O   LIG d   1       9.748  10.394  -3.855  0.00  0.00    -0.491 OA
BRANCH  28  29
ATOM     29  C   LIG d   1       8.575  11.185  -3.655  0.00  0.00     0.079 C 
ATOM     30  H   LIG d   1       8.859  12.227  -3.510  0.00  0.00     0.066 H 
ATOM     31  H   LIG d   1       7.928  11.102  -4.527  0.00  0.00     0.066 H 
ATOM     32  H   LIG d   1       8.043  10.828  -2.773  0.00  0.00     0.066 H 
ENDBRANCH  28  29
ENDBRANCH   7  28
BRANCH   6  33
ATOM     33  O   LIG d   1       9.497  11.470  -6.383  0.00  0.00    -0.503 OA
ATOM     34  H   LIG d   1       9.477  11.756  -7.306  0.00  0.00     0.292 HD
ENDBRANCH   6  33
BRANCH  16  35
ATOM     35  O   LIG d   1      10.802   8.582  -0.023  0.00  0.00    -0.491 OA
BRANCH  35  36
ATOM     36  C   LIG d   1      10.256   9.902   0.018  0.00  0.00     0.079 C 
ATOM     37  H   LIG d   1       9.950  10.200  -0.985  0.00  0.00     0.066 H 
ATOM     38  H   LIG d   1       9.392   9.917   0.682  0.00  0.00     0.066 H 
ATOM     39  H   LIG d   1      11.011  10.596   0.389  0.00  0.00     0.066 H 
ENDBRANCH  35  36
ENDBRANCH  16  35
BRANCH   1  40
ATOM     40  C   LIG d   1       9.745   3.730  -6.743  0.00  0.00    -0.012 C 
ATOM     41  H   LIG d   1       8.848   3.239  -7.122  0.00  0.00     0.039 H 
ATOM     42  H   LIG d   1      10.613   3.382  -7.301  0.00  0.00     0.039 H 
ATOM     43  H   LIG d   1       9.871   3.492  -5.687  0.00  0.00     0.039 H 
ENDBRANCH   1  40
BRANCH  17  44
ATOM     44  O   LIG d   1      10.421   5.875   0.277  0.00  0.00    -0.503 OA
ATOM     45  H   LIG d   1      11.230   5.354   0.383  0.00  0.00     0.292 HD
ENDBRANCH  17  44
TORSDOF 7
ENDMDL
MODEL 4
REMARK VINA RESULT:      -5.5      2.470      5.526
REMARK  7 active torsions:
REMARK  status: ('A' for Active; 'I' for Inactive)
REMARK    1  A    between atoms: C_1  and  N_2 
REMARK    2  A    between atoms: C_7  and  O_25 
REMARK    3  A    between atoms: C_8  and  O_23 
REMARK    4  A    between atoms: C_17  and  O_21 
REMARK    5  A    between atoms: C_18  and  O_20 
REMARK    6  A    between atoms: O_21  and  C_22 
REMARK    7  A    between atoms: O_23  and  C_24 
ROOT
ATOM      1  N   LIG d   1      10.023   4.128  -5.760  0.00  0.00    -0.298 N 
ATOM      2  C   LIG d   1       9.327   3.187  -4.881  0.00  0.00     0.003 C 
ATOM      3  C   LIG d   1       9.704   3.424  -3.429  0.00  0.00    -0.014 C 
ATOM      4  C   LIG d   1       9.853   4.884  -3.107  0.00  0.00    -0.037 A 
ATOM      5  C   LIG d   1      10.045   5.243  -1.777  0.00  0.00    -0.013 A 
ATOM      6  C   LIG d   1      10.167   6.570  -1.411  0.00  0.00     0.159 A 
ATOM      7  C   LIG d   1      10.102   7.563  -2.382  0.00  0.00     0.169 A 
ATOM      8  C   LIG d   1       9.929   7.206  -3.717  0.00  0.00     0.033 A 
ATOM      9  C   LIG d   1       9.795   5.861  -4.077  0.00  0.00    -0.015 A 
ATOM     10  C   LIG d   1       9.564   5.504  -5.522  0.00  0.00     0.040 C 
ATOM     11  H   LIG d   1       8.499   5.573  -5.746  0.00  0.00     0.052 H 
ATOM     12  C   LIG d   1      10.330   6.447  -6.447  0.00  0.00    -0.007 C 
ATOM     13  C   LIG d   1      10.042   7.883  -6.101  0.00  0.00    -0.034 A 
ATOM     14  C   LIG d   1       9.862   8.248  -4.769  0.00  0.00    -0.007 A 
ATOM     15  C   LIG d   1       9.621   9.577  -4.435  0.00  0.00    -0.008 A 
ATOM     16  C   LIG d   1       9.546  10.533  -5.435  0.00  0.00     0.162 A 
ATOM     17  C   LIG d   1       9.710  10.161  -6.766  0.00  0.00     0.159 A 
ATOM     18  C   LIG d   1       9.957   8.837  -7.094  0.00  0.00    -0.013 A 
ATOM     19  H   LIG d   1       8.252   3.315  -4.998  0.00  0.00     0.043 H 
ATOM     20  H   LIG d   1       9.598   2.168  -5.160  0.00  0.00     0.043 H 
ATOM     21  H   LIG d   1       8.930   2.999  -2.789  0.00  0.00     0.033 H 
ATOM     22  H   LIG d   1      10.647   2.919  -3.222  0.00  0.00     0.033 H 
ATOM     23  H   LIG d   1      10.101   4.474  -1.021  0.00  0.00     0.066 H 
ATOM     24  H   LIG d   1      11.399   6.261  -6.342  0.00  0.00     0.033 H 
ATOM     25  H   LIG d   1      10.033   6.259  -7.478  0.00  0.00     0.033 H 
ATOM     26  H   LIG d   1       9.492   9.862  -3.402  0.00  0.00     0.066 H 
ATOM     27  H   LIG d   1      10.084   8.552  -8.128  0.00  0.00     0.066 H 
ENDROOT
BRANCH   7  28
ATOM     28  O   LIG d   1      10.205   8.872  -2.032  0.00  0.00    -0.491 OA
BRANCH  28  29
ATOM     29  C   LIG d   1      11.497   9.338  -1.636  0.00  0.00     0.079 C 
ATOM     30  H   LIG d   1      11.808  10.151  -2.293  0.00  0.00     0.066 H 
ATOM     31  H   LIG d   1      11.454   9.698  -0.609  0.00  0.00     0.066 H 
ATOM     32  H   LIG d   1      12.215   8.521  -1.705  0.00  0.00     0.066 H 
ENDBRANCH  28  29
ENDBRANCH   7  28
BRANCH   6  33
ATOM     33  O   LIG d   1      10.349   6.904  -0.105  0.00  0.00    -0.503 OA
ATOM     34  H   LIG d   1      10.399   7.857   0.054  0.00  0.00     0.292 HD
ENDBRANCH   6  33
BRANCH  16  35
ATOM     35  O   LIG d   1       9.310  11.834  -5.116  0.00  0.00    -0.491 OA
BRANCH  35  36
ATOM     36  C   LIG d   1       8.812  12.100  -3.803  0.00  0.00     0.079 C 
ATOM     37  H   LIG d   1       8.125  12.945  -3.838  0.00  0.00     0.066 H 
ATOM     38  H   LIG d   1       8.288  11.220  -3.429  0.00  0.00     0.066 H 
ATOM     39  H   LIG d   1       9.644  12.336  -3.139  0.00  0.00     0.066 H 
ENDBRANCH  35  36
ENDBRANCH  16  35
BRANCH   1  40
ATOM     40  C   LIG d   1       9.856   3.754  -7.171  0.00  0.00    -0.012 C 
ATOM     41  H   LIG d   1      10.481   2.888  -7.393  0.00  0.00     0.039 H 
ATOM     42  H   LIG d   1       8.812   3.506  -7.360  0.00  0.00     0.039 H 
ATOM     43  H   LIG d   1      10.153   4.589  -7.805  0.00  0.00     0.039 H 
ENDBRANCH   1  40
BRANCH  17  44
ATOM     44  O   LIG d   1       9.627  11.099  -7.747  0.00  0.00    -0.503 OA
ATOM     45  H   LIG d   1      10.468  11.278  -8.190  0.00  0.00     0.292 HD
ENDBRANCH  17  44
TORSDOF 7
ENDMDL
MODEL 5
REMARK VINA RESULT:      -5.4      3.254      6.229
REMARK  7 active torsions:
REMARK  status: ('A' for Active; 'I' for Inactive)
REMARK    1  A    between atoms: C_1  and  N_2 
REMARK    2  A    between atoms: C_7  and  O_25 
REMARK    3  A    between atoms: C_8  and  O_23 
REMARK    4  A    between atoms: C_17  and  O_21 
REMARK    5  A    between atoms: C_18  and  O_20 
REMARK    6  A    between atoms: O_21  and  C_22 
REMARK    7  A    between atoms: O_23  and  C_24 
ROOT
ATOM      1  N   LIG d   1       9.817   2.650  -6.973  0.00  0.00    -0.298 N 
ATOM      2  C   LIG d   1       9.202   1.614  -6.142  0.00  0.00     0.003 C 
ATOM      3  C   LIG d   1       9.711   1.695  -4.713  0.00  0.00    -0.014 C 
ATOM      4  C   LIG d   1       9.893   3.113  -4.250  0.00  0.00    -0.037 A 
ATOM      5  C   LIG d   1      10.209   3.327  -2.912  0.00  0.00    -0.013 A 
ATOM      6  C   LIG d   1      10.368   4.607  -2.417  0.00  0.00     0.159 A 
ATOM      7  C   LIG d   1      10.216   5.699  -3.264  0.00  0.00     0.169 A 
ATOM      8  C   LIG d   1       9.920   5.487  -4.608  0.00  0.00     0.033 A 
ATOM      9  C   LIG d   1       9.749   4.189  -5.098  0.00  0.00    -0.015 A 
ATOM     10  C   LIG d   1       9.385   3.989  -6.546  0.00  0.00     0.040 C 
ATOM     11  H   LIG d   1       8.304   4.075  -6.662  0.00  0.00     0.052 H 
ATOM     12  C   LIG d   1      10.066   5.032  -7.430  0.00  0.00    -0.007 C 
ATOM     13  C   LIG d   1       9.815   6.420  -6.905  0.00  0.00    -0.034 A 
ATOM     14  C   LIG d   1       9.760   6.637  -5.530  0.00  0.00    -0.007 A 
ATOM     15  C   LIG d   1       9.554   7.921  -5.033  0.00  0.00    -0.008 A 
ATOM     16  C   LIG d   1       9.390   8.978  -5.912  0.00  0.00     0.162 A 
ATOM     17  C   LIG d   1       9.429   8.754  -7.285  0.00  0.00     0.159 A 
ATOM     18  C   LIG d   1       9.642   7.475  -7.777  0.00  0.00    -0.013 A 
ATOM     19  H   LIG d   1       8.120   1.747  -6.145  0.00  0.00     0.043 H 
ATOM     20  H   LIG d   1       9.443   0.634  -6.553  0.00  0.00     0.043 H 
ATOM     21  H   LIG d   1       8.999   1.198  -4.055  0.00  0.00     0.033 H 
ATOM     22  H   LIG d   1      10.668   1.177  -4.649  0.00  0.00     0.033 H 
ATOM     23  H   LIG d   1      10.331   2.481  -2.252  0.00  0.00     0.066 H 
ATOM     24  H   LIG d   1      11.140   4.843  -7.445  0.00  0.00     0.033 H 
ATOM     25  H   LIG d   1       9.674   4.955  -8.443  0.00  0.00     0.033 H 
ATOM     26  H   LIG d   1       9.522   8.091  -3.967  0.00  0.00     0.066 H 
ATOM     27  H   LIG d   1       9.672   7.305  -8.843  0.00  0.00     0.066 H 
ENDROOT
BRANCH   7  28
ATOM     28  O   LIG d   1      10.355   6.964  -2.784  0.00  0.00    -0.491 OA
BRANCH  28  29
ATOM     29  C   LIG d   1      11.686   7.418  -2.528  0.00  0.00     0.079 C 
ATOM     30  H   LIG d   1      11.732   8.500  -2.656  0.00  0.00     0.066 H 
ATOM     31  H   LIG d   1      11.967   7.161  -1.508  0.00  0.00     0.066 H 
ATOM     32  H   LIG d   1      12.373   6.940  -3.226  0.00  0.00     0.066 H 
ENDBRANCH  28  29
ENDBRANCH   7  28
BRANCH   6  33
ATOM     33  O   LIG d   1      10.670   4.799  -1.104  0.00  0.00    -0.503 OA
ATOM     34  H   LIG d   1      11.439   5.368  -0.957  0.00  0.00     0.292 HD
ENDBRANCH   6  33
BRANCH  16  35
ATOM     35  O   LIG d   1       9.189  10.236  -5.433  0.00  0.00    -0.491 OA
BRANCH  35  36
ATOM     36  C   LIG d   1       9.626  10.499  -4.098  0.00  0.00     0.079 C 
ATOM     37  H   LIG d   1       9.434   9.626  -3.474  0.00  0.00     0.066 H 
ATOM     38  H   LIG d   1      10.695  10.716  -4.102  0.00  0.00     0.066 H 
ATOM     39  H   LIG d   1       9.083  11.357  -3.700  0.00  0.00     0.066 H 
ENDBRANCH  35  36
ENDBRANCH  16  35
BRANCH   1  40
ATOM     40  C   LIG d   1       9.519   2.430  -8.395  0.00  0.00    -0.012 C 
ATOM     41  H   LIG d   1       8.784   3.161  -8.730  0.00  0.00     0.039 H 
ATOM     42  H   LIG d   1      10.433   2.540  -8.979  0.00  0.00     0.039 H 
ATOM     43  H   LIG d   1       9.121   1.424  -8.531  0.00  0.00     0.039 H 
ENDBRANCH   1  40
BRANCH  17  44
ATOM     44  O   LIG d   1       9.260   9.792  -8.146  0.00  0.00    -0.503 OA
ATOM     45  H   LIG d   1       9.287   9.538  -9.079  0.00  0.00     0.292 HD
ENDBRANCH  17  44
TORSDOF 7
ENDMDL
MODEL 6
REMARK VINA RESULT:      -5.3      2.560      4.488
REMARK  7 active torsions:
REMARK  status: ('A' for Active; 'I' for Inactive)
REMARK    1  A    between atoms: C_1  and  N_2 
REMARK    2  A    between atoms: C_7  and  O_25 
REMARK    3  A    between atoms: C_8  and  O_23 
REMARK    4  A    between atoms: C_17  and  O_21 
REMARK    5  A    between atoms: C_18  and  O_20 
REMARK    6  A    between atoms: O_21  and  C_22 
REMARK    7  A    between atoms: O_23  and  C_24 
ROOT
ATOM      1  N   LIG d   1      10.955   9.985  -1.292  0.00  0.00    -0.298 N 
ATOM      2  C   LIG d   1      10.072  11.140  -1.467  0.00  0.00     0.003 C 
ATOM      3  C   LIG d   1       9.918  11.484  -2.938  0.00  0.00    -0.014 C 
ATOM      4  C   LIG d   1       9.845  10.261  -3.808  0.00  0.00    -0.037 A 
ATOM      5  C   LIG d   1       9.551  10.436  -5.156  0.00  0.00    -0.013 A 
ATOM      6  C   LIG d   1       9.448   9.350  -6.006  0.00  0.00     0.159 A 
ATOM      7  C   LIG d   1       9.644   8.065  -5.512  0.00  0.00     0.169 A 
ATOM      8  C   LIG d   1       9.958   7.889  -4.167  0.00  0.00     0.033 A 
ATOM      9  C   LIG d   1      10.049   8.992  -3.312  0.00  0.00    -0.015 A 
ATOM     10  C   LIG d   1      10.346   8.770  -1.852  0.00  0.00     0.040 C 
ATOM     11  H   LIG d   1       9.417   8.555  -1.323  0.00  0.00     0.052 H 
ATOM     12  C   LIG d   1      11.311   7.602  -1.661  0.00  0.00    -0.007 C 
ATOM     13  C   LIG d   1      10.821   6.383  -2.395  0.00  0.00    -0.034 A 
ATOM     14  C   LIG d   1      10.177   6.529  -3.621  0.00  0.00    -0.007 A 
ATOM     15  C   LIG d   1       9.743   5.406  -4.321  0.00  0.00    -0.008 A 
ATOM     16  C   LIG d   1       9.942   4.145  -3.785  0.00  0.00     0.162 A 
ATOM     17  C   LIG d   1      10.572   4.005  -2.552  0.00  0.00     0.159 A 
ATOM     18  C   LIG d   1      11.010   5.124  -1.861  0.00  0.00    -0.013 A 
ATOM     19  H   LIG d   1       9.092  10.908  -1.049  0.00  0.00     0.043 H 
ATOM     20  H   LIG d   1      10.492  11.996  -0.940  0.00  0.00     0.043 H 
ATOM     21  H   LIG d   1       9.006  12.066  -3.072  0.00  0.00     0.033 H 
ATOM     22  H   LIG d   1      10.769  12.089  -3.250  0.00  0.00     0.033 H 
ATOM     23  H   LIG d   1       9.402  11.432  -5.545  0.00  0.00     0.066 H 
ATOM     24  H   LIG d   1      12.292   7.881  -2.046  0.00  0.00     0.033 H 
ATOM     25  H   LIG d   1      11.393   7.374  -0.599  0.00  0.00     0.033 H 
ATOM     26  H   LIG d   1       9.253   5.518  -5.276  0.00  0.00     0.066 H 
ATOM     27  H   LIG d   1      11.498   5.012  -0.904  0.00  0.00     0.066 H 
ENDROOT
BRANCH   7  28
ATOM     28  O   LIG d   1       9.529   6.990  -6.336  0.00  0.00    -0.491 OA
BRANCH  28  29
ATOM     29  C   LIG d   1      10.589   6.772  -7.270  0.00  0.00     0.079 C 
ATOM     30  H   LIG d   1      11.000   7.732  -7.584  0.00  0.00     0.066 H 
ATOM     31  H   LIG d   1      11.371   6.178  -6.800  0.00  0.00     0.066 H 
ATOM     32  H   LIG d   1      10.203   6.241  -8.140  0.00  0.00     0.066 H 
ENDBRANCH  28  29
ENDBRANCH   7  28
BRANCH   6  33
ATOM     33  O   LIG d   1       9.154   9.538  -7.321  0.00  0.00    -0.503 OA
ATOM     34  H   LIG d   1       9.002  10.463  -7.561  0.00  0.00     0.292 HD
ENDBRANCH   6  33
BRANCH  16  35
ATOM     35  O   LIG d   1       9.521   3.043  -4.463  0.00  0.00    -0.491 OA
BRANCH  35  36
ATOM     36  C   LIG d   1       9.491   3.132  -5.889  0.00  0.00     0.079 C 
ATOM     37  H   LIG d   1      10.377   3.660  -6.240  0.00  0.00     0.066 H 
ATOM     38  H   LIG d   1       9.472   2.129  -6.315  0.00  0.00     0.066 H 
ATOM     39  H   LIG d   1       8.598   3.676  -6.200  0.00  0.00     0.066 H 
ENDBRANCH  35  36
ENDBRANCH  16  35
BRANCH   1  40
ATOM     40  C   LIG d   1      11.301   9.797   0.123  0.00  0.00    -0.012 C 
ATOM     41  H   LIG d   1      11.984   8.952   0.221  0.00  0.00     0.039 H 
ATOM     42  H   LIG d   1      11.783  10.698   0.503  0.00  0.00     0.039 H 
ATOM     43  H   LIG d   1      10.395   9.600   0.695  0.00  0.00     0.039 H 
ENDBRANCH   1  40
BRANCH  17  44
ATOM     44  O   LIG d   1      10.760   2.766  -2.023  0.00  0.00    -0.503 OA
ATOM     45  H   LIG d   1      10.555   2.043  -2.632  0.00  0.00     0.292 HD
ENDBRANCH  17  44
TORSDOF 7
ENDMDL
MODEL 7
REMARK VINA RESULT:      -5.2      7.465     11.158
REMARK  7 active torsions:
REMARK  status: ('A' for Active; 'I' for Inactive)
REMARK    1  A    between atoms: C_1  and  N_2 
REMARK    2  A    between atoms: C_7  and  O_25 
REMARK    3  A    between atoms: C_8  and  O_23 
REMARK    4  A    between atoms: C_17  and  O_21 
REMARK    5  A    between atoms: C_18  and  O_20 
REMARK    6  A    between atoms: O_21  and  C_22 
REMARK    7  A    between atoms: O_23  and  C_24 
ROOT
ATOM      1  N   LIG d   1       4.705  -0.091  -2.537  0.00  0.00    -0.298 N 
ATOM      2  C   LIG d   1       4.201  -1.334  -1.950  0.00  0.00     0.003 C 
ATOM      3  C   LIG d   1       4.172  -2.447  -2.983  0.00  0.00    -0.014 C 
ATOM      4  C   LIG d   1       5.356  -2.401  -3.907  0.00  0.00    -0.037 A 
ATOM      5  C   LIG d   1       5.527  -3.454  -4.800  0.00  0.00    -0.013 A 
ATOM      6  C   LIG d   1       6.608  -3.484  -5.662  0.00  0.00     0.159 A 
ATOM      7  C   LIG d   1       7.536  -2.449  -5.642  0.00  0.00     0.169 A 
ATOM      8  C   LIG d   1       7.356  -1.384  -4.763  0.00  0.00     0.033 A 
ATOM      9  C   LIG d   1       6.266  -1.367  -3.887  0.00  0.00    -0.015 A 
ATOM     10  C   LIG d   1       6.119  -0.226  -2.915  0.00  0.00     0.040 C 
ATOM     11  H   LIG d   1       6.713  -0.432  -2.024  0.00  0.00     0.052 H 
ATOM     12  C   LIG d   1       6.591   1.086  -3.537  0.00  0.00    -0.007 C 
ATOM     13  C   LIG d   1       7.970   0.933  -4.121  0.00  0.00    -0.034 A 
ATOM     14  C   LIG d   1       8.330  -0.268  -4.729  0.00  0.00    -0.007 A 
ATOM     15  C   LIG d   1       9.593  -0.412  -5.296  0.00  0.00    -0.008 A 
ATOM     16  C   LIG d   1      10.494   0.638  -5.240  0.00  0.00     0.162 A 
ATOM     17  C   LIG d   1      10.135   1.830  -4.616  0.00  0.00     0.159 A 
ATOM     18  C   LIG d   1       8.874   1.973  -4.059  0.00  0.00    -0.013 A 
ATOM     19  H   LIG d   1       4.848  -1.628  -1.124  0.00  0.00     0.043 H 
ATOM     20  H   LIG d   1       3.192  -1.169  -1.572  0.00  0.00     0.043 H 
ATOM     21  H   LIG d   1       4.163  -3.407  -2.468  0.00  0.00     0.033 H 
ATOM     22  H   LIG d   1       3.260  -2.357  -3.574  0.00  0.00     0.033 H 
ATOM     23  H   LIG d   1       4.807  -4.258  -4.821  0.00  0.00     0.066 H 
ATOM     24  H   LIG d   1       5.898   1.378  -4.326  0.00  0.00     0.033 H 
ATOM     25  H   LIG d   1       6.610   1.860  -2.771  0.00  0.00     0.033 H 
ATOM     26  H   LIG d   1       9.870  -1.338  -5.777  0.00  0.00     0.066 H 
ATOM     27  H   LIG d   1       8.599   2.899  -3.576  0.00  0.00     0.066 H 
ENDROOT
BRANCH   7  28
ATOM     28  O   LIG d   1       8.611  -2.476  -6.474  0.00  0.00    -0.491 OA
BRANCH  28  29
ATOM     29  C   LIG d   1       8.367  -2.217  -7.858  0.00  0.00     0.079 C 
ATOM     30  H   LIG d   1       8.403  -1.142  -8.039  0.00  0.00     0.066 H 
ATOM     31  H   LIG d   1       9.128  -2.712  -8.460  0.00  0.00     0.066 H 
ATOM     32  H   LIG d   1       7.383  -2.598  -8.131  0.00  0.00     0.066 H 
ENDBRANCH  28  29
ENDBRANCH   7  28
BRANCH   6  33
ATOM     33  O   LIG d   1       6.764  -4.524  -6.525  0.00  0.00    -0.503 OA
ATOM     34  H   LIG d   1       7.639  -4.933  -6.492  0.00  0.00     0.292 HD
ENDBRANCH   6  33
BRANCH  16  35
ATOM     35  O   LIG d   1      11.730   0.505  -5.792  0.00  0.00    -0.491 OA
BRANCH  35  36
ATOM     36  C   LIG d   1      11.981  -0.687  -6.540  0.00  0.00     0.079 C 
ATOM     37  H   LIG d   1      11.109  -1.339  -6.488  0.00  0.00     0.066 H 
ATOM     38  H   LIG d   1      12.180  -0.427  -7.580  0.00  0.00     0.066 H 
ATOM     39  H   LIG d   1      12.846  -1.204  -6.122  0.00  0.00     0.066 H 
ENDBRANCH  35  36
ENDBRANCH  16  35
BRANCH   1  40
ATOM     40  C   LIG d   1       4.510   1.041  -1.621  0.00  0.00    -0.012 C 
ATOM     41  H   LIG d   1       3.903   0.722  -0.774  0.00  0.00     0.039 H 
ATOM     42  H   LIG d   1       5.478   1.390  -1.263  0.00  0.00     0.039 H 
ATOM     43  H   LIG d   1       4.004   1.850  -2.147  0.00  0.00     0.039 H 
ENDBRANCH   1  40
BRANCH  17  44
ATOM     44  O   LIG d   1      11.024   2.857  -4.554  0.00  0.00    -0.503 OA
ATOM     45  H   LIG d   1      10.638   3.694  -4.263  0.00  0.00     0.292 HD
ENDBRANCH  17  44
TORSDOF 7
ENDMDL
MODEL 8
REMARK VINA RESULT:      -5.2      3.645      6.445
REMARK  7 active torsions:
REMARK  status: ('A' for Active; 'I' for Inactive)
REMARK    1  A    between atoms: C_1  and  N_2 
REMARK    2  A    between atoms: C_7  and  O_25 
REMARK    3  A    between atoms: C_8  and  O_23 
REMARK    4  A    between atoms: C_17  and  O_21 
REMARK    5  A    between atoms: C_18  and  O_20 
REMARK    6  A    between atoms: O_21  and  C_22 
REMARK    7  A    between atoms: O_23  and  C_24 
ROOT
ATOM      1  N   LIG d   1       9.675   2.429  -5.957  0.00  0.00    -0.298 N 
ATOM      2  C   LIG d   1       8.986   1.871  -4.792  0.00  0.00     0.003 C 
ATOM      3  C   LIG d   1       9.448   2.549  -3.514  0.00  0.00    -0.014 C 
ATOM      4  C   LIG d   1       9.678   4.023  -3.699  0.00  0.00    -0.037 A 
ATOM      5  C   LIG d   1       9.956   4.786  -2.569  0.00  0.00    -0.013 A 
ATOM      6  C   LIG d   1      10.156   6.150  -2.667  0.00  0.00     0.159 A 
ATOM      7  C   LIG d   1      10.084   6.772  -3.909  0.00  0.00     0.169 A 
ATOM      8  C   LIG d   1       9.825   6.007  -5.044  0.00  0.00     0.033 A 
ATOM      9  C   LIG d   1       9.613   4.629  -4.934  0.00  0.00    -0.015 A 
ATOM     10  C   LIG d   1       9.290   3.832  -6.171  0.00  0.00     0.040 C 
ATOM     11  H   LIG d   1       8.219   3.887  -6.367  0.00  0.00     0.052 H 
ATOM     12  C   LIG d   1      10.048   4.371  -7.382  0.00  0.00    -0.007 C 
ATOM     13  C   LIG d   1       9.841   5.856  -7.520  0.00  0.00    -0.034 A 
ATOM     14  C   LIG d   1       9.749   6.648  -6.378  0.00  0.00    -0.007 A 
ATOM     15  C   LIG d   1       9.584   8.025  -6.494  0.00  0.00    -0.008 A 
ATOM     16  C   LIG d   1       9.499   8.602  -7.750  0.00  0.00     0.162 A 
ATOM     17  C   LIG d   1       9.576   7.805  -8.888  0.00  0.00     0.159 A 
ATOM     18  C   LIG d   1       9.747   6.434  -8.769  0.00  0.00    -0.013 A 
ATOM     19  H   LIG d   1       7.912   2.018  -4.907  0.00  0.00     0.043 H 
ATOM     20  H   LIG d   1       9.196   0.804  -4.728  0.00  0.00     0.043 H 
ATOM     21  H   LIG d   1       8.691   2.405  -2.743  0.00  0.00     0.033 H 
ATOM     22  H   LIG d   1      10.378   2.085  -3.185  0.00  0.00     0.033 H 
ATOM     23  H   LIG d   1      10.018   4.306  -1.604  0.00  0.00     0.066 H 
ATOM     24  H   LIG d   1      11.111   4.167  -7.259  0.00  0.00     0.033 H 
ATOM     25  H   LIG d   1       9.688   3.874  -8.281  0.00  0.00     0.033 H 
ATOM     26  H   LIG d   1       9.523   8.641  -5.609  0.00  0.00     0.066 H 
ATOM     27  H   LIG d   1       9.806   5.819  -9.655  0.00  0.00     0.066 H 
ENDROOT
BRANCH   7  28
ATOM     28  O   LIG d   1      10.263   8.115  -4.015  0.00  0.00    -0.491 OA
BRANCH  28  29
ATOM     29  C   LIG d   1      11.594   8.607  -3.846  0.00  0.00     0.079 C 
ATOM     30  H   LIG d   1      12.262   8.092  -4.537  0.00  0.00     0.066 H 
ATOM     31  H   LIG d   1      11.614   9.677  -4.051  0.00  0.00     0.066 H 
ATOM     32  H   LIG d   1      11.921   8.427  -2.823  0.00  0.00     0.066 H 
ENDBRANCH  28  29
ENDBRANCH   7  28
BRANCH   6  33
ATOM     33  O   LIG d   1      10.422   6.883  -1.552  0.00  0.00    -0.503 OA
ATOM     34  H   LIG d   1       9.718   6.857  -0.889  0.00  0.00     0.292 HD
ENDBRANCH   6  33
BRANCH  16  35
ATOM     35  O   LIG d   1       9.339   9.948  -7.871  0.00  0.00    -0.491 OA
BRANCH  35  36
ATOM     36  C   LIG d   1      10.040  10.771  -6.936  0.00  0.00     0.079 C 
ATOM     37  H   LIG d   1      10.566  10.141  -6.220  0.00  0.00     0.066 H 
ATOM     38  H   LIG d   1      10.759  11.394  -7.469  0.00  0.00     0.066 H 
ATOM     39  H   LIG d   1       9.329  11.407  -6.407  0.00  0.00     0.066 H 
ENDBRANCH  35  36
ENDBRANCH  16  35
BRANCH   1  40
ATOM     40  C   LIG d   1       9.417   1.623  -7.158  0.00  0.00    -0.012 C 
ATOM     41  H   LIG d   1       9.330   0.573  -6.878  0.00  0.00     0.039 H 
ATOM     42  H   LIG d   1       8.489   1.953  -7.624  0.00  0.00     0.039 H 
ATOM     43  H   LIG d   1      10.241   1.745  -7.860  0.00  0.00     0.039 H 
ENDBRANCH   1  40
BRANCH  17  44
ATOM     44  O   LIG d   1       9.483   8.372 -10.120  0.00  0.00    -0.503 OA
ATOM     45  H   LIG d   1       8.638   8.215 -10.563  0.00  0.00     0.292 HD
ENDBRANCH  17  44
TORSDOF 7
ENDMDL
MODEL 9
REMARK VINA RESULT:      -5.0     10.201     13.890
REMARK  7 active torsions:
REMARK  status: ('A' for Active; 'I' for Inactive)
REMARK    1  A    between atoms: C_1  and  N_2 
REMARK    2  A    between atoms: C_7  and  O_25 
REMARK    3  A    between atoms: C_8  and  O_23 
REMARK    4  A    between atoms: C_17  and  O_21 
REMARK    5  A    between atoms: C_18  and  O_20 
REMARK    6  A    between atoms: O_21  and  C_22 
REMARK    7  A    between atoms: O_23  and  C_24 
ROOT
ATOM      1  N   LIG d   1       9.481  -4.979  -3.494  0.00  0.00    -0.298 N 
ATOM      2  C   LIG d   1      10.017  -5.989  -4.408  0.00  0.00     0.003 C 
ATOM      3  C   LIG d   1       8.907  -6.878  -4.942  0.00  0.00    -0.014 C 
ATOM      4  C   LIG d   1       7.644  -6.113  -5.219  0.00  0.00    -0.037 A 
ATOM      5  C   LIG d   1       6.602  -6.782  -5.854  0.00  0.00    -0.013 A 
ATOM      6  C   LIG d   1       5.422  -6.130  -6.158  0.00  0.00     0.159 A 
ATOM      7  C   LIG d   1       5.267  -4.790  -5.823  0.00  0.00     0.169 A 
ATOM      8  C   LIG d   1       6.300  -4.123  -5.169  0.00  0.00     0.033 A 
ATOM      9  C   LIG d   1       7.496  -4.787  -4.876  0.00  0.00    -0.015 A 
ATOM     10  C   LIG d   1       8.615  -4.031  -4.209  0.00  0.00     0.040 C 
ATOM     11  H   LIG d   1       9.200  -3.509  -4.967  0.00  0.00     0.052 H 
ATOM     12  C   LIG d   1       8.068  -3.013  -3.212  0.00  0.00    -0.007 C 
ATOM     13  C   LIG d   1       7.021  -2.145  -3.857  0.00  0.00    -0.034 A 
ATOM     14  C   LIG d   1       6.154  -2.696  -4.798  0.00  0.00    -0.007 A 
ATOM     15  C   LIG d   1       5.165  -1.909  -5.381  0.00  0.00    -0.008 A 
ATOM     16  C   LIG d   1       5.056  -0.573  -5.033  0.00  0.00     0.162 A 
ATOM     17  C   LIG d   1       5.935  -0.024  -4.104  0.00  0.00     0.159 A 
ATOM     18  C   LIG d   1       6.914  -0.812  -3.519  0.00  0.00    -0.013 A 
ATOM     19  H   LIG d   1      10.509  -5.490  -5.243  0.00  0.00     0.043 H 
ATOM     20  H   LIG d   1      10.745  -6.603  -3.879  0.00  0.00     0.043 H 
ATOM     21  H   LIG d   1       9.244  -7.348  -5.866  0.00  0.00     0.033 H 
ATOM     22  H   LIG d   1       8.695  -7.656  -4.209  0.00  0.00     0.033 H 
ATOM     23  H   LIG d   1       6.717  -7.824  -6.112  0.00  0.00     0.066 H 
ATOM     24  H   LIG d   1       7.625  -3.541  -2.367  0.00  0.00     0.033 H 
ATOM     25  H   LIG d   1       8.884  -2.386  -2.855  0.00  0.00     0.033 H 
ATOM     26  H   LIG d   1       4.487  -2.338  -6.103  0.00  0.00     0.066 H 
ATOM     27  H   LIG d   1       7.594  -0.381  -2.798  0.00  0.00     0.066 H 
ENDROOT
BRANCH   7  28
ATOM     28  O   LIG d   1       4.116  -4.135  -6.130  0.00  0.00    -0.491 OA
BRANCH  28  29
ATOM     29  C   LIG d   1       3.857  -3.894  -7.515  0.00  0.00     0.079 C 
ATOM     30  H   LIG d   1       3.611  -2.842  -7.662  0.00  0.00     0.066 H 
ATOM     31  H   LIG d   1       4.742  -4.145  -8.099  0.00  0.00     0.066 H 
ATOM     32  H   LIG d   1       3.020  -4.511  -7.841  0.00  0.00     0.066 H 
ENDBRANCH  28  29
ENDBRANCH   7  28
BRANCH   6  33
ATOM     33  O   LIG d   1       4.415  -6.798  -6.784  0.00  0.00    -0.503 OA
ATOM     34  H   LIG d   1       3.646  -6.966  -6.222  0.00  0.00     0.292 HD
ENDBRANCH   6  33
BRANCH  16  35
ATOM     35  O   LIG d   1       4.092   0.201  -5.598  0.00  0.00    -0.491 OA
BRANCH  35  36
ATOM     36  C   LIG d   1       2.809   0.203  -4.968  0.00  0.00     0.079 C 
ATOM     37  H   LIG d   1       2.072   0.634  -5.644  0.00  0.00     0.066 H 
ATOM     38  H   LIG d   1       2.524  -0.820  -4.722  0.00  0.00     0.066 H 
ATOM     39  H   LIG d   1       2.855   0.797  -4.054  0.00  0.00     0.066 H 
ENDBRANCH  35  36
ENDBRANCH  16  35
BRANCH   1  40
ATOM     40  C   LIG d   1      10.563  -4.277  -2.791  0.00  0.00    -0.012 C 
ATOM     41  H   LIG d   1      10.195  -3.908  -1.833  0.00  0.00     0.039 H 
ATOM     42  H   LIG d   1      11.392  -4.965  -2.621  0.00  0.00     0.039 H 
ATOM     43  H   LIG d   1      10.905  -3.438  -3.397  0.00  0.00     0.039 H 
ENDBRANCH   1  40
BRANCH  17  44
ATOM     44  O   LIG d   1       5.832   1.290  -3.768  0.00  0.00    -0.503 OA
ATOM     45  H   LIG d   1       6.495   1.856  -4.188  0.00  0.00     0.292 HD
ENDBRANCH  17  44
TORSDOF 7
ENDMDL
MODEL 10
REMARK VINA RESULT:      -5.0     11.548     13.234
REMARK  7 active torsions:
REMARK  status: ('A' for Active; 'I' for Inactive)
REMARK    1  A    between atoms: C_1  and  N_2 
REMARK    2  A    between atoms: C_7  and  O_25 
REMARK    3  A    between atoms: C_8  and  O_23 
REMARK    4  A    between atoms: C_17  and  O_21 
REMARK    5  A    between atoms: C_18  and  O_20 
REMARK    6  A    between atoms: O_21  and  C_22 
REMARK    7  A    between atoms: O_23  and  C_24 
ROOT
ATOM      1  N   LIG d   1       3.210  -2.793 -11.825  0.00  0.00    -0.298 N 
ATOM      2  C   LIG d   1       3.771  -1.800 -12.743  0.00  0.00     0.003 C 
ATOM      3  C   LIG d   1       3.487  -0.391 -12.255  0.00  0.00    -0.014 C 
ATOM      4  C   LIG d   1       3.589  -0.271 -10.760  0.00  0.00    -0.037 A 
ATOM      5  C   LIG d   1       3.502   0.999 -10.200  0.00  0.00    -0.013 A 
ATOM      6  C   LIG d   1       3.610   1.181  -8.834  0.00  0.00     0.159 A 
ATOM      7  C   LIG d   1       3.805   0.082  -8.005  0.00  0.00     0.169 A 
ATOM      8  C   LIG d   1       3.872  -1.193  -8.561  0.00  0.00     0.033 A 
ATOM      9  C   LIG d   1       3.773  -1.366  -9.945  0.00  0.00    -0.015 A 
ATOM     10  C   LIG d   1       3.895  -2.751 -10.525  0.00  0.00     0.040 C 
ATOM     11  H   LIG d   1       4.949  -2.993 -10.665  0.00  0.00     0.052 H 
ATOM     12  C   LIG d   1       3.263  -3.788  -9.601  0.00  0.00    -0.007 C 
ATOM     13  C   LIG d   1       3.793  -3.646  -8.200  0.00  0.00    -0.034 A 
ATOM     14  C   LIG d   1       4.074  -2.378  -7.695  0.00  0.00    -0.007 A 
ATOM     15  C   LIG d   1       4.540  -2.233  -6.391  0.00  0.00    -0.008 A 
ATOM     16  C   LIG d   1       4.737  -3.355  -5.604  0.00  0.00     0.162 A 
ATOM     17  C   LIG d   1       4.471  -4.620  -6.118  0.00  0.00     0.159 A 
ATOM     18  C   LIG d   1       3.999  -4.762  -7.414  0.00  0.00    -0.013 A 
ATOM     19  H   LIG d   1       4.849  -1.945 -12.812  0.00  0.00     0.043 H 
ATOM     20  H   LIG d   1       3.329  -1.934 -13.731  0.00  0.00     0.043 H 
ATOM     21  H   LIG d   1       4.201   0.294 -12.713  0.00  0.00     0.033 H 
ATOM     22  H   LIG d   1       2.481  -0.106 -12.564  0.00  0.00     0.033 H 
ATOM     23  H   LIG d   1       3.346   1.855 -10.841  0.00  0.00     0.066 H 
ATOM     24  H   LIG d   1       2.182  -3.648  -9.591  0.00  0.00     0.033 H 
ATOM     25  H   LIG d   1       3.491  -4.787  -9.972  0.00  0.00     0.033 H 
ATOM     26  H   LIG d   1       4.748  -1.250  -5.996  0.00  0.00     0.066 H 
ATOM     27  H   LIG d   1       3.794  -5.745  -7.810  0.00  0.00     0.066 H 
ENDROOT
BRANCH   7  28
ATOM     28  O   LIG d   1       3.928   0.251  -6.661  0.00  0.00    -0.491 OA
BRANCH  28  29
ATOM     29  C   LIG d   1       2.722   0.431  -5.916  0.00  0.00     0.079 C 
ATOM     30  H   LIG d   1       2.015   1.017  -6.505  0.00  0.00     0.066 H 
ATOM     31  H   LIG d   1       2.287  -0.541  -5.689  0.00  0.00     0.066 H 
ATOM     32  H   LIG d   1       2.944   0.957  -4.988  0.00  0.00     0.066 H 
ENDBRANCH  28  29
ENDBRANCH   7  28
BRANCH   6  33
ATOM     33  O   LIG d   1       3.528   2.431  -8.303  0.00  0.00    -0.503 OA
ATOM     34  H   LIG d   1       4.218   3.034  -8.612  0.00  0.00     0.292 HD
ENDBRANCH   6  33
BRANCH  16  35
ATOM     35  O   LIG d   1       5.192  -3.220  -4.329  0.00  0.00    -0.491 OA
BRANCH  35  36
ATOM     36  C   LIG d   1       4.443  -2.366  -3.460  0.00  0.00     0.079 C 
ATOM     37  H   LIG d   1       4.654  -2.627  -2.424  0.00  0.00     0.066 H 
ATOM     38  H   LIG d   1       4.726  -1.329  -3.640  0.00  0.00     0.066 H 
ATOM     39  H   LIG d   1       3.378  -2.492  -3.657  0.00  0.00     0.066 H 
ENDBRANCH  35  36
ENDBRANCH  16  35
BRANCH   1  40
ATOM     40  C   LIG d   1       3.267  -4.140 -12.408  0.00  0.00    -0.012 C 
ATOM     41  H   LIG d   1       2.964  -4.873 -11.658  0.00  0.00     0.039 H 
ATOM     42  H   LIG d   1       2.592  -4.196 -13.262  0.00  0.00     0.039 H 
ATOM     43  H   LIG d   1       4.285  -4.352 -12.733  0.00  0.00     0.039 H 
ENDBRANCH   1  40
BRANCH  17  44
ATOM     44  O   LIG d   1       4.673  -5.722  -5.346  0.00  0.00    -0.503 OA
ATOM     45  H   LIG d   1       4.430  -5.601  -4.418  0.00  0.00     0.292 HD
ENDBRANCH  17  44
TORSDOF 7
ENDMDL
