MODEL 1
REMARK VINA RESULT:      -7.3      0.000      0.000
REMARK  6 active torsions:
REMARK  status: ('A' for Active; 'I' for Inactive)
REMARK    1  A    between atoms: C_4  and  O_20 
REMARK    2  A    between atoms: C_5  and  C_7 
REMARK    3  A    between atoms: N_8  and  C_9 
REMARK    4  A    between atoms: C_9  and  C_10 
REMARK    5  A    between atoms: C_10  and  N_11 
REMARK    6  A    between atoms: C_12  and  C_13 
ROOT
ATOM      1  C   LIG d   1       5.128  -2.406  -4.585  0.00  0.00     0.201 C 
ATOM      2  H   LIG d   1       5.090  -1.325  -4.382  0.00  0.00     0.109 H 
ATOM      3  H   LIG d   1       6.152  -2.773  -4.425  0.00  0.00     0.109 H 
ENDROOT
BRANCH   1   4
ATOM      4  N   LIG d   1       4.212  -3.104  -3.680  0.00  0.00    -0.241 N 
ATOM      5  C   LIG d   1       3.712  -2.484  -2.660  0.00  0.00     0.175 C 
ATOM      6  H   LIG d   1       3.213  -3.052  -1.861  0.00  0.00     0.138 H 
ATOM      7  H   LIG d   1       3.949  -4.155  -3.868  0.00  0.00     0.445 HD
BRANCH   5   8
ATOM      8  C   LIG d   1       3.813  -1.016  -2.567  0.00  0.00     0.079 A 
ATOM      9  C   LIG d   1       3.058  -0.202  -3.422  0.00  0.00     0.130 A 
ATOM     10  C   LIG d   1       3.162   1.177  -3.326  0.00  0.00    -0.019 A 
ATOM     11  C   LIG d   1       4.002   1.745  -2.389  0.00  0.00    -0.058 A 
ATOM     12  H   LIG d   1       2.583   1.808  -3.983  0.00  0.00     0.065 H 
ATOM     13  C   LIG d   1       4.750   0.944  -1.541  0.00  0.00    -0.061 A 
ATOM     14  H   LIG d   1       4.078   2.820  -2.317  0.00  0.00     0.062 H 
ATOM     15  C   LIG d   1       4.656  -0.429  -1.620  0.00  0.00    -0.045 A 
ATOM     16  H   LIG d   1       5.405   1.397  -0.811  0.00  0.00     0.062 H 
ATOM     17  H   LIG d   1       5.237  -1.050  -0.954  0.00  0.00     0.063 H 
BRANCH   9  18
ATOM     18  O   LIG d   1       2.232  -0.761  -4.342  0.00  0.00    -0.506 OA
ATOM     19  H   LIG d   1       2.389  -1.802  -4.662  0.00  0.00     0.292 HD
ENDBRANCH   9  18
ENDBRANCH   5   8
ENDBRANCH   1   4
BRANCH   1  20
ATOM     20  C   LIG d   1       4.713  -2.669  -6.033  0.00  0.00     0.201 C 
ATOM     21  H   LIG d   1       5.496  -3.252  -6.540  0.00  0.00     0.109 H 
ATOM     22  H   LIG d   1       3.768  -3.233  -6.048  0.00  0.00     0.109 H 
BRANCH  20  23
ATOM     23  N   LIG d   1       4.529  -1.392  -6.729  0.00  0.00    -0.241 N 
ATOM     24  C   LIG d   1       4.068  -1.374  -7.938  0.00  0.00     0.171 C 
ATOM     25  H   LIG d   1       3.814  -2.318  -8.444  0.00  0.00     0.138 H 
ATOM     26  H   LIG d   1       4.784  -0.448  -6.223  0.00  0.00     0.445 HD
BRANCH  24  27
ATOM     27  C   LIG d   1       3.884  -0.091  -8.638  0.00  0.00     0.030 A 
ATOM     28  C   LIG d   1       3.279   0.990  -7.981  0.00  0.00    -0.095 A 
ATOM     29  C   LIG d   1       3.105   2.191  -8.652  0.00  0.00    -0.069 A 
ATOM     30  O   LIG d   1       2.861   0.859  -6.696  0.00  0.00    -0.873 OA
ATOM     31  C   LIG d   1       3.532   2.323  -9.959  0.00  0.00    -0.062 A 
ATOM     32  H   LIG d   1       2.635   3.025  -8.150  0.00  0.00     0.061 H 
ATOM     33  C   LIG d   1       4.135   1.260 -10.608  0.00  0.00    -0.061 A 
ATOM     34  H   LIG d   1       3.393   3.260 -10.476  0.00  0.00     0.062 H 
ATOM     35  C   LIG d   1       4.316   0.059  -9.957  0.00  0.00    -0.050 A 
ATOM     36  H   LIG d   1       4.466   1.373 -11.631  0.00  0.00     0.062 H 
ATOM     37  H   LIG d   1       4.787  -0.768 -10.469  0.00  0.00     0.062 H 
ENDBRANCH  24  27
ENDBRANCH  20  23
ENDBRANCH   1  20
TORSDOF 6
ENDMDL
MODEL 2
REMARK VINA RESULT:      -6.9      1.551      6.092
REMARK  6 active torsions:
REMARK  status: ('A' for Active; 'I' for Inactive)
REMARK    1  A    between atoms: C_4  and  O_20 
REMARK    2  A    between atoms: C_5  and  C_7 
REMARK    3  A    between atoms: N_8  and  C_9 
REMARK    4  A    between atoms: C_9  and  C_10 
REMARK    5  A    between atoms: C_10  and  N_11 
REMARK    6  A    between atoms: C_12  and  C_13 
ROOT
ATOM      1  C   LIG d   1       4.180  -2.579  -8.857  0.00  0.00     0.201 C 
ATOM      2  H   LIG d   1       4.917  -2.958  -9.579  0.00  0.00     0.109 H 
ATOM      3  H   LIG d   1       4.372  -1.514  -8.661  0.00  0.00     0.109 H 
ENDROOT
BRANCH   1   4
ATOM      4  N   LIG d   1       2.832  -2.738  -9.407  0.00  0.00    -0.241 N 
ATOM      5  C   LIG d   1       2.091  -1.698  -9.618  0.00  0.00     0.175 C 
ATOM      6  H   LIG d   1       1.015  -1.818  -9.813  0.00  0.00     0.138 H 
ATOM      7  H   LIG d   1       2.448  -3.742  -9.641  0.00  0.00     0.445 HD
BRANCH   5   8
ATOM      8  C   LIG d   1       2.689  -0.351  -9.596  0.00  0.00     0.079 A 
ATOM      9  C   LIG d   1       2.770   0.365  -8.394  0.00  0.00     0.130 A 
ATOM     10  C   LIG d   1       3.334   1.632  -8.385  0.00  0.00    -0.019 A 
ATOM     11  C   LIG d   1       3.816   2.183  -9.556  0.00  0.00    -0.058 A 
ATOM     12  H   LIG d   1       3.399   2.187  -7.462  0.00  0.00     0.065 H 
ATOM     13  C   LIG d   1       3.738   1.479 -10.747  0.00  0.00    -0.061 A 
ATOM     14  H   LIG d   1       4.256   3.169  -9.545  0.00  0.00     0.062 H 
ATOM     15  C   LIG d   1       3.184   0.217 -10.773  0.00  0.00    -0.045 A 
ATOM     16  H   LIG d   1       4.118   1.918 -11.658  0.00  0.00     0.062 H 
ATOM     17  H   LIG d   1       3.129  -0.330 -11.702  0.00  0.00     0.063 H 
BRANCH   9  18
ATOM     18  O   LIG d   1       2.297  -0.178  -7.244  0.00  0.00    -0.506 OA
ATOM     19  H   LIG d   1       2.975  -0.344  -6.394  0.00  0.00     0.292 HD
ENDBRANCH   9  18
ENDBRANCH   5   8
ENDBRANCH   1   4
BRANCH   1  20
ATOM     20  C   LIG d   1       4.293  -3.366  -7.550  0.00  0.00     0.201 C 
ATOM     21  H   LIG d   1       3.509  -4.136  -7.516  0.00  0.00     0.109 H 
ATOM     22  H   LIG d   1       5.282  -3.846  -7.495  0.00  0.00     0.109 H 
BRANCH  20  23
ATOM     23  N   LIG d   1       4.131  -2.454  -6.414  0.00  0.00    -0.241 N 
ATOM     24  C   LIG d   1       4.779  -2.668  -5.315  0.00  0.00     0.171 C 
ATOM     25  H   LIG d   1       5.452  -3.534  -5.233  0.00  0.00     0.138 H 
ATOM     26  H   LIG d   1       3.456  -1.588  -6.497  0.00  0.00     0.445 HD
BRANCH  24  27
ATOM     27  C   LIG d   1       4.614  -1.752  -4.173  0.00  0.00     0.030 A 
ATOM     28  C   LIG d   1       4.681  -0.365  -4.366  0.00  0.00    -0.095 A 
ATOM     29  C   LIG d   1       4.532   0.488  -3.282  0.00  0.00    -0.069 A 
ATOM     30  O   LIG d   1       4.897   0.141  -5.607  0.00  0.00    -0.873 OA
ATOM     31  C   LIG d   1       4.312  -0.028  -2.020  0.00  0.00    -0.062 A 
ATOM     32  H   LIG d   1       4.588   1.557  -3.427  0.00  0.00     0.061 H 
ATOM     33  C   LIG d   1       4.239  -1.397  -1.827  0.00  0.00    -0.061 A 
ATOM     34  H   LIG d   1       4.197   0.640  -1.180  0.00  0.00     0.062 H 
ATOM     35  C   LIG d   1       4.385  -2.259  -2.892  0.00  0.00    -0.050 A 
ATOM     36  H   LIG d   1       4.066  -1.791  -0.835  0.00  0.00     0.062 H 
ATOM     37  H   LIG d   1       4.328  -3.327  -2.735  0.00  0.00     0.062 H 
ENDBRANCH  24  27
ENDBRANCH  20  23
ENDBRANCH   1  20
TORSDOF 6
ENDMDL
MODEL 3
REMARK VINA RESULT:      -6.7      2.498      5.203
REMARK  6 active torsions:
REMARK  status: ('A' for Active; 'I' for Inactive)
REMARK    1  A    between atoms: C_4  and  O_20 
REMARK    2  A    between atoms: C_5  and  C_7 
REMARK    3  A    between atoms: N_8  and  C_9 
REMARK    4  A    between atoms: C_9  and  C_10 
REMARK    5  A    between atoms: C_10  and  N_11 
REMARK    6  A    between atoms: C_12  and  C_13 
ROOT
ATOM      1  C   LIG d   1       3.892  -0.445  -6.259  0.00  0.00     0.201 C 
ATOM      2  H   LIG d   1       4.663   0.326  -6.406  0.00  0.00     0.109 H 
ATOM      3  H   LIG d   1       4.171  -1.085  -5.410  0.00  0.00     0.109 H 
ENDROOT
BRANCH   1   4
ATOM      4  N   LIG d   1       2.606   0.198  -5.984  0.00  0.00    -0.241 N 
ATOM      5  C   LIG d   1       2.140   0.225  -4.776  0.00  0.00     0.175 C 
ATOM      6  H   LIG d   1       1.090   0.498  -4.597  0.00  0.00     0.138 H 
ATOM      7  H   LIG d   1       2.034   0.659  -6.803  0.00  0.00     0.445 HD
BRANCH   5   8
ATOM      8  C   LIG d   1       3.017  -0.113  -3.640  0.00  0.00     0.079 A 
ATOM      9  C   LIG d   1       3.737   0.892  -2.982  0.00  0.00     0.130 A 
ATOM     10  C   LIG d   1       4.559   0.562  -1.916  0.00  0.00    -0.019 A 
ATOM     11  C   LIG d   1       4.665  -0.751  -1.503  0.00  0.00    -0.058 A 
ATOM     12  H   LIG d   1       5.116   1.333  -1.405  0.00  0.00     0.065 H 
ATOM     13  C   LIG d   1       3.955  -1.749  -2.151  0.00  0.00    -0.061 A 
ATOM     14  H   LIG d   1       5.306  -1.003  -0.671  0.00  0.00     0.062 H 
ATOM     15  C   LIG d   1       3.130  -1.438  -3.211  0.00  0.00    -0.045 A 
ATOM     16  H   LIG d   1       4.044  -2.774  -1.822  0.00  0.00     0.062 H 
ATOM     17  H   LIG d   1       2.575  -2.218  -3.710  0.00  0.00     0.063 H 
BRANCH   9  18
ATOM     18  O   LIG d   1       3.632   2.183  -3.388  0.00  0.00    -0.506 OA
ATOM     19  H   LIG d   1       4.312   2.575  -4.158  0.00  0.00     0.292 HD
ENDBRANCH   9  18
ENDBRANCH   5   8
ENDBRANCH   1   4
BRANCH   1  20
ATOM     20  C   LIG d   1       3.775  -1.298  -7.523  0.00  0.00     0.201 C 
ATOM     21  H   LIG d   1       2.715  -1.418  -7.789  0.00  0.00     0.109 H 
ATOM     22  H   LIG d   1       4.307  -0.804  -8.350  0.00  0.00     0.109 H 
BRANCH  20  23
ATOM     23  N   LIG d   1       4.369  -2.616  -7.280  0.00  0.00    -0.241 N 
ATOM     24  C   LIG d   1       4.817  -2.917  -6.105  0.00  0.00     0.171 C 
ATOM     25  H   LIG d   1       4.753  -2.184  -5.287  0.00  0.00     0.138 H 
ATOM     26  H   LIG d   1       4.434  -3.349  -8.099  0.00  0.00     0.445 HD
BRANCH  24  27
ATOM     27  C   LIG d   1       5.415  -4.242  -5.861  0.00  0.00     0.030 A 
ATOM     28  C   LIG d   1       4.622  -5.396  -5.927  0.00  0.00    -0.095 A 
ATOM     29  C   LIG d   1       5.194  -6.637  -5.689  0.00  0.00    -0.069 A 
ATOM     30  O   LIG d   1       3.299  -5.299  -6.215  0.00  0.00    -0.873 OA
ATOM     31  C   LIG d   1       6.540  -6.734  -5.395  0.00  0.00    -0.062 A 
ATOM     32  H   LIG d   1       4.585  -7.528  -5.733  0.00  0.00     0.061 H 
ATOM     33  C   LIG d   1       7.328  -5.597  -5.336  0.00  0.00    -0.061 A 
ATOM     34  H   LIG d   1       6.980  -7.702  -5.210  0.00  0.00     0.062 H 
ATOM     35  C   LIG d   1       6.776  -4.356  -5.569  0.00  0.00    -0.050 A 
ATOM     36  H   LIG d   1       8.380  -5.683  -5.106  0.00  0.00     0.062 H 
ATOM     37  H   LIG d   1       7.395  -3.471  -5.521  0.00  0.00     0.062 H 
ENDBRANCH  24  27
ENDBRANCH  20  23
ENDBRANCH   1  20
TORSDOF 6
ENDMDL
MODEL 4
REMARK VINA RESULT:      -6.7      2.270      6.643
REMARK  6 active torsions:
REMARK  status: ('A' for Active; 'I' for Inactive)
REMARK    1  A    between atoms: C_4  and  O_20 
REMARK    2  A    between atoms: C_5  and  C_7 
REMARK    3  A    between atoms: N_8  and  C_9 
REMARK    4  A    between atoms: C_9  and  C_10 
REMARK    5  A    between atoms: C_10  and  N_11 
REMARK    6  A    between atoms: C_12  and  C_13 
ROOT
ATOM      1  C   LIG d   1       6.350   0.795  -8.610  0.00  0.00     0.201 C 
ATOM      2  H   LIG d   1       5.504   0.095  -8.554  0.00  0.00     0.109 H 
ATOM      3  H   LIG d   1       6.974   0.546  -9.481  0.00  0.00     0.109 H 
ENDROOT
BRANCH   1   4
ATOM      4  N   LIG d   1       5.843   2.162  -8.747  0.00  0.00    -0.241 N 
ATOM      5  C   LIG d   1       4.685   2.373  -9.286  0.00  0.00     0.175 C 
ATOM      6  H   LIG d   1       4.398   3.389  -9.596  0.00  0.00     0.138 H 
ATOM      7  H   LIG d   1       6.446   3.011  -8.393  0.00  0.00     0.445 HD
BRANCH   5   8
ATOM      8  C   LIG d   1       3.750   1.251  -9.486  0.00  0.00     0.079 A 
ATOM      9  C   LIG d   1       3.057   0.707  -8.396  0.00  0.00     0.130 A 
ATOM     10  C   LIG d   1       2.181  -0.348  -8.595  0.00  0.00    -0.019 A 
ATOM     11  C   LIG d   1       1.990  -0.859  -9.864  0.00  0.00    -0.058 A 
ATOM     12  H   LIG d   1       1.645  -0.770  -7.759  0.00  0.00     0.065 H 
ATOM     13  C   LIG d   1       2.673  -0.325 -10.945  0.00  0.00    -0.061 A 
ATOM     14  H   LIG d   1       1.305  -1.681 -10.015  0.00  0.00     0.062 H 
ATOM     15  C   LIG d   1       3.545   0.728 -10.765  0.00  0.00    -0.045 A 
ATOM     16  H   LIG d   1       2.517  -0.731 -11.934  0.00  0.00     0.062 H 
ATOM     17  H   LIG d   1       4.071   1.143 -11.611  0.00  0.00     0.063 H 
BRANCH   9  18
ATOM     18  O   LIG d   1       3.245   1.211  -7.150  0.00  0.00    -0.506 OA
ATOM     19  H   LIG d   1       2.390   1.604  -6.580  0.00  0.00     0.292 HD
ENDBRANCH   9  18
ENDBRANCH   5   8
ENDBRANCH   1   4
BRANCH   1  20
ATOM     20  C   LIG d   1       7.188   0.687  -7.336  0.00  0.00     0.201 C 
ATOM     21  H   LIG d   1       7.906  -0.139  -7.437  0.00  0.00     0.109 H 
ATOM     22  H   LIG d   1       7.734   1.629  -7.175  0.00  0.00     0.109 H 
BRANCH  20  23
ATOM     23  N   LIG d   1       6.308   0.432  -6.192  0.00  0.00    -0.241 N 
ATOM     24  C   LIG d   1       6.732  -0.275  -5.195  0.00  0.00     0.171 C 
ATOM     25  H   LIG d   1       7.753  -0.685  -5.206  0.00  0.00     0.138 H 
ATOM     26  H   LIG d   1       5.287   0.842  -6.182  0.00  0.00     0.445 HD
BRANCH  24  27
ATOM     27  C   LIG d   1       5.847  -0.533  -4.045  0.00  0.00     0.030 A 
ATOM     28  C   LIG d   1       5.613   0.473  -3.096  0.00  0.00    -0.095 A 
ATOM     29  C   LIG d   1       4.784   0.217  -2.014  0.00  0.00    -0.069 A 
ATOM     30  O   LIG d   1       6.201   1.689  -3.233  0.00  0.00    -0.873 OA
ATOM     31  C   LIG d   1       4.187  -1.021  -1.877  0.00  0.00    -0.062 A 
ATOM     32  H   LIG d   1       4.606   0.987  -1.279  0.00  0.00     0.061 H 
ATOM     33  C   LIG d   1       4.410  -2.014  -2.816  0.00  0.00    -0.061 A 
ATOM     34  H   LIG d   1       3.542  -1.215  -1.033  0.00  0.00     0.062 H 
ATOM     35  C   LIG d   1       5.232  -1.777  -3.897  0.00  0.00    -0.050 A 
ATOM     36  H   LIG d   1       3.938  -2.979  -2.700  0.00  0.00     0.062 H 
ATOM     37  H   LIG d   1       5.403  -2.556  -4.626  0.00  0.00     0.062 H 
ENDBRANCH  24  27
ENDBRANCH  20  23
ENDBRANCH   1  20
TORSDOF 6
ENDMDL
MODEL 5
REMARK VINA RESULT:      -6.4      5.605      7.474
REMARK  6 active torsions:
REMARK  status: ('A' for Active; 'I' for Inactive)
REMARK    1  A    between atoms: C_4  and  O_20 
REMARK    2  A    between atoms: C_5  and  C_7 
REMARK    3  A    between atoms: N_8  and  C_9 
REMARK    4  A    between atoms: C_9  and  C_10 
REMARK    5  A    between atoms: C_10  and  N_11 
REMARK    6  A    between atoms: C_12  and  C_13 
ROOT
ATOM      1  C   LIG d   1       8.947   2.233  -3.581  0.00  0.00     0.201 C 
ATOM      2  H   LIG d   1       8.680   1.431  -2.877  0.00  0.00     0.109 H 
ATOM      3  H   LIG d   1       8.719   3.208  -3.127  0.00  0.00     0.109 H 
ENDROOT
BRANCH   1   4
ATOM      4  N   LIG d   1      10.378   2.159  -3.885  0.00  0.00    -0.241 N 
ATOM      5  C   LIG d   1      11.082   3.242  -3.958  0.00  0.00     0.175 C 
ATOM      6  H   LIG d   1      12.088   3.217  -4.401  0.00  0.00     0.138 H 
ATOM      7  H   LIG d   1      10.854   1.182  -4.052  0.00  0.00     0.445 HD
BRANCH   5   8
ATOM      8  C   LIG d   1      10.535   4.512  -3.447  0.00  0.00     0.079 A 
ATOM      9  C   LIG d   1      10.631   4.825  -2.084  0.00  0.00     0.130 A 
ATOM     10  C   LIG d   1      10.112   6.022  -1.616  0.00  0.00    -0.019 A 
ATOM     11  C   LIG d   1       9.505   6.903  -2.489  0.00  0.00    -0.058 A 
ATOM     12  H   LIG d   1      10.184   6.267  -0.567  0.00  0.00     0.065 H 
ATOM     13  C   LIG d   1       9.408   6.598  -3.837  0.00  0.00    -0.061 A 
ATOM     14  H   LIG d   1       9.104   7.835  -2.119  0.00  0.00     0.062 H 
ATOM     15  C   LIG d   1       9.922   5.415  -4.321  0.00  0.00    -0.045 A 
ATOM     16  H   LIG d   1       8.932   7.294  -4.512  0.00  0.00     0.062 H 
ATOM     17  H   LIG d   1       9.847   5.183  -5.373  0.00  0.00     0.063 H 
BRANCH   9  18
ATOM     18  O   LIG d   1      11.228   3.958  -1.228  0.00  0.00    -0.506 OA
ATOM     19  H   LIG d   1      11.206   2.878  -1.433  0.00  0.00     0.292 HD
ENDBRANCH   9  18
ENDBRANCH   5   8
ENDBRANCH   1   4
BRANCH   1  20
ATOM     20  C   LIG d   1       8.142   2.071  -4.870  0.00  0.00     0.201 C 
ATOM     21  H   LIG d   1       7.886   3.062  -5.271  0.00  0.00     0.109 H 
ATOM     22  H   LIG d   1       8.742   1.520  -5.611  0.00  0.00     0.109 H 
BRANCH  20  23
ATOM     23  N   LIG d   1       6.912   1.325  -4.589  0.00  0.00    -0.241 N 
ATOM     24  C   LIG d   1       6.708   0.835  -3.409  0.00  0.00     0.171 C 
ATOM     25  H   LIG d   1       7.459   0.976  -2.618  0.00  0.00     0.138 H 
ATOM     26  H   LIG d   1       6.162   1.183  -5.382  0.00  0.00     0.445 HD
BRANCH  24  27
ATOM     27  C   LIG d   1       5.472   0.084  -3.127  0.00  0.00     0.030 A 
ATOM     28  C   LIG d   1       4.240   0.752  -3.069  0.00  0.00    -0.095 A 
ATOM     29  C   LIG d   1       3.084   0.037  -2.795  0.00  0.00    -0.069 A 
ATOM     30  O   LIG d   1       4.181   2.092  -3.274  0.00  0.00    -0.873 OA
ATOM     31  C   LIG d   1       3.146  -1.327  -2.587  0.00  0.00    -0.062 A 
ATOM     32  H   LIG d   1       2.134   0.548  -2.745  0.00  0.00     0.061 H 
ATOM     33  C   LIG d   1       4.360  -1.991  -2.650  0.00  0.00    -0.061 A 
ATOM     34  H   LIG d   1       2.243  -1.879  -2.374  0.00  0.00     0.062 H 
ATOM     35  C   LIG d   1       5.519  -1.296  -2.920  0.00  0.00    -0.050 A 
ATOM     36  H   LIG d   1       4.398  -3.058  -2.486  0.00  0.00     0.062 H 
ATOM     37  H   LIG d   1       6.463  -1.818  -2.967  0.00  0.00     0.062 H 
ENDBRANCH  24  27
ENDBRANCH  20  23
ENDBRANCH   1  20
TORSDOF 6
ENDMDL
MODEL 6
REMARK VINA RESULT:      -6.3      2.596      3.532
REMARK  6 active torsions:
REMARK  status: ('A' for Active; 'I' for Inactive)
REMARK    1  A    between atoms: C_4  and  O_20 
REMARK    2  A    between atoms: C_5  and  C_7 
REMARK    3  A    between atoms: N_8  and  C_9 
REMARK    4  A    between atoms: C_9  and  C_10 
REMARK    5  A    between atoms: C_10  and  N_11 
REMARK    6  A    between atoms: C_12  and  C_13 
ROOT
ATOM      1  C   LIG d   1       3.887  -0.361  -6.303  0.00  0.00     0.201 C 
ATOM      2  H   LIG d   1       4.539  -0.188  -5.435  0.00  0.00     0.109 H 
ATOM      3  H   LIG d   1       3.802  -1.442  -6.487  0.00  0.00     0.109 H 
ENDROOT
BRANCH   1   4
ATOM      4  N   LIG d   1       2.559   0.193  -6.033  0.00  0.00    -0.241 N 
ATOM      5  C   LIG d   1       2.085   0.183  -4.828  0.00  0.00     0.175 C 
ATOM      6  H   LIG d   1       1.018   0.385  -4.654  0.00  0.00     0.138 H 
ATOM      7  H   LIG d   1       1.963   0.618  -6.853  0.00  0.00     0.445 HD
BRANCH   5   8
ATOM      8  C   LIG d   1       2.976  -0.100  -3.688  0.00  0.00     0.079 A 
ATOM      9  C   LIG d   1       3.654   0.944  -3.046  0.00  0.00     0.130 A 
ATOM     10  C   LIG d   1       4.490   0.665  -1.976  0.00  0.00    -0.019 A 
ATOM     11  C   LIG d   1       4.651  -0.636  -1.543  0.00  0.00    -0.058 A 
ATOM     12  H   LIG d   1       5.015   1.467  -1.478  0.00  0.00     0.065 H 
ATOM     13  C   LIG d   1       3.983  -1.672  -2.175  0.00  0.00    -0.061 A 
ATOM     14  H   LIG d   1       5.302  -0.849  -0.708  0.00  0.00     0.062 H 
ATOM     15  C   LIG d   1       3.144  -1.413  -3.238  0.00  0.00    -0.045 A 
ATOM     16  H   LIG d   1       4.114  -2.687  -1.830  0.00  0.00     0.062 H 
ATOM     17  H   LIG d   1       2.622  -2.223  -3.725  0.00  0.00     0.063 H 
BRANCH   9  18
ATOM     18  O   LIG d   1       3.495   2.223  -3.471  0.00  0.00    -0.506 OA
ATOM     19  H   LIG d   1       3.159   2.423  -4.499  0.00  0.00     0.292 HD
ENDBRANCH   9  18
ENDBRANCH   5   8
ENDBRANCH   1   4
BRANCH   1  20
ATOM     20  C   LIG d   1       4.483   0.320  -7.535  0.00  0.00     0.201 C 
ATOM     21  H   LIG d   1       4.166   1.373  -7.563  0.00  0.00     0.109 H 
ATOM     22  H   LIG d   1       5.581   0.270  -7.488  0.00  0.00     0.109 H 
BRANCH  20  23
ATOM     23  N   LIG d   1       4.016  -0.362  -8.746  0.00  0.00    -0.241 N 
ATOM     24  C   LIG d   1       3.145   0.208  -9.514  0.00  0.00     0.171 C 
ATOM     25  H   LIG d   1       2.755   1.205  -9.259  0.00  0.00     0.138 H 
ATOM     26  H   LIG d   1       4.405  -1.359  -9.000  0.00  0.00     0.445 HD
BRANCH  24  27
ATOM     27  C   LIG d   1       2.674  -0.478 -10.730  0.00  0.00     0.030 A 
ATOM     28  C   LIG d   1       3.545  -0.672 -11.811  0.00  0.00    -0.095 A 
ATOM     29  C   LIG d   1       3.089  -1.313 -12.954  0.00  0.00    -0.069 A 
ATOM     30  O   LIG d   1       4.826  -0.230 -11.743  0.00  0.00    -0.873 OA
ATOM     31  C   LIG d   1       1.785  -1.763 -13.022  0.00  0.00    -0.062 A 
ATOM     32  H   LIG d   1       3.756  -1.460 -13.791  0.00  0.00     0.061 H 
ATOM     33  C   LIG d   1       0.924  -1.579 -11.953  0.00  0.00    -0.061 A 
ATOM     34  H   LIG d   1       1.435  -2.261 -13.914  0.00  0.00     0.062 H 
ATOM     35  C   LIG d   1       1.360  -0.944 -10.810  0.00  0.00    -0.050 A 
ATOM     36  H   LIG d   1      -0.094  -1.935 -12.016  0.00  0.00     0.062 H 
ATOM     37  H   LIG d   1       0.684  -0.802  -9.980  0.00  0.00     0.062 H 
ENDBRANCH  24  27
ENDBRANCH  20  23
ENDBRANCH   1  20
TORSDOF 6
ENDMDL
MODEL 7
REMARK VINA RESULT:      -6.2      1.358      5.845
REMARK  6 active torsions:
REMARK  status: ('A' for Active; 'I' for Inactive)
REMARK    1  A    between atoms: C_4  and  O_20 
REMARK    2  A    between atoms: C_5  and  C_7 
REMARK    3  A    between atoms: N_8  and  C_9 
REMARK    4  A    between atoms: C_9  and  C_10 
REMARK    5  A    between atoms: C_10  and  N_11 
REMARK    6  A    between atoms: C_12  and  C_13 
ROOT
ATOM      1  C   LIG d   1       5.414  -2.000  -8.521  0.00  0.00     0.201 C 
ATOM      2  H   LIG d   1       6.205  -2.243  -9.244  0.00  0.00     0.109 H 
ATOM      3  H   LIG d   1       5.268  -0.910  -8.489  0.00  0.00     0.109 H 
ENDROOT
BRANCH   1   4
ATOM      4  N   LIG d   1       4.165  -2.648  -8.928  0.00  0.00    -0.241 N 
ATOM      5  C   LIG d   1       3.091  -1.943  -9.083  0.00  0.00     0.175 C 
ATOM      6  H   LIG d   1       2.113  -2.441  -9.165  0.00  0.00     0.138 H 
ATOM      7  H   LIG d   1       4.140  -3.734  -9.101  0.00  0.00     0.445 HD
BRANCH   5   8
ATOM      8  C   LIG d   1       3.177  -0.473  -9.149  0.00  0.00     0.079 A 
ATOM      9  C   LIG d   1       2.919   0.301  -8.009  0.00  0.00     0.130 A 
ATOM     10  C   LIG d   1       3.003   1.682  -8.084  0.00  0.00    -0.019 A 
ATOM     11  C   LIG d   1       3.340   2.293  -9.275  0.00  0.00    -0.058 A 
ATOM     12  H   LIG d   1       2.806   2.282  -7.208  0.00  0.00     0.065 H 
ATOM     13  C   LIG d   1       3.595   1.532 -10.405  0.00  0.00    -0.061 A 
ATOM     14  H   LIG d   1       3.406   3.370  -9.328  0.00  0.00     0.062 H 
ATOM     15  C   LIG d   1       3.521   0.157 -10.348  0.00  0.00    -0.045 A 
ATOM     16  H   LIG d   1       3.859   2.018 -11.333  0.00  0.00     0.062 H 
ATOM     17  H   LIG d   1       3.725  -0.432 -11.230  0.00  0.00     0.063 H 
BRANCH   9  18
ATOM     18  O   LIG d   1       2.589  -0.301  -6.839  0.00  0.00    -0.506 OA
ATOM     19  H   LIG d   1       3.157  -0.075  -5.925  0.00  0.00     0.292 HD
ENDBRANCH   9  18
ENDBRANCH   5   8
ENDBRANCH   1   4
BRANCH   1  20
ATOM     20  C   LIG d   1       5.819  -2.500  -7.133  0.00  0.00     0.201 C 
ATOM     21  H   LIG d   1       5.471  -3.535  -6.999  0.00  0.00     0.109 H 
ATOM     22  H   LIG d   1       6.915  -2.468  -7.037  0.00  0.00     0.109 H 
BRANCH  20  23
ATOM     23  N   LIG d   1       5.214  -1.645  -6.109  0.00  0.00    -0.241 N 
ATOM     24  C   LIG d   1       5.843  -1.418  -5.001  0.00  0.00     0.171 C 
ATOM     25  H   LIG d   1       6.832  -1.868  -4.828  0.00  0.00     0.138 H 
ATOM     26  H   LIG d   1       4.224  -1.196  -6.282  0.00  0.00     0.445 HD
BRANCH  24  27
ATOM     27  C   LIG d   1       5.234  -0.559  -3.970  0.00  0.00     0.030 A 
ATOM     28  C   LIG d   1       3.924  -0.804  -3.533  0.00  0.00    -0.095 A 
ATOM     29  C   LIG d   1       3.359   0.016  -2.568  0.00  0.00    -0.069 A 
ATOM     30  O   LIG d   1       3.211  -1.833  -4.057  0.00  0.00    -0.873 OA
ATOM     31  C   LIG d   1       4.085   1.063  -2.035  0.00  0.00    -0.062 A 
ATOM     32  H   LIG d   1       2.348  -0.166  -2.232  0.00  0.00     0.061 H 
ATOM     33  C   LIG d   1       5.381   1.303  -2.460  0.00  0.00    -0.061 A 
ATOM     34  H   LIG d   1       3.640   1.698  -1.284  0.00  0.00     0.062 H 
ATOM     35  C   LIG d   1       5.959   0.499  -3.419  0.00  0.00    -0.050 A 
ATOM     36  H   LIG d   1       5.942   2.124  -2.037  0.00  0.00     0.062 H 
ATOM     37  H   LIG d   1       6.970   0.691  -3.747  0.00  0.00     0.062 H 
ENDBRANCH  24  27
ENDBRANCH  20  23
ENDBRANCH   1  20
TORSDOF 6
ENDMDL
MODEL 8
REMARK VINA RESULT:      -6.2      2.711      5.365
REMARK  6 active torsions:
REMARK  status: ('A' for Active; 'I' for Inactive)
REMARK    1  A    between atoms: C_4  and  O_20 
REMARK    2  A    between atoms: C_5  and  C_7 
REMARK    3  A    between atoms: N_8  and  C_9 
REMARK    4  A    between atoms: C_9  and  C_10 
REMARK    5  A    between atoms: C_10  and  N_11 
REMARK    6  A    between atoms: C_12  and  C_13 
ROOT
ATOM      1  C   LIG d   1       4.160  -0.110  -6.264  0.00  0.00     0.201 C 
ATOM      2  H   LIG d   1       4.687   0.626  -6.889  0.00  0.00     0.109 H 
ATOM      3  H   LIG d   1       4.680  -0.211  -5.300  0.00  0.00     0.109 H 
ENDROOT
BRANCH   1   4
ATOM      4  N   LIG d   1       2.786   0.341  -6.033  0.00  0.00    -0.241 N 
ATOM      5  C   LIG d   1       2.246   0.200  -4.866  0.00  0.00     0.175 C 
ATOM      6  H   LIG d   1       1.160   0.323  -4.743  0.00  0.00     0.138 H 
ATOM      7  H   LIG d   1       2.213   0.799  -6.852  0.00  0.00     0.445 HD
BRANCH   5   8
ATOM      8  C   LIG d   1       3.086  -0.128  -3.699  0.00  0.00     0.079 A 
ATOM      9  C   LIG d   1       3.732   0.892  -2.987  0.00  0.00     0.130 A 
ATOM     10  C   LIG d   1       4.520   0.572  -1.892  0.00  0.00    -0.019 A 
ATOM     11  C   LIG d   1       4.666  -0.746  -1.505  0.00  0.00    -0.058 A 
ATOM     12  H   LIG d   1       5.020   1.353  -1.340  0.00  0.00     0.065 H 
ATOM     13  C   LIG d   1       4.029  -1.757  -2.206  0.00  0.00    -0.061 A 
ATOM     14  H   LIG d   1       5.279  -0.990  -0.650  0.00  0.00     0.062 H 
ATOM     15  C   LIG d   1       3.238  -1.456  -3.294  0.00  0.00    -0.045 A 
ATOM     16  H   LIG d   1       4.148  -2.785  -1.896  0.00  0.00     0.062 H 
ATOM     17  H   LIG d   1       2.740  -2.247  -3.836  0.00  0.00     0.063 H 
BRANCH   9  18
ATOM     18  O   LIG d   1       3.588   2.186  -3.368  0.00  0.00    -0.506 OA
ATOM     19  H   LIG d   1       4.475   2.823  -3.501  0.00  0.00     0.292 HD
ENDBRANCH   9  18
ENDBRANCH   5   8
ENDBRANCH   1   4
BRANCH   1  20
ATOM     20  C   LIG d   1       4.140  -1.463  -6.976  0.00  0.00     0.201 C 
ATOM     21  H   LIG d   1       3.118  -1.870  -6.964  0.00  0.00     0.109 H 
ATOM     22  H   LIG d   1       4.472  -1.336  -8.018  0.00  0.00     0.109 H 
BRANCH  20  23
ATOM     23  N   LIG d   1       5.042  -2.392  -6.288  0.00  0.00    -0.241 N 
ATOM     24  C   LIG d   1       6.195  -1.982  -5.869  0.00  0.00     0.171 C 
ATOM     25  H   LIG d   1       6.499  -0.937  -6.029  0.00  0.00     0.138 H 
ATOM     26  H   LIG d   1       4.738  -3.437  -6.129  0.00  0.00     0.445 HD
BRANCH  24  27
ATOM     27  C   LIG d   1       7.102  -2.916  -5.178  0.00  0.00     0.030 A 
ATOM     28  C   LIG d   1       7.421  -4.150  -5.761  0.00  0.00    -0.095 A 
ATOM     29  C   LIG d   1       8.270  -5.024  -5.098  0.00  0.00    -0.069 A 
ATOM     30  O   LIG d   1       6.896  -4.491  -6.965  0.00  0.00    -0.873 OA
ATOM     31  C   LIG d   1       8.804  -4.676  -3.873  0.00  0.00    -0.062 A 
ATOM     32  H   LIG d   1       8.514  -5.978  -5.542  0.00  0.00     0.061 H 
ATOM     33  C   LIG d   1       8.496  -3.454  -3.298  0.00  0.00    -0.061 A 
ATOM     34  H   LIG d   1       9.464  -5.360  -3.362  0.00  0.00     0.062 H 
ATOM     35  C   LIG d   1       7.654  -2.574  -3.941  0.00  0.00    -0.050 A 
ATOM     36  H   LIG d   1       8.920  -3.191  -2.338  0.00  0.00     0.062 H 
ATOM     37  H   LIG d   1       7.417  -1.623  -3.487  0.00  0.00     0.062 H 
ENDBRANCH  24  27
ENDBRANCH  20  23
ENDBRANCH   1  20
TORSDOF 6
ENDMDL
MODEL 9
REMARK VINA RESULT:      -6.2      6.400      8.315
REMARK  6 active torsions:
REMARK  status: ('A' for Active; 'I' for Inactive)
REMARK    1  A    between atoms: C_4  and  O_20 
REMARK    2  A    between atoms: C_5  and  C_7 
REMARK    3  A    between atoms: N_8  and  C_9 
REMARK    4  A    between atoms: C_9  and  C_10 
REMARK    5  A    between atoms: C_10  and  N_11 
REMARK    6  A    between atoms: C_12  and  C_13 
ROOT
ATOM      1  C   LIG d   1      10.027   2.974  -3.094  0.00  0.00     0.201 C 
ATOM      2  H   LIG d   1       9.699   2.668  -2.090  0.00  0.00     0.109 H 
ATOM      3  H   LIG d   1       9.582   3.948  -3.344  0.00  0.00     0.109 H 
ENDROOT
BRANCH   1   4
ATOM      4  N   LIG d   1      11.487   3.084  -3.116  0.00  0.00    -0.241 N 
ATOM      5  C   LIG d   1      12.052   4.239  -2.967  0.00  0.00     0.175 C 
ATOM      6  H   LIG d   1      13.118   4.366  -3.204  0.00  0.00     0.138 H 
ATOM      7  H   LIG d   1      12.105   2.185  -3.260  0.00  0.00     0.445 HD
BRANCH   5   8
ATOM      8  C   LIG d   1      11.265   5.387  -2.478  0.00  0.00     0.079 A 
ATOM      9  C   LIG d   1      10.994   5.525  -1.111  0.00  0.00     0.130 A 
ATOM     10  C   LIG d   1      10.253   6.608  -0.663  0.00  0.00    -0.019 A 
ATOM     11  C   LIG d   1       9.786   7.547  -1.562  0.00  0.00    -0.058 A 
ATOM     12  H   LIG d   1      10.041   6.718   0.389  0.00  0.00     0.065 H 
ATOM     13  C   LIG d   1      10.052   7.414  -2.916  0.00  0.00    -0.061 A 
ATOM     14  H   LIG d   1       9.210   8.389  -1.209  0.00  0.00     0.062 H 
ATOM     15  C   LIG d   1      10.791   6.346  -3.377  0.00  0.00    -0.045 A 
ATOM     16  H   LIG d   1       9.683   8.153  -3.611  0.00  0.00     0.062 H 
ATOM     17  H   LIG d   1      11.000   6.249  -4.432  0.00  0.00     0.063 H 
BRANCH   9  18
ATOM     18  O   LIG d   1      11.453   4.602  -0.228  0.00  0.00    -0.506 OA
ATOM     19  H   LIG d   1      12.087   4.914   0.614  0.00  0.00     0.292 HD
ENDBRANCH   9  18
ENDBRANCH   5   8
ENDBRANCH   1   4
BRANCH   1  20
ATOM     20  C   LIG d   1       9.579   1.931  -4.118  0.00  0.00     0.201 C 
ATOM     21  H   LIG d   1       9.198   2.438  -5.016  0.00  0.00     0.109 H 
ATOM     22  H   LIG d   1      10.434   1.294  -4.392  0.00  0.00     0.109 H 
BRANCH  20  23
ATOM     23  N   LIG d   1       8.518   1.101  -3.540  0.00  0.00    -0.241 N 
ATOM     24  C   LIG d   1       7.277   1.399  -3.749  0.00  0.00     0.171 C 
ATOM     25  H   LIG d   1       7.017   2.276  -4.361  0.00  0.00     0.138 H 
ATOM     26  H   LIG d   1       8.779   0.225  -2.927  0.00  0.00     0.445 HD
BRANCH  24  27
ATOM     27  C   LIG d   1       6.210   0.566  -3.166  0.00  0.00     0.030 A 
ATOM     28  C   LIG d   1       6.258  -0.830  -3.294  0.00  0.00    -0.095 A 
ATOM     29  C   LIG d   1       5.245  -1.604  -2.748  0.00  0.00    -0.069 A 
ATOM     30  O   LIG d   1       7.286  -1.420  -3.954  0.00  0.00    -0.873 OA
ATOM     31  C   LIG d   1       4.199  -1.002  -2.076  0.00  0.00    -0.062 A 
ATOM     32  H   LIG d   1       5.275  -2.679  -2.848  0.00  0.00     0.061 H 
ATOM     33  C   LIG d   1       4.153   0.375  -1.942  0.00  0.00    -0.061 A 
ATOM     34  H   LIG d   1       3.413  -1.609  -1.653  0.00  0.00     0.062 H 
ATOM     35  C   LIG d   1       5.150   1.160  -2.479  0.00  0.00    -0.050 A 
ATOM     36  H   LIG d   1       3.330   0.837  -1.414  0.00  0.00     0.062 H 
ATOM     37  H   LIG d   1       5.109   2.234  -2.372  0.00  0.00     0.062 H 
ENDBRANCH  24  27
ENDBRANCH  20  23
ENDBRANCH   1  20
TORSDOF 6
ENDMDL
