MODEL 1
REMARK VINA RESULT:      -6.6      0.000      0.000
REMARK  5 active torsions:
REMARK  status: ('A' for Active; 'I' for Inactive)
REMARK    1  A    between atoms: C_1  and  C_2 
REMARK    2  A    between atoms: C_2  and  C_3 
REMARK    3  A    between atoms: N_23  and  C_26 
REMARK    4  A    between atoms: C_29  and  O_32 
REMARK    5  A    between atoms: O_32  and  C_33 
ROOT
ATOM      1  C   LIG d   1       5.003  -0.756  -7.255  0.00  0.00     0.033 C 
ATOM      2  C   LIG d   1       4.353  -0.498  -5.905  0.00  0.00    -0.032 A 
ATOM      3  C   LIG d   1       4.951  -0.714  -4.696  0.00  0.00    -0.057 A 
ATOM      4  C   LIG d   1       4.238  -0.435  -3.537  0.00  0.00    -0.061 A 
ATOM      5  C   LIG d   1       2.947   0.053  -3.609  0.00  0.00    -0.061 A 
ATOM      6  C   LIG d   1       2.344   0.271  -4.842  0.00  0.00    -0.058 A 
ATOM      7  C   LIG d   1       3.051  -0.005  -5.977  0.00  0.00    -0.035 A 
ATOM      8  C   LIG d   1       2.528   0.181  -7.393  0.00  0.00     0.022 C 
ATOM      9  C   LIG d   1       3.566   1.044  -8.093  0.00  0.00    -0.035 A 
ATOM     10  C   LIG d   1       4.868   0.550  -8.021  0.00  0.00    -0.032 A 
ATOM     11  C   LIG d   1       5.903   1.223  -8.605  0.00  0.00    -0.057 A 
ATOM     12  C   LIG d   1       5.636   2.410  -9.275  0.00  0.00    -0.061 A 
ATOM     13  C   LIG d   1       4.345   2.899  -9.347  0.00  0.00    -0.061 A 
ATOM     14  C   LIG d   1       3.298   2.210  -8.750  0.00  0.00    -0.058 A 
ATOM     15  C   LIG d   1       2.633  -1.209  -8.057  0.00  0.00     0.059 A 
ATOM     16  H   LIG d   1       1.919  -1.904  -7.616  0.00  0.00     0.041 H 
ATOM     17  C   LIG d   1       4.089  -1.760  -7.990  0.00  0.00     0.062 A 
ATOM     18  H   LIG d   1       4.111  -2.734  -7.502  0.00  0.00     0.041 H 
ATOM     19  C   LIG d   1       4.536  -1.853  -9.433  0.00  0.00     0.231 A 
ATOM     20  O   LIG d   1       5.624  -2.234  -9.809  0.00  0.00    -0.275 OA
ATOM     21  N   LIG d   1       3.538  -1.448 -10.230  0.00  0.00    -0.210 N 
ATOM     22  C   LIG d   1       2.394  -1.055  -9.543  0.00  0.00     0.231 A 
ATOM     23  O   LIG d   1       1.372  -0.648 -10.051  0.00  0.00    -0.275 OA
ATOM     24  H   LIG d   1       5.960  -1.096  -4.643  0.00  0.00     0.062 H 
ATOM     25  H   LIG d   1       4.696  -0.599  -2.573  0.00  0.00     0.062 H 
ATOM     26  H   LIG d   1       2.402   0.267  -2.701  0.00  0.00     0.062 H 
ATOM     27  H   LIG d   1       1.336   0.652  -4.901  0.00  0.00     0.062 H 
ATOM     28  H   LIG d   1       1.526   0.610  -7.425  0.00  0.00     0.041 H 
ATOM     29  H   LIG d   1       6.911   0.839  -8.547  0.00  0.00     0.062 H 
ATOM     30  H   LIG d   1       6.442   2.955  -9.744  0.00  0.00     0.062 H 
ATOM     31  H   LIG d   1       4.150   3.824  -9.870  0.00  0.00     0.062 H 
ATOM     32  H   LIG d   1       2.288   2.590  -8.805  0.00  0.00     0.062 H 
ENDROOT
BRANCH  21  33
ATOM     33  C   LIG d   1       3.646  -1.419 -11.628  0.00  0.00     0.044 A 
ATOM     34  C   LIG d   1       4.211  -0.319 -12.259  0.00  0.00    -0.036 A 
ATOM     35  C   LIG d   1       4.322  -0.294 -13.635  0.00  0.00    -0.018 A 
ATOM     36  H   LIG d   1       4.568   0.515 -11.672  0.00  0.00     0.064 H 
ATOM     37  C   LIG d   1       3.859  -1.362 -14.388  0.00  0.00     0.120 A 
ATOM     38  H   LIG d   1       4.766   0.561 -14.124  0.00  0.00     0.066 H 
ATOM     39  C   LIG d   1       3.289  -2.460 -13.760  0.00  0.00    -0.018 A 
ATOM     40  C   LIG d   1       3.183  -2.489 -12.382  0.00  0.00    -0.036 A 
ATOM     41  H   LIG d   1       2.929  -3.293 -14.346  0.00  0.00     0.066 H 
ATOM     42  H   LIG d   1       2.740  -3.343 -11.893  0.00  0.00     0.064 H 
BRANCH  37  43
ATOM     43  O   LIG d   1       3.962  -1.334 -15.743  0.00  0.00    -0.495 OA
BRANCH  43  44
ATOM     44  C   LIG d   1       4.018  -0.047 -16.363  0.00  0.00     0.079 C 
ATOM     45  H   LIG d   1       4.481   0.665 -15.681  0.00  0.00     0.066 H 
ATOM     46  H   LIG d   1       4.607  -0.111 -17.278  0.00  0.00     0.066 H 
ATOM     47  H   LIG d   1       3.008   0.283 -16.605  0.00  0.00     0.066 H 
ENDBRANCH  43  44
ENDBRANCH  37  43
ENDBRANCH  21  33
BRANCH   1  48
ATOM     48  C   LIG d   1       6.451  -1.236  -7.140  0.00  0.00    -0.041 C 
ATOM     49  H   LIG d   1       6.994  -0.591  -6.448  0.00  0.00     0.027 H 
ATOM     50  H   LIG d   1       6.925  -1.198  -8.121  0.00  0.00     0.027 H 
BRANCH  48  51
ATOM     51  C   LIG d   1       6.472  -2.674  -6.618  0.00  0.00    -0.064 C 
ATOM     52  H   LIG d   1       5.552  -3.181  -6.912  0.00  0.00     0.023 H 
ATOM     53  H   LIG d   1       7.328  -3.201  -7.039  0.00  0.00     0.023 H 
ATOM     54  H   LIG d   1       6.551  -2.665  -5.530  0.00  0.00     0.023 H 
ENDBRANCH  48  51
ENDBRANCH   1  48
TORSDOF 5
ENDMDL
MODEL 2
REMARK VINA RESULT:      -6.2      4.425      7.903
REMARK  5 active torsions:
REMARK  status: ('A' for Active; 'I' for Inactive)
REMARK    1  A    between atoms: C_1  and  C_2 
REMARK    2  A    between atoms: C_2  and  C_3 
REMARK    3  A    between atoms: N_23  and  C_26 
REMARK    4  A    between atoms: C_29  and  O_32 
REMARK    5  A    between atoms: O_32  and  C_33 
ROOT
ATOM      1  C   LIG d   1       5.665  -0.722  -4.114  0.00  0.00     0.033 C 
ATOM      2  C   LIG d   1       4.498  -0.346  -5.012  0.00  0.00    -0.032 A 
ATOM      3  C   LIG d   1       3.254   0.005  -4.570  0.00  0.00    -0.057 A 
ATOM      4  C   LIG d   1       2.277   0.325  -5.504  0.00  0.00    -0.061 A 
ATOM      5  C   LIG d   1       2.561   0.288  -6.856  0.00  0.00    -0.061 A 
ATOM      6  C   LIG d   1       3.828  -0.070  -7.300  0.00  0.00    -0.058 A 
ATOM      7  C   LIG d   1       4.785  -0.383  -6.376  0.00  0.00    -0.035 A 
ATOM      8  C   LIG d   1       6.211  -0.792  -6.707  0.00  0.00     0.022 C 
ATOM      9  C   LIG d   1       7.094   0.150  -5.905  0.00  0.00    -0.035 A 
ATOM     10  C   LIG d   1       6.807   0.186  -4.540  0.00  0.00    -0.032 A 
ATOM     11  C   LIG d   1       7.521   0.990  -3.698  0.00  0.00    -0.057 A 
ATOM     12  C   LIG d   1       8.541   1.772  -4.224  0.00  0.00    -0.061 A 
ATOM     13  C   LIG d   1       8.826   1.736  -5.576  0.00  0.00    -0.061 A 
ATOM     14  C   LIG d   1       8.095   0.917  -6.427  0.00  0.00    -0.058 A 
ATOM     15  C   LIG d   1       6.401  -2.183  -6.062  0.00  0.00     0.059 A 
ATOM     16  H   LIG d   1       5.801  -2.933  -6.575  0.00  0.00     0.041 H 
ATOM     17  C   LIG d   1       6.094  -2.145  -4.535  0.00  0.00     0.062 A 
ATOM     18  H   LIG d   1       5.325  -2.874  -4.277  0.00  0.00     0.041 H 
ATOM     19  C   LIG d   1       7.412  -2.471  -3.866  0.00  0.00     0.231 A 
ATOM     20  O   LIG d   1       7.596  -2.534  -2.669  0.00  0.00    -0.275 OA
ATOM     21  N   LIG d   1       8.343  -2.680  -4.805  0.00  0.00    -0.210 N 
ATOM     22  C   LIG d   1       7.871  -2.540  -6.106  0.00  0.00     0.231 A 
ATOM     23  O   LIG d   1       8.530  -2.676  -7.114  0.00  0.00    -0.275 OA
ATOM     24  H   LIG d   1       3.035   0.032  -3.513  0.00  0.00     0.062 H 
ATOM     25  H   LIG d   1       1.289   0.606  -5.172  0.00  0.00     0.062 H 
ATOM     26  H   LIG d   1       1.794   0.538  -7.573  0.00  0.00     0.062 H 
ATOM     27  H   LIG d   1       4.053  -0.101  -8.355  0.00  0.00     0.062 H 
ATOM     28  H   LIG d   1       6.425  -0.770  -7.776  0.00  0.00     0.041 H 
ATOM     29  H   LIG d   1       7.296   1.017  -2.642  0.00  0.00     0.062 H 
ATOM     30  H   LIG d   1       9.116   2.413  -3.572  0.00  0.00     0.062 H 
ATOM     31  H   LIG d   1       9.621   2.350  -5.974  0.00  0.00     0.062 H 
ATOM     32  H   LIG d   1       8.316   0.887  -7.485  0.00  0.00     0.062 H 
ENDROOT
BRANCH  21  33
ATOM     33  C   LIG d   1       9.673  -3.003  -4.498  0.00  0.00     0.044 A 
ATOM     34  C   LIG d   1       9.989  -4.271  -4.029  0.00  0.00    -0.036 A 
ATOM     35  C   LIG d   1      11.299  -4.591  -3.732  0.00  0.00    -0.018 A 
ATOM     36  H   LIG d   1       9.210  -5.008  -3.900  0.00  0.00     0.064 H 
ATOM     37  C   LIG d   1      12.298  -3.642  -3.892  0.00  0.00     0.120 A 
ATOM     38  H   LIG d   1      11.544  -5.579  -3.371  0.00  0.00     0.066 H 
ATOM     39  C   LIG d   1      11.983  -2.373  -4.356  0.00  0.00    -0.018 A 
ATOM     40  C   LIG d   1      10.673  -2.054  -4.658  0.00  0.00    -0.036 A 
ATOM     41  H   LIG d   1      12.761  -1.634  -4.482  0.00  0.00     0.066 H 
ATOM     42  H   LIG d   1      10.428  -1.067  -5.020  0.00  0.00     0.064 H 
BRANCH  37  43
ATOM     43  O   LIG d   1      13.586  -3.955  -3.594  0.00  0.00    -0.495 OA
BRANCH  43  44
ATOM     44  C   LIG d   1      13.911  -5.344  -3.495  0.00  0.00     0.079 C 
ATOM     45  H   LIG d   1      13.020  -5.905  -3.213  0.00  0.00     0.066 H 
ATOM     46  H   LIG d   1      14.275  -5.701  -4.459  0.00  0.00     0.066 H 
ATOM     47  H   LIG d   1      14.684  -5.484  -2.741  0.00  0.00     0.066 H 
ENDBRANCH  43  44
ENDBRANCH  37  43
ENDBRANCH  21  33
BRANCH   1  48
ATOM     48  C   LIG d   1       5.335  -0.611  -2.625  0.00  0.00    -0.041 C 
ATOM     49  H   LIG d   1       4.873   0.356  -2.426  0.00  0.00     0.027 H 
ATOM     50  H   LIG d   1       6.252  -0.703  -2.042  0.00  0.00     0.027 H 
BRANCH  48  51
ATOM     51  C   LIG d   1       4.366  -1.728  -2.232  0.00  0.00    -0.064 C 
ATOM     52  H   LIG d   1       3.651  -1.890  -3.039  0.00  0.00     0.023 H 
ATOM     53  H   LIG d   1       4.924  -2.647  -2.052  0.00  0.00     0.023 H 
ATOM     54  H   LIG d   1       3.833  -1.444  -1.325  0.00  0.00     0.023 H 
ENDBRANCH  48  51
ENDBRANCH   1  48
TORSDOF 5
ENDMDL
MODEL 3
REMARK VINA RESULT:      -6.1      4.459      7.360
REMARK  5 active torsions:
REMARK  status: ('A' for Active; 'I' for Inactive)
REMARK    1  A    between atoms: C_1  and  C_2 
REMARK    2  A    between atoms: C_2  and  C_3 
REMARK    3  A    between atoms: N_23  and  C_26 
REMARK    4  A    between atoms: C_29  and  O_32 
REMARK    5  A    between atoms: O_32  and  C_33 
ROOT
ATOM      1  C   LIG d   1       6.768  -3.112  -5.221  0.00  0.00     0.033 C 
ATOM      2  C   LIG d   1       5.796  -4.047  -5.924  0.00  0.00    -0.032 A 
ATOM      3  C   LIG d   1       5.825  -5.409  -5.840  0.00  0.00    -0.057 A 
ATOM      4  C   LIG d   1       4.874  -6.143  -6.538  0.00  0.00    -0.061 A 
ATOM      5  C   LIG d   1       3.917  -5.503  -7.302  0.00  0.00    -0.061 A 
ATOM      6  C   LIG d   1       3.893  -4.116  -7.383  0.00  0.00    -0.058 A 
ATOM      7  C   LIG d   1       4.831  -3.401  -6.695  0.00  0.00    -0.035 A 
ATOM      8  C   LIG d   1       4.932  -1.884  -6.686  0.00  0.00     0.022 C 
ATOM      9  C   LIG d   1       4.929  -1.490  -5.217  0.00  0.00    -0.035 A 
ATOM     10  C   LIG d   1       5.896  -2.136  -4.447  0.00  0.00    -0.032 A 
ATOM     11  C   LIG d   1       6.008  -1.881  -3.110  0.00  0.00    -0.057 A 
ATOM     12  C   LIG d   1       5.142  -0.963  -2.529  0.00  0.00    -0.061 A 
ATOM     13  C   LIG d   1       4.185  -0.323  -3.293  0.00  0.00    -0.061 A 
ATOM     14  C   LIG d   1       4.076  -0.588  -4.652  0.00  0.00    -0.058 A 
ATOM     15  C   LIG d   1       6.354  -1.563  -7.195  0.00  0.00     0.059 A 
ATOM     16  H   LIG d   1       6.454  -1.813  -8.251  0.00  0.00     0.041 H 
ATOM     17  C   LIG d   1       7.439  -2.272  -6.330  0.00  0.00     0.062 A 
ATOM     18  H   LIG d   1       8.083  -2.894  -6.952  0.00  0.00     0.041 H 
ATOM     19  C   LIG d   1       8.215  -1.146  -5.681  0.00  0.00     0.231 A 
ATOM     20  O   LIG d   1       9.148  -1.284  -4.918  0.00  0.00    -0.275 OA
ATOM     21  N   LIG d   1       7.709   0.026  -6.083  0.00  0.00    -0.210 N 
ATOM     22  C   LIG d   1       6.633  -0.095  -6.957  0.00  0.00     0.231 A 
ATOM     23  O   LIG d   1       6.015   0.826  -7.446  0.00  0.00    -0.275 OA
ATOM     24  H   LIG d   1       6.574  -5.907  -5.242  0.00  0.00     0.062 H 
ATOM     25  H   LIG d   1       4.881  -7.221  -6.481  0.00  0.00     0.062 H 
ATOM     26  H   LIG d   1       3.183  -6.083  -7.840  0.00  0.00     0.062 H 
ATOM     27  H   LIG d   1       3.147  -3.613  -7.980  0.00  0.00     0.062 H 
ATOM     28  H   LIG d   1       4.140  -1.400  -7.258  0.00  0.00     0.041 H 
ATOM     29  H   LIG d   1       6.757  -2.383  -2.515  0.00  0.00     0.062 H 
ATOM     30  H   LIG d   1       5.218  -0.748  -1.473  0.00  0.00     0.062 H 
ATOM     31  H   LIG d   1       3.516   0.388  -2.830  0.00  0.00     0.062 H 
ATOM     32  H   LIG d   1       3.328  -0.089  -5.251  0.00  0.00     0.062 H 
ENDROOT
BRANCH  21  33
ATOM     33  C   LIG d   1       8.217   1.261  -5.653  0.00  0.00     0.044 A 
ATOM     34  C   LIG d   1       9.009   2.021  -6.503  0.00  0.00    -0.036 A 
ATOM     35  C   LIG d   1       9.505   3.238  -6.082  0.00  0.00    -0.018 A 
ATOM     36  H   LIG d   1       9.233   1.660  -7.497  0.00  0.00     0.064 H 
ATOM     37  C   LIG d   1       9.222   3.698  -4.805  0.00  0.00     0.120 A 
ATOM     38  H   LIG d   1      10.117   3.830  -6.746  0.00  0.00     0.066 H 
ATOM     39  C   LIG d   1       8.435   2.937  -3.951  0.00  0.00    -0.018 A 
ATOM     40  C   LIG d   1       7.934   1.721  -4.375  0.00  0.00    -0.036 A 
ATOM     41  H   LIG d   1       8.214   3.296  -2.957  0.00  0.00     0.066 H 
ATOM     42  H   LIG d   1       7.321   1.130  -3.711  0.00  0.00     0.064 H 
BRANCH  37  43
ATOM     43  O   LIG d   1       9.715   4.894  -4.387  0.00  0.00    -0.495 OA
BRANCH  43  44
ATOM     44  C   LIG d   1       9.942   5.048  -2.984  0.00  0.00     0.079 C 
ATOM     45  H   LIG d   1       9.011   5.331  -2.495  0.00  0.00     0.066 H 
ATOM     46  H   LIG d   1      10.300   4.105  -2.569  0.00  0.00     0.066 H 
ATOM     47  H   LIG d   1      10.690   5.822  -2.820  0.00  0.00     0.066 H 
ENDBRANCH  43  44
ENDBRANCH  37  43
ENDBRANCH  21  33
BRANCH   1  48
ATOM     48  C   LIG d   1       7.774  -3.849  -4.336  0.00  0.00    -0.041 C 
ATOM     49  H   LIG d   1       7.246  -4.565  -3.704  0.00  0.00     0.027 H 
ATOM     50  H   LIG d   1       8.301  -3.130  -3.709  0.00  0.00     0.027 H 
BRANCH  48  51
ATOM     51  C   LIG d   1       8.780  -4.592  -5.217  0.00  0.00    -0.064 C 
ATOM     52  H   LIG d   1       8.251  -5.300  -5.856  0.00  0.00     0.023 H 
ATOM     53  H   LIG d   1       9.320  -3.876  -5.836  0.00  0.00     0.023 H 
ATOM     54  H   LIG d   1       9.487  -5.131  -4.585  0.00  0.00     0.023 H 
ENDBRANCH  48  51
ENDBRANCH   1  48
TORSDOF 5
ENDMDL
MODEL 4
REMARK VINA RESULT:      -6.1      2.113      7.086
REMARK  5 active torsions:
REMARK  status: ('A' for Active; 'I' for Inactive)
REMARK    1  A    between atoms: C_1  and  C_2 
REMARK    2  A    between atoms: C_2  and  C_3 
REMARK    3  A    between atoms: N_23  and  C_26 
REMARK    4  A    between atoms: C_29  and  O_32 
REMARK    5  A    between atoms: O_32  and  C_33 
ROOT
ATOM      1  C   LIG d   1       3.119  -1.631 -10.999  0.00  0.00     0.033 C 
ATOM      2  C   LIG d   1       3.480  -1.396 -12.457  0.00  0.00    -0.032 A 
ATOM      3  C   LIG d   1       2.715  -1.777 -13.522  0.00  0.00    -0.057 A 
ATOM      4  C   LIG d   1       3.168  -1.498 -14.805  0.00  0.00    -0.061 A 
ATOM      5  C   LIG d   1       4.371  -0.846 -14.997  0.00  0.00    -0.061 A 
ATOM      6  C   LIG d   1       5.145  -0.460 -13.910  0.00  0.00    -0.058 A 
ATOM      7  C   LIG d   1       4.693  -0.737 -12.650  0.00  0.00    -0.035 A 
ATOM      8  C   LIG d   1       5.426  -0.379 -11.367  0.00  0.00     0.022 C 
ATOM      9  C   LIG d   1       4.418   0.395 -10.533  0.00  0.00    -0.035 A 
ATOM     10  C   LIG d   1       3.204  -0.264 -10.339  0.00  0.00    -0.032 A 
ATOM     11  C   LIG d   1       2.205   0.314  -9.610  0.00  0.00    -0.057 A 
ATOM     12  C   LIG d   1       2.418   1.573  -9.062  0.00  0.00    -0.061 A 
ATOM     13  C   LIG d   1       3.620   2.226  -9.255  0.00  0.00    -0.061 A 
ATOM     14  C   LIG d   1       4.632   1.632  -9.998  0.00  0.00    -0.058 A 
ATOM     15  C   LIG d   1       5.633  -1.717 -10.624  0.00  0.00     0.059 A 
ATOM     16  H   LIG d   1       6.348  -2.347 -11.152  0.00  0.00     0.041 H 
ATOM     17  C   LIG d   1       4.278  -2.452 -10.393  0.00  0.00     0.062 A 
ATOM     18  H   LIG d   1       4.306  -3.456 -10.818  0.00  0.00     0.041 H 
ATOM     19  C   LIG d   1       4.109  -2.492  -8.890  0.00  0.00     0.231 A 
ATOM     20  O   LIG d   1       3.168  -2.978  -8.301  0.00  0.00    -0.275 OA
ATOM     21  N   LIG d   1       5.165  -1.904  -8.312  0.00  0.00    -0.210 N 
ATOM     22  C   LIG d   1       6.105  -1.421  -9.218  0.00  0.00     0.231 A 
ATOM     23  O   LIG d   1       7.134  -0.850  -8.927  0.00  0.00    -0.275 OA
ATOM     24  H   LIG d   1       1.776  -2.287 -13.368  0.00  0.00     0.062 H 
ATOM     25  H   LIG d   1       2.575  -1.792 -15.658  0.00  0.00     0.062 H 
ATOM     26  H   LIG d   1       4.713  -0.635 -15.999  0.00  0.00     0.062 H 
ATOM     27  H   LIG d   1       6.085   0.049 -14.056  0.00  0.00     0.062 H 
ATOM     28  H   LIG d   1       6.348   0.174 -11.542  0.00  0.00     0.041 H 
ATOM     29  H   LIG d   1       1.265  -0.198  -9.461  0.00  0.00     0.062 H 
ATOM     30  H   LIG d   1       1.638   2.044  -8.482  0.00  0.00     0.062 H 
ATOM     31  H   LIG d   1       3.774   3.205  -8.825  0.00  0.00     0.062 H 
ATOM     32  H   LIG d   1       5.574   2.141 -10.150  0.00  0.00     0.062 H 
ENDROOT
BRANCH  21  33
ATOM     33  C   LIG d   1       5.301  -1.783  -6.922  0.00  0.00     0.044 A 
ATOM     34  C   LIG d   1       5.900  -2.801  -6.191  0.00  0.00    -0.036 A 
ATOM     35  C   LIG d   1       6.039  -2.679  -4.823  0.00  0.00    -0.018 A 
ATOM     36  H   LIG d   1       6.261  -3.686  -6.695  0.00  0.00     0.064 H 
ATOM     37  C   LIG d   1       5.571  -1.546  -4.176  0.00  0.00     0.120 A 
ATOM     38  H   LIG d   1       6.509  -3.469  -4.256  0.00  0.00     0.066 H 
ATOM     39  C   LIG d   1       4.967  -0.530  -4.904  0.00  0.00    -0.018 A 
ATOM     40  C   LIG d   1       4.833  -0.649  -6.274  0.00  0.00    -0.036 A 
ATOM     41  H   LIG d   1       4.603   0.353  -4.400  0.00  0.00     0.066 H 
ATOM     42  H   LIG d   1       4.364   0.142  -6.840  0.00  0.00     0.064 H 
BRANCH  37  43
ATOM     43  O   LIG d   1       5.702  -1.429  -2.828  0.00  0.00    -0.495 OA
BRANCH  43  44
ATOM     44  C   LIG d   1       4.510  -1.549  -2.048  0.00  0.00     0.079 C 
ATOM     45  H   LIG d   1       3.742  -0.891  -2.454  0.00  0.00     0.066 H 
ATOM     46  H   LIG d   1       4.159  -2.580  -2.078  0.00  0.00     0.066 H 
ATOM     47  H   LIG d   1       4.721  -1.267  -1.017  0.00  0.00     0.066 H 
ENDBRANCH  43  44
ENDBRANCH  37  43
ENDBRANCH  21  33
BRANCH   1  48
ATOM     48  C   LIG d   1       1.755  -2.299 -10.820  0.00  0.00    -0.041 C 
ATOM     49  H   LIG d   1       1.016  -1.788 -11.439  0.00  0.00     0.027 H 
ATOM     50  H   LIG d   1       1.455  -2.239  -9.774  0.00  0.00     0.027 H 
BRANCH  48  51
ATOM     51  C   LIG d   1       1.846  -3.767 -11.242  0.00  0.00    -0.064 C 
ATOM     52  H   LIG d   1       2.598  -3.874 -12.023  0.00  0.00     0.023 H 
ATOM     53  H   LIG d   1       2.124  -4.376 -10.382  0.00  0.00     0.023 H 
ATOM     54  H   LIG d   1       0.878  -4.096 -11.621  0.00  0.00     0.023 H 
ENDBRANCH  48  51
ENDBRANCH   1  48
TORSDOF 5
ENDMDL
MODEL 5
REMARK VINA RESULT:      -6.1     11.362     14.425
REMARK  5 active torsions:
REMARK  status: ('A' for Active; 'I' for Inactive)
REMARK    1  A    between atoms: C_1  and  C_2 
REMARK    2  A    between atoms: C_2  and  C_3 
REMARK    3  A    between atoms: N_23  and  C_26 
REMARK    4  A    between atoms: C_29  and  O_32 
REMARK    5  A    between atoms: O_32  and  C_33 
ROOT
ATOM      1  C   LIG d   1      10.588   6.649  -3.981  0.00  0.00     0.033 C 
ATOM      2  C   LIG d   1      10.212   5.210  -4.297  0.00  0.00    -0.032 A 
ATOM      3  C   LIG d   1       9.865   4.747  -5.533  0.00  0.00    -0.057 A 
ATOM      4  C   LIG d   1       9.543   3.403  -5.679  0.00  0.00    -0.061 A 
ATOM      5  C   LIG d   1       9.574   2.553  -4.590  0.00  0.00    -0.061 A 
ATOM      6  C   LIG d   1       9.928   3.031  -3.334  0.00  0.00    -0.058 A 
ATOM      7  C   LIG d   1      10.244   4.353  -3.198  0.00  0.00    -0.035 A 
ATOM      8  C   LIG d   1      10.649   5.019  -1.893  0.00  0.00     0.022 C 
ATOM      9  C   LIG d   1      11.970   5.710  -2.188  0.00  0.00    -0.035 A 
ATOM     10  C   LIG d   1      11.938   6.568  -3.287  0.00  0.00    -0.032 A 
ATOM     11  C   LIG d   1      13.055   7.255  -3.670  0.00  0.00    -0.057 A 
ATOM     12  C   LIG d   1      14.226   7.085  -2.943  0.00  0.00    -0.061 A 
ATOM     13  C   LIG d   1      14.258   6.235  -1.854  0.00  0.00    -0.061 A 
ATOM     14  C   LIG d   1      13.119   5.539  -1.471  0.00  0.00    -0.058 A 
ATOM     15  C   LIG d   1       9.628   6.158  -1.678  0.00  0.00     0.059 A 
ATOM     16  H   LIG d   1       8.640   5.757  -1.458  0.00  0.00     0.041 H 
ATOM     17  C   LIG d   1       9.597   7.128  -2.898  0.00  0.00     0.062 A 
ATOM     18  H   LIG d   1       8.588   7.207  -3.303  0.00  0.00     0.041 H 
ATOM     19  C   LIG d   1      10.080   8.454  -2.353  0.00  0.00     0.231 A 
ATOM     20  O   LIG d   1      10.208   9.474  -2.996  0.00  0.00    -0.275 OA
ATOM     21  N   LIG d   1      10.345   8.323  -1.046  0.00  0.00    -0.210 N 
ATOM     22  C   LIG d   1      10.119   7.042  -0.552  0.00  0.00     0.231 A 
ATOM     23  O   LIG d   1      10.293   6.688   0.594  0.00  0.00    -0.275 OA
ATOM     24  H   LIG d   1       9.841   5.413  -6.383  0.00  0.00     0.062 H 
ATOM     25  H   LIG d   1       9.268   3.020  -6.650  0.00  0.00     0.062 H 
ATOM     26  H   LIG d   1       9.321   1.511  -4.714  0.00  0.00     0.062 H 
ATOM     27  H   LIG d   1       9.953   2.370  -2.481  0.00  0.00     0.062 H 
ATOM     28  H   LIG d   1      10.710   4.321  -1.058  0.00  0.00     0.041 H 
ATOM     29  H   LIG d   1      13.027   7.919  -4.522  0.00  0.00     0.062 H 
ATOM     30  H   LIG d   1      15.118   7.622  -3.231  0.00  0.00     0.062 H 
ATOM     31  H   LIG d   1      15.175   6.110  -1.297  0.00  0.00     0.062 H 
ATOM     32  H   LIG d   1      13.141   4.874  -0.620  0.00  0.00     0.062 H 
ENDROOT
BRANCH  21  33
ATOM     33  C   LIG d   1      10.812   9.383  -0.256  0.00  0.00     0.044 A 
ATOM     34  C   LIG d   1      12.161   9.471   0.062  0.00  0.00    -0.036 A 
ATOM     35  C   LIG d   1      12.621  10.517   0.837  0.00  0.00    -0.018 A 
ATOM     36  H   LIG d   1      12.850   8.722  -0.300  0.00  0.00     0.064 H 
ATOM     37  C   LIG d   1      11.735  11.474   1.306  0.00  0.00     0.120 A 
ATOM     38  H   LIG d   1      13.671  10.587   1.079  0.00  0.00     0.066 H 
ATOM     39  C   LIG d   1      10.386  11.386   0.994  0.00  0.00    -0.018 A 
ATOM     40  C   LIG d   1       9.926  10.342   0.215  0.00  0.00    -0.036 A 
ATOM     41  H   LIG d   1       9.696  12.132   1.359  0.00  0.00     0.066 H 
ATOM     42  H   LIG d   1       8.876  10.273  -0.029  0.00  0.00     0.064 H 
BRANCH  37  43
ATOM     43  O   LIG d   1      12.188  12.501   2.074  0.00  0.00    -0.495 OA
BRANCH  43  44
ATOM     44  C   LIG d   1      13.293  12.227   2.938  0.00  0.00     0.079 C 
ATOM     45  H   LIG d   1      14.055  12.995   2.807  0.00  0.00     0.066 H 
ATOM     46  H   LIG d   1      12.952  12.226   3.973  0.00  0.00     0.066 H 
ATOM     47  H   LIG d   1      13.712  11.252   2.693  0.00  0.00     0.066 H 
ENDBRANCH  43  44
ENDBRANCH  37  43
ENDBRANCH  21  33
BRANCH   1  48
ATOM     48  C   LIG d   1      10.603   7.548  -5.218  0.00  0.00    -0.041 C 
ATOM     49  H   LIG d   1      11.166   7.061  -6.015  0.00  0.00     0.027 H 
ATOM     50  H   LIG d   1      11.074   8.500  -4.971  0.00  0.00     0.027 H 
BRANCH  48  51
ATOM     51  C   LIG d   1       9.168   7.797  -5.687  0.00  0.00    -0.064 C 
ATOM     52  H   LIG d   1       8.942   8.860  -5.617  0.00  0.00     0.023 H 
ATOM     53  H   LIG d   1       9.061   7.470  -6.721  0.00  0.00     0.023 H 
ATOM     54  H   LIG d   1       8.478   7.235  -5.056  0.00  0.00     0.023 H 
ENDBRANCH  48  51
ENDBRANCH   1  48
TORSDOF 5
ENDMDL
MODEL 6
REMARK VINA RESULT:      -6.0      3.369      6.347
REMARK  5 active torsions:
REMARK  status: ('A' for Active; 'I' for Inactive)
REMARK    1  A    between atoms: C_1  and  C_2 
REMARK    2  A    between atoms: C_2  and  C_3 
REMARK    3  A    between atoms: N_23  and  C_26 
REMARK    4  A    between atoms: C_29  and  O_32 
REMARK    5  A    between atoms: O_32  and  C_33 
ROOT
ATOM      1  C   LIG d   1       7.520  -4.449  -5.521  0.00  0.00     0.033 C 
ATOM      2  C   LIG d   1       8.421  -4.895  -4.381  0.00  0.00    -0.032 A 
ATOM      3  C   LIG d   1       8.818  -6.182  -4.157  0.00  0.00    -0.057 A 
ATOM      4  C   LIG d   1       9.645  -6.449  -3.073  0.00  0.00    -0.061 A 
ATOM      5  C   LIG d   1      10.058  -5.427  -2.239  0.00  0.00    -0.061 A 
ATOM      6  C   LIG d   1       9.652  -4.119  -2.473  0.00  0.00    -0.058 A 
ATOM      7  C   LIG d   1       8.838  -3.864  -3.540  0.00  0.00    -0.035 A 
ATOM      8  C   LIG d   1       8.313  -2.490  -3.923  0.00  0.00     0.022 C 
ATOM      9  C   LIG d   1       8.699  -2.305  -5.382  0.00  0.00    -0.035 A 
ATOM     10  C   LIG d   1       8.281  -3.336  -6.223  0.00  0.00    -0.032 A 
ATOM     11  C   LIG d   1       8.560  -3.302  -7.559  0.00  0.00    -0.057 A 
ATOM     12  C   LIG d   1       9.266  -2.220  -8.069  0.00  0.00    -0.061 A 
ATOM     13  C   LIG d   1       9.681  -1.199  -7.235  0.00  0.00    -0.061 A 
ATOM     14  C   LIG d   1       9.394  -1.240  -5.877  0.00  0.00    -0.058 A 
ATOM     15  C   LIG d   1       6.774  -2.622  -3.918  0.00  0.00     0.059 A 
ATOM     16  H   LIG d   1       6.400  -2.759  -2.904  0.00  0.00     0.041 H 
ATOM     17  C   LIG d   1       6.301  -3.764  -4.866  0.00  0.00     0.062 A 
ATOM     18  H   LIG d   1       5.693  -4.488  -4.324  0.00  0.00     0.041 H 
ATOM     19  C   LIG d   1       5.500  -3.067  -5.945  0.00  0.00     0.231 A 
ATOM     20  O   LIG d   1       4.963  -3.612  -6.885  0.00  0.00    -0.275 OA
ATOM     21  N   LIG d   1       5.479  -1.751  -5.697  0.00  0.00    -0.210 N 
ATOM     22  C   LIG d   1       6.181  -1.383  -4.553  0.00  0.00     0.231 A 
ATOM     23  O   LIG d   1       6.303  -0.252  -4.135  0.00  0.00    -0.275 OA
ATOM     24  H   LIG d   1       8.493  -6.978  -4.810  0.00  0.00     0.062 H 
ATOM     25  H   LIG d   1       9.969  -7.461  -2.882  0.00  0.00     0.062 H 
ATOM     26  H   LIG d   1      10.701  -5.646  -1.400  0.00  0.00     0.062 H 
ATOM     27  H   LIG d   1       9.972  -3.319  -1.823  0.00  0.00     0.062 H 
ATOM     28  H   LIG d   1       8.688  -1.694  -3.279  0.00  0.00     0.041 H 
ATOM     29  H   LIG d   1       8.235  -4.102  -8.209  0.00  0.00     0.062 H 
ATOM     30  H   LIG d   1       9.494  -2.178  -9.124  0.00  0.00     0.062 H 
ATOM     31  H   LIG d   1      10.231  -0.364  -7.643  0.00  0.00     0.062 H 
ATOM     32  H   LIG d   1       9.717  -0.442  -5.223  0.00  0.00     0.062 H 
ENDROOT
BRANCH  21  33
ATOM     33  C   LIG d   1       4.813  -0.833  -6.521  0.00  0.00     0.044 A 
ATOM     34  C   LIG d   1       5.456  -0.300  -7.630  0.00  0.00    -0.036 A 
ATOM     35  C   LIG d   1       4.799   0.601  -8.445  0.00  0.00    -0.018 A 
ATOM     36  H   LIG d   1       6.471  -0.593  -7.857  0.00  0.00     0.064 H 
ATOM     37  C   LIG d   1       3.499   0.981  -8.149  0.00  0.00     0.120 A 
ATOM     38  H   LIG d   1       5.299   1.011  -9.309  0.00  0.00     0.066 H 
ATOM     39  C   LIG d   1       2.855   0.454  -7.039  0.00  0.00    -0.018 A 
ATOM     40  C   LIG d   1       3.511  -0.451  -6.227  0.00  0.00    -0.036 A 
ATOM     41  H   LIG d   1       1.842   0.750  -6.809  0.00  0.00     0.066 H 
ATOM     42  H   LIG d   1       3.010  -0.862  -5.363  0.00  0.00     0.064 H 
BRANCH  37  43
ATOM     43  O   LIG d   1       2.853   1.872  -8.948  0.00  0.00    -0.495 OA
BRANCH  43  44
ATOM     44  C   LIG d   1       3.593   2.415 -10.044  0.00  0.00     0.079 C 
ATOM     45  H   LIG d   1       3.777   1.634 -10.780  0.00  0.00     0.066 H 
ATOM     46  H   LIG d   1       3.020   3.221 -10.504  0.00  0.00     0.066 H 
ATOM     47  H   LIG d   1       4.543   2.807  -9.682  0.00  0.00     0.066 H 
ENDBRANCH  43  44
ENDBRANCH  37  43
ENDBRANCH  21  33
BRANCH   1  48
ATOM     48  C   LIG d   1       7.131  -5.593  -6.460  0.00  0.00    -0.041 C 
ATOM     49  H   LIG d   1       8.024  -6.157  -6.733  0.00  0.00     0.027 H 
ATOM     50  H   LIG d   1       6.670  -5.184  -7.359  0.00  0.00     0.027 H 
BRANCH  48  51
ATOM     51  C   LIG d   1       6.140  -6.519  -5.753  0.00  0.00    -0.064 C 
ATOM     52  H   LIG d   1       6.087  -6.256  -4.696  0.00  0.00     0.023 H 
ATOM     53  H   LIG d   1       5.154  -6.409  -6.205  0.00  0.00     0.023 H 
ATOM     54  H   LIG d   1       6.472  -7.553  -5.855  0.00  0.00     0.023 H 
ENDBRANCH  48  51
ENDBRANCH   1  48
TORSDOF 5
ENDMDL
MODEL 7
REMARK VINA RESULT:      -5.9      4.497      6.345
REMARK  5 active torsions:
REMARK  status: ('A' for Active; 'I' for Inactive)
REMARK    1  A    between atoms: C_1  and  C_2 
REMARK    2  A    between atoms: C_2  and  C_3 
REMARK    3  A    between atoms: N_23  and  C_26 
REMARK    4  A    between atoms: C_29  and  O_32 
REMARK    5  A    between atoms: O_32  and  C_33 
ROOT
ATOM      1  C   LIG d   1       6.944  -0.354  -4.892  0.00  0.00     0.033 C 
ATOM      2  C   LIG d   1       6.019  -0.170  -3.700  0.00  0.00    -0.032 A 
ATOM      3  C   LIG d   1       5.793   1.016  -3.062  0.00  0.00    -0.057 A 
ATOM      4  C   LIG d   1       4.920   1.040  -1.981  0.00  0.00    -0.061 A 
ATOM      5  C   LIG d   1       4.293  -0.118  -1.562  0.00  0.00    -0.061 A 
ATOM      6  C   LIG d   1       4.527  -1.322  -2.215  0.00  0.00    -0.058 A 
ATOM      7  C   LIG d   1       5.386  -1.338  -3.277  0.00  0.00    -0.035 A 
ATOM      8  C   LIG d   1       5.741  -2.574  -4.088  0.00  0.00     0.022 C 
ATOM      9  C   LIG d   1       5.462  -2.198  -5.535  0.00  0.00    -0.035 A 
ATOM     10  C   LIG d   1       6.096  -1.029  -5.957  0.00  0.00    -0.032 A 
ATOM     11  C   LIG d   1       5.934  -0.570  -7.233  0.00  0.00    -0.057 A 
ATOM     12  C   LIG d   1       5.128  -1.289  -8.106  0.00  0.00    -0.061 A 
ATOM     13  C   LIG d   1       4.499  -2.447  -7.687  0.00  0.00    -0.061 A 
ATOM     14  C   LIG d   1       4.668  -2.907  -6.387  0.00  0.00    -0.058 A 
ATOM     15  C   LIG d   1       7.276  -2.707  -3.986  0.00  0.00     0.059 A 
ATOM     16  H   LIG d   1       7.576  -2.978  -2.974  0.00  0.00     0.041 H 
ATOM     17  C   LIG d   1       7.990  -1.409  -4.469  0.00  0.00     0.062 A 
ATOM     18  H   LIG d   1       8.645  -1.016  -3.692  0.00  0.00     0.041 H 
ATOM     19  C   LIG d   1       8.774  -1.830  -5.693  0.00  0.00     0.231 A 
ATOM     20  O   LIG d   1       9.465  -1.099  -6.371  0.00  0.00    -0.275 OA
ATOM     21  N   LIG d   1       8.585  -3.137  -5.910  0.00  0.00    -0.210 N 
ATOM     22  C   LIG d   1       7.740  -3.744  -4.986  0.00  0.00     0.231 A 
ATOM     23  O   LIG d   1       7.420  -4.913  -4.984  0.00  0.00    -0.275 OA
ATOM     24  H   LIG d   1       6.285   1.919  -3.392  0.00  0.00     0.062 H 
ATOM     25  H   LIG d   1       4.729   1.969  -1.466  0.00  0.00     0.062 H 
ATOM     26  H   LIG d   1       3.617  -0.088  -0.721  0.00  0.00     0.062 H 
ATOM     27  H   LIG d   1       4.039  -2.228  -1.889  0.00  0.00     0.062 H 
ATOM     28  H   LIG d   1       5.200  -3.465  -3.768  0.00  0.00     0.041 H 
ATOM     29  H   LIG d   1       6.426   0.335  -7.558  0.00  0.00     0.062 H 
ATOM     30  H   LIG d   1       4.990  -0.941  -9.119  0.00  0.00     0.062 H 
ATOM     31  H   LIG d   1       3.873  -2.996  -8.374  0.00  0.00     0.062 H 
ATOM     32  H   LIG d   1       4.178  -3.812  -6.057  0.00  0.00     0.062 H 
ENDROOT
BRANCH  21  33
ATOM     33  C   LIG d   1       9.183  -3.826  -6.975  0.00  0.00     0.044 A 
ATOM     34  C   LIG d   1       8.530  -3.917  -8.197  0.00  0.00    -0.036 A 
ATOM     35  C   LIG d   1       9.120  -4.590  -9.248  0.00  0.00    -0.018 A 
ATOM     36  H   LIG d   1       7.560  -3.457  -8.327  0.00  0.00     0.064 H 
ATOM     37  C   LIG d   1      10.361  -5.186  -9.080  0.00  0.00     0.120 A 
ATOM     38  H   LIG d   1       8.614  -4.656 -10.199  0.00  0.00     0.066 H 
ATOM     39  C   LIG d   1      11.013  -5.100  -7.858  0.00  0.00    -0.018 A 
ATOM     40  C   LIG d   1      10.425  -4.422  -6.808  0.00  0.00    -0.036 A 
ATOM     41  H   LIG d   1      11.980  -5.563  -7.727  0.00  0.00     0.066 H 
ATOM     42  H   LIG d   1      10.932  -4.355  -5.857  0.00  0.00     0.064 H 
BRANCH  37  43
ATOM     43  O   LIG d   1      10.940  -5.854 -10.112  0.00  0.00    -0.495 OA
BRANCH  43  44
ATOM     44  C   LIG d   1      11.946  -6.814  -9.781  0.00  0.00     0.079 C 
ATOM     45  H   LIG d   1      12.148  -6.774  -8.711  0.00  0.00     0.066 H 
ATOM     46  H   LIG d   1      11.596  -7.812 -10.048  0.00  0.00     0.066 H 
ATOM     47  H   LIG d   1      12.858  -6.590 -10.332  0.00  0.00     0.066 H 
ENDBRANCH  43  44
ENDBRANCH  37  43
ENDBRANCH  21  33
BRANCH   1  48
ATOM     48  C   LIG d   1       7.573   0.956  -5.368  0.00  0.00    -0.041 C 
ATOM     49  H   LIG d   1       6.793   1.705  -5.508  0.00  0.00     0.027 H 
ATOM     50  H   LIG d   1       8.090   0.789  -6.314  0.00  0.00     0.027 H 
BRANCH  48  51
ATOM     51  C   LIG d   1       8.573   1.453  -4.322  0.00  0.00    -0.064 C 
ATOM     52  H   LIG d   1       9.575   1.114  -4.586  0.00  0.00     0.023 H 
ATOM     53  H   LIG d   1       8.554   2.542  -4.289  0.00  0.00     0.023 H 
ATOM     54  H   LIG d   1       8.301   1.056  -3.343  0.00  0.00     0.023 H 
ENDBRANCH  48  51
ENDBRANCH   1  48
TORSDOF 5
ENDMDL
MODEL 8
REMARK VINA RESULT:      -5.9      3.837      7.222
REMARK  5 active torsions:
REMARK  status: ('A' for Active; 'I' for Inactive)
REMARK    1  A    between atoms: C_1  and  C_2 
REMARK    2  A    between atoms: C_2  and  C_3 
REMARK    3  A    between atoms: N_23  and  C_26 
REMARK    4  A    between atoms: C_29  and  O_32 
REMARK    5  A    between atoms: O_32  and  C_33 
ROOT
ATOM      1  C   LIG d   1       6.316  -0.158  -8.080  0.00  0.00     0.033 C 
ATOM      2  C   LIG d   1       5.113   0.729  -8.360  0.00  0.00    -0.032 A 
ATOM      3  C   LIG d   1       5.120   1.815  -9.187  0.00  0.00    -0.057 A 
ATOM      4  C   LIG d   1       3.946   2.540  -9.351  0.00  0.00    -0.061 A 
ATOM      5  C   LIG d   1       2.793   2.165  -8.687  0.00  0.00    -0.061 A 
ATOM      6  C   LIG d   1       2.793   1.059  -7.846  0.00  0.00    -0.058 A 
ATOM      7  C   LIG d   1       3.951   0.351  -7.690  0.00  0.00    -0.035 A 
ATOM      8  C   LIG d   1       4.106  -0.877  -6.807  0.00  0.00     0.022 C 
ATOM      9  C   LIG d   1       4.686  -1.951  -7.713  0.00  0.00    -0.035 A 
ATOM     10  C   LIG d   1       5.849  -1.573  -8.383  0.00  0.00    -0.032 A 
ATOM     11  C   LIG d   1       6.479  -2.438  -9.232  0.00  0.00    -0.057 A 
ATOM     12  C   LIG d   1       5.940  -3.705  -9.416  0.00  0.00    -0.061 A 
ATOM     13  C   LIG d   1       4.788  -4.080  -8.753  0.00  0.00    -0.061 A 
ATOM     14  C   LIG d   1       4.152  -3.195  -7.891  0.00  0.00    -0.058 A 
ATOM     15  C   LIG d   1       5.232  -0.528  -5.810  0.00  0.00     0.059 A 
ATOM     16  H   LIG d   1       4.907   0.242  -5.111  0.00  0.00     0.041 H 
ATOM     17  C   LIG d   1       6.539  -0.116  -6.553  0.00  0.00     0.062 A 
ATOM     18  H   LIG d   1       6.868   0.873  -6.236  0.00  0.00     0.041 H 
ATOM     19  C   LIG d   1       7.548  -1.181  -6.182  0.00  0.00     0.231 A 
ATOM     20  O   LIG d   1       8.697  -1.226  -6.568  0.00  0.00    -0.275 OA
ATOM     21  N   LIG d   1       6.972  -2.068  -5.360  0.00  0.00    -0.210 N 
ATOM     22  C   LIG d   1       5.638  -1.788  -5.078  0.00  0.00     0.231 A 
ATOM     23  O   LIG d   1       4.915  -2.451  -4.366  0.00  0.00    -0.275 OA
ATOM     24  H   LIG d   1       6.022   2.106  -9.705  0.00  0.00     0.062 H 
ATOM     25  H   LIG d   1       3.933   3.401 -10.003  0.00  0.00     0.062 H 
ATOM     26  H   LIG d   1       1.886   2.736  -8.821  0.00  0.00     0.062 H 
ATOM     27  H   LIG d   1       1.895   0.764  -7.325  0.00  0.00     0.062 H 
ATOM     28  H   LIG d   1       3.174  -1.180  -6.330  0.00  0.00     0.041 H 
ATOM     29  H   LIG d   1       7.380  -2.142  -9.750  0.00  0.00     0.062 H 
ATOM     30  H   LIG d   1       6.426  -4.402 -10.083  0.00  0.00     0.062 H 
ATOM     31  H   LIG d   1       4.378  -5.067  -8.905  0.00  0.00     0.062 H 
ATOM     32  H   LIG d   1       3.251  -3.485  -7.372  0.00  0.00     0.062 H 
ENDROOT
BRANCH  21  33
ATOM     33  C   LIG d   1       7.654  -3.177  -4.840  0.00  0.00     0.044 A 
ATOM     34  C   LIG d   1       8.418  -3.046  -3.688  0.00  0.00    -0.036 A 
ATOM     35  C   LIG d   1       9.085  -4.139  -3.173  0.00  0.00    -0.018 A 
ATOM     36  H   LIG d   1       8.487  -2.088  -3.193  0.00  0.00     0.064 H 
ATOM     37  C   LIG d   1       9.001  -5.367  -3.812  0.00  0.00     0.120 A 
ATOM     38  H   LIG d   1       9.675  -4.037  -2.275  0.00  0.00     0.066 H 
ATOM     39  C   LIG d   1       8.242  -5.499  -4.966  0.00  0.00    -0.018 A 
ATOM     40  C   LIG d   1       7.570  -4.406  -5.479  0.00  0.00    -0.036 A 
ATOM     41  H   LIG d   1       8.176  -6.456  -5.463  0.00  0.00     0.066 H 
ATOM     42  H   LIG d   1       6.978  -4.509  -6.376  0.00  0.00     0.064 H 
BRANCH  37  43
ATOM     43  O   LIG d   1       9.662  -6.442  -3.308  0.00  0.00    -0.495 OA
BRANCH  43  44
ATOM     44  C   LIG d   1      10.934  -6.196  -2.702  0.00  0.00     0.079 C 
ATOM     45  H   LIG d   1      11.415  -7.146  -2.470  0.00  0.00     0.066 H 
ATOM     46  H   LIG d   1      11.560  -5.630  -3.391  0.00  0.00     0.066 H 
ATOM     47  H   LIG d   1      10.794  -5.625  -1.785  0.00  0.00     0.066 H 
ENDBRANCH  43  44
ENDBRANCH  37  43
ENDBRANCH  21  33
BRANCH   1  48
ATOM     48  C   LIG d   1       7.557   0.247  -8.878  0.00  0.00    -0.041 C 
ATOM     49  H   LIG d   1       7.288   0.377  -9.927  0.00  0.00     0.027 H 
ATOM     50  H   LIG d   1       8.315  -0.531  -8.791  0.00  0.00     0.027 H 
BRANCH  48  51
ATOM     51  C   LIG d   1       8.110   1.563  -8.328  0.00  0.00    -0.064 C 
ATOM     52  H   LIG d   1       8.596   1.381  -7.369  0.00  0.00     0.023 H 
ATOM     53  H   LIG d   1       8.835   1.975  -9.030  0.00  0.00     0.023 H 
ATOM     54  H   LIG d   1       7.293   2.273  -8.192  0.00  0.00     0.023 H 
ENDBRANCH  48  51
ENDBRANCH   1  48
TORSDOF 5
ENDMDL
MODEL 9
REMARK VINA RESULT:      -5.9      9.307     12.834
REMARK  5 active torsions:
REMARK  status: ('A' for Active; 'I' for Inactive)
REMARK    1  A    between atoms: C_1  and  C_2 
REMARK    2  A    between atoms: C_2  and  C_3 
REMARK    3  A    between atoms: N_23  and  C_26 
REMARK    4  A    between atoms: C_29  and  O_32 
REMARK    5  A    between atoms: O_32  and  C_33 
ROOT
ATOM      1  C   LIG d   1      10.359   6.578  -6.501  0.00  0.00     0.033 C 
ATOM      2  C   LIG d   1       9.821   5.526  -7.457  0.00  0.00    -0.032 A 
ATOM      3  C   LIG d   1       9.437   5.765  -8.746  0.00  0.00    -0.057 A 
ATOM      4  C   LIG d   1       8.961   4.707  -9.510  0.00  0.00    -0.061 A 
ATOM      5  C   LIG d   1       8.879   3.436  -8.973  0.00  0.00    -0.061 A 
ATOM      6  C   LIG d   1       9.272   3.199  -7.662  0.00  0.00    -0.058 A 
ATOM      7  C   LIG d   1       9.739   4.244  -6.916  0.00  0.00    -0.035 A 
ATOM      8  C   LIG d   1      10.204   4.141  -5.472  0.00  0.00     0.022 C 
ATOM      9  C   LIG d   1      11.601   4.740  -5.457  0.00  0.00    -0.035 A 
ATOM     10  C   LIG d   1      11.683   6.023  -5.998  0.00  0.00    -0.032 A 
ATOM     11  C   LIG d   1      12.877   6.684  -6.051  0.00  0.00    -0.057 A 
ATOM     12  C   LIG d   1      14.011   6.056  -5.554  0.00  0.00    -0.061 A 
ATOM     13  C   LIG d   1      13.931   4.785  -5.018  0.00  0.00    -0.061 A 
ATOM     14  C   LIG d   1      12.713   4.118  -4.968  0.00  0.00    -0.058 A 
ATOM     15  C   LIG d   1       9.322   5.134  -4.684  0.00  0.00     0.059 A 
ATOM     16  H   LIG d   1       8.291   4.785  -4.639  0.00  0.00     0.041 H 
ATOM     17  C   LIG d   1       9.419   6.571  -5.277  0.00  0.00     0.062 A 
ATOM     18  H   LIG d   1       8.431   6.946  -5.544  0.00  0.00     0.041 H 
ATOM     19  C   LIG d   1      10.048   7.402  -4.179  0.00  0.00     0.231 A 
ATOM     20  O   LIG d   1      10.302   8.586  -4.251  0.00  0.00    -0.275 OA
ATOM     21  N   LIG d   1      10.280   6.623  -3.115  0.00  0.00    -0.210 N 
ATOM     22  C   LIG d   1       9.900   5.297  -3.295  0.00  0.00     0.231 A 
ATOM     23  O   LIG d   1      10.018   4.412  -2.475  0.00  0.00    -0.275 OA
ATOM     24  H   LIG d   1       9.501   6.759  -9.162  0.00  0.00     0.062 H 
ATOM     25  H   LIG d   1       8.654   4.878 -10.531  0.00  0.00     0.062 H 
ATOM     26  H   LIG d   1       8.507   2.621  -9.576  0.00  0.00     0.062 H 
ATOM     27  H   LIG d   1       9.209   2.208  -7.239  0.00  0.00     0.062 H 
ATOM     28  H   LIG d   1      10.173   3.122  -5.085  0.00  0.00     0.041 H 
ATOM     29  H   LIG d   1      12.937   7.677  -6.471  0.00  0.00     0.062 H 
ATOM     30  H   LIG d   1      14.964   6.564  -5.587  0.00  0.00     0.062 H 
ATOM     31  H   LIG d   1      14.820   4.306  -4.636  0.00  0.00     0.062 H 
ATOM     32  H   LIG d   1      12.647   3.124  -4.549  0.00  0.00     0.062 H 
ENDROOT
BRANCH  21  33
ATOM     33  C   LIG d   1      10.859   7.105  -1.932  0.00  0.00     0.044 A 
ATOM     34  C   LIG d   1      12.239   7.094  -1.779  0.00  0.00    -0.036 A 
ATOM     35  C   LIG d   1      12.810   7.573  -0.616  0.00  0.00    -0.018 A 
ATOM     36  H   LIG d   1      12.867   6.714  -2.572  0.00  0.00     0.064 H 
ATOM     37  C   LIG d   1      12.004   8.056   0.403  0.00  0.00     0.120 A 
ATOM     38  H   LIG d   1      13.883   7.568  -0.501  0.00  0.00     0.066 H 
ATOM     39  C   LIG d   1      10.624   8.063   0.255  0.00  0.00    -0.018 A 
ATOM     40  C   LIG d   1      10.053   7.588  -0.911  0.00  0.00    -0.036 A 
ATOM     41  H   LIG d   1       9.996   8.439   1.049  0.00  0.00     0.066 H 
ATOM     42  H   LIG d   1       8.980   7.594  -1.027  0.00  0.00     0.064 H 
BRANCH  37  43
ATOM     43  O   LIG d   1      12.564   8.522   1.550  0.00  0.00    -0.495 OA
BRANCH  43  44
ATOM     44  C   LIG d   1      12.129   9.803   2.011  0.00  0.00     0.079 C 
ATOM     45  H   LIG d   1      11.370  10.194   1.334  0.00  0.00     0.066 H 
ATOM     46  H   LIG d   1      11.707   9.704   3.012  0.00  0.00     0.066 H 
ATOM     47  H   LIG d   1      12.977  10.486   2.042  0.00  0.00     0.066 H 
ENDBRANCH  43  44
ENDBRANCH  37  43
ENDBRANCH  21  33
BRANCH   1  48
ATOM     48  C   LIG d   1      10.495   7.958  -7.145  0.00  0.00    -0.041 C 
ATOM     49  H   LIG d   1      11.026   7.867  -8.093  0.00  0.00     0.027 H 
ATOM     50  H   LIG d   1      11.052   8.617  -6.479  0.00  0.00     0.027 H 
BRANCH  48  51
ATOM     51  C   LIG d   1       9.104   8.544  -7.395  0.00  0.00    -0.064 C 
ATOM     52  H   LIG d   1       8.928   9.370  -6.707  0.00  0.00     0.023 H 
ATOM     53  H   LIG d   1       9.040   8.905  -8.422  0.00  0.00     0.023 H 
ATOM     54  H   LIG d   1       8.350   7.771  -7.236  0.00  0.00     0.023 H 
ENDBRANCH  48  51
ENDBRANCH   1  48
TORSDOF 5
ENDMDL
MODEL 10
REMARK VINA RESULT:      -5.8      4.033      6.365
REMARK  5 active torsions:
REMARK  status: ('A' for Active; 'I' for Inactive)
REMARK    1  A    between atoms: C_1  and  C_2 
REMARK    2  A    between atoms: C_2  and  C_3 
REMARK    3  A    between atoms: N_23  and  C_26 
REMARK    4  A    between atoms: C_29  and  O_32 
REMARK    5  A    between atoms: O_32  and  C_33 
ROOT
ATOM      1  C   LIG d   1       5.364  -1.089  -5.739  0.00  0.00     0.033 C 
ATOM      2  C   LIG d   1       4.765  -0.509  -4.468  0.00  0.00    -0.032 A 
ATOM      3  C   LIG d   1       3.429  -0.346  -4.238  0.00  0.00    -0.057 A 
ATOM      4  C   LIG d   1       3.019   0.199  -3.027  0.00  0.00    -0.061 A 
ATOM      5  C   LIG d   1       3.950   0.569  -2.075  0.00  0.00    -0.061 A 
ATOM      6  C   LIG d   1       5.308   0.400  -2.315  0.00  0.00    -0.058 A 
ATOM      7  C   LIG d   1       5.704  -0.137  -3.507  0.00  0.00    -0.035 A 
ATOM      8  C   LIG d   1       7.149  -0.382  -3.912  0.00  0.00     0.022 C 
ATOM      9  C   LIG d   1       7.209  -1.847  -4.315  0.00  0.00    -0.035 A 
ATOM     10  C   LIG d   1       6.270  -2.219  -5.277  0.00  0.00    -0.032 A 
ATOM     11  C   LIG d   1       6.209  -3.505  -5.731  0.00  0.00    -0.057 A 
ATOM     12  C   LIG d   1       7.101  -4.439  -5.220  0.00  0.00    -0.061 A 
ATOM     13  C   LIG d   1       8.031  -4.071  -4.267  0.00  0.00    -0.061 A 
ATOM     14  C   LIG d   1       8.087  -2.761  -3.809  0.00  0.00    -0.058 A 
ATOM     15  C   LIG d   1       7.349   0.413  -5.221  0.00  0.00     0.059 A 
ATOM     16  H   LIG d   1       7.322   1.485  -5.032  0.00  0.00     0.041 H 
ATOM     17  C   LIG d   1       6.310  -0.008  -6.304  0.00  0.00     0.062 A 
ATOM     18  H   LIG d   1       5.747   0.857  -6.655  0.00  0.00     0.041 H 
ATOM     19  C   LIG d   1       7.135  -0.620  -7.416  0.00  0.00     0.231 A 
ATOM     20  O   LIG d   1       6.693  -1.081  -8.447  0.00  0.00    -0.275 OA
ATOM     21  N   LIG d   1       8.430  -0.571  -7.082  0.00  0.00    -0.210 N 
ATOM     22  C   LIG d   1       8.670   0.004  -5.837  0.00  0.00     0.231 A 
ATOM     23  O   LIG d   1       9.759   0.150  -5.326  0.00  0.00    -0.275 OA
ATOM     24  H   LIG d   1       2.704  -0.635  -4.984  0.00  0.00     0.062 H 
ATOM     25  H   LIG d   1       1.967   0.335  -2.829  0.00  0.00     0.062 H 
ATOM     26  H   LIG d   1       3.621   0.992  -1.138  0.00  0.00     0.062 H 
ATOM     27  H   LIG d   1       6.038   0.688  -1.573  0.00  0.00     0.062 H 
ATOM     28  H   LIG d   1       7.861  -0.126  -3.128  0.00  0.00     0.041 H 
ATOM     29  H   LIG d   1       5.480  -3.791  -6.476  0.00  0.00     0.062 H 
ATOM     30  H   LIG d   1       7.066  -5.460  -5.570  0.00  0.00     0.062 H 
ATOM     31  H   LIG d   1       8.718  -4.806  -3.876  0.00  0.00     0.062 H 
ATOM     32  H   LIG d   1       8.814  -2.470  -3.063  0.00  0.00     0.062 H 
ENDROOT
BRANCH  21  33
ATOM     33  C   LIG d   1       9.449  -1.063  -7.912  0.00  0.00     0.044 A 
ATOM     34  C   LIG d   1      10.046  -0.229  -8.847  0.00  0.00    -0.036 A 
ATOM     35  C   LIG d   1      11.052  -0.711  -9.661  0.00  0.00    -0.018 A 
ATOM     36  H   LIG d   1       9.726   0.800  -8.935  0.00  0.00     0.064 H 
ATOM     37  C   LIG d   1      11.458  -2.032  -9.551  0.00  0.00     0.120 A 
ATOM     38  H   LIG d   1      11.519  -0.060 -10.384  0.00  0.00     0.066 H 
ATOM     39  C   LIG d   1      10.859  -2.869  -8.621  0.00  0.00    -0.018 A 
ATOM     40  C   LIG d   1       9.856  -2.385  -7.803  0.00  0.00    -0.036 A 
ATOM     41  H   LIG d   1      11.175  -3.898  -8.535  0.00  0.00     0.066 H 
ATOM     42  H   LIG d   1       9.390  -3.036  -7.078  0.00  0.00     0.064 H 
BRANCH  37  43
ATOM     43  O   LIG d   1      12.444  -2.509 -10.356  0.00  0.00    -0.495 OA
BRANCH  43  44
ATOM     44  C   LIG d   1      12.519  -3.928 -10.519  0.00  0.00     0.079 C 
ATOM     45  H   LIG d   1      13.101  -4.160 -11.411  0.00  0.00     0.066 H 
ATOM     46  H   LIG d   1      13.000  -4.368  -9.646  0.00  0.00     0.066 H 
ATOM     47  H   LIG d   1      11.514  -4.335 -10.624  0.00  0.00     0.066 H 
ENDBRANCH  43  44
ENDBRANCH  37  43
ENDBRANCH  21  33
BRANCH   1  48
ATOM     48  C   LIG d   1       4.306  -1.544  -6.746  0.00  0.00    -0.041 C 
ATOM     49  H   LIG d   1       3.570  -2.172  -6.241  0.00  0.00     0.027 H 
ATOM     50  H   LIG d   1       4.783  -2.113  -7.543  0.00  0.00     0.027 H 
BRANCH  48  51
ATOM     51  C   LIG d   1       3.607  -0.320  -7.341  0.00  0.00    -0.064 C 
ATOM     52  H   LIG d   1       3.453  -0.473  -8.408  0.00  0.00     0.023 H 
ATOM     53  H   LIG d   1       2.645  -0.176  -6.850  0.00  0.00     0.023 H 
ATOM     54  H   LIG d   1       4.228   0.564  -7.186  0.00  0.00     0.023 H 
ENDBRANCH  48  51
ENDBRANCH   1  48
TORSDOF 5
ENDMDL
