MODEL 1
REMARK VINA RESULT:      -6.6      0.000      0.000
REMARK  21 active torsions:
REMARK  status: ('A' for Active; 'I' for Inactive)
REMARK    1  A    between atoms: C_1  and  C_2 
REMARK    2  A    between atoms: C_2  and  O_4 
REMARK    3  A    between atoms: O_4  and  C_5 
REMARK    4  A    between atoms: C_9  and  C_23 
REMARK    5  A    between atoms: C_11  and  O_19 
REMARK    6  A    between atoms: C_13  and  O_15 
REMARK    7  A    between atoms: O_15  and  C_16 
REMARK    8  A    between atoms: C_16  and  C_18 
REMARK    9  A    between atoms: O_19  and  C_20 
REMARK   10  A    between atoms: C_20  and  C_22 
REMARK   11  A    between atoms: C_24  and  O_59 
REMARK   12  A    between atoms: C_28  and  O_29 
REMARK   13  A    between atoms: O_29  and  C_30 
REMARK   14  A    between atoms: C_34  and  C_36 
REMARK   15  A    between atoms: C_39  and  O_42 
REMARK   16  A    between atoms: O_42  and  C_43 
REMARK   17  A    between atoms: C_45  and  O_58 
REMARK   18  A    between atoms: C_47  and  O_57 
REMARK   19  A    between atoms: C_49  and  O_56 
REMARK   20  A    between atoms: C_51  and  C_54 
REMARK   21  A    between atoms: C_54  and  O_55 
ROOT
ATOM      1  C   LIG d   1       7.368  -0.261  -5.737  0.00  0.00     0.069 A 
ATOM      2  C   LIG d   1       7.083  -0.152  -4.381  0.00  0.00     0.130 A 
ATOM      3  C   LIG d   1       7.495   0.958  -3.659  0.00  0.00     0.024 A 
ATOM      4  C   LIG d   1       8.199   1.972  -4.289  0.00  0.00     0.146 A 
ATOM      5  C   LIG d   1       8.489   1.864  -5.660  0.00  0.00     0.106 A 
ATOM      6  C   LIG d   1       8.074   0.737  -6.382  0.00  0.00     0.144 A 
ATOM      7  C   LIG d   1       9.238   2.954  -6.308  0.00  0.00     0.197 A 
ATOM      8  O   LIG d   1       9.516   2.913  -7.495  0.00  0.00    -0.287 OA
ATOM      9  C   LIG d   1       9.621   4.051  -5.500  0.00  0.00     0.029 A 
ATOM     10  C   LIG d   1       9.292   4.059  -4.180  0.00  0.00     0.139 A 
ATOM     11  O   LIG d   1       8.608   3.059  -3.601  0.00  0.00    -0.454 OA
ATOM     12  H   LIG d   1       7.267   1.032  -2.606  0.00  0.00     0.069 H 
ATOM     13  H   LIG d   1      10.173   4.875  -5.928  0.00  0.00     0.069 H 
ENDROOT
BRANCH   1  14
ATOM     14  C   LIG d   1       6.911  -1.474  -6.506  0.00  0.00     0.131 C 
ATOM     15  O   LIG d   1       6.988  -2.628  -5.665  0.00  0.00    -0.364 OA
ATOM     16  C   LIG d   1       6.600  -3.844  -6.307  0.00  0.00     0.089 C 
ATOM     17  C   LIG d   1       5.141  -3.740  -6.757  0.00  0.00     0.166 C 
ATOM     18  H   LIG d   1       6.706  -4.674  -5.608  0.00  0.00     0.060 H 
ATOM     19  H   LIG d   1       7.238  -4.017  -7.175  0.00  0.00     0.060 H 
ATOM     20  H   LIG d   1       4.499  -3.609  -5.886  0.00  0.00     0.080 H 
ATOM     21  C   LIG d   1       4.987  -2.536  -7.692  0.00  0.00     0.181 C 
ATOM     22  C   LIG d   1       5.464  -1.274  -6.964  0.00  0.00     0.173 C 
ATOM     23  H   LIG d   1       5.590  -2.689  -8.587  0.00  0.00     0.081 H 
ATOM     24  H   LIG d   1       5.411  -0.422  -7.641  0.00  0.00     0.080 H 
ATOM     25  H   LIG d   1       7.552  -1.616  -7.376  0.00  0.00     0.069 H 
BRANCH  17  26
ATOM     26  O   LIG d   1       4.768  -4.932  -7.450  0.00  0.00    -0.455 OA
BRANCH  26  27
ATOM     27  C   LIG d   1       4.267  -5.935  -6.712  0.00  0.00     0.304 C 
ATOM     28  O   LIG d   1       3.525  -5.693  -5.789  0.00  0.00    -0.251 OA
BRANCH  27  29
ATOM     29  C   LIG d   1       4.629  -7.362  -7.034  0.00  0.00     0.033 C 
ATOM     30  H   LIG d   1       5.032  -7.415  -8.045  0.00  0.00     0.034 H 
ATOM     31  H   LIG d   1       5.377  -7.716  -6.325  0.00  0.00     0.034 H 
ATOM     32  H   LIG d   1       3.738  -7.986  -6.965  0.00  0.00     0.034 H 
ENDBRANCH  27  29
ENDBRANCH  26  27
ENDBRANCH  17  26
BRANCH  21  33
ATOM     33  O   LIG d   1       3.614  -2.386  -8.058  0.00  0.00    -0.454 OA
BRANCH  33  34
ATOM     34  C   LIG d   1       3.359  -1.941  -9.298  0.00  0.00     0.304 C 
ATOM     35  O   LIG d   1       4.088  -2.247 -10.212  0.00  0.00    -0.251 OA
BRANCH  34  36
ATOM     36  C   LIG d   1       2.165  -1.057  -9.550  0.00  0.00     0.033 C 
ATOM     37  H   LIG d   1       1.459  -1.156  -8.727  0.00  0.00     0.034 H 
ATOM     38  H   LIG d   1       2.490  -0.019  -9.628  0.00  0.00     0.034 H 
ATOM     39  H   LIG d   1       1.682  -1.357 -10.481  0.00  0.00     0.034 H 
ENDBRANCH  34  36
ENDBRANCH  33  34
ENDBRANCH  21  33
BRANCH  22  40
ATOM     40  O   LIG d   1       4.633  -1.035  -5.827  0.00  0.00    -0.455 OA
BRANCH  40  41
ATOM     41  C   LIG d   1       3.769  -0.011  -5.910  0.00  0.00     0.304 C 
ATOM     42  O   LIG d   1       3.777   0.710  -6.879  0.00  0.00    -0.251 OA
BRANCH  41  43
ATOM     43  C   LIG d   1       2.788   0.240  -4.793  0.00  0.00     0.033 C 
ATOM     44  H   LIG d   1       2.569  -0.699  -4.284  0.00  0.00     0.034 H 
ATOM     45  H   LIG d   1       3.220   0.946  -4.083  0.00  0.00     0.034 H 
ATOM     46  H   LIG d   1       1.867   0.654  -5.203  0.00  0.00     0.034 H 
ENDBRANCH  41  43
ENDBRANCH  40  41
ENDBRANCH  22  40
ENDBRANCH   1  14
BRANCH   6  47
ATOM     47  O   LIG d   1       8.358   0.630  -7.704  0.00  0.00    -0.494 OA
BRANCH  47  48
ATOM     48  C   LIG d   1       9.419  -0.254  -8.070  0.00  0.00     0.079 C 
ATOM     49  H   LIG d   1       9.703  -0.071  -9.106  0.00  0.00     0.066 H 
ATOM     50  H   LIG d   1      10.278  -0.079  -7.422  0.00  0.00     0.066 H 
ATOM     51  H   LIG d   1       9.086  -1.286  -7.961  0.00  0.00     0.066 H 
ENDBRANCH  47  48
ENDBRANCH   6  47
BRANCH   2  52
ATOM     52  O   LIG d   1       6.392  -1.141  -3.756  0.00  0.00    -0.506 OA
ATOM     53  H   LIG d   1       6.918  -1.646  -3.121  0.00  0.00     0.292 HD
ENDBRANCH   2  52
BRANCH  10  54
ATOM     54  C   LIG d   1       9.701   5.210  -3.353  0.00  0.00     0.018 A 
ATOM     55  C   LIG d   1      10.250   5.004  -2.086  0.00  0.00    -0.048 A 
ATOM     56  C   LIG d   1      10.635   6.082  -1.320  0.00  0.00    -0.019 A 
ATOM     57  H   LIG d   1      10.377   3.999  -1.709  0.00  0.00     0.063 H 
ATOM     58  C   LIG d   1      10.467   7.374  -1.802  0.00  0.00     0.124 A 
ATOM     59  H   LIG d   1      11.065   5.923  -0.342  0.00  0.00     0.065 H 
ATOM     60  C   LIG d   1       9.916   7.585  -3.060  0.00  0.00    -0.019 A 
ATOM     61  C   LIG d   1       9.534   6.512  -3.834  0.00  0.00    -0.048 A 
ATOM     62  H   LIG d   1       9.787   8.591  -3.430  0.00  0.00     0.065 H 
ATOM     63  H   LIG d   1       9.105   6.677  -4.813  0.00  0.00     0.063 H 
BRANCH  58  64
ATOM     64  O   LIG d   1      10.843   8.434  -1.042  0.00  0.00    -0.461 OA
BRANCH  64  65
ATOM     65  C   LIG d   1      11.059   9.675  -1.719  0.00  0.00     0.231 C 
ATOM     66  H   LIG d   1      11.699   9.509  -2.586  0.00  0.00     0.108 H 
ATOM     67  O   LIG d   1       9.804  10.207  -2.148  0.00  0.00    -0.331 OA
ATOM     68  C   LIG d   1       9.907  11.440  -2.863  0.00  0.00     0.114 C 
ATOM     69  C   LIG d   1      10.535  12.502  -1.958  0.00  0.00     0.112 C 
ATOM     70  H   LIG d   1      10.532  11.298  -3.745  0.00  0.00     0.065 H 
ATOM     71  C   LIG d   1      11.906  12.010  -1.481  0.00  0.00     0.115 C 
ATOM     72  H   LIG d   1      10.656  13.431  -2.515  0.00  0.00     0.065 H 
ATOM     73  C   LIG d   1      11.733  10.665  -0.768  0.00  0.00     0.145 C 
ATOM     74  H   LIG d   1      12.567  11.885  -2.339  0.00  0.00     0.065 H 
ATOM     75  H   LIG d   1      12.710  10.282  -0.474  0.00  0.00     0.068 H 
BRANCH  68  76
ATOM     76  C   LIG d   1       8.513  11.898  -3.295  0.00  0.00     0.073 C 
ATOM     77  H   LIG d   1       8.423  12.975  -3.150  0.00  0.00     0.058 H 
ATOM     78  H   LIG d   1       8.360  11.659  -4.347  0.00  0.00     0.058 H 
BRANCH  76  79
ATOM     79  O   LIG d   1       7.526  11.229  -2.506  0.00  0.00    -0.392 OA
ATOM     80  H   LIG d   1       6.806  11.802  -2.209  0.00  0.00     0.209 HD
ENDBRANCH  76  79
ENDBRANCH  68  76
BRANCH  69  81
ATOM     81  O   LIG d   1       9.690  12.729  -0.828  0.00  0.00    -0.387 OA
ATOM     82  H   LIG d   1       9.273  11.928  -0.481  0.00  0.00     0.210 HD
ENDBRANCH  69  81
BRANCH  71  83
ATOM     83  O   LIG d   1      12.469  12.963  -0.577  0.00  0.00    -0.386 OA
ATOM     84  H   LIG d   1      13.270  13.393  -0.908  0.00  0.00     0.210 HD
ENDBRANCH  71  83
BRANCH  73  85
ATOM     85  O   LIG d   1      10.920  10.841   0.394  0.00  0.00    -0.383 OA
ATOM     86  H   LIG d   1      10.627  11.752   0.537  0.00  0.00     0.210 HD
ENDBRANCH  73  85
ENDBRANCH  64  65
ENDBRANCH  58  64
ENDBRANCH  10  54
TORSDOF 21
ENDMDL
MODEL 2
REMARK VINA RESULT:      -6.5      1.405      2.073
REMARK  21 active torsions:
REMARK  status: ('A' for Active; 'I' for Inactive)
REMARK    1  A    between atoms: C_1  and  C_2 
REMARK    2  A    between atoms: C_2  and  O_4 
REMARK    3  A    between atoms: O_4  and  C_5 
REMARK    4  A    between atoms: C_9  and  C_23 
REMARK    5  A    between atoms: C_11  and  O_19 
REMARK    6  A    between atoms: C_13  and  O_15 
REMARK    7  A    between atoms: O_15  and  C_16 
REMARK    8  A    between atoms: C_16  and  C_18 
REMARK    9  A    between atoms: O_19  and  C_20 
REMARK   10  A    between atoms: C_20  and  C_22 
REMARK   11  A    between atoms: C_24  and  O_59 
REMARK   12  A    between atoms: C_28  and  O_29 
REMARK   13  A    between atoms: O_29  and  C_30 
REMARK   14  A    between atoms: C_34  and  C_36 
REMARK   15  A    between atoms: C_39  and  O_42 
REMARK   16  A    between atoms: O_42  and  C_43 
REMARK   17  A    between atoms: C_45  and  O_58 
REMARK   18  A    between atoms: C_47  and  O_57 
REMARK   19  A    between atoms: C_49  and  O_56 
REMARK   20  A    between atoms: C_51  and  C_54 
REMARK   21  A    between atoms: C_54  and  O_55 
ROOT
ATOM      1  C   LIG d   1       6.988  -0.437  -6.626  0.00  0.00     0.069 A 
ATOM      2  C   LIG d   1       6.902  -0.433  -5.238  0.00  0.00     0.130 A 
ATOM      3  C   LIG d   1       7.504   0.570  -4.494  0.00  0.00     0.024 A 
ATOM      4  C   LIG d   1       8.202   1.583  -5.134  0.00  0.00     0.146 A 
ATOM      5  C   LIG d   1       8.291   1.582  -6.537  0.00  0.00     0.106 A 
ATOM      6  C   LIG d   1       7.684   0.562  -7.281  0.00  0.00     0.144 A 
ATOM      7  C   LIG d   1       9.036   2.669  -7.194  0.00  0.00     0.197 A 
ATOM      8  O   LIG d   1       9.145   2.718  -8.408  0.00  0.00    -0.287 OA
ATOM      9  C   LIG d   1       9.621   3.653  -6.363  0.00  0.00     0.029 A 
ATOM     10  C   LIG d   1       9.477   3.563  -5.014  0.00  0.00     0.139 A 
ATOM     11  O   LIG d   1       8.794   2.567  -4.425  0.00  0.00    -0.454 OA
ATOM     12  H   LIG d   1       7.430   0.563  -3.418  0.00  0.00     0.069 H 
ATOM     13  H   LIG d   1      10.179   4.470  -6.797  0.00  0.00     0.069 H 
ENDROOT
BRANCH   1  14
ATOM     14  C   LIG d   1       6.326  -1.535  -7.418  0.00  0.00     0.131 C 
ATOM     15  O   LIG d   1       6.373  -2.753  -6.672  0.00  0.00    -0.364 OA
ATOM     16  C   LIG d   1       5.793  -3.872  -7.347  0.00  0.00     0.089 C 
ATOM     17  C   LIG d   1       4.312  -3.592  -7.616  0.00  0.00     0.166 C 
ATOM     18  H   LIG d   1       5.887  -4.761  -6.723  0.00  0.00     0.060 H 
ATOM     19  H   LIG d   1       6.311  -4.035  -8.293  0.00  0.00     0.060 H 
ATOM     20  H   LIG d   1       3.786  -3.471  -6.669  0.00  0.00     0.080 H 
ATOM     21  C   LIG d   1       4.184  -2.309  -8.441  0.00  0.00     0.181 C 
ATOM     22  C   LIG d   1       4.867  -1.161  -7.689  0.00  0.00     0.173 C 
ATOM     23  H   LIG d   1       4.666  -2.447  -9.409  0.00  0.00     0.081 H 
ATOM     24  H   LIG d   1       4.830  -0.256  -8.295  0.00  0.00     0.080 H 
ATOM     25  H   LIG d   1       6.850  -1.667  -8.364  0.00  0.00     0.069 H 
BRANCH  17  26
ATOM     26  O   LIG d   1       3.744  -4.684  -8.341  0.00  0.00    -0.455 OA
BRANCH  26  27
ATOM     27  C   LIG d   1       3.786  -5.892  -7.756  0.00  0.00     0.304 C 
ATOM     28  O   LIG d   1       3.558  -5.999  -6.574  0.00  0.00    -0.251 OA
BRANCH  27  29
ATOM     29  C   LIG d   1       4.117  -7.114  -8.574  0.00  0.00     0.033 C 
ATOM     30  H   LIG d   1       3.311  -7.307  -9.281  0.00  0.00     0.034 H 
ATOM     31  H   LIG d   1       5.046  -6.946  -9.119  0.00  0.00     0.034 H 
ATOM     32  H   LIG d   1       4.234  -7.972  -7.912  0.00  0.00     0.034 H 
ENDBRANCH  27  29
ENDBRANCH  26  27
ENDBRANCH  17  26
BRANCH  21  33
ATOM     33  O   LIG d   1       2.802  -1.999  -8.634  0.00  0.00    -0.454 OA
BRANCH  33  34
ATOM     34  C   LIG d   1       2.428  -1.629  -9.868  0.00  0.00     0.304 C 
ATOM     35  O   LIG d   1       2.894  -2.185 -10.834  0.00  0.00    -0.251 OA
BRANCH  34  36
ATOM     36  C   LIG d   1       1.426  -0.517 -10.049  0.00  0.00     0.033 C 
ATOM     37  H   LIG d   1       1.064  -0.191  -9.075  0.00  0.00     0.034 H 
ATOM     38  H   LIG d   1       1.901   0.321 -10.560  0.00  0.00     0.034 H 
ATOM     39  H   LIG d   1       0.588  -0.878 -10.646  0.00  0.00     0.034 H 
ENDBRANCH  34  36
ENDBRANCH  33  34
ENDBRANCH  21  33
BRANCH  22  40
ATOM     40  O   LIG d   1       4.193  -0.934  -6.450  0.00  0.00    -0.455 OA
BRANCH  40  41
ATOM     41  C   LIG d   1       3.423   0.161  -6.367  0.00  0.00     0.304 C 
ATOM     42  O   LIG d   1       3.451   0.988  -7.247  0.00  0.00    -0.251 OA
BRANCH  41  43
ATOM     43  C   LIG d   1       2.522   0.360  -5.175  0.00  0.00     0.033 C 
ATOM     44  H   LIG d   1       2.775   1.298  -4.680  0.00  0.00     0.034 H 
ATOM     45  H   LIG d   1       1.483   0.393  -5.506  0.00  0.00     0.034 H 
ATOM     46  H   LIG d   1       2.654  -0.466  -4.476  0.00  0.00     0.034 H 
ENDBRANCH  41  43
ENDBRANCH  40  41
ENDBRANCH  22  40
ENDBRANCH   1  14
BRANCH   6  47
ATOM     47  O   LIG d   1       7.774   0.558  -8.635  0.00  0.00    -0.494 OA
BRANCH  47  48
ATOM     48  C   LIG d   1       8.692  -0.367  -9.222  0.00  0.00     0.079 C 
ATOM     49  H   LIG d   1       9.598   0.161  -9.519  0.00  0.00     0.066 H 
ATOM     50  H   LIG d   1       8.944  -1.139  -8.495  0.00  0.00     0.066 H 
ATOM     51  H   LIG d   1       8.235  -0.827 -10.098  0.00  0.00     0.066 H 
ENDBRANCH  47  48
ENDBRANCH   6  47
BRANCH   2  52
ATOM     52  O   LIG d   1       6.219  -1.421  -4.604  0.00  0.00    -0.506 OA
ATOM     53  H   LIG d   1       5.899  -1.176  -3.725  0.00  0.00     0.292 HD
ENDBRANCH   2  52
BRANCH  10  54
ATOM     54  C   LIG d   1      10.094   4.598  -4.163  0.00  0.00     0.018 A 
ATOM     55  C   LIG d   1       9.965   4.533  -2.773  0.00  0.00    -0.048 A 
ATOM     56  C   LIG d   1      10.548   5.499  -1.983  0.00  0.00    -0.019 A 
ATOM     57  H   LIG d   1       9.412   3.723  -2.319  0.00  0.00     0.063 H 
ATOM     58  C   LIG d   1      11.253   6.543  -2.566  0.00  0.00     0.124 A 
ATOM     59  H   LIG d   1      10.452   5.446  -0.908  0.00  0.00     0.065 H 
ATOM     60  C   LIG d   1      11.380   6.615  -3.948  0.00  0.00    -0.019 A 
ATOM     61  C   LIG d   1      10.806   5.651  -4.745  0.00  0.00    -0.048 A 
ATOM     62  H   LIG d   1      11.929   7.430  -4.397  0.00  0.00     0.065 H 
ATOM     63  H   LIG d   1      10.905   5.708  -5.820  0.00  0.00     0.063 H 
BRANCH  58  64
ATOM     64  O   LIG d   1      11.822   7.496  -1.784  0.00  0.00    -0.461 OA
BRANCH  64  65
ATOM     65  C   LIG d   1      10.958   8.201  -0.888  0.00  0.00     0.231 C 
ATOM     66  H   LIG d   1      10.515   7.498  -0.182  0.00  0.00     0.108 H 
ATOM     67  O   LIG d   1      11.713   9.182  -0.174  0.00  0.00    -0.331 OA
ATOM     68  C   LIG d   1      10.948   9.931   0.773  0.00  0.00     0.114 C 
ATOM     69  C   LIG d   1       9.838  10.692   0.043  0.00  0.00     0.112 C 
ATOM     70  H   LIG d   1      10.504   9.252   1.501  0.00  0.00     0.065 H 
ATOM     71  C   LIG d   1       8.965   9.694  -0.725  0.00  0.00     0.115 C 
ATOM     72  H   LIG d   1       9.226  11.228   0.768  0.00  0.00     0.065 H 
ATOM     73  C   LIG d   1       9.850   8.892  -1.684  0.00  0.00     0.145 C 
ATOM     74  H   LIG d   1       8.482   9.015  -0.021  0.00  0.00     0.065 H 
ATOM     75  H   LIG d   1       9.245   8.141  -2.195  0.00  0.00     0.068 H 
BRANCH  68  76
ATOM     76  C   LIG d   1      11.859  10.926   1.493  0.00  0.00     0.073 C 
ATOM     77  H   LIG d   1      12.223  10.481   2.419  0.00  0.00     0.058 H 
ATOM     78  H   LIG d   1      12.704  11.176   0.853  0.00  0.00     0.058 H 
BRANCH  76  79
ATOM     79  O   LIG d   1      11.122  12.114   1.796  0.00  0.00    -0.392 OA
ATOM     80  H   LIG d   1      10.180  12.055   1.589  0.00  0.00     0.209 HD
ENDBRANCH  76  79
ENDBRANCH  68  76
BRANCH  69  81
ATOM     81  O   LIG d   1      10.418  11.622  -0.874  0.00  0.00    -0.387 OA
ATOM     82  H   LIG d   1      10.208  12.547  -0.682  0.00  0.00     0.210 HD
ENDBRANCH  69  81
BRANCH  71  83
ATOM     83  O   LIG d   1       7.969  10.400  -1.468  0.00  0.00    -0.386 OA
ATOM     84  H   LIG d   1       8.323  10.913  -2.208  0.00  0.00     0.210 HD
ENDBRANCH  71  83
BRANCH  73  85
ATOM     85  O   LIG d   1      10.431   9.772  -2.648  0.00  0.00    -0.383 OA
ATOM     86  H   LIG d   1      10.852   9.319  -3.392  0.00  0.00     0.210 HD
ENDBRANCH  73  85
ENDBRANCH  64  65
ENDBRANCH  58  64
ENDBRANCH  10  54
TORSDOF 21
ENDMDL
MODEL 3
REMARK VINA RESULT:      -6.4      1.329      2.222
REMARK  21 active torsions:
REMARK  status: ('A' for Active; 'I' for Inactive)
REMARK    1  A    between atoms: C_1  and  C_2 
REMARK    2  A    between atoms: C_2  and  O_4 
REMARK    3  A    between atoms: O_4  and  C_5 
REMARK    4  A    between atoms: C_9  and  C_23 
REMARK    5  A    between atoms: C_11  and  O_19 
REMARK    6  A    between atoms: C_13  and  O_15 
REMARK    7  A    between atoms: O_15  and  C_16 
REMARK    8  A    between atoms: C_16  and  C_18 
REMARK    9  A    between atoms: O_19  and  C_20 
REMARK   10  A    between atoms: C_20  and  C_22 
REMARK   11  A    between atoms: C_24  and  O_59 
REMARK   12  A    between atoms: C_28  and  O_29 
REMARK   13  A    between atoms: O_29  and  C_30 
REMARK   14  A    between atoms: C_34  and  C_36 
REMARK   15  A    between atoms: C_39  and  O_42 
REMARK   16  A    between atoms: O_42  and  C_43 
REMARK   17  A    between atoms: C_45  and  O_58 
REMARK   18  A    between atoms: C_47  and  O_57 
REMARK   19  A    between atoms: C_49  and  O_56 
REMARK   20  A    between atoms: C_51  and  C_54 
REMARK   21  A    between atoms: C_54  and  O_55 
ROOT
ATOM      1  C   LIG d   1       7.811  -0.363  -5.587  0.00  0.00     0.069 A 
ATOM      2  C   LIG d   1       7.589  -0.040  -4.253  0.00  0.00     0.130 A 
ATOM      3  C   LIG d   1       7.903   1.220  -3.768  0.00  0.00     0.024 A 
ATOM      4  C   LIG d   1       8.447   2.173  -4.617  0.00  0.00     0.146 A 
ATOM      5  C   LIG d   1       8.673   1.849  -5.966  0.00  0.00     0.106 A 
ATOM      6  C   LIG d   1       8.357   0.572  -6.446  0.00  0.00     0.144 A 
ATOM      7  C   LIG d   1       9.250   2.877  -6.848  0.00  0.00     0.197 A 
ATOM      8  O   LIG d   1       9.468   2.651  -8.026  0.00  0.00    -0.287 OA
ATOM      9  C   LIG d   1       9.543   4.138  -6.274  0.00  0.00     0.029 A 
ATOM     10  C   LIG d   1       9.286   4.350  -4.956  0.00  0.00     0.139 A 
ATOM     11  O   LIG d   1       8.759   3.405  -4.161  0.00  0.00    -0.454 OA
ATOM     12  H   LIG d   1       7.725   1.460  -2.731  0.00  0.00     0.069 H 
ATOM     13  H   LIG d   1       9.968   4.925  -6.880  0.00  0.00     0.069 H 
ENDROOT
BRANCH   1  14
ATOM     14  C   LIG d   1       7.462  -1.738  -6.095  0.00  0.00     0.131 C 
ATOM     15  O   LIG d   1       7.662  -2.696  -5.054  0.00  0.00    -0.364 OA
ATOM     16  C   LIG d   1       7.384  -4.044  -5.440  0.00  0.00     0.089 C 
ATOM     17  C   LIG d   1       5.915  -4.162  -5.853  0.00  0.00     0.166 C 
ATOM     18  H   LIG d   1       7.580  -4.710  -4.600  0.00  0.00     0.060 H 
ATOM     19  H   LIG d   1       8.022  -4.320  -6.280  0.00  0.00     0.060 H 
ATOM     20  H   LIG d   1       5.276  -3.926  -5.002  0.00  0.00     0.080 H 
ATOM     21  C   LIG d   1       5.632  -3.179  -6.993  0.00  0.00     0.181 C 
ATOM     22  C   LIG d   1       5.996  -1.763  -6.535  0.00  0.00     0.173 C 
ATOM     23  H   LIG d   1       6.233  -3.446  -7.863  0.00  0.00     0.081 H 
ATOM     24  H   LIG d   1       5.851  -1.065  -7.359  0.00  0.00     0.080 H 
ATOM     25  H   LIG d   1       8.101  -1.985  -6.944  0.00  0.00     0.069 H 
BRANCH  17  26
ATOM     26  O   LIG d   1       5.648  -5.494  -6.294  0.00  0.00    -0.455 OA
BRANCH  26  27
ATOM     27  C   LIG d   1       4.828  -6.236  -5.533  0.00  0.00     0.304 C 
ATOM     28  O   LIG d   1       3.918  -5.710  -4.937  0.00  0.00    -0.251 OA
BRANCH  27  29
ATOM     29  C   LIG d   1       5.043  -7.724  -5.422  0.00  0.00     0.033 C 
ATOM     30  H   LIG d   1       5.948  -7.918  -4.849  0.00  0.00     0.034 H 
ATOM     31  H   LIG d   1       4.189  -8.177  -4.920  0.00  0.00     0.034 H 
ATOM     32  H   LIG d   1       5.146  -8.150  -6.420  0.00  0.00     0.034 H 
ENDBRANCH  27  29
ENDBRANCH  26  27
ENDBRANCH  17  26
BRANCH  21  33
ATOM     33  O   LIG d   1       4.245  -3.230  -7.335  0.00  0.00    -0.454 OA
BRANCH  33  34
ATOM     34  C   LIG d   1       3.904  -2.798  -8.559  0.00  0.00     0.304 C 
ATOM     35  O   LIG d   1       3.044  -1.959  -8.687  0.00  0.00    -0.251 OA
BRANCH  34  36
ATOM     36  C   LIG d   1       4.594  -3.361  -9.776  0.00  0.00     0.033 C 
ATOM     37  H   LIG d   1       4.923  -2.546 -10.418  0.00  0.00     0.034 H 
ATOM     38  H   LIG d   1       5.456  -3.951  -9.465  0.00  0.00     0.034 H 
ATOM     39  H   LIG d   1       3.899  -3.998 -10.324  0.00  0.00     0.034 H 
ENDBRANCH  34  36
ENDBRANCH  33  34
ENDBRANCH  21  33
BRANCH  22  40
ATOM     40  O   LIG d   1       5.162  -1.387  -5.437  0.00  0.00    -0.455 OA
BRANCH  40  41
ATOM     41  C   LIG d   1       4.299  -0.381  -5.645  0.00  0.00     0.304 C 
ATOM     42  O   LIG d   1       4.382   0.290  -6.647  0.00  0.00    -0.251 OA
BRANCH  41  43
ATOM     43  C   LIG d   1       3.226  -0.086  -4.629  0.00  0.00     0.033 C 
ATOM     44  H   LIG d   1       3.501  -0.529  -3.671  0.00  0.00     0.034 H 
ATOM     45  H   LIG d   1       3.121   0.993  -4.513  0.00  0.00     0.034 H 
ATOM     46  H   LIG d   1       2.279  -0.509  -4.966  0.00  0.00     0.034 H 
ENDBRANCH  41  43
ENDBRANCH  40  41
ENDBRANCH  22  40
ENDBRANCH   1  14
BRANCH   6  47
ATOM     47  O   LIG d   1       8.581   0.257  -7.747  0.00  0.00    -0.494 OA
BRANCH  47  48
ATOM     48  C   LIG d   1       9.716  -0.564  -8.031  0.00  0.00     0.079 C 
ATOM     49  H   LIG d   1      10.228  -0.182  -8.913  0.00  0.00     0.066 H 
ATOM     50  H   LIG d   1      10.397  -0.547  -7.180  0.00  0.00     0.066 H 
ATOM     51  H   LIG d   1       9.388  -1.587  -8.213  0.00  0.00     0.066 H 
ENDBRANCH  47  48
ENDBRANCH   6  47
BRANCH   2  52
ATOM     52  O   LIG d   1       7.056  -0.967  -3.415  0.00  0.00    -0.506 OA
ATOM     53  H   LIG d   1       7.552  -1.796  -3.381  0.00  0.00     0.292 HD
ENDBRANCH   2  52
BRANCH  10  54
ATOM     54  C   LIG d   1       9.598   5.670  -4.376  0.00  0.00     0.018 A 
ATOM     55  C   LIG d   1       9.860   5.792  -3.009  0.00  0.00    -0.048 A 
ATOM     56  C   LIG d   1      10.157   7.026  -2.473  0.00  0.00    -0.019 A 
ATOM     57  H   LIG d   1       9.835   4.918  -2.374  0.00  0.00     0.063 H 
ATOM     58  C   LIG d   1      10.184   8.151  -3.288  0.00  0.00     0.124 A 
ATOM     59  H   LIG d   1      10.365   7.119  -1.417  0.00  0.00     0.065 H 
ATOM     60  C   LIG d   1       9.919   8.035  -4.647  0.00  0.00    -0.019 A 
ATOM     61  C   LIG d   1       9.627   6.805  -5.192  0.00  0.00    -0.048 A 
ATOM     62  H   LIG d   1       9.940   8.913  -5.277  0.00  0.00     0.065 H 
ATOM     63  H   LIG d   1       9.421   6.717  -6.249  0.00  0.00     0.063 H 
BRANCH  58  64
ATOM     64  O   LIG d   1      10.471   9.365  -2.755  0.00  0.00    -0.461 OA
BRANCH  64  65
ATOM     65  C   LIG d   1      10.516   9.455  -1.329  0.00  0.00     0.231 C 
ATOM     66  H   LIG d   1       9.941   8.637  -0.895  0.00  0.00     0.108 H 
ATOM     67  O   LIG d   1      11.874   9.367  -0.890  0.00  0.00    -0.331 OA
ATOM     68  C   LIG d   1      12.033   9.420   0.530  0.00  0.00     0.114 C 
ATOM     69  C   LIG d   1      11.499  10.756   1.052  0.00  0.00     0.112 C 
ATOM     70  H   LIG d   1      11.477   8.602   0.988  0.00  0.00     0.065 H 
ATOM     71  C   LIG d   1      10.030  10.905   0.643  0.00  0.00     0.115 C 
ATOM     72  H   LIG d   1      11.578  10.780   2.139  0.00  0.00     0.065 H 
ATOM     73  C   LIG d   1       9.923  10.792  -0.881  0.00  0.00     0.145 C 
ATOM     74  H   LIG d   1       9.439  10.117   1.109  0.00  0.00     0.065 H 
ATOM     75  H   LIG d   1       8.874  10.842  -1.177  0.00  0.00     0.068 H 
BRANCH  68  76
ATOM     76  C   LIG d   1      13.515   9.290   0.883  0.00  0.00     0.073 C 
ATOM     77  H   LIG d   1      13.833   8.257   0.742  0.00  0.00     0.058 H 
ATOM     78  H   LIG d   1      14.102   9.942   0.238  0.00  0.00     0.058 H 
BRANCH  76  79
ATOM     79  O   LIG d   1      13.714   9.665   2.249  0.00  0.00    -0.392 OA
ATOM     80  H   LIG d   1      12.900   9.905   2.712  0.00  0.00     0.209 HD
ENDBRANCH  76  79
ENDBRANCH  68  76
BRANCH  69  81
ATOM     81  O   LIG d   1      12.262  11.828   0.494  0.00  0.00    -0.387 OA
ATOM     82  H   LIG d   1      12.244  12.639   1.020  0.00  0.00     0.210 HD
ENDBRANCH  69  81
BRANCH  71  83
ATOM     83  O   LIG d   1       9.543  12.182   1.063  0.00  0.00    -0.386 OA
ATOM     84  H   LIG d   1       8.586  12.211   1.202  0.00  0.00     0.210 HD
ENDBRANCH  71  83
BRANCH  73  85
ATOM     85  O   LIG d   1      10.643  11.863  -1.493  0.00  0.00    -0.383 OA
ATOM     86  H   LIG d   1      10.875  12.580  -0.886  0.00  0.00     0.210 HD
ENDBRANCH  73  85
ENDBRANCH  64  65
ENDBRANCH  58  64
ENDBRANCH  10  54
TORSDOF 21
ENDMDL
MODEL 4
REMARK VINA RESULT:      -6.4      1.873      2.256
REMARK  21 active torsions:
REMARK  status: ('A' for Active; 'I' for Inactive)
REMARK    1  A    between atoms: C_1  and  C_2 
REMARK    2  A    between atoms: C_2  and  O_4 
REMARK    3  A    between atoms: O_4  and  C_5 
REMARK    4  A    between atoms: C_9  and  C_23 
REMARK    5  A    between atoms: C_11  and  O_19 
REMARK    6  A    between atoms: C_13  and  O_15 
REMARK    7  A    between atoms: O_15  and  C_16 
REMARK    8  A    between atoms: C_16  and  C_18 
REMARK    9  A    between atoms: O_19  and  C_20 
REMARK   10  A    between atoms: C_20  and  C_22 
REMARK   11  A    between atoms: C_24  and  O_59 
REMARK   12  A    between atoms: C_28  and  O_29 
REMARK   13  A    between atoms: O_29  and  C_30 
REMARK   14  A    between atoms: C_34  and  C_36 
REMARK   15  A    between atoms: C_39  and  O_42 
REMARK   16  A    between atoms: O_42  and  C_43 
REMARK   17  A    between atoms: C_45  and  O_58 
REMARK   18  A    between atoms: C_47  and  O_57 
REMARK   19  A    between atoms: C_49  and  O_56 
REMARK   20  A    between atoms: C_51  and  C_54 
REMARK   21  A    between atoms: C_54  and  O_55 
ROOT
ATOM      1  C   LIG d   1       8.151  -0.424  -4.905  0.00  0.00     0.069 A 
ATOM      2  C   LIG d   1       7.212   0.257  -4.139  0.00  0.00     0.130 A 
ATOM      3  C   LIG d   1       7.499   1.507  -3.614  0.00  0.00     0.024 A 
ATOM      4  C   LIG d   1       8.735   2.091  -3.850  0.00  0.00     0.146 A 
ATOM      5  C   LIG d   1       9.687   1.405  -4.624  0.00  0.00     0.106 A 
ATOM      6  C   LIG d   1       9.390   0.140  -5.147  0.00  0.00     0.144 A 
ATOM      7  C   LIG d   1      10.991   2.045  -4.862  0.00  0.00     0.197 A 
ATOM      8  O   LIG d   1      11.854   1.496  -5.527  0.00  0.00    -0.287 OA
ATOM      9  C   LIG d   1      11.205   3.321  -4.290  0.00  0.00     0.029 A 
ATOM     10  C   LIG d   1      10.218   3.900  -3.555  0.00  0.00     0.139 A 
ATOM     11  O   LIG d   1       9.031   3.307  -3.346  0.00  0.00    -0.454 OA
ATOM     12  H   LIG d   1       6.762   2.027  -3.021  0.00  0.00     0.069 H 
ATOM     13  H   LIG d   1      12.146   3.832  -4.436  0.00  0.00     0.069 H 
ENDROOT
BRANCH   1  14
ATOM     14  C   LIG d   1       7.820  -1.781  -5.469  0.00  0.00     0.131 C 
ATOM     15  O   LIG d   1       6.952  -2.472  -4.568  0.00  0.00    -0.364 OA
ATOM     16  C   LIG d   1       6.595  -3.788  -4.996  0.00  0.00     0.089 C 
ATOM     17  C   LIG d   1       5.849  -3.705  -6.330  0.00  0.00     0.166 C 
ATOM     18  H   LIG d   1       5.952  -4.252  -4.248  0.00  0.00     0.060 H 
ATOM     19  H   LIG d   1       7.498  -4.387  -5.121  0.00  0.00     0.060 H 
ATOM     20  H   LIG d   1       4.925  -3.141  -6.196  0.00  0.00     0.080 H 
ATOM     21  C   LIG d   1       6.734  -2.998  -7.360  0.00  0.00     0.181 C 
ATOM     22  C   LIG d   1       7.122  -1.617  -6.822  0.00  0.00     0.173 C 
ATOM     23  H   LIG d   1       7.635  -3.587  -7.532  0.00  0.00     0.081 H 
ATOM     24  H   LIG d   1       7.799  -1.130  -7.523  0.00  0.00     0.080 H 
ATOM     25  H   LIG d   1       8.738  -2.354  -5.601  0.00  0.00     0.069 H 
BRANCH  17  26
ATOM     26  O   LIG d   1       5.541  -5.023  -6.788  0.00  0.00    -0.455 OA
BRANCH  26  27
ATOM     27  C   LIG d   1       4.590  -5.694  -6.120  0.00  0.00     0.304 C 
ATOM     28  O   LIG d   1       3.476  -5.234  -6.030  0.00  0.00    -0.251 OA
BRANCH  27  29
ATOM     29  C   LIG d   1       4.911  -7.022  -5.483  0.00  0.00     0.033 C 
ATOM     30  H   LIG d   1       4.574  -7.828  -6.133  0.00  0.00     0.034 H 
ATOM     31  H   LIG d   1       5.988  -7.102  -5.334  0.00  0.00     0.034 H 
ATOM     32  H   LIG d   1       4.405  -7.094  -4.521  0.00  0.00     0.034 H 
ENDBRANCH  27  29
ENDBRANCH  26  27
ENDBRANCH  17  26
BRANCH  21  33
ATOM     33  O   LIG d   1       6.017  -2.850  -8.587  0.00  0.00    -0.454 OA
BRANCH  33  34
ATOM     34  C   LIG d   1       6.745  -2.692  -9.703  0.00  0.00     0.304 C 
ATOM     35  O   LIG d   1       7.725  -3.374  -9.886  0.00  0.00    -0.251 OA
BRANCH  34  36
ATOM     36  C   LIG d   1       6.341  -1.663 -10.727  0.00  0.00     0.033 C 
ATOM     37  H   LIG d   1       6.947  -1.784 -11.624  0.00  0.00     0.034 H 
ATOM     38  H   LIG d   1       5.288  -1.795 -10.979  0.00  0.00     0.034 H 
ATOM     39  H   LIG d   1       6.493  -0.664 -10.317  0.00  0.00     0.034 H 
ENDBRANCH  34  36
ENDBRANCH  33  34
ENDBRANCH  21  33
BRANCH  22  40
ATOM     40  O   LIG d   1       5.948  -0.820  -6.659  0.00  0.00    -0.455 OA
BRANCH  40  41
ATOM     41  C   LIG d   1       5.808   0.232  -7.479  0.00  0.00     0.304 C 
ATOM     42  O   LIG d   1       4.706   0.656  -7.736  0.00  0.00    -0.251 OA
BRANCH  41  43
ATOM     43  C   LIG d   1       7.026   0.886  -8.081  0.00  0.00     0.033 C 
ATOM     44  H   LIG d   1       6.786   1.252  -9.080  0.00  0.00     0.034 H 
ATOM     45  H   LIG d   1       7.337   1.721  -7.453  0.00  0.00     0.034 H 
ATOM     46  H   LIG d   1       7.835   0.159  -8.146  0.00  0.00     0.034 H 
ENDBRANCH  41  43
ENDBRANCH  40  41
ENDBRANCH  22  40
ENDBRANCH   1  14
BRANCH   6  47
ATOM     47  O   LIG d   1      10.311  -0.525  -5.890  0.00  0.00    -0.494 OA
BRANCH  47  48
ATOM     48  C   LIG d   1      11.009  -1.596  -5.253  0.00  0.00     0.079 C 
ATOM     49  H   LIG d   1      11.559  -2.167  -6.000  0.00  0.00     0.066 H 
ATOM     50  H   LIG d   1      11.706  -1.190  -4.520  0.00  0.00     0.066 H 
ATOM     51  H   LIG d   1      10.293  -2.248  -4.751  0.00  0.00     0.066 H 
ENDBRANCH  47  48
ENDBRANCH   6  47
BRANCH   2  52
ATOM     52  O   LIG d   1       5.999  -0.307  -3.903  0.00  0.00    -0.506 OA
ATOM     53  H   LIG d   1       5.967  -0.851  -3.105  0.00  0.00     0.292 HD
ENDBRANCH   2  52
BRANCH  10  54
ATOM     54  C   LIG d   1      10.459   5.231  -2.966  0.00  0.00     0.018 A 
ATOM     55  C   LIG d   1      11.686   5.872  -3.157  0.00  0.00    -0.048 A 
ATOM     56  C   LIG d   1      11.903   7.117  -2.610  0.00  0.00    -0.019 A 
ATOM     57  H   LIG d   1      12.461   5.392  -3.736  0.00  0.00     0.063 H 
ATOM     58  C   LIG d   1      10.909   7.732  -1.859  0.00  0.00     0.124 A 
ATOM     59  H   LIG d   1      12.850   7.614  -2.761  0.00  0.00     0.065 H 
ATOM     60  C   LIG d   1       9.688   7.096  -1.663  0.00  0.00    -0.019 A 
ATOM     61  C   LIG d   1       9.460   5.854  -2.211  0.00  0.00    -0.048 A 
ATOM     62  H   LIG d   1       8.918   7.578  -1.079  0.00  0.00     0.065 H 
ATOM     63  H   LIG d   1       8.511   5.361  -2.058  0.00  0.00     0.063 H 
BRANCH  58  64
ATOM     64  O   LIG d   1      11.129   8.956  -1.317  0.00  0.00    -0.461 OA
BRANCH  64  65
ATOM     65  C   LIG d   1      10.989  10.085  -2.184  0.00  0.00     0.231 C 
ATOM     66  H   LIG d   1      11.972  10.507  -2.392  0.00  0.00     0.108 H 
ATOM     67  O   LIG d   1      10.379   9.671  -3.409  0.00  0.00    -0.331 OA
ATOM     68  C   LIG d   1      10.215  10.722  -4.363  0.00  0.00     0.114 C 
ATOM     69  C   LIG d   1       9.306  11.805  -3.776  0.00  0.00     0.112 C 
ATOM     70  H   LIG d   1      11.188  11.153  -4.600  0.00  0.00     0.065 H 
ATOM     71  C   LIG d   1       9.917  12.320  -2.469  0.00  0.00     0.115 C 
ATOM     72  H   LIG d   1       9.216  12.629  -4.484  0.00  0.00     0.065 H 
ATOM     73  C   LIG d   1      10.112  11.141  -1.510  0.00  0.00     0.145 C 
ATOM     74  H   LIG d   1      10.881  12.785  -2.675  0.00  0.00     0.065 H 
ATOM     75  H   LIG d   1      10.596  11.490  -0.598  0.00  0.00     0.068 H 
BRANCH  68  76
ATOM     76  C   LIG d   1       9.583  10.161  -5.637  0.00  0.00     0.073 C 
ATOM     77  H   LIG d   1       8.820  10.851  -5.998  0.00  0.00     0.058 H 
ATOM     78  H   LIG d   1      10.350  10.036  -6.400  0.00  0.00     0.058 H 
BRANCH  76  79
ATOM     79  O   LIG d   1       8.982   8.895  -5.353  0.00  0.00    -0.392 OA
ATOM     80  H   LIG d   1       8.790   8.366  -6.140  0.00  0.00     0.209 HD
ENDBRANCH  76  79
ENDBRANCH  68  76
BRANCH  69  81
ATOM     81  O   LIG d   1       8.013  11.255  -3.515  0.00  0.00    -0.387 OA
ATOM     82  H   LIG d   1       7.734  11.328  -2.592  0.00  0.00     0.210 HD
ENDBRANCH  69  81
BRANCH  71  83
ATOM     83  O   LIG d   1       9.040  13.280  -1.875  0.00  0.00    -0.386 OA
ATOM     84  H   LIG d   1       9.353  14.193  -1.943  0.00  0.00     0.210 HD
ENDBRANCH  71  83
BRANCH  73  85
ATOM     85  O   LIG d   1       8.842  10.572  -1.187  0.00  0.00    -0.383 OA
ATOM     86  H   LIG d   1       8.398  10.995  -0.439  0.00  0.00     0.210 HD
ENDBRANCH  73  85
ENDBRANCH  64  65
ENDBRANCH  58  64
ENDBRANCH  10  54
TORSDOF 21
ENDMDL
MODEL 5
REMARK VINA RESULT:      -6.1      2.483     13.948
REMARK  21 active torsions:
REMARK  status: ('A' for Active; 'I' for Inactive)
REMARK    1  A    between atoms: C_1  and  C_2 
REMARK    2  A    between atoms: C_2  and  O_4 
REMARK    3  A    between atoms: O_4  and  C_5 
REMARK    4  A    between atoms: C_9  and  C_23 
REMARK    5  A    between atoms: C_11  and  O_19 
REMARK    6  A    between atoms: C_13  and  O_15 
REMARK    7  A    between atoms: O_15  and  C_16 
REMARK    8  A    between atoms: C_16  and  C_18 
REMARK    9  A    between atoms: O_19  and  C_20 
REMARK   10  A    between atoms: C_20  and  C_22 
REMARK   11  A    between atoms: C_24  and  O_59 
REMARK   12  A    between atoms: C_28  and  O_29 
REMARK   13  A    between atoms: O_29  and  C_30 
REMARK   14  A    between atoms: C_34  and  C_36 
REMARK   15  A    between atoms: C_39  and  O_42 
REMARK   16  A    between atoms: O_42  and  C_43 
REMARK   17  A    between atoms: C_45  and  O_58 
REMARK   18  A    between atoms: C_47  and  O_57 
REMARK   19  A    between atoms: C_49  and  O_56 
REMARK   20  A    between atoms: C_51  and  C_54 
REMARK   21  A    between atoms: C_54  and  O_55 
ROOT
ATOM      1  C   LIG d   1      11.191   9.139  -1.918  0.00  0.00     0.069 A 
ATOM      2  C   LIG d   1       9.863   8.878  -1.598  0.00  0.00     0.130 A 
ATOM      3  C   LIG d   1       9.246   7.715  -2.032  0.00  0.00     0.024 A 
ATOM      4  C   LIG d   1       9.954   6.798  -2.795  0.00  0.00     0.146 A 
ATOM      5  C   LIG d   1      11.297   7.059  -3.120  0.00  0.00     0.106 A 
ATOM      6  C   LIG d   1      11.912   8.239  -2.682  0.00  0.00     0.144 A 
ATOM      7  C   LIG d   1      12.029   6.070  -3.929  0.00  0.00     0.197 A 
ATOM      8  O   LIG d   1      13.195   6.245  -4.240  0.00  0.00    -0.287 OA
ATOM      9  C   LIG d   1      11.326   4.910  -4.332  0.00  0.00     0.029 A 
ATOM     10  C   LIG d   1      10.026   4.752  -3.965  0.00  0.00     0.139 A 
ATOM     11  O   LIG d   1       9.369   5.660  -3.225  0.00  0.00    -0.454 OA
ATOM     12  H   LIG d   1       8.215   7.522  -1.778  0.00  0.00     0.069 H 
ATOM     13  H   LIG d   1      11.818   4.155  -4.927  0.00  0.00     0.069 H 
ENDROOT
BRANCH   1  14
ATOM     14  C   LIG d   1      11.845  10.408  -1.437  0.00  0.00     0.131 C 
ATOM     15  O   LIG d   1      10.877  11.459  -1.403  0.00  0.00    -0.364 OA
ATOM     16  C   LIG d   1      11.401  12.721  -0.983  0.00  0.00     0.089 C 
ATOM     17  C   LIG d   1      11.947  12.597   0.441  0.00  0.00     0.166 C 
ATOM     18  H   LIG d   1      10.608  13.468  -1.004  0.00  0.00     0.060 H 
ATOM     19  H   LIG d   1      12.204  13.023  -1.656  0.00  0.00     0.060 H 
ATOM     20  H   LIG d   1      11.136  12.335   1.122  0.00  0.00     0.080 H 
ATOM     21  C   LIG d   1      13.018  11.502   0.477  0.00  0.00     0.181 C 
ATOM     22  C   LIG d   1      12.409  10.191  -0.030  0.00  0.00     0.173 C 
ATOM     23  H   LIG d   1      13.852  11.787  -0.164  0.00  0.00     0.081 H 
ATOM     24  H   LIG d   1      13.179   9.420  -0.062  0.00  0.00     0.080 H 
ATOM     25  H   LIG d   1      12.654  10.680  -2.115  0.00  0.00     0.069 H 
BRANCH  17  26
ATOM     26  O   LIG d   1      12.523  13.841   0.842  0.00  0.00    -0.455 OA
BRANCH  26  27
ATOM     27  C   LIG d   1      12.029  14.412   1.952  0.00  0.00     0.304 C 
ATOM     28  O   LIG d   1      10.868  14.745   1.994  0.00  0.00    -0.251 OA
BRANCH  27  29
ATOM     29  C   LIG d   1      12.922  14.637   3.145  0.00  0.00     0.033 C 
ATOM     30  H   LIG d   1      13.244  13.676   3.544  0.00  0.00     0.034 H 
ATOM     31  H   LIG d   1      13.794  15.216   2.842  0.00  0.00     0.034 H 
ATOM     32  H   LIG d   1      12.371  15.183   3.912  0.00  0.00     0.034 H 
ENDBRANCH  27  29
ENDBRANCH  26  27
ENDBRANCH  17  26
BRANCH  21  33
ATOM     33  O   LIG d   1      13.480  11.328   1.818  0.00  0.00    -0.454 OA
BRANCH  33  34
ATOM     34  C   LIG d   1      14.808  11.258   1.999  0.00  0.00     0.304 C 
ATOM     35  O   LIG d   1      15.493  12.241   1.844  0.00  0.00    -0.251 OA
BRANCH  34  36
ATOM     36  C   LIG d   1      15.446   9.951   2.395  0.00  0.00     0.033 C 
ATOM     37  H   LIG d   1      15.026   9.613   3.342  0.00  0.00     0.034 H 
ATOM     38  H   LIG d   1      15.253   9.204   1.625  0.00  0.00     0.034 H 
ATOM     39  H   LIG d   1      16.521  10.091   2.504  0.00  0.00     0.034 H 
ENDBRANCH  34  36
ENDBRANCH  33  34
ENDBRANCH  21  33
BRANCH  22  40
ATOM     40  O   LIG d   1      11.358   9.781   0.847  0.00  0.00    -0.455 OA
BRANCH  40  41
ATOM     41  C   LIG d   1      11.597   8.714   1.625  0.00  0.00     0.304 C 
ATOM     42  O   LIG d   1      12.018   8.867   2.747  0.00  0.00    -0.251 OA
BRANCH  41  43
ATOM     43  C   LIG d   1      11.340   7.325   1.100  0.00  0.00     0.033 C 
ATOM     44  H   LIG d   1      10.981   7.386   0.072  0.00  0.00     0.034 H 
ATOM     45  H   LIG d   1      12.265   6.749   1.129  0.00  0.00     0.034 H 
ATOM     46  H   LIG d   1      10.587   6.835   1.718  0.00  0.00     0.034 H 
ENDBRANCH  41  43
ENDBRANCH  40  41
ENDBRANCH  22  40
ENDBRANCH   1  14
BRANCH   6  47
ATOM     47  O   LIG d   1      13.206   8.494  -3.000  0.00  0.00    -0.494 OA
BRANCH  47  48
ATOM     48  C   LIG d   1      13.443   9.449  -4.036  0.00  0.00     0.079 C 
ATOM     49  H   LIG d   1      13.474   8.940  -4.998  0.00  0.00     0.066 H 
ATOM     50  H   LIG d   1      12.641  10.187  -4.040  0.00  0.00     0.066 H 
ATOM     51  H   LIG d   1      14.396   9.948  -3.857  0.00  0.00     0.066 H 
ENDBRANCH  47  48
ENDBRANCH   6  47
BRANCH   2  52
ATOM     52  O   LIG d   1       9.163   9.770  -0.852  0.00  0.00    -0.506 OA
ATOM     53  H   LIG d   1       8.658   9.369  -0.131  0.00  0.00     0.292 HD
ENDBRANCH   2  52
BRANCH  10  54
ATOM     54  C   LIG d   1       9.309   3.536  -4.394  0.00  0.00     0.018 A 
ATOM     55  C   LIG d   1       8.936   2.572  -3.454  0.00  0.00    -0.048 A 
ATOM     56  C   LIG d   1       8.262   1.442  -3.859  0.00  0.00    -0.019 A 
ATOM     57  H   LIG d   1       9.172   2.717  -2.409  0.00  0.00     0.063 H 
ATOM     58  C   LIG d   1       7.963   1.253  -5.203  0.00  0.00     0.124 A 
ATOM     59  H   LIG d   1       7.968   0.699  -3.132  0.00  0.00     0.065 H 
ATOM     60  C   LIG d   1       8.338   2.206  -6.142  0.00  0.00    -0.019 A 
ATOM     61  C   LIG d   1       9.007   3.342  -5.745  0.00  0.00    -0.048 A 
ATOM     62  H   LIG d   1       8.104   2.054  -7.186  0.00  0.00     0.065 H 
ATOM     63  H   LIG d   1       9.297   4.082  -6.477  0.00  0.00     0.063 H 
BRANCH  58  64
ATOM     64  O   LIG d   1       7.304   0.134  -5.599  0.00  0.00    -0.461 OA
BRANCH  64  65
ATOM     65  C   LIG d   1       6.463  -0.500  -4.632  0.00  0.00     0.231 C 
ATOM     66  H   LIG d   1       7.071  -0.869  -3.807  0.00  0.00     0.108 H 
ATOM     67  O   LIG d   1       5.510   0.445  -4.138  0.00  0.00    -0.331 OA
ATOM     68  C   LIG d   1       4.631  -0.080  -3.141  0.00  0.00     0.114 C 
ATOM     69  C   LIG d   1       3.820  -1.235  -3.736  0.00  0.00     0.112 C 
ATOM     70  H   LIG d   1       5.215  -0.444  -2.296  0.00  0.00     0.065 H 
ATOM     71  C   LIG d   1       4.781  -2.306  -4.261  0.00  0.00     0.115 C 
ATOM     72  H   LIG d   1       3.181  -1.666  -2.965  0.00  0.00     0.065 H 
ATOM     73  C   LIG d   1       5.725  -1.670  -5.286  0.00  0.00     0.145 C 
ATOM     74  H   LIG d   1       5.362  -2.713  -3.434  0.00  0.00     0.065 H 
ATOM     75  H   LIG d   1       6.448  -2.413  -5.625  0.00  0.00     0.068 H 
BRANCH  68  76
ATOM     76  C   LIG d   1       3.680   1.020  -2.668  0.00  0.00     0.073 C 
ATOM     77  H   LIG d   1       2.708   0.585  -2.437  0.00  0.00     0.058 H 
ATOM     78  H   LIG d   1       4.087   1.495  -1.777  0.00  0.00     0.058 H 
BRANCH  76  79
ATOM     79  O   LIG d   1       3.529   1.996  -3.702  0.00  0.00    -0.392 OA
ATOM     80  H   LIG d   1       3.330   2.884  -3.377  0.00  0.00     0.209 HD
ENDBRANCH  76  79
ENDBRANCH  68  76
BRANCH  69  81
ATOM     81  O   LIG d   1       3.012  -0.750  -4.810  0.00  0.00    -0.387 OA
ATOM     82  H   LIG d   1       2.062  -0.863  -4.671  0.00  0.00     0.210 HD
ENDBRANCH  69  81
BRANCH  71  83
ATOM     83  O   LIG d   1       4.036  -3.355  -4.884  0.00  0.00    -0.386 OA
ATOM     84  H   LIG d   1       4.558  -4.146  -5.078  0.00  0.00     0.210 HD
ENDBRANCH  71  83
BRANCH  73  85
ATOM     85  O   LIG d   1       4.971  -1.196  -6.403  0.00  0.00    -0.383 OA
ATOM     86  H   LIG d   1       5.118  -0.262  -6.611  0.00  0.00     0.210 HD
ENDBRANCH  73  85
ENDBRANCH  64  65
ENDBRANCH  58  64
ENDBRANCH  10  54
TORSDOF 21
ENDMDL
MODEL 6
REMARK VINA RESULT:      -6.0      2.736     13.700
REMARK  21 active torsions:
REMARK  status: ('A' for Active; 'I' for Inactive)
REMARK    1  A    between atoms: C_1  and  C_2 
REMARK    2  A    between atoms: C_2  and  O_4 
REMARK    3  A    between atoms: O_4  and  C_5 
REMARK    4  A    between atoms: C_9  and  C_23 
REMARK    5  A    between atoms: C_11  and  O_19 
REMARK    6  A    between atoms: C_13  and  O_15 
REMARK    7  A    between atoms: O_15  and  C_16 
REMARK    8  A    between atoms: C_16  and  C_18 
REMARK    9  A    between atoms: O_19  and  C_20 
REMARK   10  A    between atoms: C_20  and  C_22 
REMARK   11  A    between atoms: C_24  and  O_59 
REMARK   12  A    between atoms: C_28  and  O_29 
REMARK   13  A    between atoms: O_29  and  C_30 
REMARK   14  A    between atoms: C_34  and  C_36 
REMARK   15  A    between atoms: C_39  and  O_42 
REMARK   16  A    between atoms: O_42  and  C_43 
REMARK   17  A    between atoms: C_45  and  O_58 
REMARK   18  A    between atoms: C_47  and  O_57 
REMARK   19  A    between atoms: C_49  and  O_56 
REMARK   20  A    between atoms: C_51  and  C_54 
REMARK   21  A    between atoms: C_54  and  O_55 
ROOT
ATOM      1  C   LIG d   1      11.263   8.021  -0.532  0.00  0.00     0.069 A 
ATOM      2  C   LIG d   1      11.220   6.803   0.138  0.00  0.00     0.130 A 
ATOM      3  C   LIG d   1      10.787   5.655  -0.508  0.00  0.00     0.024 A 
ATOM      4  C   LIG d   1      10.390   5.715  -1.835  0.00  0.00     0.146 A 
ATOM      5  C   LIG d   1      10.433   6.945  -2.515  0.00  0.00     0.106 A 
ATOM      6  C   LIG d   1      10.867   8.101  -1.854  0.00  0.00     0.144 A 
ATOM      7  C   LIG d   1      10.008   6.983  -3.925  0.00  0.00     0.197 A 
ATOM      8  O   LIG d   1      10.025   8.022  -4.563  0.00  0.00    -0.287 OA
ATOM      9  C   LIG d   1       9.579   5.767  -4.509  0.00  0.00     0.029 A 
ATOM     10  C   LIG d   1       9.575   4.630  -3.764  0.00  0.00     0.139 A 
ATOM     11  O   LIG d   1       9.965   4.607  -2.479  0.00  0.00    -0.454 OA
ATOM     12  H   LIG d   1      10.758   4.716   0.022  0.00  0.00     0.069 H 
ATOM     13  H   LIG d   1       9.257   5.743  -5.540  0.00  0.00     0.069 H 
ENDROOT
BRANCH   1  14
ATOM     14  C   LIG d   1      11.738   9.257   0.186  0.00  0.00     0.131 C 
ATOM     15  O   LIG d   1      11.426   9.150   1.576  0.00  0.00    -0.364 OA
ATOM     16  C   LIG d   1      11.812  10.288   2.350  0.00  0.00     0.089 C 
ATOM     17  C   LIG d   1      13.329  10.471   2.266  0.00  0.00     0.166 C 
ATOM     18  H   LIG d   1      11.521  10.136   3.390  0.00  0.00     0.060 H 
ATOM     19  H   LIG d   1      11.315  11.178   1.961  0.00  0.00     0.060 H 
ATOM     20  H   LIG d   1      13.826   9.599   2.693  0.00  0.00     0.080 H 
ATOM     21  C   LIG d   1      13.737  10.624   0.797  0.00  0.00     0.181 C 
ATOM     22  C   LIG d   1      13.253   9.398   0.014  0.00  0.00     0.173 C 
ATOM     23  H   LIG d   1      13.281  11.523   0.383  0.00  0.00     0.081 H 
ATOM     24  H   LIG d   1      13.489   9.525  -1.042  0.00  0.00     0.080 H 
ATOM     25  H   LIG d   1      11.242  10.134  -0.232  0.00  0.00     0.069 H 
BRANCH  17  26
ATOM     26  O   LIG d   1      13.710  11.641   2.991  0.00  0.00    -0.455 OA
BRANCH  26  27
ATOM     27  C   LIG d   1      13.590  11.596   4.327  0.00  0.00     0.304 C 
ATOM     28  O   LIG d   1      12.919  12.421   4.901  0.00  0.00    -0.251 OA
BRANCH  27  29
ATOM     29  C   LIG d   1      14.291  10.517   5.111  0.00  0.00     0.033 C 
ATOM     30  H   LIG d   1      15.148  10.155   4.545  0.00  0.00     0.034 H 
ATOM     31  H   LIG d   1      14.630  10.922   6.064  0.00  0.00     0.034 H 
ATOM     32  H   LIG d   1      13.600   9.693   5.291  0.00  0.00     0.034 H 
ENDBRANCH  27  29
ENDBRANCH  26  27
ENDBRANCH  17  26
BRANCH  21  33
ATOM     33  O   LIG d   1      15.160  10.720   0.703  0.00  0.00    -0.454 OA
BRANCH  33  34
ATOM     34  C   LIG d   1      15.657  11.359  -0.367  0.00  0.00     0.304 C 
ATOM     35  O   LIG d   1      15.172  12.405  -0.727  0.00  0.00    -0.251 OA
BRANCH  34  36
ATOM     36  C   LIG d   1      16.821  10.769  -1.122  0.00  0.00     0.033 C 
ATOM     37  H   LIG d   1      17.746  11.239  -0.789  0.00  0.00     0.034 H 
ATOM     38  H   LIG d   1      16.871   9.696  -0.934  0.00  0.00     0.034 H 
ATOM     39  H   LIG d   1      16.688  10.945  -2.189  0.00  0.00     0.034 H 
ENDBRANCH  34  36
ENDBRANCH  33  34
ENDBRANCH  21  33
BRANCH  22  40
ATOM     40  O   LIG d   1      13.901   8.227   0.512  0.00  0.00    -0.455 OA
BRANCH  40  41
ATOM     41  C   LIG d   1      14.833   7.666  -0.274  0.00  0.00     0.304 C 
ATOM     42  O   LIG d   1      15.788   7.116   0.219  0.00  0.00    -0.251 OA
BRANCH  41  43
ATOM     43  C   LIG d   1      14.688   7.723  -1.774  0.00  0.00     0.033 C 
ATOM     44  H   LIG d   1      14.364   8.721  -2.070  0.00  0.00     0.034 H 
ATOM     45  H   LIG d   1      15.648   7.499  -2.240  0.00  0.00     0.034 H 
ATOM     46  H   LIG d   1      13.948   6.991  -2.096  0.00  0.00     0.034 H 
ENDBRANCH  41  43
ENDBRANCH  40  41
ENDBRANCH  22  40
ENDBRANCH   1  14
BRANCH   6  47
ATOM     47  O   LIG d   1      10.903   9.289  -2.509  0.00  0.00    -0.494 OA
BRANCH  47  48
ATOM     48  C   LIG d   1       9.856  10.218  -2.225  0.00  0.00     0.079 C 
ATOM     49  H   LIG d   1       9.587  10.751  -3.137  0.00  0.00     0.066 H 
ATOM     50  H   LIG d   1       8.986   9.681  -1.848  0.00  0.00     0.066 H 
ATOM     51  H   LIG d   1      10.196  10.931  -1.474  0.00  0.00     0.066 H 
ENDBRANCH  47  48
ENDBRANCH   6  47
BRANCH   2  52
ATOM     52  O   LIG d   1      11.607   6.736   1.438  0.00  0.00    -0.506 OA
ATOM     53  H   LIG d   1      12.536   6.494   1.559  0.00  0.00     0.292 HD
ENDBRANCH   2  52
BRANCH  10  54
ATOM     54  C   LIG d   1       9.124   3.372  -4.390  0.00  0.00     0.018 A 
ATOM     55  C   LIG d   1       8.974   2.218  -3.617  0.00  0.00    -0.048 A 
ATOM     56  C   LIG d   1       8.548   1.048  -4.205  0.00  0.00    -0.019 A 
ATOM     57  H   LIG d   1       9.189   2.245  -2.558  0.00  0.00     0.063 H 
ATOM     58  C   LIG d   1       8.278   1.011  -5.567  0.00  0.00     0.124 A 
ATOM     59  H   LIG d   1       8.427   0.156  -3.607  0.00  0.00     0.065 H 
ATOM     60  C   LIG d   1       8.431   2.155  -6.341  0.00  0.00    -0.019 A 
ATOM     61  C   LIG d   1       8.851   3.331  -5.760  0.00  0.00    -0.048 A 
ATOM     62  H   LIG d   1       8.220   2.122  -7.400  0.00  0.00     0.065 H 
ATOM     63  H   LIG d   1       8.969   4.220  -6.363  0.00  0.00     0.063 H 
BRANCH  58  64
ATOM     64  O   LIG d   1       7.863  -0.145  -6.144  0.00  0.00    -0.461 OA
BRANCH  64  65
ATOM     65  C   LIG d   1       6.658  -0.727  -5.640  0.00  0.00     0.231 C 
ATOM     66  H   LIG d   1       6.883  -1.691  -5.185  0.00  0.00     0.108 H 
ATOM     67  O   LIG d   1       6.086   0.141  -4.660  0.00  0.00    -0.331 OA
ATOM     68  C   LIG d   1       4.884  -0.359  -4.068  0.00  0.00     0.114 C 
ATOM     69  C   LIG d   1       3.820  -0.540  -5.154  0.00  0.00     0.112 C 
ATOM     70  H   LIG d   1       5.085  -1.318  -3.593  0.00  0.00     0.065 H 
ATOM     71  C   LIG d   1       4.357  -1.489  -6.231  0.00  0.00     0.115 C 
ATOM     72  H   LIG d   1       2.918  -0.963  -4.713  0.00  0.00     0.065 H 
ATOM     73  C   LIG d   1       5.666  -0.922  -6.788  0.00  0.00     0.145 C 
ATOM     74  H   LIG d   1       4.541  -2.470  -5.793  0.00  0.00     0.065 H 
ATOM     75  H   LIG d   1       6.083  -1.619  -7.516  0.00  0.00     0.068 H 
BRANCH  68  76
ATOM     76  C   LIG d   1       4.379   0.634  -3.020  0.00  0.00     0.073 C 
ATOM     77  H   LIG d   1       3.290   0.677  -3.056  0.00  0.00     0.058 H 
ATOM     78  H   LIG d   1       4.698   0.312  -2.030  0.00  0.00     0.058 H 
BRANCH  76  79
ATOM     79  O   LIG d   1       4.915   1.931  -3.295  0.00  0.00    -0.392 OA
ATOM     80  H   LIG d   1       5.619   1.932  -3.957  0.00  0.00     0.209 HD
ENDBRANCH  76  79
ENDBRANCH  68  76
BRANCH  69  81
ATOM     81  O   LIG d   1       3.516   0.726  -5.743  0.00  0.00    -0.387 OA
ATOM     82  H   LIG d   1       2.573   0.866  -5.909  0.00  0.00     0.210 HD
ENDBRANCH  69  81
BRANCH  71  83
ATOM     83  O   LIG d   1       3.399  -1.608  -7.285  0.00  0.00    -0.386 OA
ATOM     84  H   LIG d   1       3.389  -0.856  -7.894  0.00  0.00     0.210 HD
ENDBRANCH  71  83
BRANCH  73  85
ATOM     85  O   LIG d   1       5.413   0.334  -7.421  0.00  0.00    -0.383 OA
ATOM     86  H   LIG d   1       4.498   0.453  -7.708  0.00  0.00     0.210 HD
ENDBRANCH  73  85
ENDBRANCH  64  65
ENDBRANCH  58  64
ENDBRANCH  10  54
TORSDOF 21
ENDMDL
MODEL 7
REMARK VINA RESULT:      -5.9      2.556      4.573
REMARK  21 active torsions:
REMARK  status: ('A' for Active; 'I' for Inactive)
REMARK    1  A    between atoms: C_1  and  C_2 
REMARK    2  A    between atoms: C_2  and  O_4 
REMARK    3  A    between atoms: O_4  and  C_5 
REMARK    4  A    between atoms: C_9  and  C_23 
REMARK    5  A    between atoms: C_11  and  O_19 
REMARK    6  A    between atoms: C_13  and  O_15 
REMARK    7  A    between atoms: O_15  and  C_16 
REMARK    8  A    between atoms: C_16  and  C_18 
REMARK    9  A    between atoms: O_19  and  C_20 
REMARK   10  A    between atoms: C_20  and  C_22 
REMARK   11  A    between atoms: C_24  and  O_59 
REMARK   12  A    between atoms: C_28  and  O_29 
REMARK   13  A    between atoms: O_29  and  C_30 
REMARK   14  A    between atoms: C_34  and  C_36 
REMARK   15  A    between atoms: C_39  and  O_42 
REMARK   16  A    between atoms: O_42  and  C_43 
REMARK   17  A    between atoms: C_45  and  O_58 
REMARK   18  A    between atoms: C_47  and  O_57 
REMARK   19  A    between atoms: C_49  and  O_56 
REMARK   20  A    between atoms: C_51  and  C_54 
REMARK   21  A    between atoms: C_54  and  O_55 
ROOT
ATOM      1  C   LIG d   1       5.349  -1.875  -8.647  0.00  0.00     0.069 A 
ATOM      2  C   LIG d   1       4.891  -1.475  -7.396  0.00  0.00     0.130 A 
ATOM      3  C   LIG d   1       5.535  -0.465  -6.697  0.00  0.00     0.024 A 
ATOM      4  C   LIG d   1       6.648   0.155  -7.243  0.00  0.00     0.146 A 
ATOM      5  C   LIG d   1       7.113  -0.247  -8.507  0.00  0.00     0.106 A 
ATOM      6  C   LIG d   1       6.460  -1.271  -9.205  0.00  0.00     0.144 A 
ATOM      7  C   LIG d   1       8.296   0.427  -9.068  0.00  0.00     0.197 A 
ATOM      8  O   LIG d   1       8.742   0.119 -10.160  0.00  0.00    -0.287 OA
ATOM      9  C   LIG d   1       8.894   1.447  -8.290  0.00  0.00     0.029 A 
ATOM     10  C   LIG d   1       8.366   1.761  -7.077  0.00  0.00     0.139 A 
ATOM     11  O   LIG d   1       7.286   1.140  -6.576  0.00  0.00    -0.454 OA
ATOM     12  H   LIG d   1       5.170  -0.163  -5.727  0.00  0.00     0.069 H 
ATOM     13  H   LIG d   1       9.764   1.971  -8.657  0.00  0.00     0.069 H 
ENDROOT
BRANCH   1  14
ATOM     14  C   LIG d   1       4.636  -2.973  -9.392  0.00  0.00     0.131 C 
ATOM     15  O   LIG d   1       3.944  -3.809  -8.462  0.00  0.00    -0.364 OA
ATOM     16  C   LIG d   1       3.252  -4.904  -9.065  0.00  0.00     0.089 C 
ATOM     17  C   LIG d   1       2.190  -4.367 -10.028  0.00  0.00     0.166 C 
ATOM     18  H   LIG d   1       2.770  -5.500  -8.289  0.00  0.00     0.060 H 
ATOM     19  H   LIG d   1       3.961  -5.525  -9.613  0.00  0.00     0.060 H 
ATOM     20  H   LIG d   1       1.457  -3.781  -9.473  0.00  0.00     0.080 H 
ATOM     21  C   LIG d   1       2.866  -3.481 -11.078  0.00  0.00     0.181 C 
ATOM     22  C   LIG d   1       3.630  -2.358 -10.369  0.00  0.00     0.173 C 
ATOM     23  H   LIG d   1       3.562  -4.078 -11.667  0.00  0.00     0.081 H 
ATOM     24  H   LIG d   1       4.160  -1.756 -11.106  0.00  0.00     0.080 H 
ATOM     25  H   LIG d   1       5.362  -3.568  -9.945  0.00  0.00     0.069 H 
BRANCH  17  26
ATOM     26  O   LIG d   1       1.536  -5.460 -10.675  0.00  0.00    -0.455 OA
BRANCH  26  27
ATOM     27  C   LIG d   1       0.286  -5.744 -10.276  0.00  0.00     0.304 C 
ATOM     28  O   LIG d   1       0.073  -6.733  -9.615  0.00  0.00    -0.251 OA
BRANCH  27  29
ATOM     29  C   LIG d   1      -0.851  -4.830 -10.653  0.00  0.00     0.033 C 
ATOM     30  H   LIG d   1      -0.660  -3.832 -10.262  0.00  0.00     0.034 H 
ATOM     31  H   LIG d   1      -0.937  -4.785 -11.739  0.00  0.00     0.034 H 
ATOM     32  H   LIG d   1      -1.780  -5.214 -10.231  0.00  0.00     0.034 H 
ENDBRANCH  27  29
ENDBRANCH  26  27
ENDBRANCH  17  26
BRANCH  21  33
ATOM     33  O   LIG d   1       1.873  -2.916 -11.938  0.00  0.00    -0.454 OA
BRANCH  33  34
ATOM     34  C   LIG d   1       2.125  -2.938 -13.256  0.00  0.00     0.304 C 
ATOM     35  O   LIG d   1       2.466  -1.928 -13.824  0.00  0.00    -0.251 OA
BRANCH  34  36
ATOM     36  C   LIG d   1       1.980  -4.225 -14.027  0.00  0.00     0.033 C 
ATOM     37  H   LIG d   1       2.101  -5.071 -13.351  0.00  0.00     0.034 H 
ATOM     38  H   LIG d   1       0.992  -4.265 -14.486  0.00  0.00     0.034 H 
ATOM     39  H   LIG d   1       2.743  -4.269 -14.805  0.00  0.00     0.034 H 
ENDBRANCH  34  36
ENDBRANCH  33  34
ENDBRANCH  21  33
BRANCH  22  40
ATOM     40  O   LIG d   1       2.710  -1.534  -9.650  0.00  0.00    -0.455 OA
BRANCH  40  41
ATOM     41  C   LIG d   1       2.691  -0.229  -9.961  0.00  0.00     0.304 C 
ATOM     42  O   LIG d   1       2.069   0.547  -9.275  0.00  0.00    -0.251 OA
BRANCH  41  43
ATOM     43  C   LIG d   1       3.444   0.269 -11.169  0.00  0.00     0.033 C 
ATOM     44  H   LIG d   1       2.833   0.997 -11.703  0.00  0.00     0.034 H 
ATOM     45  H   LIG d   1       4.373   0.740 -10.848  0.00  0.00     0.034 H 
ATOM     46  H   LIG d   1       3.670  -0.569 -11.828  0.00  0.00     0.034 H 
ENDBRANCH  41  43
ENDBRANCH  40  41
ENDBRANCH  22  40
ENDBRANCH   1  14
BRANCH   6  47
ATOM     47  O   LIG d   1       6.912  -1.664 -10.423  0.00  0.00    -0.494 OA
BRANCH  47  48
ATOM     48  C   LIG d   1       7.648  -2.887 -10.479  0.00  0.00     0.079 C 
ATOM     49  H   LIG d   1       7.346  -3.453 -11.360  0.00  0.00     0.066 H 
ATOM     50  H   LIG d   1       8.714  -2.668 -10.536  0.00  0.00     0.066 H 
ATOM     51  H   LIG d   1       7.445  -3.474  -9.583  0.00  0.00     0.066 H 
ENDBRANCH  47  48
ENDBRANCH   6  47
BRANCH   2  52
ATOM     52  O   LIG d   1       3.801  -2.077  -6.854  0.00  0.00    -0.506 OA
ATOM     53  H   LIG d   1       3.082  -2.228  -7.483  0.00  0.00     0.292 HD
ENDBRANCH   2  52
BRANCH  10  54
ATOM     54  C   LIG d   1       9.004   2.827  -6.279  0.00  0.00     0.018 A 
ATOM     55  C   LIG d   1       8.846   2.854  -4.892  0.00  0.00    -0.048 A 
ATOM     56  C   LIG d   1       9.448   3.848  -4.151  0.00  0.00    -0.019 A 
ATOM     57  H   LIG d   1       8.256   2.094  -4.400  0.00  0.00     0.063 H 
ATOM     58  C   LIG d   1      10.202   4.828  -4.784  0.00  0.00     0.124 A 
ATOM     59  H   LIG d   1       9.330   3.867  -3.078  0.00  0.00     0.065 H 
ATOM     60  C   LIG d   1      10.357   4.808  -6.165  0.00  0.00    -0.019 A 
ATOM     61  C   LIG d   1       9.763   3.815  -6.912  0.00  0.00    -0.048 A 
ATOM     62  H   LIG d   1      10.943   5.573  -6.653  0.00  0.00     0.065 H 
ATOM     63  H   LIG d   1       9.885   3.800  -7.986  0.00  0.00     0.063 H 
BRANCH  58  64
ATOM     64  O   LIG d   1      10.788   5.809  -4.051  0.00  0.00    -0.461 OA
BRANCH  64  65
ATOM     65  C   LIG d   1      10.184   6.132  -2.797  0.00  0.00     0.231 C 
ATOM     66  H   LIG d   1       9.280   5.538  -2.665  0.00  0.00     0.108 H 
ATOM     67  O   LIG d   1      11.102   5.844  -1.739  0.00  0.00    -0.331 OA
ATOM     68  C   LIG d   1      10.587   6.107  -0.432  0.00  0.00     0.114 C 
ATOM     69  C   LIG d   1      10.245   7.595  -0.310  0.00  0.00     0.112 C 
ATOM     70  H   LIG d   1       9.688   5.514  -0.269  0.00  0.00     0.065 H 
ATOM     71  C   LIG d   1       9.236   7.970  -1.400  0.00  0.00     0.115 C 
ATOM     72  H   LIG d   1       9.810   7.790   0.670  0.00  0.00     0.065 H 
ATOM     73  C   LIG d   1       9.827   7.619  -2.770  0.00  0.00     0.145 C 
ATOM     74  H   LIG d   1       8.312   7.413  -1.249  0.00  0.00     0.065 H 
ATOM     75  H   LIG d   1       9.094   7.833  -3.548  0.00  0.00     0.068 H 
BRANCH  68  76
ATOM     76  C   LIG d   1      11.638   5.738   0.615  0.00  0.00     0.073 C 
ATOM     77  H   LIG d   1      11.635   4.660   0.769  0.00  0.00     0.058 H 
ATOM     78  H   LIG d   1      12.622   6.054   0.271  0.00  0.00     0.058 H 
BRANCH  76  79
ATOM     79  O   LIG d   1      11.333   6.395   1.849  0.00  0.00    -0.392 OA
ATOM     80  H   LIG d   1      11.286   7.358   1.780  0.00  0.00     0.209 HD
ENDBRANCH  76  79
ENDBRANCH  68  76
BRANCH  69  81
ATOM     81  O   LIG d   1      11.433   8.374  -0.470  0.00  0.00    -0.387 OA
ATOM     82  H   LIG d   1      12.054   8.015  -1.118  0.00  0.00     0.210 HD
ENDBRANCH  69  81
BRANCH  71  83
ATOM     83  O   LIG d   1       8.966   9.372  -1.341  0.00  0.00    -0.386 OA
ATOM     84  H   LIG d   1       9.516   9.852  -0.706  0.00  0.00     0.210 HD
ENDBRANCH  71  83
BRANCH  73  85
ATOM     85  O   LIG d   1      11.004   8.397  -2.997  0.00  0.00    -0.383 OA
ATOM     86  H   LIG d   1      11.330   8.361  -3.907  0.00  0.00     0.210 HD
ENDBRANCH  73  85
ENDBRANCH  64  65
ENDBRANCH  58  64
ENDBRANCH  10  54
TORSDOF 21
ENDMDL
MODEL 8
REMARK VINA RESULT:      -5.8      2.425      4.029
REMARK  21 active torsions:
REMARK  status: ('A' for Active; 'I' for Inactive)
REMARK    1  A    between atoms: C_1  and  C_2 
REMARK    2  A    between atoms: C_2  and  O_4 
REMARK    3  A    between atoms: O_4  and  C_5 
REMARK    4  A    between atoms: C_9  and  C_23 
REMARK    5  A    between atoms: C_11  and  O_19 
REMARK    6  A    between atoms: C_13  and  O_15 
REMARK    7  A    between atoms: O_15  and  C_16 
REMARK    8  A    between atoms: C_16  and  C_18 
REMARK    9  A    between atoms: O_19  and  C_20 
REMARK   10  A    between atoms: C_20  and  C_22 
REMARK   11  A    between atoms: C_24  and  O_59 
REMARK   12  A    between atoms: C_28  and  O_29 
REMARK   13  A    between atoms: O_29  and  C_30 
REMARK   14  A    between atoms: C_34  and  C_36 
REMARK   15  A    between atoms: C_39  and  O_42 
REMARK   16  A    between atoms: O_42  and  C_43 
REMARK   17  A    between atoms: C_45  and  O_58 
REMARK   18  A    between atoms: C_47  and  O_57 
REMARK   19  A    between atoms: C_49  and  O_56 
REMARK   20  A    between atoms: C_51  and  C_54 
REMARK   21  A    between atoms: C_54  and  O_55 
ROOT
ATOM      1  C   LIG d   1       5.470  -1.322  -8.208  0.00  0.00     0.069 A 
ATOM      2  C   LIG d   1       4.836  -0.928  -7.034  0.00  0.00     0.130 A 
ATOM      3  C   LIG d   1       5.473  -0.089  -6.133  0.00  0.00     0.024 A 
ATOM      4  C   LIG d   1       6.756   0.365  -6.397  0.00  0.00     0.146 A 
ATOM      5  C   LIG d   1       7.400  -0.031  -7.583  0.00  0.00     0.106 A 
ATOM      6  C   LIG d   1       6.752  -0.883  -8.486  0.00  0.00     0.144 A 
ATOM      7  C   LIG d   1       8.762   0.465  -7.842  0.00  0.00     0.197 A 
ATOM      8  O   LIG d   1       9.367   0.154  -8.854  0.00  0.00    -0.287 OA
ATOM      9  C   LIG d   1       9.341   1.317  -6.871  0.00  0.00     0.029 A 
ATOM     10  C   LIG d   1       8.633   1.640  -5.756  0.00  0.00     0.139 A 
ATOM     11  O   LIG d   1       7.391   1.182  -5.530  0.00  0.00    -0.454 OA
ATOM     12  H   LIG d   1       4.971   0.210  -5.226  0.00  0.00     0.069 H 
ATOM     13  H   LIG d   1      10.338   1.707  -7.015  0.00  0.00     0.069 H 
ENDROOT
BRANCH   1  14
ATOM     14  C   LIG d   1       4.762  -2.233  -9.176  0.00  0.00     0.131 C 
ATOM     15  O   LIG d   1       3.861  -3.081  -8.460  0.00  0.00    -0.364 OA
ATOM     16  C   LIG d   1       3.153  -4.008  -9.285  0.00  0.00     0.089 C 
ATOM     17  C   LIG d   1       2.302  -3.241 -10.299  0.00  0.00     0.166 C 
ATOM     18  H   LIG d   1       2.506  -4.628  -8.663  0.00  0.00     0.060 H 
ATOM     19  H   LIG d   1       3.865  -4.643  -9.813  0.00  0.00     0.060 H 
ATOM     20  H   LIG d   1       1.562  -2.638  -9.772  0.00  0.00     0.080 H 
ATOM     21  C   LIG d   1       3.209  -2.328 -11.129  0.00  0.00     0.181 C 
ATOM     22  C   LIG d   1       3.975  -1.394 -10.186  0.00  0.00     0.173 C 
ATOM     23  H   LIG d   1       3.916  -2.933 -11.696  0.00  0.00     0.081 H 
ATOM     24  H   LIG d   1       4.665  -0.779 -10.764  0.00  0.00     0.080 H 
ATOM     25  H   LIG d   1       5.495  -2.844  -9.703  0.00  0.00     0.069 H 
BRANCH  17  26
ATOM     26  O   LIG d   1       1.637  -4.165 -11.162  0.00  0.00    -0.455 OA
BRANCH  26  27
ATOM     27  C   LIG d   1       0.296  -4.118 -11.189  0.00  0.00     0.304 C 
ATOM     28  O   LIG d   1      -0.268  -3.419 -11.997  0.00  0.00    -0.251 OA
BRANCH  27  29
ATOM     29  C   LIG d   1      -0.506  -4.938 -10.212  0.00  0.00     0.033 C 
ATOM     30  H   LIG d   1      -0.236  -5.989 -10.311  0.00  0.00     0.034 H 
ATOM     31  H   LIG d   1      -0.294  -4.603  -9.196  0.00  0.00     0.034 H 
ATOM     32  H   LIG d   1      -1.569  -4.814 -10.421  0.00  0.00     0.034 H 
ENDBRANCH  27  29
ENDBRANCH  26  27
ENDBRANCH  17  26
BRANCH  21  33
ATOM     33  O   LIG d   1       2.413  -1.552 -12.028  0.00  0.00    -0.454 OA
BRANCH  33  34
ATOM     34  C   LIG d   1       2.720  -1.628 -13.333  0.00  0.00     0.304 C 
ATOM     35  O   LIG d   1       2.008  -2.248 -14.086  0.00  0.00    -0.251 OA
BRANCH  34  36
ATOM     36  C   LIG d   1       3.955  -0.941 -13.857  0.00  0.00     0.033 C 
ATOM     37  H   LIG d   1       3.736   0.110 -14.039  0.00  0.00     0.034 H 
ATOM     38  H   LIG d   1       4.757  -1.024 -13.123  0.00  0.00     0.034 H 
ATOM     39  H   LIG d   1       4.265  -1.415 -14.789  0.00  0.00     0.034 H 
ENDBRANCH  34  36
ENDBRANCH  33  34
ENDBRANCH  21  33
BRANCH  22  40
ATOM     40  O   LIG d   1       3.052  -0.553  -9.492  0.00  0.00    -0.455 OA
BRANCH  40  41
ATOM     41  C   LIG d   1       3.188   0.771  -9.662  0.00  0.00     0.304 C 
ATOM     42  O   LIG d   1       2.689   1.536  -8.871  0.00  0.00    -0.251 OA
BRANCH  41  43
ATOM     43  C   LIG d   1       3.963   1.304 -10.840  0.00  0.00     0.033 C 
ATOM     44  H   LIG d   1       4.844   0.685 -11.006  0.00  0.00     0.034 H 
ATOM     45  H   LIG d   1       3.332   1.284 -11.729  0.00  0.00     0.034 H 
ATOM     46  H   LIG d   1       4.272   2.330 -10.638  0.00  0.00     0.034 H 
ENDBRANCH  41  43
ENDBRANCH  40  41
ENDBRANCH  22  40
ENDBRANCH   1  14
BRANCH   6  47
ATOM     47  O   LIG d   1       7.374  -1.270  -9.628  0.00  0.00    -0.494 OA
BRANCH  47  48
ATOM     48  C   LIG d   1       7.134  -0.485 -10.797  0.00  0.00     0.079 C 
ATOM     49  H   LIG d   1       6.427   0.310 -10.561  0.00  0.00     0.066 H 
ATOM     50  H   LIG d   1       8.071  -0.047 -11.140  0.00  0.00     0.066 H 
ATOM     51  H   LIG d   1       6.720  -1.119 -11.581  0.00  0.00     0.066 H 
ENDBRANCH  47  48
ENDBRANCH   6  47
BRANCH   2  52
ATOM     52  O   LIG d   1       3.579  -1.368  -6.769  0.00  0.00    -0.506 OA
ATOM     53  H   LIG d   1       2.906  -1.018  -7.367  0.00  0.00     0.292 HD
ENDBRANCH   2  52
BRANCH  10  54
ATOM     54  C   LIG d   1       9.253   2.529  -4.755  0.00  0.00     0.018 A 
ATOM     55  C   LIG d   1       9.104   3.914  -4.858  0.00  0.00    -0.048 A 
ATOM     56  C   LIG d   1       9.680   4.740  -3.917  0.00  0.00    -0.019 A 
ATOM     57  H   LIG d   1       8.534   4.337  -5.673  0.00  0.00     0.063 H 
ATOM     58  C   LIG d   1      10.418   4.197  -2.873  0.00  0.00     0.124 A 
ATOM     59  H   LIG d   1       9.560   5.811  -3.994  0.00  0.00     0.065 H 
ATOM     60  C   LIG d   1      10.574   2.820  -2.769  0.00  0.00    -0.019 A 
ATOM     61  C   LIG d   1       9.997   1.987  -3.702  0.00  0.00    -0.048 A 
ATOM     62  H   LIG d   1      11.149   2.403  -1.956  0.00  0.00     0.065 H 
ATOM     63  H   LIG d   1      10.118   0.917  -3.620  0.00  0.00     0.063 H 
BRANCH  58  64
ATOM     64  O   LIG d   1      10.988   5.014  -1.952  0.00  0.00    -0.461 OA
BRANCH  64  65
ATOM     65  C   LIG d   1      11.024   6.411  -2.255  0.00  0.00     0.231 C 
ATOM     66  H   LIG d   1      10.825   6.557  -3.317  0.00  0.00     0.108 H 
ATOM     67  O   LIG d   1      10.030   7.090  -1.485  0.00  0.00    -0.331 OA
ATOM     68  C   LIG d   1       9.962   8.496  -1.732  0.00  0.00     0.114 C 
ATOM     69  C   LIG d   1      11.301   9.143  -1.369  0.00  0.00     0.112 C 
ATOM     70  H   LIG d   1       9.749   8.671  -2.787  0.00  0.00     0.065 H 
ATOM     71  C   LIG d   1      12.417   8.480  -2.184  0.00  0.00     0.115 C 
ATOM     72  H   LIG d   1      11.266  10.208  -1.598  0.00  0.00     0.065 H 
ATOM     73  C   LIG d   1      12.405   6.973  -1.913  0.00  0.00     0.145 C 
ATOM     74  H   LIG d   1      12.249   8.661  -3.246  0.00  0.00     0.065 H 
ATOM     75  H   LIG d   1      13.161   6.486  -2.531  0.00  0.00     0.068 H 
BRANCH  68  76
ATOM     76  C   LIG d   1       8.851   9.111  -0.879  0.00  0.00     0.073 C 
ATOM     77  H   LIG d   1       9.224   9.288   0.130  0.00  0.00     0.058 H 
ATOM     78  H   LIG d   1       8.534  10.055  -1.320  0.00  0.00     0.058 H 
BRANCH  76  79
ATOM     79  O   LIG d   1       7.740   8.213  -0.825  0.00  0.00    -0.392 OA
ATOM     80  H   LIG d   1       7.826   7.523  -0.154  0.00  0.00     0.209 HD
ENDBRANCH  76  79
ENDBRANCH  68  76
BRANCH  69  81
ATOM     81  O   LIG d   1      11.557   8.962   0.026  0.00  0.00    -0.387 OA
ATOM     82  H   LIG d   1      10.762   8.816   0.556  0.00  0.00     0.210 HD
ENDBRANCH  69  81
BRANCH  71  83
ATOM     83  O   LIG d   1      13.680   9.026  -1.799  0.00  0.00    -0.386 OA
ATOM     84  H   LIG d   1      13.621   9.718  -1.125  0.00  0.00     0.210 HD
ENDBRANCH  71  83
BRANCH  73  85
ATOM     85  O   LIG d   1      12.690   6.732  -0.534  0.00  0.00    -0.383 OA
ATOM     86  H   LIG d   1      13.499   7.159  -0.218  0.00  0.00     0.210 HD
ENDBRANCH  73  85
ENDBRANCH  64  65
ENDBRANCH  58  64
ENDBRANCH  10  54
TORSDOF 21
ENDMDL
MODEL 9
REMARK VINA RESULT:      -5.8      2.672     13.907
REMARK  21 active torsions:
REMARK  status: ('A' for Active; 'I' for Inactive)
REMARK    1  A    between atoms: C_1  and  C_2 
REMARK    2  A    between atoms: C_2  and  O_4 
REMARK    3  A    between atoms: O_4  and  C_5 
REMARK    4  A    between atoms: C_9  and  C_23 
REMARK    5  A    between atoms: C_11  and  O_19 
REMARK    6  A    between atoms: C_13  and  O_15 
REMARK    7  A    between atoms: O_15  and  C_16 
REMARK    8  A    between atoms: C_16  and  C_18 
REMARK    9  A    between atoms: O_19  and  C_20 
REMARK   10  A    between atoms: C_20  and  C_22 
REMARK   11  A    between atoms: C_24  and  O_59 
REMARK   12  A    between atoms: C_28  and  O_29 
REMARK   13  A    between atoms: O_29  and  C_30 
REMARK   14  A    between atoms: C_34  and  C_36 
REMARK   15  A    between atoms: C_39  and  O_42 
REMARK   16  A    between atoms: O_42  and  C_43 
REMARK   17  A    between atoms: C_45  and  O_58 
REMARK   18  A    between atoms: C_47  and  O_57 
REMARK   19  A    between atoms: C_49  and  O_56 
REMARK   20  A    between atoms: C_51  and  C_54 
REMARK   21  A    between atoms: C_54  and  O_55 
ROOT
ATOM      1  C   LIG d   1      11.257   7.752  -0.763  0.00  0.00     0.069 A 
ATOM      2  C   LIG d   1      11.220   6.540  -0.081  0.00  0.00     0.130 A 
ATOM      3  C   LIG d   1      10.752   5.394  -0.703  0.00  0.00     0.024 A 
ATOM      4  C   LIG d   1      10.313   5.448  -2.017  0.00  0.00     0.146 A 
ATOM      5  C   LIG d   1      10.349   6.672  -2.708  0.00  0.00     0.106 A 
ATOM      6  C   LIG d   1      10.819   7.827  -2.072  0.00  0.00     0.144 A 
ATOM      7  C   LIG d   1       9.878   6.705  -4.103  0.00  0.00     0.197 A 
ATOM      8  O   LIG d   1       9.888   7.739  -4.751  0.00  0.00    -0.287 OA
ATOM      9  C   LIG d   1       9.416   5.491  -4.664  0.00  0.00     0.029 A 
ATOM     10  C   LIG d   1       9.421   4.359  -3.910  0.00  0.00     0.139 A 
ATOM     11  O   LIG d   1       9.853   4.341  -2.638  0.00  0.00    -0.454 OA
ATOM     12  H   LIG d   1      10.728   4.458  -0.165  0.00  0.00     0.069 H 
ATOM     13  H   LIG d   1       9.060   5.463  -5.683  0.00  0.00     0.069 H 
ENDROOT
BRANCH   1  14
ATOM     14  C   LIG d   1      11.771   8.988  -0.070  0.00  0.00     0.131 C 
ATOM     15  O   LIG d   1      11.445   8.926   1.320  0.00  0.00    -0.364 OA
ATOM     16  C   LIG d   1      11.866  10.068   2.069  0.00  0.00     0.089 C 
ATOM     17  C   LIG d   1      13.389  10.194   1.993  0.00  0.00     0.166 C 
ATOM     18  H   LIG d   1      11.562   9.951   3.110  0.00  0.00     0.060 H 
ATOM     19  H   LIG d   1      11.405  10.965   1.655  0.00  0.00     0.060 H 
ATOM     20  H   LIG d   1      13.851   9.316   2.445  0.00  0.00     0.080 H 
ATOM     21  C   LIG d   1      13.813  10.296   0.525  0.00  0.00     0.181 C 
ATOM     22  C   LIG d   1      13.291   9.071  -0.233  0.00  0.00     0.173 C 
ATOM     23  H   LIG d   1      13.393  11.201   0.086  0.00  0.00     0.081 H 
ATOM     24  H   LIG d   1      13.539   9.163  -1.290  0.00  0.00     0.080 H 
ATOM     25  H   LIG d   1      11.309   9.871  -0.513  0.00  0.00     0.069 H 
BRANCH  17  26
ATOM     26  O   LIG d   1      13.807  11.367   2.693  0.00  0.00    -0.455 OA
BRANCH  26  27
ATOM     27  C   LIG d   1      13.623  11.381   4.023  0.00  0.00     0.304 C 
ATOM     28  O   LIG d   1      12.943  12.242   4.529  0.00  0.00    -0.251 OA
BRANCH  27  29
ATOM     29  C   LIG d   1      14.264  10.323   4.884  0.00  0.00     0.033 C 
ATOM     30  H   LIG d   1      15.339  10.313   4.708  0.00  0.00     0.034 H 
ATOM     31  H   LIG d   1      14.069  10.541   5.933  0.00  0.00     0.034 H 
ATOM     32  H   LIG d   1      13.845   9.348   4.632  0.00  0.00     0.034 H 
ENDBRANCH  27  29
ENDBRANCH  26  27
ENDBRANCH  17  26
BRANCH  21  33
ATOM     33  O   LIG d   1      15.239  10.340   0.440  0.00  0.00    -0.454 OA
BRANCH  33  34
ATOM     34  C   LIG d   1      15.767  10.948  -0.633  0.00  0.00     0.304 C 
ATOM     35  O   LIG d   1      16.704  10.450  -1.211  0.00  0.00    -0.251 OA
BRANCH  34  36
ATOM     36  C   LIG d   1      15.191  12.253  -1.118  0.00  0.00     0.033 C 
ATOM     37  H   LIG d   1      15.395  13.035  -0.387  0.00  0.00     0.034 H 
ATOM     38  H   LIG d   1      15.646  12.520  -2.072  0.00  0.00     0.034 H 
ATOM     39  H   LIG d   1      14.113  12.149  -1.247  0.00  0.00     0.034 H 
ENDBRANCH  34  36
ENDBRANCH  33  34
ENDBRANCH  21  33
BRANCH  22  40
ATOM     40  O   LIG d   1      13.893   7.889   0.298  0.00  0.00    -0.455 OA
BRANCH  40  41
ATOM     41  C   LIG d   1      14.738   7.223  -0.503  0.00  0.00     0.304 C 
ATOM     42  O   LIG d   1      15.464   6.374  -0.045  0.00  0.00    -0.251 OA
BRANCH  41  43
ATOM     43  C   LIG d   1      14.783   7.536  -1.978  0.00  0.00     0.033 C 
ATOM     44  H   LIG d   1      13.915   7.096  -2.469  0.00  0.00     0.034 H 
ATOM     45  H   LIG d   1      14.772   8.617  -2.120  0.00  0.00     0.034 H 
ATOM     46  H   LIG d   1      15.694   7.122  -2.410  0.00  0.00     0.034 H 
ENDBRANCH  41  43
ENDBRANCH  40  41
ENDBRANCH  22  40
ENDBRANCH   1  14
BRANCH   6  47
ATOM     47  O   LIG d   1      10.849   9.010  -2.736  0.00  0.00    -0.494 OA
BRANCH  47  48
ATOM     48  C   LIG d   1       9.836   9.963  -2.410  0.00  0.00     0.079 C 
ATOM     49  H   LIG d   1      10.208  10.969  -2.605  0.00  0.00     0.066 H 
ATOM     50  H   LIG d   1       8.953   9.778  -3.022  0.00  0.00     0.066 H 
ATOM     51  H   LIG d   1       9.575   9.870  -1.356  0.00  0.00     0.066 H 
ENDBRANCH  47  48
ENDBRANCH   6  47
BRANCH   2  52
ATOM     52  O   LIG d   1      11.649   6.478   1.206  0.00  0.00    -0.506 OA
ATOM     53  H   LIG d   1      10.953   6.263   1.842  0.00  0.00     0.292 HD
ENDBRANCH   2  52
BRANCH  10  54
ATOM     54  C   LIG d   1       8.934   3.102  -4.510  0.00  0.00     0.018 A 
ATOM     55  C   LIG d   1       8.385   2.105  -3.702  0.00  0.00    -0.048 A 
ATOM     56  C   LIG d   1       7.927   0.936  -4.268  0.00  0.00    -0.019 A 
ATOM     57  H   LIG d   1       8.316   2.252  -2.634  0.00  0.00     0.063 H 
ATOM     58  C   LIG d   1       8.021   0.743  -5.641  0.00  0.00     0.124 A 
ATOM     59  H   LIG d   1       7.497   0.166  -3.644  0.00  0.00     0.065 H 
ATOM     60  C   LIG d   1       8.572   1.731  -6.449  0.00  0.00    -0.019 A 
ATOM     61  C   LIG d   1       9.027   2.905  -5.891  0.00  0.00    -0.048 A 
ATOM     62  H   LIG d   1       8.643   1.577  -7.515  0.00  0.00     0.065 H 
ATOM     63  H   LIG d   1       9.455   3.672  -6.520  0.00  0.00     0.063 H 
BRANCH  58  64
ATOM     64  O   LIG d   1       7.573  -0.412  -6.195  0.00  0.00    -0.461 OA
BRANCH  64  65
ATOM     65  C   LIG d   1       6.402  -0.330  -7.010  0.00  0.00     0.231 C 
ATOM     66  H   LIG d   1       6.427   0.592  -7.591  0.00  0.00     0.108 H 
ATOM     67  O   LIG d   1       6.360  -1.451  -7.896  0.00  0.00    -0.331 OA
ATOM     68  C   LIG d   1       5.236  -1.455  -8.779  0.00  0.00     0.114 C 
ATOM     69  C   LIG d   1       3.945  -1.509  -7.959  0.00  0.00     0.112 C 
ATOM     70  H   LIG d   1       5.245  -0.548  -9.383  0.00  0.00     0.065 H 
ATOM     71  C   LIG d   1       3.906  -0.313  -7.002  0.00  0.00     0.115 C 
ATOM     72  H   LIG d   1       3.086  -1.467  -8.629  0.00  0.00     0.065 H 
ATOM     73  C   LIG d   1       5.158  -0.340  -6.119  0.00  0.00     0.145 C 
ATOM     74  H   LIG d   1       3.885   0.613  -7.576  0.00  0.00     0.065 H 
ATOM     75  H   LIG d   1       5.165   0.538  -5.473  0.00  0.00     0.068 H 
BRANCH  68  76
ATOM     76  C   LIG d   1       5.310  -2.678  -9.695  0.00  0.00     0.073 C 
ATOM     77  H   LIG d   1       5.912  -2.440 -10.571  0.00  0.00     0.058 H 
ATOM     78  H   LIG d   1       5.764  -3.509  -9.157  0.00  0.00     0.058 H 
BRANCH  76  79
ATOM     79  O   LIG d   1       3.991  -3.043 -10.109  0.00  0.00    -0.392 OA
ATOM     80  H   LIG d   1       3.363  -2.309 -10.111  0.00  0.00     0.209 HD
ENDBRANCH  76  79
ENDBRANCH  68  76
BRANCH  69  81
ATOM     81  O   LIG d   1       3.905  -2.724  -7.207  0.00  0.00    -0.387 OA
ATOM     82  H   LIG d   1       4.163  -3.508  -7.712  0.00  0.00     0.210 HD
ENDBRANCH  69  81
BRANCH  71  83
ATOM     83  O   LIG d   1       2.739  -0.394  -6.181  0.00  0.00    -0.386 OA
ATOM     84  H   LIG d   1       2.929  -0.477  -5.235  0.00  0.00     0.210 HD
ENDBRANCH  71  83
BRANCH  73  85
ATOM     85  O   LIG d   1       5.153  -1.522  -5.317  0.00  0.00    -0.383 OA
ATOM     86  H   LIG d   1       4.955  -1.365  -4.384  0.00  0.00     0.210 HD
ENDBRANCH  73  85
ENDBRANCH  64  65
ENDBRANCH  58  64
ENDBRANCH  10  54
TORSDOF 21
ENDMDL
