MODEL 1
REMARK VINA RESULT:      -6.2      0.000      0.000
REMARK  10 active torsions:
REMARK  status: ('A' for Active; 'I' for Inactive)
REMARK    1  A    between atoms: C_1  and  C_2 
REMARK    2  A    between atoms: C_2  and  C_3 
REMARK    3  A    between atoms: C_3  and  C_4 
REMARK    4  A    between atoms: C_4  and  C_5 
REMARK    5  A    between atoms: C_5  and  C_6 
REMARK    6  A    between atoms: C_6  and  C_7 
REMARK    7  A    between atoms: C_7  and  C_8 
REMARK    8  A    between atoms: C_8  and  C_9 
REMARK    9  A    between atoms: C_9  and  C_10 
REMARK   10  A    between atoms: C_10  and  C_11 
ROOT
ATOM      1  C   LIG d   1       5.012   2.495  -9.234  0.00  0.00    -0.053 C 
ATOM      2  H   LIG d   1       4.771   2.637  -8.181  0.00  0.00     0.026 H 
ATOM      3  H   LIG d   1       5.282   3.453  -9.679  0.00  0.00     0.026 H 
ENDROOT
BRANCH   1   4
ATOM      4  C   LIG d   1       6.187   1.523  -9.363  0.00  0.00    -0.053 C 
ATOM      5  H   LIG d   1       6.731   1.730 -10.284  0.00  0.00     0.026 H 
ATOM      6  H   LIG d   1       5.812   0.500  -9.383  0.00  0.00     0.026 H 
BRANCH   4   7
ATOM      7  C   LIG d   1       7.126   1.699  -8.167  0.00  0.00    -0.053 C 
ATOM      8  H   LIG d   1       6.860   2.608  -7.627  0.00  0.00     0.026 H 
ATOM      9  H   LIG d   1       8.155   1.774  -8.521  0.00  0.00     0.026 H 
BRANCH   7  10
ATOM     10  C   LIG d   1       6.994   0.494  -7.235  0.00  0.00    -0.053 C 
ATOM     11  H   LIG d   1       7.167  -0.423  -7.798  0.00  0.00     0.026 H 
ATOM     12  H   LIG d   1       5.993   0.473  -6.807  0.00  0.00     0.026 H 
BRANCH  10  13
ATOM     13  C   LIG d   1       8.027   0.603  -6.111  0.00  0.00    -0.053 C 
ATOM     14  H   LIG d   1       8.265   1.653  -5.937  0.00  0.00     0.026 H 
ATOM     15  H   LIG d   1       8.932   0.067  -6.395  0.00  0.00     0.026 H 
BRANCH  13  16
ATOM     16  C   LIG d   1       7.453  -0.007  -4.830  0.00  0.00    -0.053 C 
ATOM     17  H   LIG d   1       8.166  -0.720  -4.417  0.00  0.00     0.026 H 
ATOM     18  H   LIG d   1       6.518  -0.517  -5.057  0.00  0.00     0.026 H 
BRANCH  16  19
ATOM     19  C   LIG d   1       7.192   1.103  -3.809  0.00  0.00    -0.056 C 
ATOM     20  H   LIG d   1       7.123   0.670  -2.812  0.00  0.00     0.026 H 
ATOM     21  H   LIG d   1       6.257   1.608  -4.052  0.00  0.00     0.026 H 
BRANCH  19  22
ATOM     22  C   LIG d   1       8.342   2.112  -3.847  0.00  0.00    -0.065 C 
ATOM     23  H   LIG d   1       8.478   2.545  -2.856  0.00  0.00     0.023 H 
ATOM     24  H   LIG d   1       9.258   1.608  -4.154  0.00  0.00     0.023 H 
ATOM     25  H   LIG d   1       8.107   2.903  -4.559  0.00  0.00     0.023 H 
ENDBRANCH  19  22
ENDBRANCH  16  19
ENDBRANCH  13  16
ENDBRANCH  10  13
ENDBRANCH   7  10
ENDBRANCH   4   7
ENDBRANCH   1   4
BRANCH   1  26
ATOM     26  C   LIG d   1       3.795   1.921  -9.963  0.00  0.00    -0.045 C 
ATOM     27  H   LIG d   1       3.483   2.610 -10.748  0.00  0.00     0.027 H 
ATOM     28  H   LIG d   1       4.056   0.959 -10.405  0.00  0.00     0.027 H 
BRANCH  26  29
ATOM     29  C   LIG d   1       2.648   1.730  -8.967  0.00  0.00     0.024 C 
ATOM     30  H   LIG d   1       2.398   2.690  -8.515  0.00  0.00     0.036 H 
ATOM     31  H   LIG d   1       1.777   1.335  -9.488  0.00  0.00     0.036 H 
BRANCH  29  32
ATOM     32  C   LIG d   1       3.073   0.763  -7.892  0.00  0.00     0.197 A 
ATOM     33  O   LIG d   1       3.111   1.038  -6.577  0.00  0.00    -0.439 OA
ATOM     34  C   LIG d   1       3.532  -0.061  -5.933  0.00  0.00     0.170 A 
ATOM     35  C   LIG d   1       3.765  -1.028  -6.905  0.00  0.00     0.174 A 
ATOM     36  C   LIG d   1       3.778  -0.402  -4.530  0.00  0.00     0.043 A 
ATOM     37  N   LIG d   1       3.462  -0.461  -8.099  0.00  0.00    -0.208 NA
ATOM     38  C   LIG d   1       4.244  -2.347  -6.497  0.00  0.00     0.278 A 
ATOM     39  N   LIG d   1       4.459  -2.626  -5.198  0.00  0.00    -0.320 N 
ATOM     40  O   LIG d   1       4.451  -3.202  -7.340  0.00  0.00    -0.265 OA
ATOM     41  C   LIG d   1       4.239  -1.690  -4.206  0.00  0.00     0.053 A 
ATOM     42  H   LIG d   1       4.777  -3.509  -4.952  0.00  0.00     0.169 HD
ATOM     43  C   LIG d   1       4.475  -2.015  -2.874  0.00  0.00    -0.038 A 
ATOM     44  C   LIG d   1       4.253  -1.081  -1.885  0.00  0.00    -0.060 A 
ATOM     45  H   LIG d   1       4.830  -3.002  -2.614  0.00  0.00     0.064 H 
ATOM     46  C   LIG d   1       3.799   0.190  -2.203  0.00  0.00    -0.061 A 
ATOM     47  H   LIG d   1       4.438  -1.341  -0.853  0.00  0.00     0.062 H 
ATOM     48  C   LIG d   1       3.560   0.534  -3.514  0.00  0.00    -0.049 A 
ATOM     49  H   LIG d   1       3.630   0.913  -1.419  0.00  0.00     0.062 H 
ATOM     50  H   LIG d   1       3.206   1.525  -3.758  0.00  0.00     0.062 H 
ENDBRANCH  29  32
ENDBRANCH  26  29
ENDBRANCH   1  26
TORSDOF 10
ENDMDL
MODEL 2
REMARK VINA RESULT:      -6.0      1.195      4.960
REMARK  10 active torsions:
REMARK  status: ('A' for Active; 'I' for Inactive)
REMARK    1  A    between atoms: C_1  and  C_2 
REMARK    2  A    between atoms: C_2  and  C_3 
REMARK    3  A    between atoms: C_3  and  C_4 
REMARK    4  A    between atoms: C_4  and  C_5 
REMARK    5  A    between atoms: C_5  and  C_6 
REMARK    6  A    between atoms: C_6  and  C_7 
REMARK    7  A    between atoms: C_7  and  C_8 
REMARK    8  A    between atoms: C_8  and  C_9 
REMARK    9  A    between atoms: C_9  and  C_10 
REMARK   10  A    between atoms: C_10  and  C_11 
ROOT
ATOM      1  C   LIG d   1       4.474   0.940  -1.898  0.00  0.00    -0.053 C 
ATOM      2  H   LIG d   1       4.762   1.040  -0.852  0.00  0.00     0.026 H 
ATOM      3  H   LIG d   1       3.659   1.629  -2.119  0.00  0.00     0.026 H 
ENDROOT
BRANCH   1   4
ATOM      4  C   LIG d   1       5.673   1.263  -2.791  0.00  0.00    -0.053 C 
ATOM      5  H   LIG d   1       6.290   2.023  -2.312  0.00  0.00     0.026 H 
ATOM      6  H   LIG d   1       5.320   1.634  -3.753  0.00  0.00     0.026 H 
BRANCH   4   7
ATOM      7  C   LIG d   1       6.503  -0.005  -3.008  0.00  0.00    -0.053 C 
ATOM      8  H   LIG d   1       5.837  -0.847  -3.198  0.00  0.00     0.026 H 
ATOM      9  H   LIG d   1       7.098  -0.206  -2.117  0.00  0.00     0.026 H 
BRANCH   7  10
ATOM     10  C   LIG d   1       7.431   0.193  -4.208  0.00  0.00    -0.053 C 
ATOM     11  H   LIG d   1       6.903  -0.071  -5.123  0.00  0.00     0.026 H 
ATOM     12  H   LIG d   1       8.308  -0.444  -4.098  0.00  0.00     0.026 H 
BRANCH  10  13
ATOM     13  C   LIG d   1       7.870   1.657  -4.277  0.00  0.00    -0.053 C 
ATOM     14  H   LIG d   1       8.703   1.820  -3.592  0.00  0.00     0.026 H 
ATOM     15  H   LIG d   1       7.037   2.301  -3.995  0.00  0.00     0.026 H 
BRANCH  13  16
ATOM     16  C   LIG d   1       8.311   1.990  -5.704  0.00  0.00    -0.053 C 
ATOM     17  H   LIG d   1       9.394   1.888  -5.782  0.00  0.00     0.026 H 
ATOM     18  H   LIG d   1       8.025   3.013  -5.944  0.00  0.00     0.026 H 
BRANCH  16  19
ATOM     19  C   LIG d   1       7.636   1.028  -6.684  0.00  0.00    -0.056 C 
ATOM     20  H   LIG d   1       6.666   0.729  -6.289  0.00  0.00     0.026 H 
ATOM     21  H   LIG d   1       8.262   0.145  -6.816  0.00  0.00     0.026 H 
BRANCH  19  22
ATOM     22  C   LIG d   1       7.445   1.724  -8.033  0.00  0.00    -0.065 C 
ATOM     23  H   LIG d   1       8.134   2.566  -8.108  0.00  0.00     0.023 H 
ATOM     24  H   LIG d   1       7.644   1.018  -8.838  0.00  0.00     0.023 H 
ATOM     25  H   LIG d   1       6.420   2.086  -8.112  0.00  0.00     0.023 H 
ENDBRANCH  19  22
ENDBRANCH  16  19
ENDBRANCH  13  16
ENDBRANCH  10  13
ENDBRANCH   7  10
ENDBRANCH   4   7
ENDBRANCH   1   4
BRANCH   1  26
ATOM     26  C   LIG d   1       4.013  -0.495  -2.164  0.00  0.00    -0.045 C 
ATOM     27  H   LIG d   1       4.831  -1.063  -2.608  0.00  0.00     0.027 H 
ATOM     28  H   LIG d   1       3.716  -0.962  -1.224  0.00  0.00     0.027 H 
BRANCH  26  29
ATOM     29  C   LIG d   1       2.823  -0.478  -3.125  0.00  0.00     0.024 C 
ATOM     30  H   LIG d   1       2.190  -1.346  -2.935  0.00  0.00     0.036 H 
ATOM     31  H   LIG d   1       2.246   0.433  -2.974  0.00  0.00     0.036 H 
BRANCH  29  32
ATOM     32  C   LIG d   1       3.325  -0.525  -4.546  0.00  0.00     0.197 A 
ATOM     33  O   LIG d   1       3.038   0.380  -5.496  0.00  0.00    -0.439 OA
ATOM     34  C   LIG d   1       3.662   0.012  -6.626  0.00  0.00     0.170 A 
ATOM     35  C   LIG d   1       4.341  -1.167  -6.339  0.00  0.00     0.174 A 
ATOM     36  C   LIG d   1       3.751   0.563  -7.980  0.00  0.00     0.043 A 
ATOM     37  N   LIG d   1       4.096  -1.451  -5.035  0.00  0.00    -0.208 NA
ATOM     38  C   LIG d   1       5.118  -1.816  -7.394  0.00  0.00     0.278 A 
ATOM     39  N   LIG d   1       5.177  -1.282  -8.627  0.00  0.00    -0.320 N 
ATOM     40  O   LIG d   1       5.716  -2.850  -7.154  0.00  0.00    -0.265 OA
ATOM     41  C   LIG d   1       4.515  -0.113  -8.947  0.00  0.00     0.053 A 
ATOM     42  H   LIG d   1       5.699  -1.731  -9.311  0.00  0.00     0.169 HD
ATOM     43  C   LIG d   1       4.599   0.408 -10.236  0.00  0.00    -0.038 A 
ATOM     44  C   LIG d   1       3.940   1.575 -10.553  0.00  0.00    -0.060 A 
ATOM     45  H   LIG d   1       5.183  -0.103 -10.987  0.00  0.00     0.064 H 
ATOM     46  C   LIG d   1       3.185   2.242  -9.599  0.00  0.00    -0.061 A 
ATOM     47  H   LIG d   1       4.010   1.974 -11.555  0.00  0.00     0.062 H 
ATOM     48  C   LIG d   1       3.087   1.745  -8.319  0.00  0.00    -0.049 A 
ATOM     49  H   LIG d   1       2.673   3.157  -9.861  0.00  0.00     0.062 H 
ATOM     50  H   LIG d   1       2.498   2.267  -7.580  0.00  0.00     0.062 H 
ENDBRANCH  29  32
ENDBRANCH  26  29
ENDBRANCH   1  26
TORSDOF 10
ENDMDL
MODEL 3
REMARK VINA RESULT:      -6.0      5.631      9.069
REMARK  10 active torsions:
REMARK  status: ('A' for Active; 'I' for Inactive)
REMARK    1  A    between atoms: C_1  and  C_2 
REMARK    2  A    between atoms: C_2  and  C_3 
REMARK    3  A    between atoms: C_3  and  C_4 
REMARK    4  A    between atoms: C_4  and  C_5 
REMARK    5  A    between atoms: C_5  and  C_6 
REMARK    6  A    between atoms: C_6  and  C_7 
REMARK    7  A    between atoms: C_7  and  C_8 
REMARK    8  A    between atoms: C_8  and  C_9 
REMARK    9  A    between atoms: C_9  and  C_10 
REMARK   10  A    between atoms: C_10  and  C_11 
ROOT
ATOM      1  C   LIG d   1       7.724   0.559  -4.362  0.00  0.00    -0.053 C 
ATOM      2  H   LIG d   1       8.672   0.029  -4.277  0.00  0.00     0.026 H 
ATOM      3  H   LIG d   1       7.306   0.400  -5.356  0.00  0.00     0.026 H 
ENDROOT
BRANCH   1   4
ATOM      4  C   LIG d   1       6.748   0.034  -3.308  0.00  0.00    -0.053 C 
ATOM      5  H   LIG d   1       7.294  -0.211  -2.397  0.00  0.00     0.026 H 
ATOM      6  H   LIG d   1       6.251  -0.859  -3.686  0.00  0.00     0.026 H 
BRANCH   4   7
ATOM      7  C   LIG d   1       5.703   1.109  -3.001  0.00  0.00    -0.053 C 
ATOM      8  H   LIG d   1       5.129   1.325  -3.903  0.00  0.00     0.026 H 
ATOM      9  H   LIG d   1       6.203   2.016  -2.662  0.00  0.00     0.026 H 
BRANCH   7  10
ATOM     10  C   LIG d   1       4.761   0.606  -1.906  0.00  0.00    -0.053 C 
ATOM     11  H   LIG d   1       4.850   1.245  -1.028  0.00  0.00     0.026 H 
ATOM     12  H   LIG d   1       5.027  -0.416  -1.638  0.00  0.00     0.026 H 
BRANCH  10  13
ATOM     13  C   LIG d   1       3.320   0.640  -2.417  0.00  0.00    -0.053 C 
ATOM     14  H   LIG d   1       3.205   1.461  -3.126  0.00  0.00     0.026 H 
ATOM     15  H   LIG d   1       2.639   0.786  -1.579  0.00  0.00     0.026 H 
BRANCH  13  16
ATOM     16  C   LIG d   1       2.994  -0.683  -3.114  0.00  0.00    -0.053 C 
ATOM     17  H   LIG d   1       3.320  -0.635  -4.153  0.00  0.00     0.026 H 
ATOM     18  H   LIG d   1       1.920  -0.859  -3.078  0.00  0.00     0.026 H 
BRANCH  16  19
ATOM     19  C   LIG d   1       3.722  -1.826  -2.403  0.00  0.00    -0.056 C 
ATOM     20  H   LIG d   1       3.008  -2.401  -1.815  0.00  0.00     0.026 H 
ATOM     21  H   LIG d   1       4.488  -1.415  -1.745  0.00  0.00     0.026 H 
BRANCH  19  22
ATOM     22  C   LIG d   1       4.378  -2.738  -3.442  0.00  0.00    -0.065 C 
ATOM     23  H   LIG d   1       4.948  -2.133  -4.148  0.00  0.00     0.023 H 
ATOM     24  H   LIG d   1       5.045  -3.439  -2.941  0.00  0.00     0.023 H 
ATOM     25  H   LIG d   1       3.606  -3.291  -3.978  0.00  0.00     0.023 H 
ENDBRANCH  19  22
ENDBRANCH  16  19
ENDBRANCH  13  16
ENDBRANCH  10  13
ENDBRANCH   7  10
ENDBRANCH   4   7
ENDBRANCH   1   4
BRANCH   1  26
ATOM     26  C   LIG d   1       7.955   2.056  -4.142  0.00  0.00    -0.045 C 
ATOM     27  H   LIG d   1       7.516   2.617  -4.967  0.00  0.00     0.027 H 
ATOM     28  H   LIG d   1       7.489   2.362  -3.205  0.00  0.00     0.027 H 
BRANCH  26  29
ATOM     29  C   LIG d   1       9.459   2.336  -4.080  0.00  0.00     0.024 C 
ATOM     30  H   LIG d   1       9.930   1.632  -3.393  0.00  0.00     0.036 H 
ATOM     31  H   LIG d   1       9.891   2.221  -5.073  0.00  0.00     0.036 H 
BRANCH  29  32
ATOM     32  C   LIG d   1       9.687   3.744  -3.592  0.00  0.00     0.197 A 
ATOM     33  O   LIG d   1      10.055   4.079  -2.344  0.00  0.00    -0.439 OA
ATOM     34  C   LIG d   1      10.164   5.415  -2.285  0.00  0.00     0.170 A 
ATOM     35  C   LIG d   1       9.838   5.897  -3.549  0.00  0.00     0.174 A 
ATOM     36  C   LIG d   1      10.522   6.374  -1.238  0.00  0.00     0.043 A 
ATOM     37  N   LIG d   1       9.552   4.816  -4.316  0.00  0.00    -0.208 NA
ATOM     38  C   LIG d   1       9.863   7.339  -3.789  0.00  0.00     0.278 A 
ATOM     39  N   LIG d   1      10.197   8.191  -2.803  0.00  0.00    -0.320 N 
ATOM     40  O   LIG d   1       9.579   7.772  -4.892  0.00  0.00    -0.265 OA
ATOM     41  C   LIG d   1      10.526   7.748  -1.537  0.00  0.00     0.053 A 
ATOM     42  H   LIG d   1      10.207   9.144  -2.987  0.00  0.00     0.169 HD
ATOM     43  C   LIG d   1      10.865   8.661  -0.542  0.00  0.00    -0.038 A 
ATOM     44  C   LIG d   1      11.195   8.217   0.719  0.00  0.00    -0.060 A 
ATOM     45  H   LIG d   1      10.871   9.719  -0.761  0.00  0.00     0.064 H 
ATOM     46  C   LIG d   1      11.191   6.862   1.015  0.00  0.00    -0.061 A 
ATOM     47  H   LIG d   1      11.457   8.932   1.486  0.00  0.00     0.062 H 
ATOM     48  C   LIG d   1      10.858   5.941   0.048  0.00  0.00    -0.049 A 
ATOM     49  H   LIG d   1      11.451   6.527   2.009  0.00  0.00     0.062 H 
ATOM     50  H   LIG d   1      10.856   4.887   0.282  0.00  0.00     0.062 H 
ENDBRANCH  29  32
ENDBRANCH  26  29
ENDBRANCH   1  26
TORSDOF 10
ENDMDL
MODEL 4
REMARK VINA RESULT:      -5.9      1.738      5.049
REMARK  10 active torsions:
REMARK  status: ('A' for Active; 'I' for Inactive)
REMARK    1  A    between atoms: C_1  and  C_2 
REMARK    2  A    between atoms: C_2  and  C_3 
REMARK    3  A    between atoms: C_3  and  C_4 
REMARK    4  A    between atoms: C_4  and  C_5 
REMARK    5  A    between atoms: C_5  and  C_6 
REMARK    6  A    between atoms: C_6  and  C_7 
REMARK    7  A    between atoms: C_7  and  C_8 
REMARK    8  A    between atoms: C_8  and  C_9 
REMARK    9  A    between atoms: C_9  and  C_10 
REMARK   10  A    between atoms: C_10  and  C_11 
ROOT
ATOM      1  C   LIG d   1       4.779   0.823  -1.916  0.00  0.00    -0.053 C 
ATOM      2  H   LIG d   1       4.843  -0.236  -1.670  0.00  0.00     0.026 H 
ATOM      3  H   LIG d   1       4.898   1.415  -1.009  0.00  0.00     0.026 H 
ENDROOT
BRANCH   1   4
ATOM      4  C   LIG d   1       5.885   1.184  -2.910  0.00  0.00    -0.053 C 
ATOM      5  H   LIG d   1       6.490   1.994  -2.503  0.00  0.00     0.026 H 
ATOM      6  H   LIG d   1       5.437   1.502  -3.852  0.00  0.00     0.026 H 
BRANCH   4   7
ATOM      7  C   LIG d   1       6.770  -0.040  -3.154  0.00  0.00    -0.053 C 
ATOM      8  H   LIG d   1       6.176  -0.947  -3.036  0.00  0.00     0.026 H 
ATOM      9  H   LIG d   1       7.589  -0.046  -2.435  0.00  0.00     0.026 H 
BRANCH   7  10
ATOM     10  C   LIG d   1       7.338   0.016  -4.573  0.00  0.00    -0.053 C 
ATOM     11  H   LIG d   1       8.204   0.676  -4.593  0.00  0.00     0.026 H 
ATOM     12  H   LIG d   1       6.577   0.396  -5.255  0.00  0.00     0.026 H 
BRANCH  10  13
ATOM     13  C   LIG d   1       7.758  -1.389  -5.011  0.00  0.00    -0.053 C 
ATOM     14  H   LIG d   1       8.837  -1.415  -5.161  0.00  0.00     0.026 H 
ATOM     15  H   LIG d   1       7.254  -1.646  -5.943  0.00  0.00     0.026 H 
BRANCH  13  16
ATOM     16  C   LIG d   1       7.370  -2.397  -3.927  0.00  0.00    -0.053 C 
ATOM     17  H   LIG d   1       6.293  -2.564  -3.955  0.00  0.00     0.026 H 
ATOM     18  H   LIG d   1       7.652  -2.007  -2.949  0.00  0.00     0.026 H 
BRANCH  16  19
ATOM     19  C   LIG d   1       8.098  -3.720  -4.177  0.00  0.00    -0.056 C 
ATOM     20  H   LIG d   1       8.520  -3.717  -5.181  0.00  0.00     0.026 H 
ATOM     21  H   LIG d   1       7.394  -4.546  -4.081  0.00  0.00     0.026 H 
BRANCH  19  22
ATOM     22  C   LIG d   1       9.222  -3.885  -3.152  0.00  0.00    -0.065 C 
ATOM     23  H   LIG d   1       8.947  -3.379  -2.227  0.00  0.00     0.023 H 
ATOM     24  H   LIG d   1       9.380  -4.945  -2.955  0.00  0.00     0.023 H 
ATOM     25  H   LIG d   1      10.139  -3.448  -3.546  0.00  0.00     0.023 H 
ENDBRANCH  19  22
ENDBRANCH  16  19
ENDBRANCH  13  16
ENDBRANCH  10  13
ENDBRANCH   7  10
ENDBRANCH   4   7
ENDBRANCH   1   4
BRANCH   1  26
ATOM     26  C   LIG d   1       3.415   1.120  -2.542  0.00  0.00    -0.045 C 
ATOM     27  H   LIG d   1       2.740   1.505  -1.777  0.00  0.00     0.027 H 
ATOM     28  H   LIG d   1       3.531   1.862  -3.332  0.00  0.00     0.027 H 
BRANCH  26  29
ATOM     29  C   LIG d   1       2.834  -0.167  -3.133  0.00  0.00     0.024 C 
ATOM     30  H   LIG d   1       3.178  -1.022  -2.549  0.00  0.00     0.036 H 
ATOM     31  H   LIG d   1       1.746  -0.122  -3.104  0.00  0.00     0.036 H 
BRANCH  29  32
ATOM     32  C   LIG d   1       3.293  -0.316  -4.560  0.00  0.00     0.197 A 
ATOM     33  O   LIG d   1       3.057   0.567  -5.544  0.00  0.00    -0.439 OA
ATOM     34  C   LIG d   1       3.619   0.101  -6.670  0.00  0.00     0.170 A 
ATOM     35  C   LIG d   1       4.207  -1.117  -6.345  0.00  0.00     0.174 A 
ATOM     36  C   LIG d   1       3.717   0.583  -8.049  0.00  0.00     0.043 A 
ATOM     37  N   LIG d   1       3.974  -1.324  -5.025  0.00  0.00    -0.208 NA
ATOM     38  C   LIG d   1       4.901  -1.873  -7.386  0.00  0.00     0.278 A 
ATOM     39  N   LIG d   1       4.971  -1.400  -8.644  0.00  0.00    -0.320 N 
ATOM     40  O   LIG d   1       5.420  -2.941  -7.113  0.00  0.00    -0.265 OA
ATOM     41  C   LIG d   1       4.398  -0.195  -9.002  0.00  0.00     0.053 A 
ATOM     42  H   LIG d   1       5.437  -1.919  -9.318  0.00  0.00     0.169 HD
ATOM     43  C   LIG d   1       4.491   0.261 -10.314  0.00  0.00    -0.038 A 
ATOM     44  C   LIG d   1       3.920   1.464 -10.669  0.00  0.00    -0.060 A 
ATOM     45  H   LIG d   1       5.011  -0.328 -11.054  0.00  0.00     0.064 H 
ATOM     46  C   LIG d   1       3.247   2.231  -9.730  0.00  0.00    -0.061 A 
ATOM     47  H   LIG d   1       3.996   1.811 -11.689  0.00  0.00     0.062 H 
ATOM     48  C   LIG d   1       3.142   1.800  -8.427  0.00  0.00    -0.049 A 
ATOM     49  H   LIG d   1       2.804   3.172 -10.021  0.00  0.00     0.062 H 
ATOM     50  H   LIG d   1       2.617   2.400  -7.698  0.00  0.00     0.062 H 
ENDBRANCH  29  32
ENDBRANCH  26  29
ENDBRANCH   1  26
TORSDOF 10
ENDMDL
MODEL 5
REMARK VINA RESULT:      -5.9      2.168      5.916
REMARK  10 active torsions:
REMARK  status: ('A' for Active; 'I' for Inactive)
REMARK    1  A    between atoms: C_1  and  C_2 
REMARK    2  A    between atoms: C_2  and  C_3 
REMARK    3  A    between atoms: C_3  and  C_4 
REMARK    4  A    between atoms: C_4  and  C_5 
REMARK    5  A    between atoms: C_5  and  C_6 
REMARK    6  A    between atoms: C_6  and  C_7 
REMARK    7  A    between atoms: C_7  and  C_8 
REMARK    8  A    between atoms: C_8  and  C_9 
REMARK    9  A    between atoms: C_9  and  C_10 
REMARK   10  A    between atoms: C_10  and  C_11 
ROOT
ATOM      1  C   LIG d   1       6.845  -1.661  -3.343  0.00  0.00    -0.053 C 
ATOM      2  H   LIG d   1       6.360  -1.452  -2.390  0.00  0.00     0.026 H 
ATOM      3  H   LIG d   1       7.866  -1.998  -3.166  0.00  0.00     0.026 H 
ENDROOT
BRANCH   1   4
ATOM      4  C   LIG d   1       6.068  -2.752  -4.082  0.00  0.00    -0.053 C 
ATOM      5  H   LIG d   1       6.208  -3.705  -3.574  0.00  0.00     0.026 H 
ATOM      6  H   LIG d   1       6.434  -2.827  -5.107  0.00  0.00     0.026 H 
BRANCH   4   7
ATOM      7  C   LIG d   1       4.579  -2.396  -4.097  0.00  0.00    -0.053 C 
ATOM      8  H   LIG d   1       4.041  -3.112  -4.719  0.00  0.00     0.026 H 
ATOM      9  H   LIG d   1       4.450  -1.392  -4.503  0.00  0.00     0.026 H 
BRANCH   7  10
ATOM     10  C   LIG d   1       4.029  -2.445  -2.671  0.00  0.00    -0.053 C 
ATOM     11  H   LIG d   1       4.857  -2.474  -1.963  0.00  0.00     0.026 H 
ATOM     12  H   LIG d   1       3.415  -3.337  -2.548  0.00  0.00     0.026 H 
BRANCH  10  13
ATOM     13  C   LIG d   1       3.179  -1.200  -2.409  0.00  0.00    -0.053 C 
ATOM     14  H   LIG d   1       3.584  -0.657  -1.555  0.00  0.00     0.026 H 
ATOM     15  H   LIG d   1       2.152  -1.499  -2.197  0.00  0.00     0.026 H 
BRANCH  13  16
ATOM     16  C   LIG d   1       3.202  -0.298  -3.645  0.00  0.00    -0.053 C 
ATOM     17  H   LIG d   1       2.211  -0.278  -4.099  0.00  0.00     0.026 H 
ATOM     18  H   LIG d   1       3.924  -0.684  -4.364  0.00  0.00     0.026 H 
BRANCH  16  19
ATOM     19  C   LIG d   1       3.602   1.121  -3.233  0.00  0.00    -0.056 C 
ATOM     20  H   LIG d   1       2.711   1.743  -3.163  0.00  0.00     0.026 H 
ATOM     21  H   LIG d   1       4.280   1.538  -3.978  0.00  0.00     0.026 H 
BRANCH  19  22
ATOM     22  C   LIG d   1       4.302   1.079  -1.873  0.00  0.00    -0.065 C 
ATOM     23  H   LIG d   1       4.182   0.089  -1.433  0.00  0.00     0.023 H 
ATOM     24  H   LIG d   1       5.363   1.293  -2.003  0.00  0.00     0.023 H 
ATOM     25  H   LIG d   1       3.858   1.825  -1.213  0.00  0.00     0.023 H 
ENDBRANCH  19  22
ENDBRANCH  16  19
ENDBRANCH  13  16
ENDBRANCH  10  13
ENDBRANCH   7  10
ENDBRANCH   4   7
ENDBRANCH   1   4
BRANCH   1  26
ATOM     26  C   LIG d   1       6.869  -0.388  -4.192  0.00  0.00    -0.045 C 
ATOM     27  H   LIG d   1       5.848  -0.048  -4.367  0.00  0.00     0.027 H 
ATOM     28  H   LIG d   1       7.426   0.389  -3.668  0.00  0.00     0.027 H 
BRANCH  26  29
ATOM     29  C   LIG d   1       7.544  -0.684  -5.534  0.00  0.00     0.024 C 
ATOM     30  H   LIG d   1       8.454  -0.089  -5.621  0.00  0.00     0.036 H 
ATOM     31  H   LIG d   1       7.795  -1.742  -5.589  0.00  0.00     0.036 H 
BRANCH  29  32
ATOM     32  C   LIG d   1       6.603  -0.331  -6.657  0.00  0.00     0.197 A 
ATOM     33  O   LIG d   1       5.640  -1.134  -7.138  0.00  0.00    -0.439 OA
ATOM     34  C   LIG d   1       5.007  -0.482  -8.126  0.00  0.00     0.170 A 
ATOM     35  C   LIG d   1       5.627   0.758  -8.245  0.00  0.00     0.174 A 
ATOM     36  C   LIG d   1       3.895  -0.801  -9.024  0.00  0.00     0.043 A 
ATOM     37  N   LIG d   1       6.608   0.795  -7.309  0.00  0.00    -0.208 NA
ATOM     38  C   LIG d   1       5.150   1.698  -9.258  0.00  0.00     0.278 A 
ATOM     39  N   LIG d   1       4.126   1.371 -10.067  0.00  0.00    -0.320 N 
ATOM     40  O   LIG d   1       5.686   2.786  -9.372  0.00  0.00    -0.265 OA
ATOM     41  C   LIG d   1       3.487   0.149  -9.977  0.00  0.00     0.053 A 
ATOM     42  H   LIG d   1       3.827   2.012 -10.732  0.00  0.00     0.169 HD
ATOM     43  C   LIG d   1       2.432  -0.153 -10.832  0.00  0.00    -0.038 A 
ATOM     44  C   LIG d   1       1.795  -1.371 -10.740  0.00  0.00    -0.060 A 
ATOM     45  H   LIG d   1       2.110   0.570 -11.569  0.00  0.00     0.064 H 
ATOM     46  C   LIG d   1       2.197  -2.309  -9.801  0.00  0.00    -0.061 A 
ATOM     47  H   LIG d   1       0.976  -1.598 -11.407  0.00  0.00     0.062 H 
ATOM     48  C   LIG d   1       3.239  -2.033  -8.945  0.00  0.00    -0.049 A 
ATOM     49  H   LIG d   1       1.690  -3.261  -9.739  0.00  0.00     0.062 H 
ATOM     50  H   LIG d   1       3.550  -2.766  -8.216  0.00  0.00     0.062 H 
ENDBRANCH  29  32
ENDBRANCH  26  29
ENDBRANCH   1  26
TORSDOF 10
ENDMDL
MODEL 6
REMARK VINA RESULT:      -5.9      2.514      5.053
REMARK  10 active torsions:
REMARK  status: ('A' for Active; 'I' for Inactive)
REMARK    1  A    between atoms: C_1  and  C_2 
REMARK    2  A    between atoms: C_2  and  C_3 
REMARK    3  A    between atoms: C_3  and  C_4 
REMARK    4  A    between atoms: C_4  and  C_5 
REMARK    5  A    between atoms: C_5  and  C_6 
REMARK    6  A    between atoms: C_6  and  C_7 
REMARK    7  A    between atoms: C_7  and  C_8 
REMARK    8  A    between atoms: C_8  and  C_9 
REMARK    9  A    between atoms: C_9  and  C_10 
REMARK   10  A    between atoms: C_10  and  C_11 
ROOT
ATOM      1  C   LIG d   1       4.601  -4.512  -8.174  0.00  0.00    -0.053 C 
ATOM      2  H   LIG d   1       4.756  -5.041  -9.114  0.00  0.00     0.026 H 
ATOM      3  H   LIG d   1       5.565  -4.278  -7.724  0.00  0.00     0.026 H 
ENDROOT
BRANCH   1   4
ATOM      4  C   LIG d   1       3.833  -3.215  -8.439  0.00  0.00    -0.053 C 
ATOM      5  H   LIG d   1       2.909  -3.215  -7.862  0.00  0.00     0.026 H 
ATOM      6  H   LIG d   1       3.599  -3.142  -9.502  0.00  0.00     0.026 H 
BRANCH   4   7
ATOM      7  C   LIG d   1       4.694  -2.020  -8.023  0.00  0.00    -0.053 C 
ATOM      8  H   LIG d   1       5.238  -1.645  -8.891  0.00  0.00     0.026 H 
ATOM      9  H   LIG d   1       5.404  -2.332  -7.257  0.00  0.00     0.026 H 
BRANCH   7  10
ATOM     10  C   LIG d   1       3.795  -0.914  -7.467  0.00  0.00    -0.053 C 
ATOM     11  H   LIG d   1       4.377  -0.002  -7.340  0.00  0.00     0.026 H 
ATOM     12  H   LIG d   1       3.391  -1.224  -6.504  0.00  0.00     0.026 H 
BRANCH  10  13
ATOM     13  C   LIG d   1       2.645  -0.654  -8.442  0.00  0.00    -0.053 C 
ATOM     14  H   LIG d   1       1.707  -0.982  -7.994  0.00  0.00     0.026 H 
ATOM     15  H   LIG d   1       2.819  -1.205  -9.366  0.00  0.00     0.026 H 
BRANCH  13  16
ATOM     16  C   LIG d   1       2.566   0.844  -8.749  0.00  0.00    -0.053 C 
ATOM     17  H   LIG d   1       2.511   1.403  -7.815  0.00  0.00     0.026 H 
ATOM     18  H   LIG d   1       1.678   1.047  -9.347  0.00  0.00     0.026 H 
BRANCH  16  19
ATOM     19  C   LIG d   1       3.813   1.271  -9.526  0.00  0.00    -0.056 C 
ATOM     20  H   LIG d   1       3.659   1.087 -10.589  0.00  0.00     0.026 H 
ATOM     21  H   LIG d   1       4.672   0.696  -9.180  0.00  0.00     0.026 H 
BRANCH  19  22
ATOM     22  C   LIG d   1       4.071   2.762  -9.299  0.00  0.00    -0.065 C 
ATOM     23  H   LIG d   1       4.989   3.054  -9.809  0.00  0.00     0.023 H 
ATOM     24  H   LIG d   1       3.235   3.340  -9.694  0.00  0.00     0.023 H 
ATOM     25  H   LIG d   1       4.172   2.954  -8.231  0.00  0.00     0.023 H 
ENDBRANCH  19  22
ENDBRANCH  16  19
ENDBRANCH  13  16
ENDBRANCH  10  13
ENDBRANCH   7  10
ENDBRANCH   4   7
ENDBRANCH   1   4
BRANCH   1  26
ATOM     26  C   LIG d   1       3.794  -5.395  -7.219  0.00  0.00    -0.045 C 
ATOM     27  H   LIG d   1       2.909  -4.854  -6.884  0.00  0.00     0.027 H 
ATOM     28  H   LIG d   1       3.490  -6.306  -7.736  0.00  0.00     0.027 H 
BRANCH  26  29
ATOM     29  C   LIG d   1       4.658  -5.759  -6.009  0.00  0.00     0.024 C 
ATOM     30  H   LIG d   1       4.081  -6.384  -5.327  0.00  0.00     0.036 H 
ATOM     31  H   LIG d   1       5.540  -6.302  -6.343  0.00  0.00     0.036 H 
BRANCH  29  32
ATOM     32  C   LIG d   1       5.082  -4.499  -5.299  0.00  0.00     0.197 A 
ATOM     33  O   LIG d   1       4.245  -3.589  -4.773  0.00  0.00    -0.439 OA
ATOM     34  C   LIG d   1       4.981  -2.612  -4.223  0.00  0.00     0.170 A 
ATOM     35  C   LIG d   1       6.314  -2.948  -4.439  0.00  0.00     0.174 A 
ATOM     36  C   LIG d   1       4.677  -1.370  -3.509  0.00  0.00     0.043 A 
ATOM     37  N   LIG d   1       6.314  -4.127  -5.110  0.00  0.00    -0.208 NA
ATOM     38  C   LIG d   1       7.362  -2.055  -3.948  0.00  0.00     0.278 A 
ATOM     39  N   LIG d   1       7.046  -0.921  -3.297  0.00  0.00    -0.320 N 
ATOM     40  O   LIG d   1       8.532  -2.340  -4.132  0.00  0.00    -0.265 OA
ATOM     41  C   LIG d   1       5.734  -0.556  -3.065  0.00  0.00     0.053 A 
ATOM     42  H   LIG d   1       7.759  -0.344  -2.981  0.00  0.00     0.169 HD
ATOM     43  C   LIG d   1       5.446   0.626  -2.388  0.00  0.00    -0.038 A 
ATOM     44  C   LIG d   1       4.137   0.988  -2.156  0.00  0.00    -0.060 A 
ATOM     45  H   LIG d   1       6.250   1.259  -2.042  0.00  0.00     0.064 H 
ATOM     46  C   LIG d   1       3.094   0.186  -2.594  0.00  0.00    -0.061 A 
ATOM     47  H   LIG d   1       3.922   1.906  -1.630  0.00  0.00     0.062 H 
ATOM     48  C   LIG d   1       3.355  -0.986  -3.266  0.00  0.00    -0.049 A 
ATOM     49  H   LIG d   1       2.072   0.482  -2.406  0.00  0.00     0.062 H 
ATOM     50  H   LIG d   1       2.540  -1.608  -3.607  0.00  0.00     0.062 H 
ENDBRANCH  29  32
ENDBRANCH  26  29
ENDBRANCH   1  26
TORSDOF 10
ENDMDL
MODEL 7
REMARK VINA RESULT:      -5.8      1.960      5.656
REMARK  10 active torsions:
REMARK  status: ('A' for Active; 'I' for Inactive)
REMARK    1  A    between atoms: C_1  and  C_2 
REMARK    2  A    between atoms: C_2  and  C_3 
REMARK    3  A    between atoms: C_3  and  C_4 
REMARK    4  A    between atoms: C_4  and  C_5 
REMARK    5  A    between atoms: C_5  and  C_6 
REMARK    6  A    between atoms: C_6  and  C_7 
REMARK    7  A    between atoms: C_7  and  C_8 
REMARK    8  A    between atoms: C_8  and  C_9 
REMARK    9  A    between atoms: C_9  and  C_10 
REMARK   10  A    between atoms: C_10  and  C_11 
ROOT
ATOM      1  C   LIG d   1       6.320  -2.502  -3.945  0.00  0.00    -0.053 C 
ATOM      2  H   LIG d   1       6.702  -2.084  -4.875  0.00  0.00     0.026 H 
ATOM      3  H   LIG d   1       6.966  -3.317  -3.620  0.00  0.00     0.026 H 
ENDROOT
BRANCH   1   4
ATOM      4  C   LIG d   1       6.290  -1.413  -2.870  0.00  0.00    -0.053 C 
ATOM      5  H   LIG d   1       6.901  -1.723  -2.022  0.00  0.00     0.026 H 
ATOM      6  H   LIG d   1       5.263  -1.256  -2.541  0.00  0.00     0.026 H 
BRANCH   4   7
ATOM      7  C   LIG d   1       6.845  -0.110  -3.449  0.00  0.00    -0.053 C 
ATOM      8  H   LIG d   1       6.919  -0.197  -4.534  0.00  0.00     0.026 H 
ATOM      9  H   LIG d   1       7.834   0.081  -3.032  0.00  0.00     0.026 H 
BRANCH   7  10
ATOM     10  C   LIG d   1       5.909   1.045  -3.093  0.00  0.00    -0.053 C 
ATOM     11  H   LIG d   1       5.364   1.359  -3.983  0.00  0.00     0.026 H 
ATOM     12  H   LIG d   1       6.492   1.882  -2.710  0.00  0.00     0.026 H 
BRANCH  10  13
ATOM     13  C   LIG d   1       4.915   0.585  -2.023  0.00  0.00    -0.053 C 
ATOM     14  H   LIG d   1       5.171   1.045  -1.069  0.00  0.00     0.026 H 
ATOM     15  H   LIG d   1       4.960  -0.500  -1.928  0.00  0.00     0.026 H 
BRANCH  13  16
ATOM     16  C   LIG d   1       3.500   1.003  -2.428  0.00  0.00    -0.053 C 
ATOM     17  H   LIG d   1       3.552   1.880  -3.074  0.00  0.00     0.026 H 
ATOM     18  H   LIG d   1       2.922   1.242  -1.537  0.00  0.00     0.026 H 
BRANCH  16  19
ATOM     19  C   LIG d   1       2.825  -0.145  -3.182  0.00  0.00    -0.056 C 
ATOM     20  H   LIG d   1       1.837  -0.325  -2.760  0.00  0.00     0.026 H 
ATOM     21  H   LIG d   1       3.430  -1.048  -3.087  0.00  0.00     0.026 H 
BRANCH  19  22
ATOM     22  C   LIG d   1       2.689   0.224  -4.660  0.00  0.00    -0.065 C 
ATOM     23  H   LIG d   1       2.941  -0.640  -5.275  0.00  0.00     0.023 H 
ATOM     24  H   LIG d   1       1.663   0.530  -4.866  0.00  0.00     0.023 H 
ATOM     25  H   LIG d   1       3.367   1.045  -4.893  0.00  0.00     0.023 H 
ENDBRANCH  19  22
ENDBRANCH  16  19
ENDBRANCH  13  16
ENDBRANCH  10  13
ENDBRANCH   7  10
ENDBRANCH   4   7
ENDBRANCH   1   4
BRANCH   1  26
ATOM     26  C   LIG d   1       4.903  -3.035  -4.170  0.00  0.00    -0.045 C 
ATOM     27  H   LIG d   1       4.560  -3.545  -3.270  0.00  0.00     0.027 H 
ATOM     28  H   LIG d   1       4.234  -2.204  -4.394  0.00  0.00     0.027 H 
BRANCH  26  29
ATOM     29  C   LIG d   1       4.909  -4.018  -5.342  0.00  0.00     0.024 C 
ATOM     30  H   LIG d   1       5.910  -4.431  -5.465  0.00  0.00     0.036 H 
ATOM     31  H   LIG d   1       4.205  -4.825  -5.143  0.00  0.00     0.036 H 
BRANCH  29  32
ATOM     32  C   LIG d   1       4.503  -3.298  -6.603  0.00  0.00     0.197 A 
ATOM     33  O   LIG d   1       4.649  -1.981  -6.821  0.00  0.00    -0.439 OA
ATOM     34  C   LIG d   1       4.181  -1.706  -8.048  0.00  0.00     0.170 A 
ATOM     35  C   LIG d   1       3.728  -2.909  -8.580  0.00  0.00     0.174 A 
ATOM     36  C   LIG d   1       4.062  -0.491  -8.857  0.00  0.00     0.043 A 
ATOM     37  N   LIG d   1       3.954  -3.860  -7.640  0.00  0.00    -0.208 NA
ATOM     38  C   LIG d   1       3.151  -2.921  -9.923  0.00  0.00     0.278 A 
ATOM     39  N   LIG d   1       3.057  -1.785 -10.638  0.00  0.00    -0.320 N 
ATOM     40  O   LIG d   1       2.751  -3.969 -10.399  0.00  0.00    -0.265 OA
ATOM     41  C   LIG d   1       3.496  -0.573 -10.141  0.00  0.00     0.053 A 
ATOM     42  H   LIG d   1       2.670  -1.818 -11.527  0.00  0.00     0.169 HD
ATOM     43  C   LIG d   1       3.381   0.581 -10.911  0.00  0.00    -0.038 A 
ATOM     44  C   LIG d   1       3.821   1.788 -10.415  0.00  0.00    -0.060 A 
ATOM     45  H   LIG d   1       2.947   0.529 -11.899  0.00  0.00     0.064 H 
ATOM     46  C   LIG d   1       4.379   1.871  -9.148  0.00  0.00    -0.061 A 
ATOM     47  H   LIG d   1       3.728   2.680 -11.018  0.00  0.00     0.062 H 
ATOM     48  C   LIG d   1       4.502   0.743  -8.369  0.00  0.00    -0.049 A 
ATOM     49  H   LIG d   1       4.719   2.824  -8.771  0.00  0.00     0.062 H 
ATOM     50  H   LIG d   1       4.937   0.811  -7.383  0.00  0.00     0.062 H 
ENDBRANCH  29  32
ENDBRANCH  26  29
ENDBRANCH   1  26
TORSDOF 10
ENDMDL
MODEL 8
REMARK VINA RESULT:      -5.8      6.542      8.627
REMARK  10 active torsions:
REMARK  status: ('A' for Active; 'I' for Inactive)
REMARK    1  A    between atoms: C_1  and  C_2 
REMARK    2  A    between atoms: C_2  and  C_3 
REMARK    3  A    between atoms: C_3  and  C_4 
REMARK    4  A    between atoms: C_4  and  C_5 
REMARK    5  A    between atoms: C_5  and  C_6 
REMARK    6  A    between atoms: C_6  and  C_7 
REMARK    7  A    between atoms: C_7  and  C_8 
REMARK    8  A    between atoms: C_8  and  C_9 
REMARK    9  A    between atoms: C_9  and  C_10 
REMARK   10  A    between atoms: C_10  and  C_11 
ROOT
ATOM      1  C   LIG d   1       5.867  -4.700  -5.422  0.00  0.00    -0.053 C 
ATOM      2  H   LIG d   1       6.737  -4.800  -6.069  0.00  0.00     0.026 H 
ATOM      3  H   LIG d   1       6.134  -4.994  -4.406  0.00  0.00     0.026 H 
ENDROOT
BRANCH   1   4
ATOM      4  C   LIG d   1       5.392  -3.246  -5.425  0.00  0.00    -0.053 C 
ATOM      5  H   LIG d   1       4.325  -3.213  -5.642  0.00  0.00     0.026 H 
ATOM      6  H   LIG d   1       5.936  -2.688  -6.188  0.00  0.00     0.026 H 
BRANCH   4   7
ATOM      7  C   LIG d   1       5.653  -2.621  -4.053  0.00  0.00    -0.053 C 
ATOM      8  H   LIG d   1       6.084  -1.628  -4.182  0.00  0.00     0.026 H 
ATOM      9  H   LIG d   1       6.348  -3.248  -3.494  0.00  0.00     0.026 H 
BRANCH   7  10
ATOM     10  C   LIG d   1       4.335  -2.510  -3.285  0.00  0.00    -0.053 C 
ATOM     11  H   LIG d   1       4.542  -2.318  -2.232  0.00  0.00     0.026 H 
ATOM     12  H   LIG d   1       3.778  -3.441  -3.381  0.00  0.00     0.026 H 
BRANCH  10  13
ATOM     13  C   LIG d   1       3.506  -1.358  -3.858  0.00  0.00    -0.053 C 
ATOM     14  H   LIG d   1       2.721  -1.760  -4.499  0.00  0.00     0.026 H 
ATOM     15  H   LIG d   1       4.151  -0.701  -4.441  0.00  0.00     0.026 H 
BRANCH  13  16
ATOM     16  C   LIG d   1       2.873  -0.566  -2.713  0.00  0.00    -0.053 C 
ATOM     17  H   LIG d   1       3.057  -1.082  -1.770  0.00  0.00     0.026 H 
ATOM     18  H   LIG d   1       1.800  -0.482  -2.878  0.00  0.00     0.026 H 
BRANCH  16  19
ATOM     19  C   LIG d   1       3.491   0.833  -2.657  0.00  0.00    -0.056 C 
ATOM     20  H   LIG d   1       2.731   1.554  -2.359  0.00  0.00     0.026 H 
ATOM     21  H   LIG d   1       3.878   1.099  -3.641  0.00  0.00     0.026 H 
BRANCH  19  22
ATOM     22  C   LIG d   1       4.634   0.846  -1.639  0.00  0.00    -0.065 C 
ATOM     23  H   LIG d   1       5.357   0.072  -1.896  0.00  0.00     0.023 H 
ATOM     24  H   LIG d   1       5.122   1.820  -1.654  0.00  0.00     0.023 H 
ATOM     25  H   LIG d   1       4.235   0.654  -0.644  0.00  0.00     0.023 H 
ENDBRANCH  19  22
ENDBRANCH  16  19
ENDBRANCH  13  16
ENDBRANCH  10  13
ENDBRANCH   7  10
ENDBRANCH   4   7
ENDBRANCH   1   4
BRANCH   1  26
ATOM     26  C   LIG d   1       4.744  -5.604  -5.934  0.00  0.00    -0.045 C 
ATOM     27  H   LIG d   1       4.066  -5.842  -5.114  0.00  0.00     0.027 H 
ATOM     28  H   LIG d   1       4.194  -5.090  -6.723  0.00  0.00     0.027 H 
BRANCH  26  29
ATOM     29  C   LIG d   1       5.344  -6.898  -6.489  0.00  0.00     0.024 C 
ATOM     30  H   LIG d   1       4.775  -7.216  -7.364  0.00  0.00     0.036 H 
ATOM     31  H   LIG d   1       6.381  -6.725  -6.773  0.00  0.00     0.036 H 
BRANCH  29  32
ATOM     32  C   LIG d   1       5.284  -7.972  -5.434  0.00  0.00     0.197 A 
ATOM     33  O   LIG d   1       6.277  -8.272  -4.581  0.00  0.00    -0.439 OA
ATOM     34  C   LIG d   1       5.861  -9.274  -3.790  0.00  0.00     0.170 A 
ATOM     35  C   LIG d   1       4.569  -9.590  -4.197  0.00  0.00     0.174 A 
ATOM     36  C   LIG d   1       6.456 -10.032  -2.687  0.00  0.00     0.043 A 
ATOM     37  N   LIG d   1       4.265  -8.751  -5.218  0.00  0.00    -0.208 NA
ATOM     38  C   LIG d   1       3.850 -10.664  -3.512  0.00  0.00     0.278 A 
ATOM     39  N   LIG d   1       4.428 -11.339  -2.503  0.00  0.00    -0.320 N 
ATOM     40  O   LIG d   1       2.718 -10.950  -3.860  0.00  0.00    -0.265 OA
ATOM     41  C   LIG d   1       5.710 -11.052  -2.073  0.00  0.00     0.053 A 
ATOM     42  H   LIG d   1       3.931 -12.048  -2.064  0.00  0.00     0.169 HD
ATOM     43  C   LIG d   1       6.274 -11.774  -1.026  0.00  0.00    -0.038 A 
ATOM     44  C   LIG d   1       7.551 -11.486  -0.598  0.00  0.00    -0.060 A 
ATOM     45  H   LIG d   1       5.710 -12.561  -0.547  0.00  0.00     0.064 H 
ATOM     46  C   LIG d   1       8.289 -10.479  -1.203  0.00  0.00    -0.061 A 
ATOM     47  H   LIG d   1       7.983 -12.050   0.216  0.00  0.00     0.062 H 
ATOM     48  C   LIG d   1       7.751  -9.753  -2.241  0.00  0.00    -0.049 A 
ATOM     49  H   LIG d   1       9.290 -10.263  -0.858  0.00  0.00     0.062 H 
ATOM     50  H   LIG d   1       8.329  -8.970  -2.711  0.00  0.00     0.062 H 
ENDBRANCH  29  32
ENDBRANCH  26  29
ENDBRANCH   1  26
TORSDOF 10
ENDMDL
MODEL 9
REMARK VINA RESULT:      -5.7      2.328      4.488
REMARK  10 active torsions:
REMARK  status: ('A' for Active; 'I' for Inactive)
REMARK    1  A    between atoms: C_1  and  C_2 
REMARK    2  A    between atoms: C_2  and  C_3 
REMARK    3  A    between atoms: C_3  and  C_4 
REMARK    4  A    between atoms: C_4  and  C_5 
REMARK    5  A    between atoms: C_5  and  C_6 
REMARK    6  A    between atoms: C_6  and  C_7 
REMARK    7  A    between atoms: C_7  and  C_8 
REMARK    8  A    between atoms: C_8  and  C_9 
REMARK    9  A    between atoms: C_9  and  C_10 
REMARK   10  A    between atoms: C_10  and  C_11 
ROOT
ATOM      1  C   LIG d   1       4.632   1.598 -10.107  0.00  0.00    -0.053 C 
ATOM      2  H   LIG d   1       5.053   0.794  -9.504  0.00  0.00     0.026 H 
ATOM      3  H   LIG d   1       5.429   2.271 -10.424  0.00  0.00     0.026 H 
ENDROOT
BRANCH   1   4
ATOM      4  C   LIG d   1       3.943   1.006 -11.339  0.00  0.00    -0.053 C 
ATOM      5  H   LIG d   1       4.350   1.465 -12.239  0.00  0.00     0.026 H 
ATOM      6  H   LIG d   1       2.872   1.199 -11.283  0.00  0.00     0.026 H 
BRANCH   4   7
ATOM      7  C   LIG d   1       4.188  -0.504 -11.382  0.00  0.00    -0.053 C 
ATOM      8  H   LIG d   1       4.159  -0.906 -10.368  0.00  0.00     0.026 H 
ATOM      9  H   LIG d   1       5.165  -0.702 -11.823  0.00  0.00     0.026 H 
BRANCH   7  10
ATOM     10  C   LIG d   1       3.101  -1.172 -12.226  0.00  0.00    -0.053 C 
ATOM     11  H   LIG d   1       3.424  -2.175 -12.507  0.00  0.00     0.026 H 
ATOM     12  H   LIG d   1       2.924  -0.583 -13.124  0.00  0.00     0.026 H 
BRANCH  10  13
ATOM     13  C   LIG d   1       1.808  -1.263 -11.413  0.00  0.00    -0.053 C 
ATOM     14  H   LIG d   1       0.978  -1.509 -12.076  0.00  0.00     0.026 H 
ATOM     15  H   LIG d   1       1.614  -0.305 -10.929  0.00  0.00     0.026 H 
BRANCH  13  16
ATOM     16  C   LIG d   1       1.950  -2.352 -10.348  0.00  0.00    -0.053 C 
ATOM     17  H   LIG d   1       1.838  -1.909  -9.358  0.00  0.00     0.026 H 
ATOM     18  H   LIG d   1       2.933  -2.815 -10.430  0.00  0.00     0.026 H 
BRANCH  16  19
ATOM     19  C   LIG d   1       0.867  -3.414 -10.557  0.00  0.00    -0.056 C 
ATOM     20  H   LIG d   1       0.069  -3.265  -9.831  0.00  0.00     0.026 H 
ATOM     21  H   LIG d   1       1.300  -4.405 -10.423  0.00  0.00     0.026 H 
BRANCH  19  22
ATOM     22  C   LIG d   1       0.299  -3.292 -11.972  0.00  0.00    -0.065 C 
ATOM     23  H   LIG d   1      -0.621  -3.872 -12.045  0.00  0.00     0.023 H 
ATOM     24  H   LIG d   1       0.088  -2.245 -12.190  0.00  0.00     0.023 H 
ATOM     25  H   LIG d   1       1.026  -3.673 -12.689  0.00  0.00     0.023 H 
ENDBRANCH  19  22
ENDBRANCH  16  19
ENDBRANCH  13  16
ENDBRANCH  10  13
ENDBRANCH   7  10
ENDBRANCH   4   7
ENDBRANCH   1   4
BRANCH   1  26
ATOM     26  C   LIG d   1       3.609   2.377  -9.277  0.00  0.00    -0.045 C 
ATOM     27  H   LIG d   1       4.107   2.827  -8.417  0.00  0.00     0.027 H 
ATOM     28  H   LIG d   1       3.163   3.160  -9.890  0.00  0.00     0.027 H 
BRANCH  26  29
ATOM     29  C   LIG d   1       2.516   1.423  -8.790  0.00  0.00     0.024 C 
ATOM     30  H   LIG d   1       1.661   2.001  -8.439  0.00  0.00     0.036 H 
ATOM     31  H   LIG d   1       2.206   0.777  -9.611  0.00  0.00     0.036 H 
BRANCH  29  32
ATOM     32  C   LIG d   1       3.051   0.580  -7.662  0.00  0.00     0.197 A 
ATOM     33  O   LIG d   1       3.088   0.950  -6.371  0.00  0.00    -0.439 OA
ATOM     34  C   LIG d   1       3.624  -0.055  -5.662  0.00  0.00     0.170 A 
ATOM     35  C   LIG d   1       3.930  -1.063  -6.571  0.00  0.00     0.174 A 
ATOM     36  C   LIG d   1       3.928  -0.270  -4.246  0.00  0.00     0.043 A 
ATOM     37  N   LIG d   1       3.552  -0.614  -7.794  0.00  0.00    -0.208 NA
ATOM     38  C   LIG d   1       4.540  -2.299  -6.084  0.00  0.00     0.278 A 
ATOM     39  N   LIG d   1       4.806  -2.462  -4.775  0.00  0.00    -0.320 N 
ATOM     40  O   LIG d   1       4.812  -3.189  -6.871  0.00  0.00    -0.265 OA
ATOM     41  C   LIG d   1       4.516  -1.482  -3.845  0.00  0.00     0.053 A 
ATOM     42  H   LIG d   1       5.212  -3.291  -4.476  0.00  0.00     0.169 HD
ATOM     43  C   LIG d   1       4.807  -1.688  -2.500  0.00  0.00    -0.038 A 
ATOM     44  C   LIG d   1       4.516  -0.710  -1.574  0.00  0.00    -0.060 A 
ATOM     45  H   LIG d   1       5.260  -2.615  -2.181  0.00  0.00     0.064 H 
ATOM     46  C   LIG d   1       3.936   0.486  -1.968  0.00  0.00    -0.061 A 
ATOM     47  H   LIG d   1       4.744  -0.877  -0.531  0.00  0.00     0.062 H 
ATOM     48  C   LIG d   1       3.641   0.712  -3.293  0.00  0.00    -0.049 A 
ATOM     49  H   LIG d   1       3.713   1.245  -1.231  0.00  0.00     0.062 H 
ATOM     50  H   LIG d   1       3.189   1.645  -3.596  0.00  0.00     0.062 H 
ENDBRANCH  29  32
ENDBRANCH  26  29
ENDBRANCH   1  26
TORSDOF 10
ENDMDL
