MODEL 1
REMARK VINA RESULT:      -5.5      0.000      0.000
REMARK  12 active torsions:
REMARK  status: ('A' for Active; 'I' for Inactive)
REMARK    1  A    between atoms: C_1  and  C_2 
REMARK    2  A    between atoms: C_4  and  O_25 
REMARK    3  A    between atoms: C_5  and  C_10 
REMARK    4  A    between atoms: C_6  and  O_8 
REMARK    5  A    between atoms: O_8  and  C_9 
REMARK    6  A    between atoms: C_10  and  C_12 
REMARK    7  A    between atoms: C_13  and  C_21 
REMARK    8  A    between atoms: C_15  and  O_20 
REMARK    9  A    between atoms: C_17  and  O_18 
REMARK   10  A    between atoms: O_18  and  C_19 
REMARK   11  A    between atoms: C_21  and  O_23 
REMARK   12  A    between atoms: O_23  and  C_24 
ROOT
ATOM      1  C   LIG d   1       4.067  -1.750  -8.178  0.00  0.00     0.078 A 
ATOM      2  C   LIG d   1       3.265  -0.616  -8.426  0.00  0.00     0.077 A 
ATOM      3  C   LIG d   1       2.150  -0.728  -9.245  0.00  0.00    -0.005 A 
ATOM      4  C   LIG d   1       1.827  -1.954  -9.818  0.00  0.00     0.121 A 
ATOM      5  C   LIG d   1       2.612  -3.070  -9.578  0.00  0.00     0.022 A 
ATOM      6  C   LIG d   1       3.733  -2.976  -8.766  0.00  0.00     0.135 A 
ATOM      7  H   LIG d   1       1.533   0.136  -9.437  0.00  0.00     0.066 H 
ATOM      8  H   LIG d   1       2.354  -4.018 -10.029  0.00  0.00     0.069 H 
ENDROOT
BRANCH   1   9
ATOM      9  C   LIG d   1       5.253  -1.644  -7.309  0.00  0.00     0.204 C 
ATOM     10  O   LIG d   1       6.367  -1.644  -7.799  0.00  0.00    -0.286 OA
BRANCH   9  11
ATOM     11  C   LIG d   1       5.090  -1.537  -5.850  0.00  0.00     0.105 A 
ATOM     12  C   LIG d   1       4.417  -2.543  -5.139  0.00  0.00     0.132 A 
ATOM     13  C   LIG d   1       4.270  -2.434  -3.766  0.00  0.00    -0.016 A 
ATOM     14  C   LIG d   1       4.783  -1.338  -3.096  0.00  0.00    -0.043 A 
ATOM     15  H   LIG d   1       3.752  -3.205  -3.217  0.00  0.00     0.066 H 
ATOM     16  C   LIG d   1       5.444  -0.339  -3.788  0.00  0.00    -0.016 A 
ATOM     17  C   LIG d   1       5.607  -0.430  -5.159  0.00  0.00     0.135 A 
ATOM     18  H   LIG d   1       5.836   0.514  -3.255  0.00  0.00     0.066 H 
BRANCH  12  19
ATOM     19  O   LIG d   1       3.912  -3.619  -5.794  0.00  0.00    -0.506 OA
ATOM     20  H   LIG d   1       3.972  -3.558  -6.757  0.00  0.00     0.292 HD
ENDBRANCH  12  19
BRANCH  14  21
ATOM     21  C   LIG d   1       4.616  -1.229  -1.602  0.00  0.00    -0.040 C 
ATOM     22  H   LIG d   1       3.699  -1.737  -1.302  0.00  0.00     0.028 H 
ATOM     23  H   LIG d   1       5.469  -1.693  -1.107  0.00  0.00     0.028 H 
ATOM     24  H   LIG d   1       4.559  -0.178  -1.318  0.00  0.00     0.028 H 
ENDBRANCH  14  21
BRANCH  17  25
ATOM     25  O   LIG d   1       6.260   0.549  -5.835  0.00  0.00    -0.494 OA
BRANCH  25  26
ATOM     26  C   LIG d   1       7.628   0.772  -5.490  0.00  0.00     0.079 C 
ATOM     27  H   LIG d   1       7.896   1.805  -5.716  0.00  0.00     0.066 H 
ATOM     28  H   LIG d   1       7.770   0.585  -4.426  0.00  0.00     0.066 H 
ATOM     29  H   LIG d   1       8.262   0.098  -6.066  0.00  0.00     0.066 H 
ENDBRANCH  25  26
ENDBRANCH  17  25
ENDBRANCH   9  11
ENDBRANCH   1   9
BRANCH   6  30
ATOM     30  O   LIG d   1       4.501  -4.070  -8.539  0.00  0.00    -0.494 OA
BRANCH  30  31
ATOM     31  C   LIG d   1       3.936  -5.340  -8.871  0.00  0.00     0.079 C 
ATOM     32  H   LIG d   1       3.986  -5.998  -8.003  0.00  0.00     0.066 H 
ATOM     33  H   LIG d   1       2.896  -5.208  -9.168  0.00  0.00     0.066 H 
ATOM     34  H   LIG d   1       4.496  -5.782  -9.695  0.00  0.00     0.066 H 
ENDBRANCH  30  31
ENDBRANCH   6  30
BRANCH   2  35
ATOM     35  C   LIG d   1       3.610   0.684  -7.815  0.00  0.00     0.340 C 
ATOM     36  O   LIG d   1       3.030   1.060  -6.815  0.00  0.00    -0.245 OA
BRANCH  35  37
ATOM     37  O   LIG d   1       4.568   1.455  -8.366  0.00  0.00    -0.464 OA
BRANCH  37  38
ATOM     38  C   LIG d   1       4.145   2.438  -9.314  0.00  0.00     0.082 C 
ATOM     39  H   LIG d   1       3.479   3.149  -8.826  0.00  0.00     0.066 H 
ATOM     40  H   LIG d   1       5.016   2.965  -9.703  0.00  0.00     0.066 H 
ATOM     41  H   LIG d   1       3.619   1.950 -10.133  0.00  0.00     0.066 H 
ENDBRANCH  37  38
ENDBRANCH  35  37
ENDBRANCH   2  35
BRANCH   4  42
ATOM     42  O   LIG d   1       0.736  -2.057 -10.619  0.00  0.00    -0.507 OA
ATOM     43  H   LIG d   1       0.704  -1.401 -11.329  0.00  0.00     0.292 HD
ENDBRANCH   4  42
TORSDOF 12
ENDMDL
MODEL 2
REMARK VINA RESULT:      -5.4      0.567      2.118
REMARK  12 active torsions:
REMARK  status: ('A' for Active; 'I' for Inactive)
REMARK    1  A    between atoms: C_1  and  C_2 
REMARK    2  A    between atoms: C_4  and  O_25 
REMARK    3  A    between atoms: C_5  and  C_10 
REMARK    4  A    between atoms: C_6  and  O_8 
REMARK    5  A    between atoms: O_8  and  C_9 
REMARK    6  A    between atoms: C_10  and  C_12 
REMARK    7  A    between atoms: C_13  and  C_21 
REMARK    8  A    between atoms: C_15  and  O_20 
REMARK    9  A    between atoms: C_17  and  O_18 
REMARK   10  A    between atoms: O_18  and  C_19 
REMARK   11  A    between atoms: C_21  and  O_23 
REMARK   12  A    between atoms: O_23  and  C_24 
ROOT
ATOM      1  C   LIG d   1       4.088  -1.863  -8.184  0.00  0.00     0.078 A 
ATOM      2  C   LIG d   1       3.257  -0.741  -8.387  0.00  0.00     0.077 A 
ATOM      3  C   LIG d   1       2.142  -0.851  -9.206  0.00  0.00    -0.005 A 
ATOM      4  C   LIG d   1       1.847  -2.062  -9.824  0.00  0.00     0.121 A 
ATOM      5  C   LIG d   1       2.661  -3.167  -9.628  0.00  0.00     0.022 A 
ATOM      6  C   LIG d   1       3.782  -3.075  -8.816  0.00  0.00     0.135 A 
ATOM      7  H   LIG d   1       1.502   0.005  -9.364  0.00  0.00     0.066 H 
ATOM      8  H   LIG d   1       2.424  -4.103 -10.112  0.00  0.00     0.069 H 
ENDROOT
BRANCH   1   9
ATOM      9  C   LIG d   1       5.274  -1.759  -7.315  0.00  0.00     0.204 C 
ATOM     10  O   LIG d   1       6.388  -1.764  -7.805  0.00  0.00    -0.286 OA
BRANCH   9  11
ATOM     11  C   LIG d   1       5.111  -1.649  -5.856  0.00  0.00     0.105 A 
ATOM     12  C   LIG d   1       5.513  -0.482  -5.187  0.00  0.00     0.132 A 
ATOM     13  C   LIG d   1       5.355  -0.389  -3.814  0.00  0.00    -0.016 A 
ATOM     14  C   LIG d   1       4.805  -1.440  -3.103  0.00  0.00    -0.043 A 
ATOM     15  H   LIG d   1       5.663   0.507  -3.297  0.00  0.00     0.066 H 
ATOM     16  C   LIG d   1       4.410  -2.595  -3.752  0.00  0.00    -0.016 A 
ATOM     17  C   LIG d   1       4.553  -2.709  -5.124  0.00  0.00     0.135 A 
ATOM     18  H   LIG d   1       3.985  -3.411  -3.187  0.00  0.00     0.066 H 
BRANCH  12  19
ATOM     19  O   LIG d   1       6.053   0.550  -5.881  0.00  0.00    -0.506 OA
ATOM     20  H   LIG d   1       5.552   0.800  -6.669  0.00  0.00     0.292 HD
ENDBRANCH  12  19
BRANCH  14  21
ATOM     21  C   LIG d   1       4.638  -1.327  -1.609  0.00  0.00    -0.040 C 
ATOM     22  H   LIG d   1       4.379  -2.303  -1.198  0.00  0.00     0.028 H 
ATOM     23  H   LIG d   1       5.571  -0.980  -1.165  0.00  0.00     0.028 H 
ATOM     24  H   LIG d   1       3.843  -0.615  -1.386  0.00  0.00     0.028 H 
ENDBRANCH  14  21
BRANCH  17  25
ATOM     25  O   LIG d   1       4.161  -3.842  -5.759  0.00  0.00    -0.494 OA
BRANCH  25  26
ATOM     26  C   LIG d   1       4.804  -5.058  -5.371  0.00  0.00     0.079 C 
ATOM     27  H   LIG d   1       5.300  -4.916  -4.410  0.00  0.00     0.066 H 
ATOM     28  H   LIG d   1       4.061  -5.850  -5.283  0.00  0.00     0.066 H 
ATOM     29  H   LIG d   1       5.543  -5.334  -6.123  0.00  0.00     0.066 H 
ENDBRANCH  25  26
ENDBRANCH  17  25
ENDBRANCH   9  11
ENDBRANCH   1   9
BRANCH   6  30
ATOM     30  O   LIG d   1       4.578  -4.156  -8.632  0.00  0.00    -0.494 OA
BRANCH  30  31
ATOM     31  C   LIG d   1       4.511  -5.188  -9.619  0.00  0.00     0.079 C 
ATOM     32  H   LIG d   1       5.496  -5.332 -10.062  0.00  0.00     0.066 H 
ATOM     33  H   LIG d   1       4.183  -6.116  -9.152  0.00  0.00     0.066 H 
ATOM     34  H   LIG d   1       3.801  -4.901 -10.395  0.00  0.00     0.066 H 
ENDBRANCH  30  31
ENDBRANCH   6  30
BRANCH   2  35
ATOM     35  C   LIG d   1       3.572   0.544  -7.729  0.00  0.00     0.340 C 
ATOM     36  O   LIG d   1       2.956   0.889  -6.740  0.00  0.00    -0.245 OA
BRANCH  35  37
ATOM     37  O   LIG d   1       4.543   1.335  -8.226  0.00  0.00    -0.464 OA
BRANCH  37  38
ATOM     38  C   LIG d   1       4.158   2.294  -9.213  0.00  0.00     0.082 C 
ATOM     39  H   LIG d   1       4.248   3.298  -8.798  0.00  0.00     0.066 H 
ATOM     40  H   LIG d   1       4.809   2.201 -10.083  0.00  0.00     0.066 H 
ATOM     41  H   LIG d   1       3.125   2.115  -9.510  0.00  0.00     0.066 H 
ENDBRANCH  37  38
ENDBRANCH  35  37
ENDBRANCH   2  35
BRANCH   4  42
ATOM     42  O   LIG d   1       0.755  -2.163 -10.625  0.00  0.00    -0.507 OA
ATOM     43  H   LIG d   1       0.672  -1.447 -11.269  0.00  0.00     0.292 HD
ENDBRANCH   4  42
TORSDOF 12
ENDMDL
MODEL 3
REMARK VINA RESULT:      -5.2      1.271      3.628
REMARK  12 active torsions:
REMARK  status: ('A' for Active; 'I' for Inactive)
REMARK    1  A    between atoms: C_1  and  C_2 
REMARK    2  A    between atoms: C_4  and  O_25 
REMARK    3  A    between atoms: C_5  and  C_10 
REMARK    4  A    between atoms: C_6  and  O_8 
REMARK    5  A    between atoms: O_8  and  C_9 
REMARK    6  A    between atoms: C_10  and  C_12 
REMARK    7  A    between atoms: C_13  and  C_21 
REMARK    8  A    between atoms: C_15  and  O_20 
REMARK    9  A    between atoms: C_17  and  O_18 
REMARK   10  A    between atoms: O_18  and  C_19 
REMARK   11  A    between atoms: C_21  and  O_23 
REMARK   12  A    between atoms: O_23  and  C_24 
ROOT
ATOM      1  C   LIG d   1       3.887  -0.645  -8.221  0.00  0.00     0.078 A 
ATOM      2  C   LIG d   1       3.580  -1.948  -8.665  0.00  0.00     0.077 A 
ATOM      3  C   LIG d   1       2.521  -2.144  -9.542  0.00  0.00    -0.005 A 
ATOM      4  C   LIG d   1       1.768  -1.059  -9.978  0.00  0.00     0.121 A 
ATOM      5  C   LIG d   1       2.066   0.223  -9.543  0.00  0.00     0.022 A 
ATOM      6  C   LIG d   1       3.117   0.437  -8.663  0.00  0.00     0.135 A 
ATOM      7  H   LIG d   1       2.282  -3.139  -9.885  0.00  0.00     0.066 H 
ATOM      8  H   LIG d   1       1.475   1.060  -9.887  0.00  0.00     0.069 H 
ENDROOT
BRANCH   1   9
ATOM      9  C   LIG d   1       5.009  -0.425  -7.291  0.00  0.00     0.204 C 
ATOM     10  O   LIG d   1       6.067   0.007  -7.706  0.00  0.00    -0.286 OA
BRANCH   9  11
ATOM     11  C   LIG d   1       4.850  -0.729  -5.859  0.00  0.00     0.105 A 
ATOM     12  C   LIG d   1       3.829  -0.114  -5.116  0.00  0.00     0.132 A 
ATOM     13  C   LIG d   1       3.687  -0.407  -3.770  0.00  0.00    -0.016 A 
ATOM     14  C   LIG d   1       4.547  -1.302  -3.157  0.00  0.00    -0.043 A 
ATOM     15  H   LIG d   1       2.904   0.064  -3.196  0.00  0.00     0.066 H 
ATOM     16  C   LIG d   1       5.557  -1.910  -3.879  0.00  0.00    -0.016 A 
ATOM     17  C   LIG d   1       5.715  -1.636  -5.227  0.00  0.00     0.135 A 
ATOM     18  H   LIG d   1       6.225  -2.603  -3.390  0.00  0.00     0.066 H 
BRANCH  12  19
ATOM     19  O   LIG d   1       2.986   0.764  -5.714  0.00  0.00    -0.506 OA
ATOM     20  H   LIG d   1       2.846   0.597  -6.655  0.00  0.00     0.292 HD
ENDBRANCH  12  19
BRANCH  14  21
ATOM     21  C   LIG d   1       4.382  -1.613  -1.692  0.00  0.00    -0.040 C 
ATOM     22  H   LIG d   1       3.590  -2.351  -1.564  0.00  0.00     0.028 H 
ATOM     23  H   LIG d   1       5.318  -2.011  -1.298  0.00  0.00     0.028 H 
ATOM     24  H   LIG d   1       4.121  -0.701  -1.154  0.00  0.00     0.028 H 
ENDBRANCH  14  21
BRANCH  17  25
ATOM     25  O   LIG d   1       6.704  -2.237  -5.934  0.00  0.00    -0.494 OA
BRANCH  25  26
ATOM     26  C   LIG d   1       7.447  -3.260  -5.268  0.00  0.00     0.079 C 
ATOM     27  H   LIG d   1       6.896  -3.594  -4.388  0.00  0.00     0.066 H 
ATOM     28  H   LIG d   1       7.596  -4.100  -5.944  0.00  0.00     0.066 H 
ATOM     29  H   LIG d   1       8.415  -2.864  -4.961  0.00  0.00     0.066 H 
ENDBRANCH  25  26
ENDBRANCH  17  25
ENDBRANCH   9  11
ENDBRANCH   1   9
BRANCH   6  30
ATOM     30  O   LIG d   1       3.402   1.692  -8.237  0.00  0.00    -0.494 OA
BRANCH  30  31
ATOM     31  C   LIG d   1       3.947   2.597  -9.200  0.00  0.00     0.079 C 
ATOM     32  H   LIG d   1       4.456   3.412  -8.685  0.00  0.00     0.066 H 
ATOM     33  H   LIG d   1       4.659   2.067  -9.833  0.00  0.00     0.066 H 
ATOM     34  H   LIG d   1       3.143   3.000  -9.815  0.00  0.00     0.066 H 
ENDBRANCH  30  31
ENDBRANCH   6  30
BRANCH   2  35
ATOM     35  C   LIG d   1       4.381  -3.100  -8.201  0.00  0.00     0.340 C 
ATOM     36  O   LIG d   1       5.420  -3.384  -8.763  0.00  0.00    -0.245 OA
BRANCH  35  37
ATOM     37  O   LIG d   1       3.960  -3.835  -7.153  0.00  0.00    -0.464 OA
BRANCH  37  38
ATOM     38  C   LIG d   1       3.778  -5.235  -7.373  0.00  0.00     0.082 C 
ATOM     39  H   LIG d   1       4.003  -5.779  -6.455  0.00  0.00     0.066 H 
ATOM     40  H   LIG d   1       2.745  -5.425  -7.664  0.00  0.00     0.066 H 
ATOM     41  H   LIG d   1       4.447  -5.568  -8.166  0.00  0.00     0.066 H 
ENDBRANCH  37  38
ENDBRANCH  35  37
ENDBRANCH   2  35
BRANCH   4  42
ATOM     42  O   LIG d   1       0.733  -1.256 -10.834  0.00  0.00    -0.507 OA
ATOM     43  H   LIG d   1       0.100  -0.526 -10.863  0.00  0.00     0.292 HD
ENDBRANCH   4  42
TORSDOF 12
ENDMDL
MODEL 4
REMARK VINA RESULT:      -5.2      1.744      6.173
REMARK  12 active torsions:
REMARK  status: ('A' for Active; 'I' for Inactive)
REMARK    1  A    between atoms: C_1  and  C_2 
REMARK    2  A    between atoms: C_4  and  O_25 
REMARK    3  A    between atoms: C_5  and  C_10 
REMARK    4  A    between atoms: C_6  and  O_8 
REMARK    5  A    between atoms: O_8  and  C_9 
REMARK    6  A    between atoms: C_10  and  C_12 
REMARK    7  A    between atoms: C_13  and  C_21 
REMARK    8  A    between atoms: C_15  and  O_20 
REMARK    9  A    between atoms: C_17  and  O_18 
REMARK   10  A    between atoms: O_18  and  C_19 
REMARK   11  A    between atoms: C_21  and  O_23 
REMARK   12  A    between atoms: O_23  and  C_24 
ROOT
ATOM      1  C   LIG d   1       5.332  -0.771  -5.698  0.00  0.00     0.078 A 
ATOM      2  C   LIG d   1       5.603  -1.820  -4.794  0.00  0.00     0.077 A 
ATOM      3  C   LIG d   1       6.915  -2.096  -4.433  0.00  0.00    -0.005 A 
ATOM      4  C   LIG d   1       7.956  -1.340  -4.961  0.00  0.00     0.121 A 
ATOM      5  C   LIG d   1       7.695  -0.309  -5.850  0.00  0.00     0.022 A 
ATOM      6  C   LIG d   1       6.391  -0.023  -6.226  0.00  0.00     0.135 A 
ATOM      7  H   LIG d   1       7.126  -2.897  -3.741  0.00  0.00     0.066 H 
ATOM      8  H   LIG d   1       8.511   0.272  -6.255  0.00  0.00     0.069 H 
ENDROOT
BRANCH   1   9
ATOM      9  C   LIG d   1       3.944  -0.469  -6.088  0.00  0.00     0.204 C 
ATOM     10  O   LIG d   1       3.128  -0.157  -5.241  0.00  0.00    -0.286 OA
BRANCH   9  11
ATOM     11  C   LIG d   1       3.543  -0.545  -7.503  0.00  0.00     0.105 A 
ATOM     12  C   LIG d   1       3.104   0.606  -8.176  0.00  0.00     0.132 A 
ATOM     13  C   LIG d   1       2.731   0.524  -9.507  0.00  0.00    -0.016 A 
ATOM     14  C   LIG d   1       2.788  -0.687 -10.173  0.00  0.00    -0.043 A 
ATOM     15  H   LIG d   1       2.393   1.408 -10.026  0.00  0.00     0.066 H 
ATOM     16  C   LIG d   1       3.214  -1.828  -9.518  0.00  0.00    -0.016 A 
ATOM     17  C   LIG d   1       3.598  -1.768  -8.189  0.00  0.00     0.135 A 
ATOM     18  H   LIG d   1       3.250  -2.769 -10.046  0.00  0.00     0.066 H 
BRANCH  12  19
ATOM     19  O   LIG d   1       3.047   1.795  -7.525  0.00  0.00    -0.506 OA
ATOM     20  H   LIG d   1       3.660   2.461  -7.866  0.00  0.00     0.292 HD
ENDBRANCH  12  19
BRANCH  14  21
ATOM     21  C   LIG d   1       2.378  -0.764 -11.621  0.00  0.00    -0.040 C 
ATOM     22  H   LIG d   1       3.268  -0.835 -12.246  0.00  0.00     0.028 H 
ATOM     23  H   LIG d   1       1.753  -1.644 -11.775  0.00  0.00     0.028 H 
ATOM     24  H   LIG d   1       1.816   0.131 -11.888  0.00  0.00     0.028 H 
ENDBRANCH  14  21
BRANCH  17  25
ATOM     25  O   LIG d   1       4.020  -2.888  -7.550  0.00  0.00    -0.494 OA
BRANCH  25  26
ATOM     26  C   LIG d   1       5.141  -3.572  -8.114  0.00  0.00     0.079 C 
ATOM     27  H   LIG d   1       6.004  -2.906  -8.125  0.00  0.00     0.066 H 
ATOM     28  H   LIG d   1       5.369  -4.452  -7.514  0.00  0.00     0.066 H 
ATOM     29  H   LIG d   1       4.905  -3.877  -9.133  0.00  0.00     0.066 H 
ENDBRANCH  25  26
ENDBRANCH  17  25
ENDBRANCH   9  11
ENDBRANCH   1   9
BRANCH   6  30
ATOM     30  O   LIG d   1       6.141   0.983  -7.100  0.00  0.00    -0.494 OA
BRANCH  30  31
ATOM     31  C   LIG d   1       6.891   0.987  -8.317  0.00  0.00     0.079 C 
ATOM     32  H   LIG d   1       7.694   0.252  -8.251  0.00  0.00     0.066 H 
ATOM     33  H   LIG d   1       6.234   0.735  -9.149  0.00  0.00     0.066 H 
ATOM     34  H   LIG d   1       7.317   1.977  -8.478  0.00  0.00     0.066 H 
ENDBRANCH  30  31
ENDBRANCH   6  30
BRANCH   2  35
ATOM     35  C   LIG d   1       4.494  -2.621  -4.234  0.00  0.00     0.340 C 
ATOM     36  O   LIG d   1       4.320  -3.764  -4.607  0.00  0.00    -0.245 OA
BRANCH  35  37
ATOM     37  O   LIG d   1       3.675  -2.084  -3.308  0.00  0.00    -0.464 OA
BRANCH  37  38
ATOM     38  C   LIG d   1       4.271  -1.655  -2.083  0.00  0.00     0.082 C 
ATOM     39  H   LIG d   1       5.356  -1.731  -2.161  0.00  0.00     0.066 H 
ATOM     40  H   LIG d   1       3.993  -0.619  -1.887  0.00  0.00     0.066 H 
ATOM     41  H   LIG d   1       3.920  -2.286  -1.268  0.00  0.00     0.066 H 
ENDBRANCH  37  38
ENDBRANCH  35  37
ENDBRANCH   2  35
BRANCH   4  42
ATOM     42  O   LIG d   1       9.237  -1.615  -4.604  0.00  0.00    -0.507 OA
ATOM     43  H   LIG d   1       9.616  -0.983  -3.978  0.00  0.00     0.292 HD
ENDBRANCH   4  42
TORSDOF 12
ENDMDL
MODEL 5
REMARK VINA RESULT:      -5.0      1.595      2.372
REMARK  12 active torsions:
REMARK  status: ('A' for Active; 'I' for Inactive)
REMARK    1  A    between atoms: C_1  and  C_2 
REMARK    2  A    between atoms: C_4  and  O_25 
REMARK    3  A    between atoms: C_5  and  C_10 
REMARK    4  A    between atoms: C_6  and  O_8 
REMARK    5  A    between atoms: O_8  and  C_9 
REMARK    6  A    between atoms: C_10  and  C_12 
REMARK    7  A    between atoms: C_13  and  C_21 
REMARK    8  A    between atoms: C_15  and  O_20 
REMARK    9  A    between atoms: C_17  and  O_18 
REMARK   10  A    between atoms: O_18  and  C_19 
REMARK   11  A    between atoms: C_21  and  O_23 
REMARK   12  A    between atoms: O_23  and  C_24 
ROOT
ATOM      1  C   LIG d   1       4.384  -1.970  -7.695  0.00  0.00     0.078 A 
ATOM      2  C   LIG d   1       3.468  -1.917  -8.766  0.00  0.00     0.077 A 
ATOM      3  C   LIG d   1       2.871  -3.085  -9.219  0.00  0.00    -0.005 A 
ATOM      4  C   LIG d   1       3.177  -4.302  -8.619  0.00  0.00     0.121 A 
ATOM      5  C   LIG d   1       4.077  -4.359  -7.566  0.00  0.00     0.022 A 
ATOM      6  C   LIG d   1       4.687  -3.202  -7.104  0.00  0.00     0.135 A 
ATOM      7  H   LIG d   1       2.168  -3.049 -10.038  0.00  0.00     0.066 H 
ATOM      8  H   LIG d   1       4.308  -5.309  -7.107  0.00  0.00     0.069 H 
ENDROOT
BRANCH   1   9
ATOM      9  C   LIG d   1       5.024  -0.736  -7.205  0.00  0.00     0.204 C 
ATOM     10  O   LIG d   1       5.678  -0.047  -7.965  0.00  0.00    -0.286 OA
BRANCH   9  11
ATOM     11  C   LIG d   1       4.871  -0.336  -5.797  0.00  0.00     0.105 A 
ATOM     12  C   LIG d   1       3.595  -0.073  -5.271  0.00  0.00     0.132 A 
ATOM     13  C   LIG d   1       3.462   0.302  -3.945  0.00  0.00    -0.016 A 
ATOM     14  C   LIG d   1       4.580   0.418  -3.138  0.00  0.00    -0.043 A 
ATOM     15  H   LIG d   1       2.483   0.504  -3.539  0.00  0.00     0.066 H 
ATOM     16  C   LIG d   1       5.841   0.166  -3.647  0.00  0.00    -0.016 A 
ATOM     17  C   LIG d   1       5.997  -0.215  -4.968  0.00  0.00     0.135 A 
ATOM     18  H   LIG d   1       6.707   0.264  -3.009  0.00  0.00     0.066 H 
BRANCH  12  19
ATOM     19  O   LIG d   1       2.497  -0.186  -6.060  0.00  0.00    -0.506 OA
ATOM     20  H   LIG d   1       2.696  -0.383  -6.986  0.00  0.00     0.292 HD
ENDBRANCH  12  19
BRANCH  14  21
ATOM     21  C   LIG d   1       4.422   0.827  -1.696  0.00  0.00    -0.040 C 
ATOM     22  H   LIG d   1       4.409  -0.063  -1.067  0.00  0.00     0.028 H 
ATOM     23  H   LIG d   1       5.257   1.466  -1.407  0.00  0.00     0.028 H 
ATOM     24  H   LIG d   1       3.487   1.373  -1.574  0.00  0.00     0.028 H 
ENDBRANCH  14  21
BRANCH  17  25
ATOM     25  O   LIG d   1       7.235  -0.467  -5.464  0.00  0.00    -0.494 OA
BRANCH  25  26
ATOM     26  C   LIG d   1       8.198   0.585  -5.364  0.00  0.00     0.079 C 
ATOM     27  H   LIG d   1       7.847   1.453  -5.923  0.00  0.00     0.066 H 
ATOM     28  H   LIG d   1       8.333   0.856  -4.318  0.00  0.00     0.066 H 
ATOM     29  H   LIG d   1       9.148   0.246  -5.778  0.00  0.00     0.066 H 
ENDBRANCH  25  26
ENDBRANCH  17  25
ENDBRANCH   9  11
ENDBRANCH   1   9
BRANCH   6  30
ATOM     30  O   LIG d   1       5.571  -3.264  -6.078  0.00  0.00    -0.494 OA
BRANCH  30  31
ATOM     31  C   LIG d   1       5.117  -3.869  -4.865  0.00  0.00     0.079 C 
ATOM     32  H   LIG d   1       4.565  -4.780  -5.097  0.00  0.00     0.066 H 
ATOM     33  H   LIG d   1       5.974  -4.112  -4.237  0.00  0.00     0.066 H 
ATOM     34  H   LIG d   1       4.465  -3.174  -4.335  0.00  0.00     0.066 H 
ENDBRANCH  30  31
ENDBRANCH   6  30
BRANCH   2  35
ATOM     35  C   LIG d   1       3.144  -0.622  -9.402  0.00  0.00     0.340 C 
ATOM     36  O   LIG d   1       2.324   0.116  -8.895  0.00  0.00    -0.245 OA
BRANCH  35  37
ATOM     37  O   LIG d   1       3.759  -0.261 -10.546  0.00  0.00    -0.464 OA
BRANCH  37  38
ATOM     38  C   LIG d   1       3.910   1.139 -10.788  0.00  0.00     0.082 C 
ATOM     39  H   LIG d   1       4.153   1.644  -9.853  0.00  0.00     0.066 H 
ATOM     40  H   LIG d   1       4.714   1.298 -11.506  0.00  0.00     0.066 H 
ATOM     41  H   LIG d   1       2.979   1.541 -11.187  0.00  0.00     0.066 H 
ENDBRANCH  37  38
ENDBRANCH  35  37
ENDBRANCH   2  35
BRANCH   4  42
ATOM     42  O   LIG d   1       2.590  -5.441  -9.067  0.00  0.00    -0.507 OA
ATOM     43  H   LIG d   1       2.600  -6.167  -8.428  0.00  0.00     0.292 HD
ENDBRANCH   4  42
TORSDOF 12
ENDMDL
MODEL 6
REMARK VINA RESULT:      -4.9      1.982      5.794
REMARK  12 active torsions:
REMARK  status: ('A' for Active; 'I' for Inactive)
REMARK    1  A    between atoms: C_1  and  C_2 
REMARK    2  A    between atoms: C_4  and  O_25 
REMARK    3  A    between atoms: C_5  and  C_10 
REMARK    4  A    between atoms: C_6  and  O_8 
REMARK    5  A    between atoms: O_8  and  C_9 
REMARK    6  A    between atoms: C_10  and  C_12 
REMARK    7  A    between atoms: C_13  and  C_21 
REMARK    8  A    between atoms: C_15  and  O_20 
REMARK    9  A    between atoms: C_17  and  O_18 
REMARK   10  A    between atoms: O_18  and  C_19 
REMARK   11  A    between atoms: C_21  and  O_23 
REMARK   12  A    between atoms: O_23  and  C_24 
ROOT
ATOM      1  C   LIG d   1       6.157  -0.479  -5.154  0.00  0.00     0.078 A 
ATOM      2  C   LIG d   1       7.138   0.086  -5.996  0.00  0.00     0.077 A 
ATOM      3  C   LIG d   1       7.946   1.109  -5.520  0.00  0.00    -0.005 A 
ATOM      4  C   LIG d   1       7.787   1.575  -4.219  0.00  0.00     0.121 A 
ATOM      5  C   LIG d   1       6.825   1.024  -3.388  0.00  0.00     0.022 A 
ATOM      6  C   LIG d   1       6.004   0.004  -3.848  0.00  0.00     0.135 A 
ATOM      7  H   LIG d   1       8.698   1.544  -6.161  0.00  0.00     0.066 H 
ATOM      8  H   LIG d   1       6.708   1.392  -2.380  0.00  0.00     0.069 H 
ENDROOT
BRANCH   1   9
ATOM      9  C   LIG d   1       5.293  -1.566  -5.648  0.00  0.00     0.204 C 
ATOM     10  O   LIG d   1       5.358  -2.671  -5.143  0.00  0.00    -0.286 OA
BRANCH   9  11
ATOM     11  C   LIG d   1       4.352  -1.316  -6.752  0.00  0.00     0.105 A 
ATOM     12  C   LIG d   1       4.356  -2.145  -7.885  0.00  0.00     0.132 A 
ATOM     13  C   LIG d   1       3.466  -1.901  -8.918  0.00  0.00    -0.016 A 
ATOM     14  C   LIG d   1       2.576  -0.846  -8.836  0.00  0.00    -0.043 A 
ATOM     15  H   LIG d   1       3.467  -2.537  -9.790  0.00  0.00     0.066 H 
ATOM     16  C   LIG d   1       2.567  -0.021  -7.726  0.00  0.00    -0.016 A 
ATOM     17  C   LIG d   1       3.444  -0.249  -6.679  0.00  0.00     0.135 A 
ATOM     18  H   LIG d   1       1.871   0.803  -7.674  0.00  0.00     0.066 H 
BRANCH  12  19
ATOM     19  O   LIG d   1       5.228  -3.181  -7.968  0.00  0.00    -0.506 OA
ATOM     20  H   LIG d   1       5.800  -3.153  -8.747  0.00  0.00     0.292 HD
ENDBRANCH  12  19
BRANCH  14  21
ATOM     21  C   LIG d   1       1.612  -0.590  -9.966  0.00  0.00    -0.040 C 
ATOM     22  H   LIG d   1       0.601  -0.508  -9.568  0.00  0.00     0.028 H 
ATOM     23  H   LIG d   1       1.882   0.338 -10.471  0.00  0.00     0.028 H 
ATOM     24  H   LIG d   1       1.658  -1.416 -10.676  0.00  0.00     0.028 H 
ENDBRANCH  14  21
BRANCH  17  25
ATOM     25  O   LIG d   1       3.430   0.560  -5.590  0.00  0.00    -0.494 OA
BRANCH  25  26
ATOM     26  C   LIG d   1       2.264   0.515  -4.765  0.00  0.00     0.079 C 
ATOM     27  H   LIG d   1       1.737  -0.425  -4.932  0.00  0.00     0.066 H 
ATOM     28  H   LIG d   1       2.556   0.587  -3.718  0.00  0.00     0.066 H 
ATOM     29  H   LIG d   1       1.609   1.349  -5.018  0.00  0.00     0.066 H 
ENDBRANCH  25  26
ENDBRANCH  17  25
ENDBRANCH   9  11
ENDBRANCH   1   9
BRANCH   6  30
ATOM     30  O   LIG d   1       5.060  -0.529  -3.034  0.00  0.00    -0.494 OA
BRANCH  30  31
ATOM     31  C   LIG d   1       4.647   0.261  -1.916  0.00  0.00     0.079 C 
ATOM     32  H   LIG d   1       4.998   1.285  -2.045  0.00  0.00     0.066 H 
ATOM     33  H   LIG d   1       3.559   0.254  -1.849  0.00  0.00     0.066 H 
ATOM     34  H   LIG d   1       5.070  -0.156  -1.002  0.00  0.00     0.066 H 
ENDBRANCH  30  31
ENDBRANCH   6  30
BRANCH   2  35
ATOM     35  C   LIG d   1       7.305  -0.411  -7.378  0.00  0.00     0.340 C 
ATOM     36  O   LIG d   1       7.845  -1.480  -7.579  0.00  0.00    -0.245 OA
BRANCH  35  37
ATOM     37  O   LIG d   1       6.857   0.323  -8.416  0.00  0.00    -0.464 OA
BRANCH  37  38
ATOM     38  C   LIG d   1       6.969  -0.258  -9.717  0.00  0.00     0.082 C 
ATOM     39  H   LIG d   1       7.480  -1.218  -9.644  0.00  0.00     0.066 H 
ATOM     40  H   LIG d   1       5.973  -0.408 -10.134  0.00  0.00     0.066 H 
ATOM     41  H   LIG d   1       7.538   0.408 -10.365  0.00  0.00     0.066 H 
ENDBRANCH  37  38
ENDBRANCH  35  37
ENDBRANCH   2  35
BRANCH   4  42
ATOM     42  O   LIG d   1       8.580   2.577  -3.760  0.00  0.00    -0.507 OA
ATOM     43  H   LIG d   1       9.275   2.284  -3.155  0.00  0.00     0.292 HD
ENDBRANCH   4  42
TORSDOF 12
ENDMDL
MODEL 7
REMARK VINA RESULT:      -4.9     11.031     14.238
REMARK  12 active torsions:
REMARK  status: ('A' for Active; 'I' for Inactive)
REMARK    1  A    between atoms: C_1  and  C_2 
REMARK    2  A    between atoms: C_4  and  O_25 
REMARK    3  A    between atoms: C_5  and  C_10 
REMARK    4  A    between atoms: C_6  and  O_8 
REMARK    5  A    between atoms: O_8  and  C_9 
REMARK    6  A    between atoms: C_10  and  C_12 
REMARK    7  A    between atoms: C_13  and  C_21 
REMARK    8  A    between atoms: C_15  and  O_20 
REMARK    9  A    between atoms: C_17  and  O_18 
REMARK   10  A    between atoms: O_18  and  C_19 
REMARK   11  A    between atoms: C_21  and  O_23 
REMARK   12  A    between atoms: O_23  and  C_24 
ROOT
ATOM      1  C   LIG d   1      10.990   8.403   0.445  0.00  0.00     0.078 A 
ATOM      2  C   LIG d   1      10.201   8.879  -0.624  0.00  0.00     0.077 A 
ATOM      3  C   LIG d   1       9.889  10.229  -0.702  0.00  0.00    -0.005 A 
ATOM      4  C   LIG d   1      10.353  11.108   0.272  0.00  0.00     0.121 A 
ATOM      5  C   LIG d   1      11.128  10.646   1.324  0.00  0.00     0.022 A 
ATOM      6  C   LIG d   1      11.445   9.299   1.420  0.00  0.00     0.135 A 
ATOM      7  H   LIG d   1       9.286  10.598  -1.518  0.00  0.00     0.066 H 
ATOM      8  H   LIG d   1      11.483  11.336   2.075  0.00  0.00     0.069 H 
ENDROOT
BRANCH   1   9
ATOM      9  C   LIG d   1      11.327   6.972   0.537  0.00  0.00     0.204 C 
ATOM     10  O   LIG d   1      10.821   6.282   1.401  0.00  0.00    -0.286 OA
BRANCH   9  11
ATOM     11  C   LIG d   1      12.278   6.376  -0.417  0.00  0.00     0.105 A 
ATOM     12  C   LIG d   1      11.881   5.306  -1.234  0.00  0.00     0.132 A 
ATOM     13  C   LIG d   1      12.782   4.753  -2.129  0.00  0.00    -0.016 A 
ATOM     14  C   LIG d   1      14.069   5.252  -2.218  0.00  0.00    -0.043 A 
ATOM     15  H   LIG d   1      12.480   3.930  -2.758  0.00  0.00     0.066 H 
ATOM     16  C   LIG d   1      14.472   6.303  -1.415  0.00  0.00    -0.016 A 
ATOM     17  C   LIG d   1      13.586   6.875  -0.517  0.00  0.00     0.135 A 
ATOM     18  H   LIG d   1      15.480   6.682  -1.490  0.00  0.00     0.066 H 
BRANCH  12  19
ATOM     19  O   LIG d   1      10.619   4.814  -1.149  0.00  0.00    -0.506 OA
ATOM     20  H   LIG d   1       9.951   5.480  -0.935  0.00  0.00     0.292 HD
ENDBRANCH  12  19
BRANCH  14  21
ATOM     21  C   LIG d   1      15.042   4.642  -3.195  0.00  0.00    -0.040 C 
ATOM     22  H   LIG d   1      14.495   4.052  -3.930  0.00  0.00     0.028 H 
ATOM     23  H   LIG d   1      15.593   5.435  -3.702  0.00  0.00     0.028 H 
ATOM     24  H   LIG d   1      15.740   4.000  -2.659  0.00  0.00     0.028 H 
ENDBRANCH  14  21
BRANCH  17  25
ATOM     25  O   LIG d   1      13.982   7.909   0.267  0.00  0.00    -0.494 OA
BRANCH  25  26
ATOM     26  C   LIG d   1      14.691   8.972  -0.373  0.00  0.00     0.079 C 
ATOM     27  H   LIG d   1      15.337   8.562  -1.149  0.00  0.00     0.066 H 
ATOM     28  H   LIG d   1      13.980   9.666  -0.820  0.00  0.00     0.066 H 
ATOM     29  H   LIG d   1      15.298   9.498   0.365  0.00  0.00     0.066 H 
ENDBRANCH  25  26
ENDBRANCH  17  25
ENDBRANCH   9  11
ENDBRANCH   1   9
BRANCH   6  30
ATOM     30  O   LIG d   1      12.198   8.850   2.454  0.00  0.00    -0.494 OA
BRANCH  30  31
ATOM     31  C   LIG d   1      12.574   9.808   3.447  0.00  0.00     0.079 C 
ATOM     32  H   LIG d   1      12.357   9.408   4.438  0.00  0.00     0.066 H 
ATOM     33  H   LIG d   1      13.641  10.017   3.364  0.00  0.00     0.066 H 
ATOM     34  H   LIG d   1      12.011  10.729   3.294  0.00  0.00     0.066 H 
ENDBRANCH  30  31
ENDBRANCH   6  30
BRANCH   2  35
ATOM     35  C   LIG d   1       9.710   7.943  -1.657  0.00  0.00     0.340 C 
ATOM     36  O   LIG d   1       8.786   7.193  -1.410  0.00  0.00    -0.245 OA
BRANCH  35  37
ATOM     37  O   LIG d   1      10.287   7.920  -2.875  0.00  0.00    -0.464 OA
BRANCH  37  38
ATOM     38  C   LIG d   1       9.757   6.996  -3.827  0.00  0.00     0.082 C 
ATOM     39  H   LIG d   1      10.556   6.347  -4.186  0.00  0.00     0.066 H 
ATOM     40  H   LIG d   1       8.983   6.391  -3.354  0.00  0.00     0.066 H 
ATOM     41  H   LIG d   1       9.329   7.543  -4.666  0.00  0.00     0.066 H 
ENDBRANCH  37  38
ENDBRANCH  35  37
ENDBRANCH   2  35
BRANCH   4  42
ATOM     42  O   LIG d   1      10.044  12.428   0.191  0.00  0.00    -0.507 OA
ATOM     43  H   LIG d   1       9.635  12.687  -0.646  0.00  0.00     0.292 HD
ENDBRANCH   4  42
TORSDOF 12
ENDMDL
MODEL 8
REMARK VINA RESULT:      -4.8      1.845      5.875
REMARK  12 active torsions:
REMARK  status: ('A' for Active; 'I' for Inactive)
REMARK    1  A    between atoms: C_1  and  C_2 
REMARK    2  A    between atoms: C_4  and  O_25 
REMARK    3  A    between atoms: C_5  and  C_10 
REMARK    4  A    between atoms: C_6  and  O_8 
REMARK    5  A    between atoms: O_8  and  C_9 
REMARK    6  A    between atoms: C_10  and  C_12 
REMARK    7  A    between atoms: C_13  and  C_21 
REMARK    8  A    between atoms: C_15  and  O_20 
REMARK    9  A    between atoms: C_17  and  O_18 
REMARK   10  A    between atoms: O_18  and  C_19 
REMARK   11  A    between atoms: C_21  and  O_23 
REMARK   12  A    between atoms: O_23  and  C_24 
ROOT
ATOM      1  C   LIG d   1       4.862  -0.622  -5.500  0.00  0.00     0.078 A 
ATOM      2  C   LIG d   1       5.799  -1.474  -4.877  0.00  0.00     0.077 A 
ATOM      3  C   LIG d   1       5.582  -1.896  -3.573  0.00  0.00    -0.005 A 
ATOM      4  C   LIG d   1       4.448  -1.479  -2.884  0.00  0.00     0.121 A 
ATOM      5  C   LIG d   1       3.526  -0.641  -3.492  0.00  0.00     0.022 A 
ATOM      6  C   LIG d   1       3.728  -0.205  -4.794  0.00  0.00     0.135 A 
ATOM      7  H   LIG d   1       6.295  -2.549  -3.092  0.00  0.00     0.066 H 
ATOM      8  H   LIG d   1       2.648  -0.322  -2.949  0.00  0.00     0.069 H 
ENDROOT
BRANCH   1   9
ATOM      9  C   LIG d   1       5.081  -0.168  -6.885  0.00  0.00     0.204 C 
ATOM     10  O   LIG d   1       6.100   0.430  -7.175  0.00  0.00    -0.286 OA
BRANCH   9  11
ATOM     11  C   LIG d   1       4.067  -0.437  -7.918  0.00  0.00     0.105 A 
ATOM     12  C   LIG d   1       3.755  -1.759  -8.274  0.00  0.00     0.132 A 
ATOM     13  C   LIG d   1       2.798  -2.002  -9.245  0.00  0.00    -0.016 A 
ATOM     14  C   LIG d   1       2.152  -0.948  -9.865  0.00  0.00    -0.043 A 
ATOM     15  H   LIG d   1       2.557  -3.017  -9.521  0.00  0.00     0.066 H 
ATOM     16  C   LIG d   1       2.455   0.358  -9.525  0.00  0.00    -0.016 A 
ATOM     17  C   LIG d   1       3.404   0.624  -8.553  0.00  0.00     0.135 A 
ATOM     18  H   LIG d   1       1.948   1.174 -10.019  0.00  0.00     0.066 H 
BRANCH  12  19
ATOM     19  O   LIG d   1       4.388  -2.795  -7.668  0.00  0.00    -0.506 OA
ATOM     20  H   LIG d   1       4.411  -2.733  -6.703  0.00  0.00     0.292 HD
ENDBRANCH  12  19
BRANCH  14  21
ATOM     21  C   LIG d   1       1.114  -1.224 -10.922  0.00  0.00    -0.040 C 
ATOM     22  H   LIG d   1       1.604  -1.354 -11.887  0.00  0.00     0.028 H 
ATOM     23  H   LIG d   1       0.567  -2.132 -10.665  0.00  0.00     0.028 H 
ATOM     24  H   LIG d   1       0.419  -0.386 -10.976  0.00  0.00     0.028 H 
ENDBRANCH  14  21
BRANCH  17  25
ATOM     25  O   LIG d   1       3.696   1.906  -8.218  0.00  0.00    -0.494 OA
BRANCH  25  26
ATOM     26  C   LIG d   1       4.143   2.764  -9.269  0.00  0.00     0.079 C 
ATOM     27  H   LIG d   1       4.321   2.175 -10.169  0.00  0.00     0.066 H 
ATOM     28  H   LIG d   1       3.382   3.517  -9.473  0.00  0.00     0.066 H 
ATOM     29  H   LIG d   1       5.069   3.255  -8.968  0.00  0.00     0.066 H 
ENDBRANCH  25  26
ENDBRANCH  17  25
ENDBRANCH   9  11
ENDBRANCH   1   9
BRANCH   6  30
ATOM     30  O   LIG d   1       2.826   0.618  -5.382  0.00  0.00    -0.494 OA
BRANCH  30  31
ATOM     31  C   LIG d   1       2.478   1.811  -4.675  0.00  0.00     0.079 C 
ATOM     32  H   LIG d   1       2.856   1.751  -3.654  0.00  0.00     0.066 H 
ATOM     33  H   LIG d   1       2.920   2.672  -5.177  0.00  0.00     0.066 H 
ATOM     34  H   LIG d   1       1.394   1.919  -4.656  0.00  0.00     0.066 H 
ENDBRANCH  30  31
ENDBRANCH   6  30
BRANCH   2  35
ATOM     35  C   LIG d   1       7.003  -1.916  -5.611  0.00  0.00     0.340 C 
ATOM     36  O   LIG d   1       8.068  -1.362  -5.422  0.00  0.00    -0.245 OA
BRANCH  35  37
ATOM     37  O   LIG d   1       6.921  -2.933  -6.491  0.00  0.00    -0.464 OA
BRANCH  37  38
ATOM     38  C   LIG d   1       7.185  -4.246  -5.993  0.00  0.00     0.082 C 
ATOM     39  H   LIG d   1       6.246  -4.726  -5.718  0.00  0.00     0.066 H 
ATOM     40  H   LIG d   1       7.681  -4.834  -6.765  0.00  0.00     0.066 H 
ATOM     41  H   LIG d   1       7.829  -4.179  -5.116  0.00  0.00     0.066 H 
ENDBRANCH  37  38
ENDBRANCH  35  37
ENDBRANCH   2  35
BRANCH   4  42
ATOM     42  O   LIG d   1       4.242  -1.894  -1.608  0.00  0.00    -0.507 OA
ATOM     43  H   LIG d   1       4.559  -2.790  -1.429  0.00  0.00     0.292 HD
ENDBRANCH   4  42
TORSDOF 12
ENDMDL
MODEL 9
REMARK VINA RESULT:      -4.8      1.889      6.127
REMARK  12 active torsions:
REMARK  status: ('A' for Active; 'I' for Inactive)
REMARK    1  A    between atoms: C_1  and  C_2 
REMARK    2  A    between atoms: C_4  and  O_25 
REMARK    3  A    between atoms: C_5  and  C_10 
REMARK    4  A    between atoms: C_6  and  O_8 
REMARK    5  A    between atoms: O_8  and  C_9 
REMARK    6  A    between atoms: C_10  and  C_12 
REMARK    7  A    between atoms: C_13  and  C_21 
REMARK    8  A    between atoms: C_15  and  O_20 
REMARK    9  A    between atoms: C_17  and  O_18 
REMARK   10  A    between atoms: O_18  and  C_19 
REMARK   11  A    between atoms: C_21  and  O_23 
REMARK   12  A    between atoms: O_23  and  C_24 
ROOT
ATOM      1  C   LIG d   1       5.732  -0.535  -4.852  0.00  0.00     0.078 A 
ATOM      2  C   LIG d   1       6.977  -0.357  -5.493  0.00  0.00     0.077 A 
ATOM      3  C   LIG d   1       7.870   0.590  -5.010  0.00  0.00    -0.005 A 
ATOM      4  C   LIG d   1       7.537   1.358  -3.899  0.00  0.00     0.121 A 
ATOM      5  C   LIG d   1       6.316   1.186  -3.266  0.00  0.00     0.022 A 
ATOM      6  C   LIG d   1       5.409   0.249  -3.739  0.00  0.00     0.135 A 
ATOM      7  H   LIG d   1       8.823   0.729  -5.497  0.00  0.00     0.066 H 
ATOM      8  H   LIG d   1       6.067   1.788  -2.405  0.00  0.00     0.069 H 
ENDROOT
BRANCH   1   9
ATOM      9  C   LIG d   1       4.776  -1.537  -5.356  0.00  0.00     0.204 C 
ATOM     10  O   LIG d   1       4.608  -2.577  -4.747  0.00  0.00    -0.286 OA
BRANCH   9  11
ATOM     11  C   LIG d   1       4.026  -1.281  -6.596  0.00  0.00     0.105 A 
ATOM     12  C   LIG d   1       3.265  -0.108  -6.732  0.00  0.00     0.132 A 
ATOM     13  C   LIG d   1       2.564   0.124  -7.904  0.00  0.00    -0.016 A 
ATOM     14  C   LIG d   1       2.609  -0.795  -8.936  0.00  0.00    -0.043 A 
ATOM     15  H   LIG d   1       1.978   1.024  -8.010  0.00  0.00     0.066 H 
ATOM     16  C   LIG d   1       3.351  -1.955  -8.811  0.00  0.00    -0.016 A 
ATOM     17  C   LIG d   1       4.065  -2.205  -7.651  0.00  0.00     0.135 A 
ATOM     18  H   LIG d   1       3.376  -2.668  -9.622  0.00  0.00     0.066 H 
BRANCH  12  19
ATOM     19  O   LIG d   1       3.219   0.795  -5.721  0.00  0.00    -0.506 OA
ATOM     20  H   LIG d   1       2.884   0.436  -4.888  0.00  0.00     0.292 HD
ENDBRANCH  12  19
BRANCH  14  21
ATOM     21  C   LIG d   1       1.840  -0.532 -10.206  0.00  0.00    -0.040 C 
ATOM     22  H   LIG d   1       1.919  -1.398 -10.863  0.00  0.00     0.028 H 
ATOM     23  H   LIG d   1       0.793  -0.350  -9.966  0.00  0.00     0.028 H 
ATOM     24  H   LIG d   1       2.255   0.343 -10.707  0.00  0.00     0.028 H 
ENDBRANCH  14  21
BRANCH  17  25
ATOM     25  O   LIG d   1       4.795  -3.342  -7.533  0.00  0.00    -0.494 OA
BRANCH  25  26
ATOM     26  C   LIG d   1       4.086  -4.580  -7.617  0.00  0.00     0.079 C 
ATOM     27  H   LIG d   1       3.832  -4.922  -6.614  0.00  0.00     0.066 H 
ATOM     28  H   LIG d   1       3.173  -4.437  -8.195  0.00  0.00     0.066 H 
ATOM     29  H   LIG d   1       4.714  -5.325  -8.107  0.00  0.00     0.066 H 
ENDBRANCH  25  26
ENDBRANCH  17  25
ENDBRANCH   9  11
ENDBRANCH   1   9
BRANCH   6  30
ATOM     30  O   LIG d   1       4.213   0.089  -3.120  0.00  0.00    -0.494 OA
BRANCH  30  31
ATOM     31  C   LIG d   1       3.790   1.136  -2.244  0.00  0.00     0.079 C 
ATOM     32  H   LIG d   1       2.704   1.223  -2.280  0.00  0.00     0.066 H 
ATOM     33  H   LIG d   1       4.104   0.907  -1.226  0.00  0.00     0.066 H 
ATOM     34  H   LIG d   1       4.241   2.078  -2.560  0.00  0.00     0.066 H 
ENDBRANCH  30  31
ENDBRANCH   6  30
BRANCH   2  35
ATOM     35  C   LIG d   1       7.327  -1.175  -6.673  0.00  0.00     0.340 C 
ATOM     36  O   LIG d   1       7.767  -2.298  -6.526  0.00  0.00    -0.245 OA
BRANCH  35  37
ATOM     37  O   LIG d   1       7.161  -0.675  -7.914  0.00  0.00    -0.464 OA
BRANCH  37  38
ATOM     38  C   LIG d   1       7.509  -1.524  -9.009  0.00  0.00     0.082 C 
ATOM     39  H   LIG d   1       6.621  -1.725  -9.608  0.00  0.00     0.066 H 
ATOM     40  H   LIG d   1       8.259  -1.031  -9.626  0.00  0.00     0.066 H 
ATOM     41  H   LIG d   1       7.910  -2.462  -8.627  0.00  0.00     0.066 H 
ENDBRANCH  37  38
ENDBRANCH  35  37
ENDBRANCH   2  35
BRANCH   4  42
ATOM     42  O   LIG d   1       8.415   2.282  -3.431  0.00  0.00    -0.507 OA
ATOM     43  H   LIG d   1       8.033   2.902  -2.795  0.00  0.00     0.292 HD
ENDBRANCH   4  42
TORSDOF 12
ENDMDL
MODEL 10
REMARK VINA RESULT:      -4.7     10.763     14.019
REMARK  12 active torsions:
REMARK  status: ('A' for Active; 'I' for Inactive)
REMARK    1  A    between atoms: C_1  and  C_2 
REMARK    2  A    between atoms: C_4  and  O_25 
REMARK    3  A    between atoms: C_5  and  C_10 
REMARK    4  A    between atoms: C_6  and  O_8 
REMARK    5  A    between atoms: O_8  and  C_9 
REMARK    6  A    between atoms: C_10  and  C_12 
REMARK    7  A    between atoms: C_13  and  C_21 
REMARK    8  A    between atoms: C_15  and  O_20 
REMARK    9  A    between atoms: C_17  and  O_18 
REMARK   10  A    between atoms: O_18  and  C_19 
REMARK   11  A    between atoms: C_21  and  O_23 
REMARK   12  A    between atoms: O_23  and  C_24 
ROOT
ATOM      1  C   LIG d   1      10.278   8.653  -0.488  0.00  0.00     0.078 A 
ATOM      2  C   LIG d   1      11.171   8.270   0.535  0.00  0.00     0.077 A 
ATOM      3  C   LIG d   1      11.660   9.226   1.415  0.00  0.00    -0.005 A 
ATOM      4  C   LIG d   1      11.271  10.555   1.286  0.00  0.00     0.121 A 
ATOM      5  C   LIG d   1      10.394  10.936   0.283  0.00  0.00     0.022 A 
ATOM      6  C   LIG d   1       9.899   9.996  -0.609  0.00  0.00     0.135 A 
ATOM      7  H   LIG d   1      12.343   8.938   2.199  0.00  0.00     0.066 H 
ATOM      8  H   LIG d   1      10.098  11.971   0.190  0.00  0.00     0.069 H 
ENDROOT
BRANCH   1   9
ATOM      9  C   LIG d   1       9.751   7.647  -1.427  0.00  0.00     0.204 C 
ATOM     10  O   LIG d   1       8.567   7.368  -1.418  0.00  0.00    -0.286 OA
BRANCH   9  11
ATOM     11  C   LIG d   1      10.657   6.980  -2.376  0.00  0.00     0.105 A 
ATOM     12  C   LIG d   1      10.734   5.578  -2.414  0.00  0.00     0.132 A 
ATOM     13  C   LIG d   1      11.589   4.961  -3.311  0.00  0.00    -0.016 A 
ATOM     14  C   LIG d   1      12.367   5.720  -4.167  0.00  0.00    -0.043 A 
ATOM     15  H   LIG d   1      11.650   3.884  -3.342  0.00  0.00     0.066 H 
ATOM     16  C   LIG d   1      12.302   7.101  -4.135  0.00  0.00    -0.016 A 
ATOM     17  C   LIG d   1      11.450   7.739  -3.250  0.00  0.00     0.135 A 
ATOM     18  H   LIG d   1      12.917   7.683  -4.805  0.00  0.00     0.066 H 
BRANCH  12  19
ATOM     19  O   LIG d   1       9.973   4.832  -1.575  0.00  0.00    -0.506 OA
ATOM     20  H   LIG d   1      10.455   4.118  -1.136  0.00  0.00     0.292 HD
ENDBRANCH  12  19
BRANCH  14  21
ATOM     21  C   LIG d   1      13.294   5.036  -5.139  0.00  0.00    -0.040 C 
ATOM     22  H   LIG d   1      13.172   5.478  -6.128  0.00  0.00     0.028 H 
ATOM     23  H   LIG d   1      14.325   5.163  -4.808  0.00  0.00     0.028 H 
ATOM     24  H   LIG d   1      13.055   3.974  -5.183  0.00  0.00     0.028 H 
ENDBRANCH  14  21
BRANCH  17  25
ATOM     25  O   LIG d   1      11.386   9.094  -3.224  0.00  0.00    -0.494 OA
BRANCH  25  26
ATOM     26  C   LIG d   1      12.626   9.801  -3.156  0.00  0.00     0.079 C 
ATOM     27  H   LIG d   1      12.470  10.763  -2.668  0.00  0.00     0.066 H 
ATOM     28  H   LIG d   1      13.347   9.216  -2.585  0.00  0.00     0.066 H 
ATOM     29  H   LIG d   1      13.007   9.963  -4.165  0.00  0.00     0.066 H 
ENDBRANCH  25  26
ENDBRANCH  17  25
ENDBRANCH   9  11
ENDBRANCH   1   9
BRANCH   6  30
ATOM     30  O   LIG d   1       9.046  10.374  -1.592  0.00  0.00    -0.494 OA
BRANCH  30  31
ATOM     31  C   LIG d   1       9.371  11.567  -2.309  0.00  0.00     0.079 C 
ATOM     32  H   LIG d   1       9.628  12.357  -1.603  0.00  0.00     0.066 H 
ATOM     33  H   LIG d   1      10.219  11.376  -2.966  0.00  0.00     0.066 H 
ATOM     34  H   LIG d   1       8.513  11.877  -2.906  0.00  0.00     0.066 H 
ENDBRANCH  30  31
ENDBRANCH   6  30
BRANCH   2  35
ATOM     35  C   LIG d   1      11.582   6.857   0.670  0.00  0.00     0.340 C 
ATOM     36  O   LIG d   1      12.707   6.519   0.359  0.00  0.00    -0.245 OA
BRANCH  35  37
ATOM     37  O   LIG d   1      10.710   5.943   1.138  0.00  0.00    -0.464 OA
BRANCH  37  38
ATOM     38  C   LIG d   1      10.810   5.598   2.521  0.00  0.00     0.082 C 
ATOM     39  H   LIG d   1      11.847   5.690   2.844  0.00  0.00     0.066 H 
ATOM     40  H   LIG d   1      10.186   6.271   3.109  0.00  0.00     0.066 H 
ATOM     41  H   LIG d   1      10.475   4.571   2.665  0.00  0.00     0.066 H 
ENDBRANCH  37  38
ENDBRANCH  35  37
ENDBRANCH   2  35
BRANCH   4  42
ATOM     42  O   LIG d   1      11.753  11.486   2.149  0.00  0.00    -0.507 OA
ATOM     43  H   LIG d   1      12.374  12.110   1.749  0.00  0.00     0.292 HD
ENDBRANCH   4  42
TORSDOF 12
ENDMDL
