MODEL 1
REMARK VINA RESULT:      -5.9      0.000      0.000
REMARK  4 active torsions:
REMARK  status: ('A' for Active; 'I' for Inactive)
REMARK    1  A    between atoms: C_1  and  N_2 
REMARK       I    between atoms: N_2  and  C_3 
REMARK    2  A    between atoms: C_3  and  C_5 
REMARK    3  A    between atoms: C_5  and  C_6 
REMARK    4  A    between atoms: C_5  and  C_10 
ROOT
ATOM      1  C   LIG d   1       4.767  -0.318  -3.054  0.00  0.00     0.224 C 
ATOM      2  H   LIG d   1       5.838  -0.395  -2.861  0.00  0.00     0.057 H 
ENDROOT
BRANCH   1   3
ATOM      3  C   LIG d   1       4.535  -0.149  -4.534  0.00  0.00     0.233 C 
ATOM      4  N   LIG d   1       3.282  -0.202  -5.029  0.00  0.00    -0.318 N 
ATOM      5  H   LIG d   1       2.531  -0.349  -4.433  0.00  0.00     0.148 HD
ATOM      6  O   LIG d   1       5.474   0.035  -5.278  0.00  0.00    -0.275 OA
BRANCH   4   7
ATOM      7  C   LIG d   1       3.056  -0.037  -6.467  0.00  0.00     0.000 C 
ATOM      8  H   LIG d   1       2.055   0.361  -6.634  0.00  0.00     0.043 H 
ATOM      9  H   LIG d   1       3.794   0.654  -6.874  0.00  0.00     0.043 H 
ATOM     10  H   LIG d   1       3.151  -1.003  -6.963  0.00  0.00     0.043 H 
ENDBRANCH   4   7
ENDBRANCH   1   3
BRANCH   1  11
ATOM     11  C   LIG d   1       4.200   0.891  -2.307  0.00  0.00     0.409 C 
ATOM     12  F   LIG d   1       2.810   0.766  -2.207  0.00  0.00    -0.170 F 
ATOM     13  F   LIG d   1       4.757   0.950  -1.025  0.00  0.00    -0.170 F 
ATOM     14  F   LIG d   1       4.513   2.060  -3.007  0.00  0.00    -0.170 F 
ENDBRANCH   1  11
BRANCH   1  15
ATOM     15  C   LIG d   1       4.070  -1.590  -2.570  0.00  0.00     0.409 C 
ATOM     16  F   LIG d   1       4.430  -1.843  -1.242  0.00  0.00    -0.170 F 
ATOM     17  F   LIG d   1       2.684  -1.425  -2.654  0.00  0.00    -0.170 F 
ATOM     18  F   LIG d   1       4.460  -2.669  -3.372  0.00  0.00    -0.170 F 
ENDBRANCH   1  15
TORSDOF 4
ENDMDL
MODEL 2
REMARK VINA RESULT:      -5.9      0.946      2.838
REMARK  4 active torsions:
REMARK  status: ('A' for Active; 'I' for Inactive)
REMARK    1  A    between atoms: C_1  and  N_2 
REMARK       I    between atoms: N_2  and  C_3 
REMARK    2  A    between atoms: C_3  and  C_5 
REMARK    3  A    between atoms: C_5  and  C_6 
REMARK    4  A    between atoms: C_5  and  C_10 
ROOT
ATOM      1  C   LIG d   1       3.906  -0.156  -3.121  0.00  0.00     0.224 C 
ATOM      2  H   LIG d   1       2.876  -0.333  -2.808  0.00  0.00     0.057 H 
ENDROOT
BRANCH   1   3
ATOM      3  C   LIG d   1       3.966  -0.068  -4.624  0.00  0.00     0.233 C 
ATOM      4  N   LIG d   1       2.828  -0.072  -5.346  0.00  0.00    -0.318 N 
ATOM      5  H   LIG d   1       1.970  -0.131  -4.897  0.00  0.00     0.148 HD
ATOM      6  O   LIG d   1       5.039   0.006  -5.184  0.00  0.00    -0.275 OA
BRANCH   4   7
ATOM      7  C   LIG d   1       2.887   0.014  -6.807  0.00  0.00     0.000 C 
ATOM      8  H   LIG d   1       1.874   0.035  -7.210  0.00  0.00     0.043 H 
ATOM      9  H   LIG d   1       3.412   0.924  -7.097  0.00  0.00     0.043 H 
ATOM     10  H   LIG d   1       3.417  -0.853  -7.200  0.00  0.00     0.043 H 
ENDBRANCH   4   7
ENDBRANCH   1   3
BRANCH   1  11
ATOM     11  C   LIG d   1       4.790  -1.309  -2.641  0.00  0.00     0.409 C 
ATOM     12  F   LIG d   1       4.592  -2.421  -3.465  0.00  0.00    -0.170 F 
ATOM     13  F   LIG d   1       6.133  -0.921  -2.693  0.00  0.00    -0.170 F 
ATOM     14  F   LIG d   1       4.450  -1.639  -1.324  0.00  0.00    -0.170 F 
ENDBRANCH   1  11
BRANCH   1  15
ATOM     15  C   LIG d   1       4.403   1.156  -2.512  0.00  0.00     0.409 C 
ATOM     16  F   LIG d   1       4.491   1.022  -1.123  0.00  0.00    -0.170 F 
ATOM     17  F   LIG d   1       5.665   1.464  -3.032  0.00  0.00    -0.170 F 
ATOM     18  F   LIG d   1       3.507   2.184  -2.826  0.00  0.00    -0.170 F 
ENDBRANCH   1  15
TORSDOF 4
ENDMDL
MODEL 3
REMARK VINA RESULT:      -5.8      1.976      3.275
REMARK  4 active torsions:
REMARK  status: ('A' for Active; 'I' for Inactive)
REMARK    1  A    between atoms: C_1  and  N_2 
REMARK       I    between atoms: N_2  and  C_3 
REMARK    2  A    between atoms: C_3  and  C_5 
REMARK    3  A    between atoms: C_5  and  C_6 
REMARK    4  A    between atoms: C_5  and  C_10 
ROOT
ATOM      1  C   LIG d   1       4.509  -0.384  -3.474  0.00  0.00     0.224 C 
ATOM      2  H   LIG d   1       4.502  -0.767  -4.496  0.00  0.00     0.057 H 
ENDROOT
BRANCH   1   3
ATOM      3  C   LIG d   1       5.614   0.631  -3.326  0.00  0.00     0.233 C 
ATOM      4  N   LIG d   1       6.555   0.747  -4.283  0.00  0.00    -0.318 N 
ATOM      5  H   LIG d   1       6.521   0.177  -5.068  0.00  0.00     0.148 HD
ATOM      6  O   LIG d   1       5.655   1.342  -2.345  0.00  0.00    -0.275 OA
BRANCH   4   7
ATOM      7  C   LIG d   1       7.629   1.733  -4.139  0.00  0.00     0.000 C 
ATOM      8  H   LIG d   1       8.475   1.276  -3.625  0.00  0.00     0.043 H 
ATOM      9  H   LIG d   1       7.943   2.074  -5.125  0.00  0.00     0.043 H 
ATOM     10  H   LIG d   1       7.266   2.581  -3.558  0.00  0.00     0.043 H 
ENDBRANCH   4   7
ENDBRANCH   1   3
BRANCH   1  11
ATOM     11  C   LIG d   1       4.741  -1.539  -2.498  0.00  0.00     0.409 C 
ATOM     12  F   LIG d   1       6.088  -1.915  -2.534  0.00  0.00    -0.170 F 
ATOM     13  F   LIG d   1       4.405  -1.131  -1.203  0.00  0.00    -0.170 F 
ATOM     14  F   LIG d   1       3.944  -2.628  -2.867  0.00  0.00    -0.170 F 
ENDBRANCH   1  11
BRANCH   1  15
ATOM     15  C   LIG d   1       3.164   0.278  -3.171  0.00  0.00     0.409 C 
ATOM     16  F   LIG d   1       3.267   1.026  -1.994  0.00  0.00    -0.170 F 
ATOM     17  F   LIG d   1       2.807   1.120  -4.229  0.00  0.00    -0.170 F 
ATOM     18  F   LIG d   1       2.185  -0.709  -3.011  0.00  0.00    -0.170 F 
ENDBRANCH   1  15
TORSDOF 4
ENDMDL
MODEL 4
REMARK VINA RESULT:      -5.7      0.988      1.861
REMARK  4 active torsions:
REMARK  status: ('A' for Active; 'I' for Inactive)
REMARK    1  A    between atoms: C_1  and  N_2 
REMARK       I    between atoms: N_2  and  C_3 
REMARK    2  A    between atoms: C_3  and  C_5 
REMARK    3  A    between atoms: C_5  and  C_6 
REMARK    4  A    between atoms: C_5  and  C_10 
ROOT
ATOM      1  C   LIG d   1       4.439  -0.225  -3.185  0.00  0.00     0.224 C 
ATOM      2  H   LIG d   1       5.518  -0.338  -3.292  0.00  0.00     0.057 H 
ENDROOT
BRANCH   1   3
ATOM      3  C   LIG d   1       3.815  -0.051  -4.546  0.00  0.00     0.233 C 
ATOM      4  N   LIG d   1       4.552  -0.254  -5.656  0.00  0.00    -0.318 N 
ATOM      5  H   LIG d   1       5.484  -0.512  -5.578  0.00  0.00     0.148 HD
ATOM      6  O   LIG d   1       2.650   0.270  -4.642  0.00  0.00    -0.275 OA
BRANCH   4   7
ATOM      7  C   LIG d   1       3.946  -0.086  -6.979  0.00  0.00     0.000 C 
ATOM      8  H   LIG d   1       2.987   0.424  -6.876  0.00  0.00     0.043 H 
ATOM      9  H   LIG d   1       4.607   0.509  -7.609  0.00  0.00     0.043 H 
ATOM     10  H   LIG d   1       3.791  -1.064  -7.434  0.00  0.00     0.043 H 
ENDBRANCH   4   7
ENDBRANCH   1   3
BRANCH   1  11
ATOM     11  C   LIG d   1       4.137   1.004  -2.325  0.00  0.00     0.409 C 
ATOM     12  F   LIG d   1       4.950   0.986  -1.186  0.00  0.00    -0.170 F 
ATOM     13  F   LIG d   1       4.392   2.165  -3.063  0.00  0.00    -0.170 F 
ATOM     14  F   LIG d   1       2.793   0.983  -1.937  0.00  0.00    -0.170 F 
ENDBRANCH   1  11
BRANCH   1  15
ATOM     15  C   LIG d   1       3.861  -1.472  -2.514  0.00  0.00     0.409 C 
ATOM     16  F   LIG d   1       2.464  -1.410  -2.538  0.00  0.00    -0.170 F 
ATOM     17  F   LIG d   1       4.290  -2.613  -3.200  0.00  0.00    -0.170 F 
ATOM     18  F   LIG d   1       4.302  -1.533  -1.187  0.00  0.00    -0.170 F 
ENDBRANCH   1  15
TORSDOF 4
ENDMDL
MODEL 5
REMARK VINA RESULT:      -5.6      1.500      3.176
REMARK  4 active torsions:
REMARK  status: ('A' for Active; 'I' for Inactive)
REMARK    1  A    between atoms: C_1  and  N_2 
REMARK       I    between atoms: N_2  and  C_3 
REMARK    2  A    between atoms: C_3  and  C_5 
REMARK    3  A    between atoms: C_5  and  C_6 
REMARK    4  A    between atoms: C_5  and  C_10 
ROOT
ATOM      1  C   LIG d   1       4.306  -0.107  -3.339  0.00  0.00     0.224 C 
ATOM      2  H   LIG d   1       3.643   0.184  -4.155  0.00  0.00     0.057 H 
ENDROOT
BRANCH   1   3
ATOM      3  C   LIG d   1       5.692  -0.349  -3.880  0.00  0.00     0.233 C 
ATOM      4  N   LIG d   1       5.978  -0.041  -5.161  0.00  0.00    -0.318 N 
ATOM      5  H   LIG d   1       5.292   0.336  -5.734  0.00  0.00     0.148 HD
ATOM      6  O   LIG d   1       6.549  -0.820  -3.164  0.00  0.00    -0.275 OA
BRANCH   4   7
ATOM      7  C   LIG d   1       7.325  -0.276  -5.687  0.00  0.00     0.000 C 
ATOM      8  H   LIG d   1       8.063   0.012  -4.937  0.00  0.00     0.043 H 
ATOM      9  H   LIG d   1       7.443  -1.333  -5.925  0.00  0.00     0.043 H 
ATOM     10  H   LIG d   1       7.471   0.319  -6.588  0.00  0.00     0.043 H 
ENDBRANCH   4   7
ENDBRANCH   1   3
BRANCH   1  11
ATOM     11  C   LIG d   1       3.781  -1.389  -2.689  0.00  0.00     0.409 C 
ATOM     12  F   LIG d   1       4.028  -2.475  -3.535  0.00  0.00    -0.170 F 
ATOM     13  F   LIG d   1       4.431  -1.592  -1.466  0.00  0.00    -0.170 F 
ATOM     14  F   LIG d   1       2.404  -1.271  -2.471  0.00  0.00    -0.170 F 
ENDBRANCH   1  11
BRANCH   1  15
ATOM     15  C   LIG d   1       4.352   1.011  -2.298  0.00  0.00     0.409 C 
ATOM     16  F   LIG d   1       3.091   1.606  -2.195  0.00  0.00    -0.170 F 
ATOM     17  F   LIG d   1       4.720   0.480  -1.057  0.00  0.00    -0.170 F 
ATOM     18  F   LIG d   1       5.291   1.973  -2.689  0.00  0.00    -0.170 F 
ENDBRANCH   1  15
TORSDOF 4
ENDMDL
MODEL 6
REMARK VINA RESULT:      -5.5      2.096      2.599
REMARK  4 active torsions:
REMARK  status: ('A' for Active; 'I' for Inactive)
REMARK    1  A    between atoms: C_1  and  N_2 
REMARK       I    between atoms: N_2  and  C_3 
REMARK    2  A    between atoms: C_3  and  C_5 
REMARK    3  A    between atoms: C_5  and  C_6 
REMARK    4  A    between atoms: C_5  and  C_10 
ROOT
ATOM      1  C   LIG d   1       4.301  -0.618  -3.711  0.00  0.00     0.224 C 
ATOM      2  H   LIG d   1       4.653   0.065  -4.485  0.00  0.00     0.057 H 
ENDROOT
BRANCH   1   3
ATOM      3  C   LIG d   1       4.292  -2.026  -4.248  0.00  0.00     0.233 C 
ATOM      4  N   LIG d   1       4.457  -2.244  -5.568  0.00  0.00    -0.318 N 
ATOM      5  H   LIG d   1       4.582  -1.495  -6.171  0.00  0.00     0.148 HD
ATOM      6  O   LIG d   1       4.135  -2.962  -3.494  0.00  0.00    -0.275 OA
BRANCH   4   7
ATOM      7  C   LIG d   1       4.449  -3.613  -6.090  0.00  0.00     0.000 C 
ATOM      8  H   LIG d   1       5.002  -4.263  -5.413  0.00  0.00     0.043 H 
ATOM      9  H   LIG d   1       3.420  -3.964  -6.172  0.00  0.00     0.043 H 
ATOM     10  H   LIG d   1       4.917  -3.628  -7.074  0.00  0.00     0.043 H 
ENDBRANCH   4   7
ENDBRANCH   1   3
BRANCH   1  11
ATOM     11  C   LIG d   1       2.884  -0.223  -3.290  0.00  0.00     0.409 C 
ATOM     12  F   LIG d   1       2.291  -1.283  -2.596  0.00  0.00    -0.170 F 
ATOM     13  F   LIG d   1       2.939   0.904  -2.462  0.00  0.00    -0.170 F 
ATOM     14  F   LIG d   1       2.125   0.071  -4.427  0.00  0.00    -0.170 F 
ENDBRANCH   1  11
BRANCH   1  15
ATOM     15  C   LIG d   1       5.233  -0.540  -2.501  0.00  0.00     0.409 C 
ATOM     16  F   LIG d   1       5.596   0.792  -2.277  0.00  0.00    -0.170 F 
ATOM     17  F   LIG d   1       4.576  -1.040  -1.371  0.00  0.00    -0.170 F 
ATOM     18  F   LIG d   1       6.381  -1.301  -2.747  0.00  0.00    -0.170 F 
ENDBRANCH   1  15
TORSDOF 4
ENDMDL
MODEL 7
REMARK VINA RESULT:      -5.4      1.996      2.831
REMARK  4 active torsions:
REMARK  status: ('A' for Active; 'I' for Inactive)
REMARK    1  A    between atoms: C_1  and  N_2 
REMARK       I    between atoms: N_2  and  C_3 
REMARK    2  A    between atoms: C_3  and  C_5 
REMARK    3  A    between atoms: C_5  and  C_6 
REMARK    4  A    between atoms: C_5  and  C_10 
ROOT
ATOM      1  C   LIG d   1       5.017  -0.735  -2.487  0.00  0.00     0.224 C 
ATOM      2  H   LIG d   1       5.379  -1.038  -1.504  0.00  0.00     0.057 H 
ENDROOT
BRANCH   1   3
ATOM      3  C   LIG d   1       6.033  -1.108  -3.535  0.00  0.00     0.233 C 
ATOM      4  N   LIG d   1       7.073  -1.902  -3.212  0.00  0.00    -0.318 N 
ATOM      5  H   LIG d   1       7.167  -2.233  -2.306  0.00  0.00     0.148 HD
ATOM      6  O   LIG d   1       5.915  -0.693  -4.669  0.00  0.00    -0.275 OA
BRANCH   4   7
ATOM      7  C   LIG d   1       8.062  -2.264  -4.231  0.00  0.00     0.000 C 
ATOM      8  H   LIG d   1       9.064  -2.060  -3.854  0.00  0.00     0.043 H 
ATOM      9  H   LIG d   1       7.971  -3.325  -4.465  0.00  0.00     0.043 H 
ATOM     10  H   LIG d   1       7.886  -1.677  -5.133  0.00  0.00     0.043 H 
ENDBRANCH   4   7
ENDBRANCH   1   3
BRANCH   1  11
ATOM     11  C   LIG d   1       4.797   0.780  -2.505  0.00  0.00     0.409 C 
ATOM     12  F   LIG d   1       6.012   1.423  -2.763  0.00  0.00    -0.170 F 
ATOM     13  F   LIG d   1       3.873   1.106  -3.504  0.00  0.00    -0.170 F 
ATOM     14  F   LIG d   1       4.306   1.193  -1.262  0.00  0.00    -0.170 F 
ENDBRANCH   1  11
BRANCH   1  15
ATOM     15  C   LIG d   1       3.695  -1.445  -2.783  0.00  0.00     0.409 C 
ATOM     16  F   LIG d   1       3.602  -1.707  -4.153  0.00  0.00    -0.170 F 
ATOM     17  F   LIG d   1       3.642  -2.650  -2.073  0.00  0.00    -0.170 F 
ATOM     18  F   LIG d   1       2.629  -0.627  -2.391  0.00  0.00    -0.170 F 
ENDBRANCH   1  15
TORSDOF 4
ENDMDL
MODEL 8
REMARK VINA RESULT:      -5.2      1.527      2.429
REMARK  4 active torsions:
REMARK  status: ('A' for Active; 'I' for Inactive)
REMARK    1  A    between atoms: C_1  and  N_2 
REMARK       I    between atoms: N_2  and  C_3 
REMARK    2  A    between atoms: C_3  and  C_5 
REMARK    3  A    between atoms: C_5  and  C_6 
REMARK    4  A    between atoms: C_5  and  C_10 
ROOT
ATOM      1  C   LIG d   1       3.873  -1.296  -3.682  0.00  0.00     0.224 C 
ATOM      2  H   LIG d   1       3.493  -2.317  -3.738  0.00  0.00     0.057 H 
ENDROOT
BRANCH   1   3
ATOM      3  C   LIG d   1       4.416  -0.887  -5.027  0.00  0.00     0.233 C 
ATOM      4  N   LIG d   1       4.214  -1.673  -6.102  0.00  0.00    -0.318 N 
ATOM      5  H   LIG d   1       3.718  -2.502  -6.011  0.00  0.00     0.148 HD
ATOM      6  O   LIG d   1       5.035   0.149  -5.140  0.00  0.00    -0.275 OA
BRANCH   4   7
ATOM      7  C   LIG d   1       4.742  -1.275  -7.410  0.00  0.00     0.000 C 
ATOM      8  H   LIG d   1       5.143  -0.264  -7.347  0.00  0.00     0.043 H 
ATOM      9  H   LIG d   1       5.534  -1.963  -7.706  0.00  0.00     0.043 H 
ATOM     10  H   LIG d   1       3.941  -1.303  -8.148  0.00  0.00     0.043 H 
ENDBRANCH   4   7
ENDBRANCH   1   3
BRANCH   1  11
ATOM     11  C   LIG d   1       4.988  -1.224  -2.637  0.00  0.00     0.409 C 
ATOM     12  F   LIG d   1       4.486  -1.617  -1.392  0.00  0.00    -0.170 F 
ATOM     13  F   LIG d   1       6.033  -2.076  -3.009  0.00  0.00    -0.170 F 
ATOM     14  F   LIG d   1       5.464   0.089  -2.554  0.00  0.00    -0.170 F 
ENDBRANCH   1  11
BRANCH   1  15
ATOM     15  C   LIG d   1       2.737  -0.353  -3.282  0.00  0.00     0.409 C 
ATOM     16  F   LIG d   1       3.265   0.758  -2.616  0.00  0.00    -0.170 F 
ATOM     17  F   LIG d   1       2.055   0.070  -4.428  0.00  0.00    -0.170 F 
ATOM     18  F   LIG d   1       1.850  -1.026  -2.434  0.00  0.00    -0.170 F 
ENDBRANCH   1  15
TORSDOF 4
ENDMDL
MODEL 9
REMARK VINA RESULT:      -5.1      2.053      3.079
REMARK  4 active torsions:
REMARK  status: ('A' for Active; 'I' for Inactive)
REMARK    1  A    between atoms: C_1  and  N_2 
REMARK       I    between atoms: N_2  and  C_3 
REMARK    2  A    between atoms: C_3  and  C_5 
REMARK    3  A    between atoms: C_5  and  C_6 
REMARK    4  A    between atoms: C_5  and  C_10 
ROOT
ATOM      1  C   LIG d   1       3.613  -0.436  -4.122  0.00  0.00     0.224 C 
ATOM      2  H   LIG d   1       3.525  -1.457  -4.496  0.00  0.00     0.057 H 
ENDROOT
BRANCH   1   3
ATOM      3  C   LIG d   1       5.024   0.053  -4.322  0.00  0.00     0.233 C 
ATOM      4  N   LIG d   1       5.861  -0.619  -5.137  0.00  0.00    -0.318 N 
ATOM      5  H   LIG d   1       5.555  -1.418  -5.594  0.00  0.00     0.148 HD
ATOM      6  O   LIG d   1       5.406   1.052  -3.750  0.00  0.00    -0.275 OA
BRANCH   4   7
ATOM      7  C   LIG d   1       7.233  -0.143  -5.332  0.00  0.00     0.000 C 
ATOM      8  H   LIG d   1       7.804  -0.896  -5.876  0.00  0.00     0.043 H 
ATOM      9  H   LIG d   1       7.218   0.785  -5.903  0.00  0.00     0.043 H 
ATOM     10  H   LIG d   1       7.697   0.034  -4.362  0.00  0.00     0.043 H 
ENDBRANCH   4   7
ENDBRANCH   1   3
BRANCH   1  11
ATOM     11  C   LIG d   1       3.270  -0.410  -2.631  0.00  0.00     0.409 C 
ATOM     12  F   LIG d   1       2.065  -1.088  -2.418  0.00  0.00    -0.170 F 
ATOM     13  F   LIG d   1       4.291  -1.033  -1.905  0.00  0.00    -0.170 F 
ATOM     14  F   LIG d   1       3.139   0.917  -2.207  0.00  0.00    -0.170 F 
ENDBRANCH   1  11
BRANCH   1  15
ATOM     15  C   LIG d   1       2.645   0.470  -4.884  0.00  0.00     0.409 C 
ATOM     16  F   LIG d   1       3.010   0.511  -6.234  0.00  0.00    -0.170 F 
ATOM     17  F   LIG d   1       1.344  -0.032  -4.767  0.00  0.00    -0.170 F 
ATOM     18  F   LIG d   1       2.696   1.761  -4.348  0.00  0.00    -0.170 F 
ENDBRANCH   1  15
TORSDOF 4
ENDMDL
