MODEL 1
REMARK VINA RESULT:      -4.3      0.000      0.000
REMARK  2 active torsions:
REMARK  status: ('A' for Active; 'I' for Inactive)
REMARK    1  A    between atoms: C_1  and  S_2 
REMARK    2  A    between atoms: S_2  and  C_3 
ROOT
ATOM      1  C   LIG d   1       7.088  -0.616  -4.812  0.00  0.00     0.047 A 
ATOM      2  C   LIG d   1       6.542   0.164  -3.801  0.00  0.00     0.075 A 
ATOM      3  C   LIG d   1       5.499  -0.329  -3.037  0.00  0.00     0.080 A 
ATOM      4  C   LIG d   1       4.999  -1.598  -3.280  0.00  0.00     0.080 A 
ATOM      5  C   LIG d   1       5.539  -2.374  -4.291  0.00  0.00     0.080 A 
ATOM      6  C   LIG d   1       6.586  -1.889  -5.054  0.00  0.00     0.075 A 
ATOM      7 CL   LIG d   1       7.265  -2.866  -6.318  0.00  0.00    -0.081 Cl
ATOM      8 CL   LIG d   1       4.905  -3.962  -4.598  0.00  0.00    -0.080 Cl
ATOM      9 CL   LIG d   1       3.691  -2.213  -2.320  0.00  0.00    -0.080 Cl
ATOM     10 CL   LIG d   1       4.815   0.644  -1.772  0.00  0.00    -0.080 Cl
ATOM     11 CL   LIG d   1       7.166   1.754  -3.494  0.00  0.00    -0.081 Cl
ENDROOT
BRANCH   1  12
ATOM     12  S   LIG d   1       8.417   0.008  -5.787  0.00  0.00    -0.126 SA
BRANCH  12  13
ATOM     13  C   LIG d   1       7.594   0.988  -7.074  0.00  0.00    -0.013 C 
ATOM     14  H   LIG d   1       7.721   0.498  -8.039  0.00  0.00     0.034 H 
ATOM     15  H   LIG d   1       6.532   1.070  -6.844  0.00  0.00     0.034 H 
ATOM     16  H   LIG d   1       8.036   1.984  -7.110  0.00  0.00     0.034 H 
ENDBRANCH  12  13
ENDBRANCH   1  12
TORSDOF 2
ENDMDL
MODEL 2
REMARK VINA RESULT:      -4.3      0.008      3.284
REMARK  2 active torsions:
REMARK  status: ('A' for Active; 'I' for Inactive)
REMARK    1  A    between atoms: C_1  and  S_2 
REMARK    2  A    between atoms: S_2  and  C_3 
ROOT
ATOM      1  C   LIG d   1       7.084  -0.612  -4.814  0.00  0.00     0.047 A 
ATOM      2  C   LIG d   1       6.581  -1.884  -5.059  0.00  0.00     0.075 A 
ATOM      3  C   LIG d   1       5.537  -2.372  -4.293  0.00  0.00     0.080 A 
ATOM      4  C   LIG d   1       4.994  -1.594  -3.283  0.00  0.00     0.080 A 
ATOM      5  C   LIG d   1       5.497  -0.329  -3.035  0.00  0.00     0.080 A 
ATOM      6  C   LIG d   1       6.537   0.167  -3.801  0.00  0.00     0.075 A 
ATOM      7 CL   LIG d   1       7.164   1.756  -3.492  0.00  0.00    -0.081 Cl
ATOM      8 CL   LIG d   1       4.819   0.641  -1.764  0.00  0.00    -0.080 Cl
ATOM      9 CL   LIG d   1       3.684  -2.210  -2.325  0.00  0.00    -0.080 Cl
ATOM     10 CL   LIG d   1       4.907  -3.961  -4.597  0.00  0.00    -0.080 Cl
ATOM     11 CL   LIG d   1       7.261  -2.860  -6.323  0.00  0.00    -0.081 Cl
ENDROOT
BRANCH   1  12
ATOM     12  S   LIG d   1       8.413   0.013  -5.787  0.00  0.00    -0.126 SA
BRANCH  12  13
ATOM     13  C   LIG d   1       7.593   1.003  -7.067  0.00  0.00    -0.013 C 
ATOM     14  H   LIG d   1       7.247   1.942  -6.634  0.00  0.00     0.034 H 
ATOM     15  H   LIG d   1       8.297   1.211  -7.873  0.00  0.00     0.034 H 
ATOM     16  H   LIG d   1       6.740   0.450  -7.464  0.00  0.00     0.034 H 
ENDBRANCH  12  13
ENDBRANCH   1  12
TORSDOF 2
ENDMDL
MODEL 3
REMARK VINA RESULT:      -4.3      1.457      3.589
REMARK  2 active torsions:
REMARK  status: ('A' for Active; 'I' for Inactive)
REMARK    1  A    between atoms: C_1  and  S_2 
REMARK    2  A    between atoms: S_2  and  C_3 
ROOT
ATOM      1  C   LIG d   1       6.529  -1.882  -5.075  0.00  0.00     0.047 A 
ATOM      2  C   LIG d   1       5.493  -2.353  -4.279  0.00  0.00     0.075 A 
ATOM      3  C   LIG d   1       4.983  -1.559  -3.267  0.00  0.00     0.080 A 
ATOM      4  C   LIG d   1       5.506  -0.295  -3.047  0.00  0.00     0.080 A 
ATOM      5  C   LIG d   1       6.542   0.174  -3.836  0.00  0.00     0.080 A 
ATOM      6  C   LIG d   1       7.051  -0.614  -4.853  0.00  0.00     0.075 A 
ATOM      7 CL   LIG d   1       8.348  -0.021  -5.844  0.00  0.00    -0.081 Cl
ATOM      8 CL   LIG d   1       7.199   1.757  -3.552  0.00  0.00    -0.080 Cl
ATOM      9 CL   LIG d   1       4.864   0.699  -1.777  0.00  0.00    -0.080 Cl
ATOM     10 CL   LIG d   1       3.687  -2.147  -2.272  0.00  0.00    -0.080 Cl
ATOM     11 CL   LIG d   1       4.837  -3.937  -4.552  0.00  0.00    -0.081 Cl
ENDROOT
BRANCH   1  12
ATOM     12  S   LIG d   1       7.181  -2.891  -6.364  0.00  0.00    -0.126 SA
BRANCH  12  13
ATOM     13  C   LIG d   1       8.415  -3.926  -5.530  0.00  0.00    -0.013 C 
ATOM     14  H   LIG d   1       8.242  -4.972  -5.784  0.00  0.00     0.034 H 
ATOM     15  H   LIG d   1       9.414  -3.633  -5.854  0.00  0.00     0.034 H 
ATOM     16  H   LIG d   1       8.330  -3.796  -4.451  0.00  0.00     0.034 H 
ENDBRANCH  12  13
ENDBRANCH   1  12
TORSDOF 2
ENDMDL
MODEL 4
REMARK VINA RESULT:      -4.3      1.456      2.756
REMARK  2 active torsions:
REMARK  status: ('A' for Active; 'I' for Inactive)
REMARK    1  A    between atoms: C_1  and  S_2 
REMARK    2  A    between atoms: S_2  and  C_3 
ROOT
ATOM      1  C   LIG d   1       6.533  -1.884  -5.088  0.00  0.00     0.047 A 
ATOM      2  C   LIG d   1       7.057  -0.616  -4.870  0.00  0.00     0.075 A 
ATOM      3  C   LIG d   1       6.548   0.178  -3.858  0.00  0.00     0.080 A 
ATOM      4  C   LIG d   1       5.515  -0.291  -3.063  0.00  0.00     0.080 A 
ATOM      5  C   LIG d   1       4.987  -1.552  -3.281  0.00  0.00     0.080 A 
ATOM      6  C   LIG d   1       5.497  -2.352  -4.288  0.00  0.00     0.075 A 
ATOM      7 CL   LIG d   1       4.838  -3.935  -4.557  0.00  0.00    -0.081 Cl
ATOM      8 CL   LIG d   1       3.688  -2.133  -2.286  0.00  0.00    -0.080 Cl
ATOM      9 CL   LIG d   1       4.878   0.707  -1.794  0.00  0.00    -0.080 Cl
ATOM     10 CL   LIG d   1       7.203   1.762  -3.585  0.00  0.00    -0.080 Cl
ATOM     11 CL   LIG d   1       8.351  -0.027  -5.867  0.00  0.00    -0.081 Cl
ENDROOT
BRANCH   1  12
ATOM     12  S   LIG d   1       7.179  -2.897  -6.376  0.00  0.00    -0.126 SA
BRANCH  12  13
ATOM     13  C   LIG d   1       8.600  -3.727  -5.611  0.00  0.00    -0.013 C 
ATOM     14  H   LIG d   1       9.510  -3.453  -6.144  0.00  0.00     0.034 H 
ATOM     15  H   LIG d   1       8.682  -3.418  -4.569  0.00  0.00     0.034 H 
ATOM     16  H   LIG d   1       8.460  -4.807  -5.660  0.00  0.00     0.034 H 
ENDBRANCH  12  13
ENDBRANCH   1  12
TORSDOF 2
ENDMDL
MODEL 5
REMARK VINA RESULT:      -4.2      3.076      4.625
REMARK  2 active torsions:
REMARK  status: ('A' for Active; 'I' for Inactive)
REMARK    1  A    between atoms: C_1  and  S_2 
REMARK    2  A    between atoms: S_2  and  C_3 
ROOT
ATOM      1  C   LIG d   1       4.621  -0.864  -3.997  0.00  0.00     0.047 A 
ATOM      2  C   LIG d   1       5.872  -1.313  -4.402  0.00  0.00     0.075 A 
ATOM      3  C   LIG d   1       6.202  -1.319  -5.746  0.00  0.00     0.080 A 
ATOM      4  C   LIG d   1       5.286  -0.878  -6.686  0.00  0.00     0.080 A 
ATOM      5  C   LIG d   1       4.038  -0.434  -6.285  0.00  0.00     0.080 A 
ATOM      6  C   LIG d   1       3.705  -0.420  -4.943  0.00  0.00     0.075 A 
ATOM      7 CL   LIG d   1       2.141   0.142  -4.441  0.00  0.00    -0.081 Cl
ATOM      8 CL   LIG d   1       2.890   0.113  -7.469  0.00  0.00    -0.080 Cl
ATOM      9 CL   LIG d   1       5.703  -0.886  -8.371  0.00  0.00    -0.080 Cl
ATOM     10 CL   LIG d   1       7.764  -1.881  -6.253  0.00  0.00    -0.080 Cl
ATOM     11 CL   LIG d   1       7.020  -1.868  -3.224  0.00  0.00    -0.081 Cl
ENDROOT
BRANCH   1  12
ATOM     12  S   LIG d   1       4.198  -0.855  -2.287  0.00  0.00    -0.126 SA
BRANCH  12  13
ATOM     13  C   LIG d   1       4.583   0.834  -1.748  0.00  0.00    -0.013 C 
ATOM     14  H   LIG d   1       4.279   1.540  -2.521  0.00  0.00     0.034 H 
ATOM     15  H   LIG d   1       4.045   1.052  -0.825  0.00  0.00     0.034 H 
ATOM     16  H   LIG d   1       5.655   0.925  -1.574  0.00  0.00     0.034 H 
ENDBRANCH  12  13
ENDBRANCH   1  12
TORSDOF 2
ENDMDL
MODEL 6
REMARK VINA RESULT:      -4.2      2.523      2.732
REMARK  2 active torsions:
REMARK  status: ('A' for Active; 'I' for Inactive)
REMARK    1  A    between atoms: C_1  and  S_2 
REMARK    2  A    between atoms: S_2  and  C_3 
ROOT
ATOM      1  C   LIG d   1       6.286  -1.112  -5.432  0.00  0.00     0.047 A 
ATOM      2  C   LIG d   1       6.027  -1.459  -4.112  0.00  0.00     0.075 A 
ATOM      3  C   LIG d   1       4.766  -1.255  -3.580  0.00  0.00     0.080 A 
ATOM      4  C   LIG d   1       3.763  -0.706  -4.362  0.00  0.00     0.080 A 
ATOM      5  C   LIG d   1       4.021  -0.355  -5.676  0.00  0.00     0.080 A 
ATOM      6  C   LIG d   1       5.279  -0.562  -6.214  0.00  0.00     0.075 A 
ATOM      7 CL   LIG d   1       5.599  -0.126  -7.864  0.00  0.00    -0.081 Cl
ATOM      8 CL   LIG d   1       2.764   0.340  -6.651  0.00  0.00    -0.080 Cl
ATOM      9 CL   LIG d   1       2.183  -0.453  -3.691  0.00  0.00    -0.080 Cl
ATOM     10 CL   LIG d   1       4.440  -1.689  -1.930  0.00  0.00    -0.080 Cl
ATOM     11 CL   LIG d   1       7.283  -2.146  -3.130  0.00  0.00    -0.081 Cl
ENDROOT
BRANCH   1  12
ATOM     12  S   LIG d   1       7.891  -1.369  -6.113  0.00  0.00    -0.126 SA
BRANCH  12  13
ATOM     13  C   LIG d   1       8.789   0.155  -5.709  0.00  0.00    -0.013 C 
ATOM     14  H   LIG d   1       9.586  -0.071  -5.000  0.00  0.00     0.034 H 
ATOM     15  H   LIG d   1       9.219   0.574  -6.618  0.00  0.00     0.034 H 
ATOM     16  H   LIG d   1       8.101   0.875  -5.266  0.00  0.00     0.034 H 
ENDBRANCH  12  13
ENDBRANCH   1  12
TORSDOF 2
ENDMDL
MODEL 7
REMARK VINA RESULT:      -4.2      2.698      3.313
REMARK  2 active torsions:
REMARK  status: ('A' for Active; 'I' for Inactive)
REMARK    1  A    between atoms: C_1  and  S_2 
REMARK    2  A    between atoms: S_2  and  C_3 
ROOT
ATOM      1  C   LIG d   1       5.294  -0.631  -6.242  0.00  0.00     0.047 A 
ATOM      2  C   LIG d   1       6.295  -1.185  -5.454  0.00  0.00     0.075 A 
ATOM      3  C   LIG d   1       6.034  -1.508  -4.134  0.00  0.00     0.080 A 
ATOM      4  C   LIG d   1       4.777  -1.278  -3.599  0.00  0.00     0.080 A 
ATOM      5  C   LIG d   1       3.780  -0.722  -4.382  0.00  0.00     0.080 A 
ATOM      6  C   LIG d   1       4.034  -0.403  -5.704  0.00  0.00     0.075 A 
ATOM      7 CL   LIG d   1       2.781   0.290  -6.686  0.00  0.00    -0.081 Cl
ATOM      8 CL   LIG d   1       2.208  -0.429  -3.705  0.00  0.00    -0.080 Cl
ATOM      9 CL   LIG d   1       4.453  -1.684  -1.942  0.00  0.00    -0.080 Cl
ATOM     10 CL   LIG d   1       7.283  -2.200  -3.147  0.00  0.00    -0.080 Cl
ATOM     11 CL   LIG d   1       7.871  -1.472  -6.122  0.00  0.00    -0.081 Cl
ENDROOT
BRANCH   1  12
ATOM     12  S   LIG d   1       5.623  -0.219  -7.924  0.00  0.00    -0.126 SA
BRANCH  12  13
ATOM     13  C   LIG d   1       5.078  -1.682  -8.849  0.00  0.00    -0.013 C 
ATOM     14  H   LIG d   1       5.590  -2.565  -8.465  0.00  0.00     0.034 H 
ATOM     15  H   LIG d   1       4.002  -1.806  -8.731  0.00  0.00     0.034 H 
ATOM     16  H   LIG d   1       5.317  -1.554  -9.905  0.00  0.00     0.034 H 
ENDBRANCH  12  13
ENDBRANCH   1  12
TORSDOF 2
ENDMDL
MODEL 8
REMARK VINA RESULT:      -4.2      2.699      2.907
REMARK  2 active torsions:
REMARK  status: ('A' for Active; 'I' for Inactive)
REMARK    1  A    between atoms: C_1  and  S_2 
REMARK    2  A    between atoms: S_2  and  C_3 
ROOT
ATOM      1  C   LIG d   1       5.300  -0.674  -6.274  0.00  0.00     0.047 A 
ATOM      2  C   LIG d   1       4.045  -0.431  -5.730  0.00  0.00     0.075 A 
ATOM      3  C   LIG d   1       3.797  -0.735  -4.404  0.00  0.00     0.080 A 
ATOM      4  C   LIG d   1       4.798  -1.282  -3.618  0.00  0.00     0.080 A 
ATOM      5  C   LIG d   1       6.048  -1.529  -4.160  0.00  0.00     0.080 A 
ATOM      6  C   LIG d   1       6.303  -1.221  -5.484  0.00  0.00     0.075 A 
ATOM      7 CL   LIG d   1       7.873  -1.527  -6.160  0.00  0.00    -0.081 Cl
ATOM      8 CL   LIG d   1       7.299  -2.220  -3.174  0.00  0.00    -0.080 Cl
ATOM      9 CL   LIG d   1       4.484  -1.662  -1.954  0.00  0.00    -0.080 Cl
ATOM     10 CL   LIG d   1       2.229  -0.433  -3.723  0.00  0.00    -0.080 Cl
ATOM     11 CL   LIG d   1       2.788   0.252  -6.713  0.00  0.00    -0.081 Cl
ENDROOT
BRANCH   1  12
ATOM     12  S   LIG d   1       5.619  -0.288  -7.964  0.00  0.00    -0.126 SA
BRANCH  12  13
ATOM     13  C   LIG d   1       5.054  -1.758  -8.864  0.00  0.00    -0.013 C 
ATOM     14  H   LIG d   1       5.012  -2.607  -8.182  0.00  0.00     0.034 H 
ATOM     15  H   LIG d   1       4.062  -1.573  -9.275  0.00  0.00     0.034 H 
ATOM     16  H   LIG d   1       5.749  -1.977  -9.676  0.00  0.00     0.034 H 
ENDBRANCH  12  13
ENDBRANCH   1  12
TORSDOF 2
ENDMDL
MODEL 9
REMARK VINA RESULT:      -4.2      2.536      2.975
REMARK  2 active torsions:
REMARK  status: ('A' for Active; 'I' for Inactive)
REMARK    1  A    between atoms: C_1  and  S_2 
REMARK    2  A    between atoms: S_2  and  C_3 
ROOT
ATOM      1  C   LIG d   1       6.295  -1.085  -5.440  0.00  0.00     0.047 A 
ATOM      2  C   LIG d   1       5.293  -0.525  -6.223  0.00  0.00     0.075 A 
ATOM      3  C   LIG d   1       4.029  -0.334  -5.694  0.00  0.00     0.080 A 
ATOM      4  C   LIG d   1       3.762  -0.701  -4.385  0.00  0.00     0.080 A 
ATOM      5  C   LIG d   1       4.757  -1.264  -3.605  0.00  0.00     0.080 A 
ATOM      6  C   LIG d   1       6.025  -1.452  -4.128  0.00  0.00     0.075 A 
ATOM      7 CL   LIG d   1       7.273  -2.153  -3.146  0.00  0.00    -0.081 Cl
ATOM      8 CL   LIG d   1       4.417  -1.730  -1.967  0.00  0.00    -0.080 Cl
ATOM      9 CL   LIG d   1       2.175  -0.460  -3.725  0.00  0.00    -0.080 Cl
ATOM     10 CL   LIG d   1       2.776   0.366  -6.671  0.00  0.00    -0.080 Cl
ATOM     11 CL   LIG d   1       5.626  -0.064  -7.864  0.00  0.00    -0.081 Cl
ENDROOT
BRANCH   1  12
ATOM     12  S   LIG d   1       7.906  -1.329  -6.111  0.00  0.00    -0.126 SA
BRANCH  12  13
ATOM     13  C   LIG d   1       8.816   0.162  -5.621  0.00  0.00    -0.013 C 
ATOM     14  H   LIG d   1       9.713   0.256  -6.233  0.00  0.00     0.034 H 
ATOM     15  H   LIG d   1       8.183   1.037  -5.766  0.00  0.00     0.034 H 
ATOM     16  H   LIG d   1       9.099   0.087  -4.571  0.00  0.00     0.034 H 
ENDBRANCH  12  13
ENDBRANCH   1  12
TORSDOF 2
ENDMDL
MODEL 10
REMARK VINA RESULT:      -4.0      3.158      4.394
REMARK  2 active torsions:
REMARK  status: ('A' for Active; 'I' for Inactive)
REMARK    1  A    between atoms: C_1  and  S_2 
REMARK    2  A    between atoms: S_2  and  C_3 
ROOT
ATOM      1  C   LIG d   1       3.942  -0.305  -6.521  0.00  0.00     0.047 A 
ATOM      2  C   LIG d   1       5.260  -0.627  -6.819  0.00  0.00     0.075 A 
ATOM      3  C   LIG d   1       6.177  -0.800  -5.797  0.00  0.00     0.080 A 
ATOM      4  C   LIG d   1       5.781  -0.653  -4.478  0.00  0.00     0.080 A 
ATOM      5  C   LIG d   1       4.469  -0.328  -4.179  0.00  0.00     0.080 A 
ATOM      6  C   LIG d   1       3.547  -0.159  -5.197  0.00  0.00     0.075 A 
ATOM      7 CL   LIG d   1       1.901   0.245  -4.820  0.00  0.00    -0.081 Cl
ATOM      8 CL   LIG d   1       3.978  -0.137  -2.524  0.00  0.00    -0.080 Cl
ATOM      9 CL   LIG d   1       6.933  -0.872  -3.199  0.00  0.00    -0.080 Cl
ATOM     10 CL   LIG d   1       7.824  -1.203  -6.169  0.00  0.00    -0.080 Cl
ATOM     11 CL   LIG d   1       5.759  -0.811  -8.472  0.00  0.00    -0.081 Cl
ENDROOT
BRANCH   1  12
ATOM     12  S   LIG d   1       2.772  -0.083  -7.820  0.00  0.00    -0.126 SA
BRANCH  12  13
ATOM     13  C   LIG d   1       2.997   1.646  -8.322  0.00  0.00    -0.013 C 
ATOM     14  H   LIG d   1       3.924   2.029  -7.896  0.00  0.00     0.034 H 
ATOM     15  H   LIG d   1       3.045   1.704  -9.410  0.00  0.00     0.034 H 
ATOM     16  H   LIG d   1       2.158   2.241  -7.962  0.00  0.00     0.034 H 
ENDBRANCH  12  13
ENDBRANCH   1  12
TORSDOF 2
ENDMDL
