MODEL 1
REMARK VINA RESULT:      -6.3      0.000      0.000
REMARK  4 active torsions:
REMARK  status: ('A' for Active; 'I' for Inactive)
REMARK    1  A    between atoms: C_1  and  C_2 
REMARK    2  A    between atoms: C_5  and  C_12 
REMARK    3  A    between atoms: C_6  and  C_7 
REMARK    4  A    between atoms: C_6  and  C_8 
REMARK       I    between atoms: C_12  and  N_14 
ROOT
ATOM      1  C   LIG d   1       4.330  -1.375  -3.289  0.00  0.00     0.032 C 
ATOM      2  C   LIG d   1       3.038  -0.630  -3.745  0.00  0.00    -0.039 C 
ATOM      3  C   LIG d   1       3.391  -0.059  -5.138  0.00  0.00    -0.037 C 
ATOM      4  C   LIG d   1       4.859  -0.522  -5.390  0.00  0.00     0.060 C 
ATOM      5  C   LIG d   1       5.435  -0.463  -3.930  0.00  0.00    -0.009 C 
ATOM      6  C   LIG d   1       4.748  -2.067  -5.581  0.00  0.00     0.021 C 
ATOM      7  C   LIG d   1       4.421  -2.615  -4.188  0.00  0.00     0.141 C 
ATOM      8  O   LIG d   1       4.253  -3.767  -3.866  0.00  0.00    -0.297 OA
ATOM      9  H   LIG d   1       2.204  -1.327  -3.820  0.00  0.00     0.028 H 
ATOM     10  H   LIG d   1       2.800   0.178  -3.053  0.00  0.00     0.028 H 
ATOM     11  H   LIG d   1       2.726  -0.470  -5.898  0.00  0.00     0.028 H 
ATOM     12  H   LIG d   1       3.332   1.030  -5.129  0.00  0.00     0.028 H 
ATOM     13  H   LIG d   1       3.953  -2.305  -6.288  0.00  0.00     0.035 H 
ATOM     14  H   LIG d   1       5.698  -2.475  -5.924  0.00  0.00     0.035 H 
ENDROOT
BRANCH   4  15
ATOM     15  C   LIG d   1       5.623   0.238  -6.443  0.00  0.00     0.223 C 
ATOM     16  O   LIG d   1       6.742   0.641  -6.208  0.00  0.00    -0.275 OA
ATOM     17  N   LIG d   1       5.062   0.470  -7.646  0.00  0.00    -0.301 N 
ATOM     18  C   LIG d   1       5.831   1.116  -8.719  0.00  0.00     0.015 C 
ATOM     19  C   LIG d   1       3.668   0.086  -7.909  0.00  0.00     0.015 C 
ATOM     20  C   LIG d   1       5.050   2.324  -9.232  0.00  0.00    -0.037 C 
ATOM     21  H   LIG d   1       6.795   1.446  -8.330  0.00  0.00     0.046 H 
ATOM     22  H   LIG d   1       5.985   0.410  -9.535  0.00  0.00     0.046 H 
ATOM     23  C   LIG d   1       3.644   1.882  -9.645  0.00  0.00    -0.050 C 
ATOM     24  H   LIG d   1       5.564   2.752 -10.093  0.00  0.00     0.028 H 
ATOM     25  H   LIG d   1       4.978   3.071  -8.443  0.00  0.00     0.028 H 
ATOM     26  C   LIG d   1       2.909   1.310  -8.430  0.00  0.00    -0.037 C 
ATOM     27  H   LIG d   1       3.717   1.117 -10.419  0.00  0.00     0.027 H 
ATOM     28  H   LIG d   1       3.093   2.738 -10.033  0.00  0.00     0.027 H 
ATOM     29  H   LIG d   1       1.901   1.017  -8.720  0.00  0.00     0.028 H 
ATOM     30  H   LIG d   1       2.858   2.067  -7.647  0.00  0.00     0.028 H 
ATOM     31  H   LIG d   1       3.642  -0.706  -8.658  0.00  0.00     0.046 H 
ATOM     32  H   LIG d   1       3.206  -0.265  -6.986  0.00  0.00     0.046 H 
ENDBRANCH   4  15
BRANCH   5  33
ATOM     33  C   LIG d   1       6.826  -1.092  -3.835  0.00  0.00    -0.058 C 
ATOM     34  H   LIG d   1       7.525  -0.366  -3.420  0.00  0.00     0.024 H 
ATOM     35  H   LIG d   1       6.786  -1.968  -3.187  0.00  0.00     0.024 H 
ATOM     36  H   LIG d   1       7.159  -1.390  -4.829  0.00  0.00     0.024 H 
ENDBRANCH   5  33
BRANCH   5  37
ATOM     37  C   LIG d   1       5.412   0.956  -3.360  0.00  0.00    -0.058 C 
ATOM     38  H   LIG d   1       6.302   1.493  -3.686  0.00  0.00     0.024 H 
ATOM     39  H   LIG d   1       4.523   1.477  -3.717  0.00  0.00     0.024 H 
ATOM     40  H   LIG d   1       5.392   0.911  -2.271  0.00  0.00     0.024 H 
ENDBRANCH   5  37
BRANCH   1  41
ATOM     41  C   LIG d   1       4.457  -1.630  -1.785  0.00  0.00    -0.052 C 
ATOM     42  H   LIG d   1       4.018  -0.796  -1.237  0.00  0.00     0.024 H 
ATOM     43  H   LIG d   1       3.932  -2.550  -1.528  0.00  0.00     0.024 H 
ATOM     44  H   LIG d   1       5.509  -1.725  -1.519  0.00  0.00     0.024 H 
ENDBRANCH   1  41
TORSDOF 4
ENDMDL
MODEL 2
REMARK VINA RESULT:      -6.3      2.545      5.253
REMARK  4 active torsions:
REMARK  status: ('A' for Active; 'I' for Inactive)
REMARK    1  A    between atoms: C_1  and  C_2 
REMARK    2  A    between atoms: C_5  and  C_12 
REMARK    3  A    between atoms: C_6  and  C_7 
REMARK    4  A    between atoms: C_6  and  C_8 
REMARK       I    between atoms: C_12  and  N_14 
ROOT
ATOM      1  C   LIG d   1       4.451   0.616  -2.956  0.00  0.00     0.032 C 
ATOM      2  C   LIG d   1       4.416  -0.160  -1.603  0.00  0.00    -0.039 C 
ATOM      3  C   LIG d   1       4.881  -1.590  -1.964  0.00  0.00    -0.037 C 
ATOM      4  C   LIG d   1       5.160  -1.534  -3.498  0.00  0.00     0.060 C 
ATOM      5  C   LIG d   1       4.050  -0.523  -3.957  0.00  0.00    -0.009 C 
ATOM      6  C   LIG d   1       6.426  -0.632  -3.626  0.00  0.00     0.021 C 
ATOM      7  C   LIG d   1       5.941   0.782  -3.288  0.00  0.00     0.141 C 
ATOM      8  O   LIG d   1       6.587   1.802  -3.269  0.00  0.00    -0.297 OA
ATOM      9  H   LIG d   1       5.101   0.293  -0.886  0.00  0.00     0.028 H 
ATOM     10  H   LIG d   1       3.403  -0.180  -1.203  0.00  0.00     0.028 H 
ATOM     11  H   LIG d   1       5.792  -1.843  -1.420  0.00  0.00     0.028 H 
ATOM     12  H   LIG d   1       4.095  -2.312  -1.746  0.00  0.00     0.028 H 
ATOM     13  H   LIG d   1       7.196  -0.955  -2.925  0.00  0.00     0.035 H 
ATOM     14  H   LIG d   1       6.807  -0.656  -4.647  0.00  0.00     0.035 H 
ENDROOT
BRANCH   4  15
ATOM     15  C   LIG d   1       5.197  -2.860  -4.213  0.00  0.00     0.223 C 
ATOM     16  O   LIG d   1       4.190  -3.529  -4.301  0.00  0.00    -0.275 OA
ATOM     17  N   LIG d   1       6.349  -3.301  -4.755  0.00  0.00    -0.301 N 
ATOM     18  C   LIG d   1       6.379  -4.539  -5.546  0.00  0.00     0.015 C 
ATOM     19  C   LIG d   1       7.601  -2.557  -4.562  0.00  0.00     0.015 C 
ATOM     20  C   LIG d   1       7.450  -5.467  -4.977  0.00  0.00    -0.037 C 
ATOM     21  H   LIG d   1       5.407  -5.031  -5.492  0.00  0.00     0.046 H 
ATOM     22  H   LIG d   1       6.616  -4.305  -6.583  0.00  0.00     0.046 H 
ATOM     23  C   LIG d   1       8.787  -4.725  -4.921  0.00  0.00    -0.050 C 
ATOM     24  H   LIG d   1       7.548  -6.346  -5.614  0.00  0.00     0.028 H 
ATOM     25  H   LIG d   1       7.165  -5.777  -3.972  0.00  0.00     0.028 H 
ATOM     26  C   LIG d   1       8.661  -3.509  -3.999  0.00  0.00    -0.037 C 
ATOM     27  H   LIG d   1       9.062  -4.395  -5.923  0.00  0.00     0.027 H 
ATOM     28  H   LIG d   1       9.559  -5.393  -4.536  0.00  0.00     0.027 H 
ATOM     29  H   LIG d   1       9.619  -2.995  -3.943  0.00  0.00     0.028 H 
ATOM     30  H   LIG d   1       8.362  -3.838  -3.004  0.00  0.00     0.028 H 
ATOM     31  H   LIG d   1       7.940  -2.157  -5.518  0.00  0.00     0.046 H 
ATOM     32  H   LIG d   1       7.435  -1.739  -3.860  0.00  0.00     0.046 H 
ENDBRANCH   4  15
BRANCH   5  33
ATOM     33  C   LIG d   1       4.228  -0.097  -5.415  0.00  0.00    -0.058 C 
ATOM     34  H   LIG d   1       3.251   0.087  -5.861  0.00  0.00     0.024 H 
ATOM     35  H   LIG d   1       4.823   0.815  -5.457  0.00  0.00     0.024 H 
ATOM     36  H   LIG d   1       4.736  -0.889  -5.966  0.00  0.00     0.024 H 
ENDBRANCH   5  33
BRANCH   5  37
ATOM     37  C   LIG d   1       2.641  -1.056  -3.687  0.00  0.00    -0.058 C 
ATOM     38  H   LIG d   1       2.457  -1.930  -4.311  0.00  0.00     0.024 H 
ATOM     39  H   LIG d   1       2.552  -1.334  -2.637  0.00  0.00     0.024 H 
ATOM     40  H   LIG d   1       1.909  -0.282  -3.921  0.00  0.00     0.024 H 
ENDBRANCH   5  37
BRANCH   1  41
ATOM     41  C   LIG d   1       3.609   1.893  -3.014  0.00  0.00    -0.052 C 
ATOM     42  H   LIG d   1       4.254   2.743  -3.236  0.00  0.00     0.024 H 
ATOM     43  H   LIG d   1       2.854   1.795  -3.794  0.00  0.00     0.024 H 
ATOM     44  H   LIG d   1       3.120   2.050  -2.053  0.00  0.00     0.024 H 
ENDBRANCH   1  41
TORSDOF 4
ENDMDL
MODEL 3
REMARK VINA RESULT:      -6.0      1.886      2.854
REMARK  4 active torsions:
REMARK  status: ('A' for Active; 'I' for Inactive)
REMARK    1  A    between atoms: C_1  and  C_2 
REMARK    2  A    between atoms: C_5  and  C_12 
REMARK    3  A    between atoms: C_6  and  C_7 
REMARK    4  A    between atoms: C_6  and  C_8 
REMARK       I    between atoms: C_12  and  N_14 
ROOT
ATOM      1  C   LIG d   1       4.795  -1.216  -2.972  0.00  0.00     0.032 C 
ATOM      2  C   LIG d   1       4.519  -2.559  -3.715  0.00  0.00    -0.039 C 
ATOM      3  C   LIG d   1       4.080  -2.135  -5.135  0.00  0.00    -0.037 C 
ATOM      4  C   LIG d   1       4.142  -0.576  -5.113  0.00  0.00     0.060 C 
ATOM      5  C   LIG d   1       3.712  -0.291  -3.630  0.00  0.00    -0.009 C 
ATOM      6  C   LIG d   1       5.665  -0.252  -5.027  0.00  0.00     0.021 C 
ATOM      7  C   LIG d   1       6.076  -0.658  -3.607  0.00  0.00     0.141 C 
ATOM      8  O   LIG d   1       7.170  -0.575  -3.101  0.00  0.00    -0.297 OA
ATOM      9  H   LIG d   1       5.427  -3.161  -3.762  0.00  0.00     0.028 H 
ATOM     10  H   LIG d   1       3.721  -3.110  -3.220  0.00  0.00     0.028 H 
ATOM     11  H   LIG d   1       4.768  -2.533  -5.882  0.00  0.00     0.028 H 
ATOM     12  H   LIG d   1       3.063  -2.472  -5.336  0.00  0.00     0.028 H 
ATOM     13  H   LIG d   1       6.218  -0.827  -5.770  0.00  0.00     0.035 H 
ATOM     14  H   LIG d   1       5.834   0.815  -5.169  0.00  0.00     0.035 H 
ENDROOT
BRANCH   4  15
ATOM     15  C   LIG d   1       3.358   0.133  -6.186  0.00  0.00     0.223 C 
ATOM     16  O   LIG d   1       2.625   1.054  -5.894  0.00  0.00    -0.275 OA
ATOM     17  N   LIG d   1       3.471  -0.255  -7.472  0.00  0.00    -0.301 N 
ATOM     18  C   LIG d   1       2.797   0.492  -8.542  0.00  0.00     0.015 C 
ATOM     19  C   LIG d   1       4.268  -1.436  -7.830  0.00  0.00     0.015 C 
ATOM     20  C   LIG d   1       1.947  -0.475  -9.365  0.00  0.00    -0.037 C 
ATOM     21  H   LIG d   1       2.155   1.258  -8.106  0.00  0.00     0.046 H 
ATOM     22  H   LIG d   1       3.540   0.960  -9.187  0.00  0.00     0.046 H 
ATOM     23  C   LIG d   1       2.824  -1.627  -9.859  0.00  0.00    -0.050 C 
ATOM     24  H   LIG d   1       1.520   0.050 -10.220  0.00  0.00     0.028 H 
ATOM     25  H   LIG d   1       1.145  -0.870  -8.743  0.00  0.00     0.028 H 
ATOM     26  C   LIG d   1       3.398  -2.386  -8.660  0.00  0.00    -0.037 C 
ATOM     27  H   LIG d   1       3.641  -1.229 -10.462  0.00  0.00     0.027 H 
ATOM     28  H   LIG d   1       2.225  -2.307 -10.465  0.00  0.00     0.027 H 
ATOM     29  H   LIG d   1       4.004  -3.219  -9.013  0.00  0.00     0.028 H 
ATOM     30  H   LIG d   1       2.581  -2.762  -8.044  0.00  0.00     0.028 H 
ATOM     31  H   LIG d   1       5.135  -1.129  -8.415  0.00  0.00     0.046 H 
ATOM     32  H   LIG d   1       4.598  -1.943  -6.922  0.00  0.00     0.046 H 
ENDBRANCH   4  15
BRANCH   5  33
ATOM     33  C   LIG d   1       3.901   1.178  -3.249  0.00  0.00    -0.058 C 
ATOM     34  H   LIG d   1       4.958   1.436  -3.312  0.00  0.00     0.024 H 
ATOM     35  H   LIG d   1       3.333   1.808  -3.933  0.00  0.00     0.024 H 
ATOM     36  H   LIG d   1       3.548   1.338  -2.229  0.00  0.00     0.024 H 
ENDBRANCH   5  33
BRANCH   5  37
ATOM     37  C   LIG d   1       2.290  -0.775  -3.340  0.00  0.00    -0.058 C 
ATOM     38  H   LIG d   1       2.325  -1.784  -2.931  0.00  0.00     0.024 H 
ATOM     39  H   LIG d   1       1.818  -0.107  -2.619  0.00  0.00     0.024 H 
ATOM     40  H   LIG d   1       1.711  -0.777  -4.264  0.00  0.00     0.024 H 
ENDBRANCH   5  37
BRANCH   1  41
ATOM     41  C   LIG d   1       4.784  -1.285  -1.443  0.00  0.00    -0.052 C 
ATOM     42  H   LIG d   1       5.799  -1.449  -1.080  0.00  0.00     0.024 H 
ATOM     43  H   LIG d   1       4.402  -0.347  -1.040  0.00  0.00     0.024 H 
ATOM     44  H   LIG d   1       4.146  -2.107  -1.121  0.00  0.00     0.024 H 
ENDBRANCH   1  41
TORSDOF 4
ENDMDL
MODEL 4
REMARK VINA RESULT:      -5.9      1.808      5.691
REMARK  4 active torsions:
REMARK  status: ('A' for Active; 'I' for Inactive)
REMARK    1  A    between atoms: C_1  and  C_2 
REMARK    2  A    between atoms: C_5  and  C_12 
REMARK    3  A    between atoms: C_6  and  C_7 
REMARK    4  A    between atoms: C_6  and  C_8 
REMARK       I    between atoms: C_12  and  N_14 
ROOT
ATOM      1  C   LIG d   1       3.935   0.533  -9.414  0.00  0.00     0.032 C 
ATOM      2  C   LIG d   1       2.793   1.087  -8.507  0.00  0.00    -0.039 C 
ATOM      3  C   LIG d   1       3.012   0.397  -7.142  0.00  0.00    -0.037 C 
ATOM      4  C   LIG d   1       4.271  -0.500  -7.355  0.00  0.00     0.060 C 
ATOM      5  C   LIG d   1       4.072  -0.925  -8.853  0.00  0.00    -0.009 C 
ATOM      6  C   LIG d   1       5.445   0.515  -7.509  0.00  0.00     0.021 C 
ATOM      7  C   LIG d   1       5.223   1.172  -8.876  0.00  0.00     0.141 C 
ATOM      8  O   LIG d   1       5.900   2.018  -9.410  0.00  0.00    -0.297 OA
ATOM      9  H   LIG d   1       2.879   2.169  -8.405  0.00  0.00     0.028 H 
ATOM     10  H   LIG d   1       1.819   0.819  -8.916  0.00  0.00     0.028 H 
ATOM     11  H   LIG d   1       3.201   1.139  -6.365  0.00  0.00     0.028 H 
ATOM     12  H   LIG d   1       2.149  -0.216  -6.882  0.00  0.00     0.028 H 
ATOM     13  H   LIG d   1       5.412   1.258  -6.713  0.00  0.00     0.035 H 
ATOM     14  H   LIG d   1       6.401  -0.008  -7.502  0.00  0.00     0.035 H 
ENDROOT
BRANCH   4  15
ATOM     15  C   LIG d   1       4.466  -1.616  -6.362  0.00  0.00     0.223 C 
ATOM     16  O   LIG d   1       4.470  -2.768  -6.738  0.00  0.00    -0.275 OA
ATOM     17  N   LIG d   1       4.636  -1.333  -5.055  0.00  0.00    -0.301 N 
ATOM     18  C   LIG d   1       4.932  -2.400  -4.090  0.00  0.00     0.015 C 
ATOM     19  C   LIG d   1       4.523   0.049  -4.567  0.00  0.00     0.015 C 
ATOM     20  C   LIG d   1       3.918  -2.335  -2.949  0.00  0.00    -0.037 C 
ATOM     21  H   LIG d   1       4.861  -3.370  -4.583  0.00  0.00     0.046 H 
ATOM     22  H   LIG d   1       5.936  -2.264  -3.690  0.00  0.00     0.046 H 
ATOM     23  C   LIG d   1       3.918  -0.928  -2.349  0.00  0.00    -0.050 C 
ATOM     24  H   LIG d   1       4.187  -3.059  -2.180  0.00  0.00     0.028 H 
ATOM     25  H   LIG d   1       2.925  -2.566  -3.334  0.00  0.00     0.028 H 
ATOM     26  C   LIG d   1       3.508   0.086  -3.421  0.00  0.00    -0.037 C 
ATOM     27  H   LIG d   1       4.917  -0.688  -1.985  0.00  0.00     0.027 H 
ATOM     28  H   LIG d   1       3.211  -0.885  -1.520  0.00  0.00     0.027 H 
ATOM     29  H   LIG d   1       3.486   1.085  -2.986  0.00  0.00     0.028 H 
ATOM     30  H   LIG d   1       2.519  -0.168  -3.802  0.00  0.00     0.028 H 
ATOM     31  H   LIG d   1       5.494   0.389  -4.207  0.00  0.00     0.046 H 
ATOM     32  H   LIG d   1       4.184   0.695  -5.377  0.00  0.00     0.046 H 
ENDBRANCH   4  15
BRANCH   5  33
ATOM     33  C   LIG d   1       5.299  -1.645  -9.415  0.00  0.00    -0.058 C 
ATOM     34  H   LIG d   1       5.299  -1.570 -10.502  0.00  0.00     0.024 H 
ATOM     35  H   LIG d   1       6.204  -1.183  -9.019  0.00  0.00     0.024 H 
ATOM     36  H   LIG d   1       5.270  -2.695  -9.123  0.00  0.00     0.024 H 
ENDBRANCH   5  33
BRANCH   5  37
ATOM     37  C   LIG d   1       2.793  -1.741  -9.054  0.00  0.00    -0.058 C 
ATOM     38  H   LIG d   1       1.933  -1.072  -9.068  0.00  0.00     0.024 H 
ATOM     39  H   LIG d   1       2.849  -2.278 -10.002  0.00  0.00     0.024 H 
ATOM     40  H   LIG d   1       2.685  -2.455  -8.238  0.00  0.00     0.024 H 
ENDBRANCH   5  37
BRANCH   1  41
ATOM     41  C   LIG d   1       3.709   0.658 -10.923  0.00  0.00    -0.052 C 
ATOM     42  H   LIG d   1       4.650   0.489 -11.446  0.00  0.00     0.024 H 
ATOM     43  H   LIG d   1       2.977  -0.084 -11.242  0.00  0.00     0.024 H 
ATOM     44  H   LIG d   1       3.339   1.657 -11.153  0.00  0.00     0.024 H 
ENDBRANCH   1  41
TORSDOF 4
ENDMDL
MODEL 5
REMARK VINA RESULT:      -5.8      2.203      5.521
REMARK  4 active torsions:
REMARK  status: ('A' for Active; 'I' for Inactive)
REMARK    1  A    between atoms: C_1  and  C_2 
REMARK    2  A    between atoms: C_5  and  C_12 
REMARK    3  A    between atoms: C_6  and  C_7 
REMARK    4  A    between atoms: C_6  and  C_8 
REMARK       I    between atoms: C_12  and  N_14 
ROOT
ATOM      1  C   LIG d   1       4.661  -0.665  -9.364  0.00  0.00     0.032 C 
ATOM      2  C   LIG d   1       5.994  -0.160  -8.732  0.00  0.00    -0.039 C 
ATOM      3  C   LIG d   1       5.683  -0.030  -7.223  0.00  0.00    -0.037 C 
ATOM      4  C   LIG d   1       4.195  -0.478  -7.091  0.00  0.00     0.060 C 
ATOM      5  C   LIG d   1       3.611   0.056  -8.447  0.00  0.00    -0.009 C 
ATOM      6  C   LIG d   1       4.226  -2.009  -7.386  0.00  0.00     0.021 C 
ATOM      7  C   LIG d   1       4.512  -2.117  -8.888  0.00  0.00     0.141 C 
ATOM      8  O   LIG d   1       4.615  -3.121  -9.551  0.00  0.00    -0.297 OA
ATOM      9  H   LIG d   1       6.791  -0.886  -8.894  0.00  0.00     0.028 H 
ATOM     10  H   LIG d   1       6.269   0.808  -9.147  0.00  0.00     0.028 H 
ATOM     11  H   LIG d   1       6.332  -0.687  -6.642  0.00  0.00     0.028 H 
ATOM     12  H   LIG d   1       5.800   1.004  -6.898  0.00  0.00     0.028 H 
ATOM     13  H   LIG d   1       5.012  -2.492  -6.806  0.00  0.00     0.035 H 
ATOM     14  H   LIG d   1       3.258  -2.458  -7.162  0.00  0.00     0.035 H 
ENDROOT
BRANCH   4  15
ATOM     15  C   LIG d   1       3.481  -0.043  -5.837  0.00  0.00     0.223 C 
ATOM     16  O   LIG d   1       2.817   0.971  -5.838  0.00  0.00    -0.275 OA
ATOM     17  N   LIG d   1       3.580  -0.783  -4.714  0.00  0.00    -0.301 N 
ATOM     18  C   LIG d   1       2.807  -0.431  -3.515  0.00  0.00     0.015 C 
ATOM     19  C   LIG d   1       4.467  -1.953  -4.664  0.00  0.00     0.015 C 
ATOM     20  C   LIG d   1       3.759  -0.308  -2.328  0.00  0.00    -0.037 C 
ATOM     21  H   LIG d   1       2.299   0.521  -3.674  0.00  0.00     0.046 H 
ATOM     22  H   LIG d   1       2.073  -1.210  -3.312  0.00  0.00     0.046 H 
ATOM     23  C   LIG d   1       4.574  -1.596  -2.194  0.00  0.00    -0.050 C 
ATOM     24  H   LIG d   1       3.186  -0.144  -1.415  0.00  0.00     0.028 H 
ATOM     25  H   LIG d   1       4.433   0.533  -2.490  0.00  0.00     0.028 H 
ATOM     26  C   LIG d   1       5.406  -1.810  -3.462  0.00  0.00    -0.037 C 
ATOM     27  H   LIG d   1       3.899  -2.441  -2.056  0.00  0.00     0.027 H 
ATOM     28  H   LIG d   1       5.239  -1.519  -1.334  0.00  0.00     0.027 H 
ATOM     29  H   LIG d   1       6.003  -2.715  -3.357  0.00  0.00     0.028 H 
ATOM     30  H   LIG d   1       6.063  -0.954  -3.614  0.00  0.00     0.028 H 
ATOM     31  H   LIG d   1       3.871  -2.859  -4.556  0.00  0.00     0.046 H 
ATOM     32  H   LIG d   1       5.054  -2.006  -5.582  0.00  0.00     0.046 H 
ENDBRANCH   4  15
BRANCH   5  33
ATOM     33  C   LIG d   1       2.188  -0.445  -8.698  0.00  0.00    -0.058 C 
ATOM     34  H   LIG d   1       2.013  -1.349  -8.115  0.00  0.00     0.024 H 
ATOM     35  H   LIG d   1       1.474   0.323  -8.399  0.00  0.00     0.024 H 
ATOM     36  H   LIG d   1       2.061  -0.666  -9.758  0.00  0.00     0.024 H 
ENDBRANCH   5  33
BRANCH   5  37
ATOM     37  C   LIG d   1       3.705   1.579  -8.554  0.00  0.00    -0.058 C 
ATOM     38  H   LIG d   1       4.454   1.947  -7.853  0.00  0.00     0.024 H 
ATOM     39  H   LIG d   1       3.991   1.856  -9.569  0.00  0.00     0.024 H 
ATOM     40  H   LIG d   1       2.737   2.021  -8.317  0.00  0.00     0.024 H 
ENDBRANCH   5  37
BRANCH   1  41
ATOM     41  C   LIG d   1       4.509  -0.439 -10.870  0.00  0.00    -0.052 C 
ATOM     42  H   LIG d   1       3.459  -0.265 -11.107  0.00  0.00     0.024 H 
ATOM     43  H   LIG d   1       5.097   0.429 -11.168  0.00  0.00     0.024 H 
ATOM     44  H   LIG d   1       4.861  -1.319 -11.407  0.00  0.00     0.024 H 
ENDBRANCH   1  41
TORSDOF 4
ENDMDL
MODEL 6
REMARK VINA RESULT:      -5.5      2.359      3.833
REMARK  4 active torsions:
REMARK  status: ('A' for Active; 'I' for Inactive)
REMARK    1  A    between atoms: C_1  and  C_2 
REMARK    2  A    between atoms: C_5  and  C_12 
REMARK    3  A    between atoms: C_6  and  C_7 
REMARK    4  A    between atoms: C_6  and  C_8 
REMARK       I    between atoms: C_12  and  N_14 
ROOT
ATOM      1  C   LIG d   1       4.702   0.418  -3.044  0.00  0.00     0.032 C 
ATOM      2  C   LIG d   1       6.059   0.607  -3.790  0.00  0.00    -0.039 C 
ATOM      3  C   LIG d   1       6.044  -0.468  -4.901  0.00  0.00    -0.037 C 
ATOM      4  C   LIG d   1       4.675  -1.195  -4.722  0.00  0.00     0.060 C 
ATOM      5  C   LIG d   1       4.518  -1.135  -3.161  0.00  0.00    -0.009 C 
ATOM      6  C   LIG d   1       3.616  -0.131  -5.148  0.00  0.00     0.021 C 
ATOM      7  C   LIG d   1       3.630   0.912  -4.025  0.00  0.00     0.141 C 
ATOM      8  O   LIG d   1       2.959   1.912  -3.936  0.00  0.00    -0.297 OA
ATOM      9  H   LIG d   1       6.118   1.604  -4.227  0.00  0.00     0.028 H 
ATOM     10  H   LIG d   1       6.893   0.438  -3.110  0.00  0.00     0.028 H 
ATOM     11  H   LIG d   1       6.101  -0.001  -5.885  0.00  0.00     0.028 H 
ATOM     12  H   LIG d   1       6.867  -1.169  -4.764  0.00  0.00     0.028 H 
ATOM     13  H   LIG d   1       3.894   0.320  -6.100  0.00  0.00     0.035 H 
ATOM     14  H   LIG d   1       2.628  -0.587  -5.216  0.00  0.00     0.035 H 
ENDROOT
BRANCH   4  15
ATOM     15  C   LIG d   1       4.560  -2.557  -5.356  0.00  0.00     0.223 C 
ATOM     16  O   LIG d   1       4.483  -3.545  -4.658  0.00  0.00    -0.275 OA
ATOM     17  N   LIG d   1       4.542  -2.677  -6.699  0.00  0.00    -0.301 N 
ATOM     18  C   LIG d   1       4.325  -3.985  -7.331  0.00  0.00     0.015 C 
ATOM     19  C   LIG d   1       4.746  -1.502  -7.558  0.00  0.00     0.015 C 
ATOM     20  C   LIG d   1       5.460  -4.255  -8.317  0.00  0.00    -0.037 C 
ATOM     21  H   LIG d   1       4.315  -4.763  -6.567  0.00  0.00     0.046 H 
ATOM     22  H   LIG d   1       3.375  -3.980  -7.864  0.00  0.00     0.046 H 
ATOM     23  C   LIG d   1       5.564  -3.090  -9.303  0.00  0.00    -0.050 C 
ATOM     24  H   LIG d   1       5.257  -5.177  -8.863  0.00  0.00     0.028 H 
ATOM     25  H   LIG d   1       6.397  -4.354  -7.771  0.00  0.00     0.028 H 
ATOM     26  C   LIG d   1       5.881  -1.801  -8.541  0.00  0.00    -0.037 C 
ATOM     27  H   LIG d   1       4.617  -2.976  -9.832  0.00  0.00     0.027 H 
ATOM     28  H   LIG d   1       6.359  -3.291 -10.022  0.00  0.00     0.027 H 
ATOM     29  H   LIG d   1       5.978  -0.976  -9.247  0.00  0.00     0.028 H 
ATOM     30  H   LIG d   1       6.815  -1.923  -7.993  0.00  0.00     0.028 H 
ATOM     31  H   LIG d   1       3.830  -1.291  -8.110  0.00  0.00     0.046 H 
ATOM     32  H   LIG d   1       5.011  -0.642  -6.943  0.00  0.00     0.046 H 
ENDBRANCH   4  15
BRANCH   5  33
ATOM     33  C   LIG d   1       3.129  -1.585  -2.705  0.00  0.00    -0.058 C 
ATOM     34  H   LIG d   1       3.065  -2.672  -2.755  0.00  0.00     0.024 H 
ATOM     35  H   LIG d   1       2.960  -1.259  -1.679  0.00  0.00     0.024 H 
ATOM     36  H   LIG d   1       2.372  -1.147  -3.356  0.00  0.00     0.024 H 
ENDBRANCH   5  33
BRANCH   5  37
ATOM     37  C   LIG d   1       5.629  -1.902  -2.442  0.00  0.00    -0.058 C 
ATOM     38  H   LIG d   1       5.375  -2.007  -1.387  0.00  0.00     0.024 H 
ATOM     39  H   LIG d   1       5.737  -2.890  -2.889  0.00  0.00     0.024 H 
ATOM     40  H   LIG d   1       6.568  -1.357  -2.537  0.00  0.00     0.024 H 
ENDBRANCH   5  37
BRANCH   1  41
ATOM     41  C   LIG d   1       4.632   1.002  -1.631  0.00  0.00    -0.052 C 
ATOM     42  H   LIG d   1       5.154   1.959  -1.607  0.00  0.00     0.024 H 
ATOM     43  H   LIG d   1       3.589   1.149  -1.350  0.00  0.00     0.024 H 
ATOM     44  H   LIG d   1       5.104   0.314  -0.930  0.00  0.00     0.024 H 
ENDBRANCH   1  41
TORSDOF 4
ENDMDL
MODEL 7
REMARK VINA RESULT:      -5.5      1.690      2.232
REMARK  4 active torsions:
REMARK  status: ('A' for Active; 'I' for Inactive)
REMARK    1  A    between atoms: C_1  and  C_2 
REMARK    2  A    between atoms: C_5  and  C_12 
REMARK    3  A    between atoms: C_6  and  C_7 
REMARK    4  A    between atoms: C_6  and  C_8 
REMARK       I    between atoms: C_12  and  N_14 
ROOT
ATOM      1  C   LIG d   1       5.762  -1.858  -3.558  0.00  0.00     0.032 C 
ATOM      2  C   LIG d   1       4.442  -1.949  -2.732  0.00  0.00    -0.039 C 
ATOM      3  C   LIG d   1       3.363  -1.337  -3.655  0.00  0.00    -0.037 C 
ATOM      4  C   LIG d   1       4.136  -0.945  -4.952  0.00  0.00     0.060 C 
ATOM      5  C   LIG d   1       5.522  -0.523  -4.346  0.00  0.00    -0.009 C 
ATOM      6  C   LIG d   1       4.521  -2.312  -5.598  0.00  0.00     0.021 C 
ATOM      7  C   LIG d   1       5.606  -2.890  -4.683  0.00  0.00     0.141 C 
ATOM      8  O   LIG d   1       6.198  -3.936  -4.806  0.00  0.00    -0.297 OA
ATOM      9  H   LIG d   1       4.205  -2.988  -2.506  0.00  0.00     0.028 H 
ATOM     10  H   LIG d   1       4.529  -1.369  -1.813  0.00  0.00     0.028 H 
ATOM     11  H   LIG d   1       2.592  -2.074  -3.879  0.00  0.00     0.028 H 
ATOM     12  H   LIG d   1       2.923  -0.454  -3.192  0.00  0.00     0.028 H 
ATOM     13  H   LIG d   1       3.654  -2.971  -5.637  0.00  0.00     0.035 H 
ATOM     14  H   LIG d   1       4.927  -2.157  -6.598  0.00  0.00     0.035 H 
ENDROOT
BRANCH   4  15
ATOM     15  C   LIG d   1       3.461   0.061  -5.846  0.00  0.00     0.223 C 
ATOM     16  O   LIG d   1       2.812   0.964  -5.362  0.00  0.00    -0.275 OA
ATOM     17  N   LIG d   1       3.578  -0.041  -7.185  0.00  0.00    -0.301 N 
ATOM     18  C   LIG d   1       3.015   0.991  -8.067  0.00  0.00     0.015 C 
ATOM     19  C   LIG d   1       4.266  -1.189  -7.791  0.00  0.00     0.015 C 
ATOM     20  C   LIG d   1       2.102   0.323  -9.094  0.00  0.00    -0.037 C 
ATOM     21  H   LIG d   1       2.437   1.702  -7.477  0.00  0.00     0.046 H 
ATOM     22  H   LIG d   1       3.821   1.510  -8.584  0.00  0.00     0.046 H 
ATOM     23  C   LIG d   1       2.878  -0.774  -9.826  0.00  0.00    -0.050 C 
ATOM     24  H   LIG d   1       1.757   1.066  -9.813  0.00  0.00     0.028 H 
ATOM     25  H   LIG d   1       1.245  -0.116  -8.585  0.00  0.00     0.028 H 
ATOM     26  C   LIG d   1       3.335  -1.836  -8.821  0.00  0.00    -0.037 C 
ATOM     27  H   LIG d   1       3.749  -0.339 -10.316  0.00  0.00     0.027 H 
ATOM     28  H   LIG d   1       2.235  -1.237 -10.575  0.00  0.00     0.027 H 
ATOM     29  H   LIG d   1       3.867  -2.628  -9.346  0.00  0.00     0.028 H 
ATOM     30  H   LIG d   1       2.465  -2.254  -8.314  0.00  0.00     0.028 H 
ATOM     31  H   LIG d   1       5.177  -0.850  -8.284  0.00  0.00     0.046 H 
ATOM     32  H   LIG d   1       4.515  -1.915  -7.017  0.00  0.00     0.046 H 
ENDBRANCH   4  15
BRANCH   5  33
ATOM     33  C   LIG d   1       6.577  -0.296  -5.429  0.00  0.00    -0.058 C 
ATOM     34  H   LIG d   1       6.098  -0.288  -6.408  0.00  0.00     0.024 H 
ATOM     35  H   LIG d   1       7.073   0.660  -5.260  0.00  0.00     0.024 H 
ATOM     36  H   LIG d   1       7.315  -1.099  -5.393  0.00  0.00     0.024 H 
ENDBRANCH   5  33
BRANCH   5  37
ATOM     37  C   LIG d   1       5.397   0.682  -3.412  0.00  0.00    -0.058 C 
ATOM     38  H   LIG d   1       4.987   0.360  -2.455  0.00  0.00     0.024 H 
ATOM     39  H   LIG d   1       6.382   1.123  -3.254  0.00  0.00     0.024 H 
ATOM     40  H   LIG d   1       4.736   1.424  -3.860  0.00  0.00     0.024 H 
ENDBRANCH   5  37
BRANCH   1  41
ATOM     41  C   LIG d   1       7.061  -1.941  -2.752  0.00  0.00    -0.052 C 
ATOM     42  H   LIG d   1       7.225  -0.997  -2.232  0.00  0.00     0.024 H 
ATOM     43  H   LIG d   1       6.986  -2.749  -2.025  0.00  0.00     0.024 H 
ATOM     44  H   LIG d   1       7.895  -2.134  -3.426  0.00  0.00     0.024 H 
ENDBRANCH   1  41
TORSDOF 4
ENDMDL
MODEL 8
REMARK VINA RESULT:      -5.4      2.771      4.541
REMARK  4 active torsions:
REMARK  status: ('A' for Active; 'I' for Inactive)
REMARK    1  A    between atoms: C_1  and  C_2 
REMARK    2  A    between atoms: C_5  and  C_12 
REMARK    3  A    between atoms: C_6  and  C_7 
REMARK    4  A    between atoms: C_6  and  C_8 
REMARK       I    between atoms: C_12  and  N_14 
ROOT
ATOM      1  C   LIG d   1       5.307  -0.217  -2.867  0.00  0.00     0.032 C 
ATOM      2  C   LIG d   1       6.213  -1.471  -2.664  0.00  0.00    -0.039 C 
ATOM      3  C   LIG d   1       6.236  -2.161  -4.048  0.00  0.00    -0.037 C 
ATOM      4  C   LIG d   1       5.348  -1.252  -4.952  0.00  0.00     0.060 C 
ATOM      5  C   LIG d   1       4.275  -0.769  -3.912  0.00  0.00    -0.009 C 
ATOM      6  C   LIG d   1       6.181   0.057  -5.119  0.00  0.00     0.021 C 
ATOM      7  C   LIG d   1       6.127   0.737  -3.746  0.00  0.00     0.141 C 
ATOM      8  O   LIG d   1       6.632   1.784  -3.418  0.00  0.00    -0.297 OA
ATOM      9  H   LIG d   1       7.219  -1.169  -2.373  0.00  0.00     0.028 H 
ATOM     10  H   LIG d   1       5.782  -2.135  -1.916  0.00  0.00     0.028 H 
ATOM     11  H   LIG d   1       7.255  -2.205  -4.435  0.00  0.00     0.028 H 
ATOM     12  H   LIG d   1       5.810  -3.162  -3.981  0.00  0.00     0.028 H 
ATOM     13  H   LIG d   1       7.208  -0.180  -5.394  0.00  0.00     0.035 H 
ATOM     14  H   LIG d   1       5.725   0.703  -5.868  0.00  0.00     0.035 H 
ENDROOT
BRANCH   4  15
ATOM     15  C   LIG d   1       4.821  -1.885  -6.214  0.00  0.00     0.223 C 
ATOM     16  O   LIG d   1       4.231  -1.210  -7.030  0.00  0.00    -0.275 OA
ATOM     17  N   LIG d   1       5.006  -3.202  -6.436  0.00  0.00    -0.301 N 
ATOM     18  C   LIG d   1       4.593  -3.812  -7.706  0.00  0.00     0.015 C 
ATOM     19  C   LIG d   1       5.620  -4.055  -5.408  0.00  0.00     0.015 C 
ATOM     20  C   LIG d   1       3.684  -5.004  -7.412  0.00  0.00    -0.037 C 
ATOM     21  H   LIG d   1       4.049  -3.081  -8.304  0.00  0.00     0.046 H 
ATOM     22  H   LIG d   1       5.472  -4.154  -8.251  0.00  0.00     0.046 H 
ATOM     23  C   LIG d   1       4.396  -5.963  -6.456  0.00  0.00    -0.050 C 
ATOM     24  H   LIG d   1       3.451  -5.524  -8.342  0.00  0.00     0.028 H 
ATOM     25  H   LIG d   1       2.762  -4.651  -6.952  0.00  0.00     0.028 H 
ATOM     26  C   LIG d   1       4.695  -5.245  -5.138  0.00  0.00    -0.037 C 
ATOM     27  H   LIG d   1       5.331  -6.298  -6.907  0.00  0.00     0.027 H 
ATOM     28  H   LIG d   1       3.758  -6.826  -6.263  0.00  0.00     0.027 H 
ATOM     29  H   LIG d   1       5.182  -5.935  -4.450  0.00  0.00     0.028 H 
ATOM     30  H   LIG d   1       3.762  -4.889  -4.699  0.00  0.00     0.028 H 
ATOM     31  H   LIG d   1       6.586  -4.415  -5.763  0.00  0.00     0.046 H 
ATOM     32  H   LIG d   1       5.756  -3.481  -4.491  0.00  0.00     0.046 H 
ENDBRANCH   4  15
BRANCH   5  33
ATOM     33  C   LIG d   1       3.382   0.336  -4.478  0.00  0.00    -0.058 C 
ATOM     34  H   LIG d   1       3.754   1.307  -4.150  0.00  0.00     0.024 H 
ATOM     35  H   LIG d   1       3.395   0.292  -5.567  0.00  0.00     0.024 H 
ATOM     36  H   LIG d   1       2.361   0.198  -4.120  0.00  0.00     0.024 H 
ENDBRANCH   5  33
BRANCH   5  37
ATOM     37  C   LIG d   1       3.454  -1.932  -3.351  0.00  0.00    -0.058 C 
ATOM     38  H   LIG d   1       2.767  -1.559  -2.593  0.00  0.00     0.024 H 
ATOM     39  H   LIG d   1       2.887  -2.398  -4.157  0.00  0.00     0.024 H 
ATOM     40  H   LIG d   1       4.123  -2.668  -2.906  0.00  0.00     0.024 H 
ENDBRANCH   5  37
BRANCH   1  41
ATOM     41  C   LIG d   1       4.716   0.391  -1.593  0.00  0.00    -0.052 C 
ATOM     42  H   LIG d   1       5.230   1.326  -1.366  0.00  0.00     0.024 H 
ATOM     43  H   LIG d   1       3.654   0.587  -1.742  0.00  0.00     0.024 H 
ATOM     44  H   LIG d   1       4.846  -0.304  -0.764  0.00  0.00     0.024 H 
ENDBRANCH   1  41
TORSDOF 4
ENDMDL
MODEL 9
REMARK VINA RESULT:      -5.4      2.844      5.012
REMARK  4 active torsions:
REMARK  status: ('A' for Active; 'I' for Inactive)
REMARK    1  A    between atoms: C_1  and  C_2 
REMARK    2  A    between atoms: C_5  and  C_12 
REMARK    3  A    between atoms: C_6  and  C_7 
REMARK    4  A    between atoms: C_6  and  C_8 
REMARK       I    between atoms: C_12  and  N_14 
ROOT
ATOM      1  C   LIG d   1       4.821   0.262  -3.136  0.00  0.00     0.032 C 
ATOM      2  C   LIG d   1       6.148   0.613  -3.876  0.00  0.00    -0.039 C 
ATOM      3  C   LIG d   1       6.359  -0.553  -4.869  0.00  0.00    -0.037 C 
ATOM      4  C   LIG d   1       5.133  -1.490  -4.637  0.00  0.00     0.060 C 
ATOM      5  C   LIG d   1       4.915  -1.304  -3.093  0.00  0.00    -0.009 C 
ATOM      6  C   LIG d   1       3.920  -0.680  -5.188  0.00  0.00     0.021 C 
ATOM      7  C   LIG d   1       3.712   0.456  -4.180  0.00  0.00     0.141 C 
ATOM      8  O   LIG d   1       2.874   1.325  -4.206  0.00  0.00    -0.297 OA
ATOM      9  H   LIG d   1       6.046   1.556  -4.413  0.00  0.00     0.028 H 
ATOM     10  H   LIG d   1       6.975   0.663  -3.169  0.00  0.00     0.028 H 
ATOM     11  H   LIG d   1       6.367  -0.184  -5.895  0.00  0.00     0.028 H 
ATOM     12  H   LIG d   1       7.287  -1.080  -4.647  0.00  0.00     0.028 H 
ATOM     13  H   LIG d   1       4.146  -0.283  -6.178  0.00  0.00     0.035 H 
ATOM     14  H   LIG d   1       3.029  -1.308  -5.224  0.00  0.00     0.035 H 
ENDROOT
BRANCH   4  15
ATOM     15  C   LIG d   1       5.280  -2.907  -5.127  0.00  0.00     0.223 C 
ATOM     16  O   LIG d   1       4.302  -3.614  -5.241  0.00  0.00    -0.275 OA
ATOM     17  N   LIG d   1       6.500  -3.390  -5.439  0.00  0.00    -0.301 N 
ATOM     18  C   LIG d   1       6.649  -4.732  -6.018  0.00  0.00     0.015 C 
ATOM     19  C   LIG d   1       7.706  -2.585  -5.203  0.00  0.00     0.015 C 
ATOM     20  C   LIG d   1       7.645  -5.528  -5.177  0.00  0.00    -0.037 C 
ATOM     21  H   LIG d   1       5.684  -5.240  -6.015  0.00  0.00     0.046 H 
ATOM     22  H   LIG d   1       7.020  -4.651  -7.039  0.00  0.00     0.046 H 
ATOM     23  C   LIG d   1       8.954  -4.744  -5.063  0.00  0.00    -0.050 C 
ATOM     24  H   LIG d   1       7.837  -6.490  -5.652  0.00  0.00     0.028 H 
ATOM     25  H   LIG d   1       7.231  -5.690  -4.182  0.00  0.00     0.028 H 
ATOM     26  C   LIG d   1       8.691  -3.406  -4.366  0.00  0.00    -0.037 C 
ATOM     27  H   LIG d   1       9.356  -4.561  -6.060  0.00  0.00     0.027 H 
ATOM     28  H   LIG d   1       9.674  -5.320  -4.482  0.00  0.00     0.027 H 
ATOM     29  H   LIG d   1       9.628  -2.859  -4.265  0.00  0.00     0.028 H 
ATOM     30  H   LIG d   1       8.266  -3.589  -3.378  0.00  0.00     0.028 H 
ATOM     31  H   LIG d   1       8.165  -2.325  -6.157  0.00  0.00     0.046 H 
ATOM     32  H   LIG d   1       7.438  -1.676  -4.664  0.00  0.00     0.046 H 
ENDBRANCH   4  15
BRANCH   5  33
ATOM     33  C   LIG d   1       3.612  -1.946  -2.615  0.00  0.00    -0.058 C 
ATOM     34  H   LIG d   1       3.841  -2.802  -1.980  0.00  0.00     0.024 H 
ATOM     35  H   LIG d   1       3.034  -1.217  -2.047  0.00  0.00     0.024 H 
ATOM     36  H   LIG d   1       3.032  -2.278  -3.477  0.00  0.00     0.024 H 
ENDBRANCH   5  33
BRANCH   5  37
ATOM     37  C   LIG d   1       6.119  -1.785  -2.281  0.00  0.00    -0.058 C 
ATOM     38  H   LIG d   1       6.733  -2.443  -2.895  0.00  0.00     0.024 H 
ATOM     39  H   LIG d   1       6.711  -0.926  -1.965  0.00  0.00     0.024 H 
ATOM     40  H   LIG d   1       5.770  -2.329  -1.402  0.00  0.00     0.024 H 
ENDBRANCH   5  37
BRANCH   1  41
ATOM     41  C   LIG d   1       4.601   0.961  -1.792  0.00  0.00    -0.052 C 
ATOM     42  H   LIG d   1       5.207   1.867  -1.752  0.00  0.00     0.024 H 
ATOM     43  H   LIG d   1       3.548   1.223  -1.687  0.00  0.00     0.024 H 
ATOM     44  H   LIG d   1       4.893   0.293  -0.983  0.00  0.00     0.024 H 
ENDBRANCH   1  41
TORSDOF 4
ENDMDL
MODEL 10
REMARK VINA RESULT:      -5.4      2.625      4.515
REMARK  4 active torsions:
REMARK  status: ('A' for Active; 'I' for Inactive)
REMARK    1  A    between atoms: C_1  and  C_2 
REMARK    2  A    between atoms: C_5  and  C_12 
REMARK    3  A    between atoms: C_6  and  C_7 
REMARK    4  A    between atoms: C_6  and  C_8 
REMARK       I    between atoms: C_12  and  N_14 
ROOT
ATOM      1  C   LIG d   1       3.777  -0.654  -3.087  0.00  0.00     0.032 C 
ATOM      2  C   LIG d   1       4.389  -1.521  -1.944  0.00  0.00    -0.039 C 
ATOM      3  C   LIG d   1       5.902  -1.565  -2.257  0.00  0.00    -0.037 C 
ATOM      4  C   LIG d   1       6.057  -0.713  -3.554  0.00  0.00     0.060 C 
ATOM      5  C   LIG d   1       4.709  -1.051  -4.285  0.00  0.00    -0.009 C 
ATOM      6  C   LIG d   1       5.763   0.748  -3.092  0.00  0.00     0.021 C 
ATOM      7  C   LIG d   1       4.257   0.777  -2.809  0.00  0.00     0.141 C 
ATOM      8  O   LIG d   1       3.592   1.713  -2.433  0.00  0.00    -0.297 OA
ATOM      9  H   LIG d   1       4.215  -1.052  -0.976  0.00  0.00     0.028 H 
ATOM     10  H   LIG d   1       3.968  -2.526  -1.962  0.00  0.00     0.028 H 
ATOM     11  H   LIG d   1       6.473  -1.123  -1.440  0.00  0.00     0.028 H 
ATOM     12  H   LIG d   1       6.225  -2.591  -2.435  0.00  0.00     0.028 H 
ATOM     13  H   LIG d   1       6.331   0.983  -2.193  0.00  0.00     0.035 H 
ATOM     14  H   LIG d   1       6.002   1.453  -3.889  0.00  0.00     0.035 H 
ENDROOT
BRANCH   4  15
ATOM     15  C   LIG d   1       7.321  -0.932  -4.344  0.00  0.00     0.223 C 
ATOM     16  O   LIG d   1       7.682  -2.058  -4.610  0.00  0.00    -0.275 OA
ATOM     17  N   LIG d   1       8.051   0.124  -4.755  0.00  0.00    -0.301 N 
ATOM     18  C   LIG d   1       9.227  -0.068  -5.615  0.00  0.00     0.015 C 
ATOM     19  C   LIG d   1       7.689   1.489  -4.348  0.00  0.00     0.015 C 
ATOM     20  C   LIG d   1      10.431   0.617  -4.970  0.00  0.00    -0.037 C 
ATOM     21  H   LIG d   1       9.431  -1.133  -5.724  0.00  0.00     0.046 H 
ATOM     22  H   LIG d   1       9.041   0.374  -6.593  0.00  0.00     0.046 H 
ATOM     23  C   LIG d   1      10.092   2.082  -4.687  0.00  0.00    -0.050 C 
ATOM     24  H   LIG d   1      11.285   0.565  -5.646  0.00  0.00     0.028 H 
ATOM     25  H   LIG d   1      10.676   0.113  -4.036  0.00  0.00     0.028 H 
ATOM     26  C   LIG d   1       8.913   2.155  -3.713  0.00  0.00    -0.037 C 
ATOM     27  H   LIG d   1       9.824   2.579  -5.620  0.00  0.00     0.027 H 
ATOM     28  H   LIG d   1      10.957   2.578  -4.247  0.00  0.00     0.027 H 
ATOM     29  H   LIG d   1       8.687   3.198  -3.494  0.00  0.00     0.028 H 
ATOM     30  H   LIG d   1       9.172   1.636  -2.789  0.00  0.00     0.028 H 
ATOM     31  H   LIG d   1       7.374   2.059  -5.221  0.00  0.00     0.046 H 
ATOM     32  H   LIG d   1       6.877   1.449  -3.622  0.00  0.00     0.046 H 
ENDBRANCH   4  15
BRANCH   5  33
ATOM     33  C   LIG d   1       4.481  -0.164  -5.510  0.00  0.00    -0.058 C 
ATOM     34  H   LIG d   1       3.519  -0.408  -5.961  0.00  0.00     0.024 H 
ATOM     35  H   LIG d   1       4.485   0.883  -5.206  0.00  0.00     0.024 H 
ATOM     36  H   LIG d   1       5.276  -0.335  -6.236  0.00  0.00     0.024 H 
ENDBRANCH   5  33
BRANCH   5  37
ATOM     37  C   LIG d   1       4.600  -2.537  -4.631  0.00  0.00    -0.058 C 
ATOM     38  H   LIG d   1       5.084  -2.724  -5.589  0.00  0.00     0.024 H 
ATOM     39  H   LIG d   1       5.090  -3.128  -3.856  0.00  0.00     0.024 H 
ATOM     40  H   LIG d   1       3.549  -2.821  -4.692  0.00  0.00     0.024 H 
ENDBRANCH   5  37
BRANCH   1  41
ATOM     41  C   LIG d   1       2.274  -0.821  -3.318  0.00  0.00    -0.052 C 
ATOM     42  H   LIG d   1       2.010  -0.416  -4.296  0.00  0.00     0.024 H 
ATOM     43  H   LIG d   1       2.015  -1.879  -3.281  0.00  0.00     0.024 H 
ATOM     44  H   LIG d   1       1.725  -0.284  -2.544  0.00  0.00     0.024 H 
ENDBRANCH   1  41
TORSDOF 4
ENDMDL
