MODEL 1
REMARK VINA RESULT:      -5.2      0.000      0.000
REMARK  4 active torsions:
REMARK  status: ('A' for Active; 'I' for Inactive)
REMARK    1  A    between atoms: C_1  and  C_2 
REMARK    2  A    between atoms: C_4  and  N_31 
REMARK    3  A    between atoms: C_14  and  N_31 
REMARK    4  A    between atoms: C_15  and  N_31 
ROOT
ATOM      1  C   LIG d   1       8.024   1.529  -4.018  0.00  0.00     0.140 C 
ATOM      2  H   LIG d   1       8.714   1.204  -3.239  0.00  0.00     0.079 H 
ATOM      3  C   LIG d   1       7.886   0.427  -5.076  0.00  0.00     0.020 C 
ATOM      4  H   LIG d   1       7.126   0.712  -5.805  0.00  0.00     0.089 H 
ATOM      5  C   LIG d   1       7.466  -0.865  -4.373  0.00  0.00     0.022 C 
ATOM      6  C   LIG d   1       6.314  -0.586  -3.441  0.00  0.00    -0.000 A 
ATOM      7  C   LIG d   1       5.545  -1.649  -2.995  0.00  0.00    -0.055 A 
ATOM      8  C   LIG d   1       4.484  -1.429  -2.139  0.00  0.00    -0.061 A 
ATOM      9  C   LIG d   1       4.185  -0.145  -1.723  0.00  0.00    -0.058 A 
ATOM     10  C   LIG d   1       4.946   0.917  -2.165  0.00  0.00    -0.020 A 
ATOM     11  C   LIG d   1       6.015   0.701  -3.029  0.00  0.00     0.124 A 
ATOM     12  O   LIG d   1       6.736   1.772  -3.450  0.00  0.00    -0.483 OA
ATOM     13  H   LIG d   1       7.161  -1.601  -5.117  0.00  0.00     0.037 H 
ATOM     14  H   LIG d   1       8.308  -1.258  -3.801  0.00  0.00     0.037 H 
ATOM     15  H   LIG d   1       5.775  -2.652  -3.319  0.00  0.00     0.062 H 
ATOM     16  H   LIG d   1       3.887  -2.261  -1.794  0.00  0.00     0.062 H 
ATOM     17  H   LIG d   1       3.356   0.026  -1.052  0.00  0.00     0.062 H 
ATOM     18  H   LIG d   1       4.713   1.920  -1.839  0.00  0.00     0.065 H 
ENDROOT
BRANCH   3  19
ATOM     19  N   LIG d   1       9.183   0.252  -5.763  0.00  0.00     0.236 N 
ATOM     20  H   LIG d   1       9.784   1.057  -5.551  0.00  0.00     0.203 HD
BRANCH  19  21
ATOM     21  C   LIG d   1       9.844  -0.981  -5.285  0.00  0.00    -0.043 C 
ATOM     22  H   LIG d   1       9.525  -1.839  -5.876  0.00  0.00     0.078 H 
ATOM     23  H   LIG d   1      10.924  -0.859  -5.377  0.00  0.00     0.078 H 
ATOM     24  H   LIG d   1       9.584  -1.141  -4.240  0.00  0.00     0.078 H 
ENDBRANCH  19  21
BRANCH  19  25
ATOM     25  C   LIG d   1       8.975   0.181  -7.225  0.00  0.00    -0.043 C 
ATOM     26  H   LIG d   1       9.498  -0.691  -7.616  0.00  0.00     0.078 H 
ATOM     27  H   LIG d   1       7.908   0.085  -7.425  0.00  0.00     0.078 H 
ATOM     28  H   LIG d   1       9.356   1.080  -7.709  0.00  0.00     0.078 H 
ENDBRANCH  19  25
ENDBRANCH   3  19
BRANCH   1  29
ATOM     29  C   LIG d   1       8.550   2.809  -4.670  0.00  0.00    -0.022 C 
ATOM     30  H   LIG d   1       7.787   3.218  -5.333  0.00  0.00     0.027 H 
ATOM     31  H   LIG d   1       8.791   3.538  -3.898  0.00  0.00     0.027 H 
ATOM     32  H   LIG d   1       9.446   2.581  -5.247  0.00  0.00     0.027 H 
ENDBRANCH   1  29
TORSDOF 4
ENDMDL
MODEL 2
REMARK VINA RESULT:      -5.0      2.673      3.969
REMARK  4 active torsions:
REMARK  status: ('A' for Active; 'I' for Inactive)
REMARK    1  A    between atoms: C_1  and  C_2 
REMARK    2  A    between atoms: C_4  and  N_31 
REMARK    3  A    between atoms: C_14  and  N_31 
REMARK    4  A    between atoms: C_15  and  N_31 
ROOT
ATOM      1  C   LIG d   1       5.169  -3.112  -4.940  0.00  0.00     0.140 C 
ATOM      2  H   LIG d   1       5.221  -2.509  -5.848  0.00  0.00     0.079 H 
ATOM      3  C   LIG d   1       6.491  -2.995  -4.169  0.00  0.00     0.020 C 
ATOM      4  H   LIG d   1       6.407  -3.521  -3.218  0.00  0.00     0.089 H 
ATOM      5  C   LIG d   1       6.771  -1.513  -3.915  0.00  0.00     0.022 C 
ATOM      6  C   LIG d   1       5.534  -0.848  -3.367  0.00  0.00    -0.000 A 
ATOM      7  C   LIG d   1       5.661   0.374  -2.726  0.00  0.00    -0.055 A 
ATOM      8  C   LIG d   1       4.549   1.011  -2.214  0.00  0.00    -0.061 A 
ATOM      9  C   LIG d   1       3.300   0.431  -2.341  0.00  0.00    -0.058 A 
ATOM     10  C   LIG d   1       3.166  -0.786  -2.977  0.00  0.00    -0.020 A 
ATOM     11  C   LIG d   1       4.285  -1.433  -3.492  0.00  0.00     0.124 A 
ATOM     12  O   LIG d   1       4.116  -2.634  -4.103  0.00  0.00    -0.483 OA
ATOM     13  H   LIG d   1       7.585  -1.415  -3.196  0.00  0.00     0.037 H 
ATOM     14  H   LIG d   1       7.056  -1.031  -4.852  0.00  0.00     0.037 H 
ATOM     15  H   LIG d   1       6.635   0.828  -2.626  0.00  0.00     0.062 H 
ATOM     16  H   LIG d   1       4.653   1.964  -1.716  0.00  0.00     0.062 H 
ATOM     17  H   LIG d   1       2.429   0.931  -1.942  0.00  0.00     0.062 H 
ATOM     18  H   LIG d   1       2.191  -1.239  -3.076  0.00  0.00     0.065 H 
ENDROOT
BRANCH   3  19
ATOM     19  N   LIG d   1       7.573  -3.603  -4.972  0.00  0.00     0.236 N 
ATOM     20  H   LIG d   1       7.178  -4.352  -5.553  0.00  0.00     0.203 HD
BRANCH  19  21
ATOM     21  C   LIG d   1       8.182  -2.583  -5.852  0.00  0.00    -0.043 C 
ATOM     22  H   LIG d   1       8.533  -3.038  -6.778  0.00  0.00     0.078 H 
ATOM     23  H   LIG d   1       7.433  -1.825  -6.082  0.00  0.00     0.078 H 
ATOM     24  H   LIG d   1       9.021  -2.121  -5.333  0.00  0.00     0.078 H 
ENDBRANCH  19  21
BRANCH  19  25
ATOM     25  C   LIG d   1       8.601  -4.180  -4.080  0.00  0.00    -0.043 C 
ATOM     26  H   LIG d   1       9.586  -3.999  -4.509  0.00  0.00     0.078 H 
ATOM     27  H   LIG d   1       8.534  -3.695  -3.106  0.00  0.00     0.078 H 
ATOM     28  H   LIG d   1       8.447  -5.253  -3.964  0.00  0.00     0.078 H 
ENDBRANCH  19  25
ENDBRANCH   3  19
BRANCH   1  29
ATOM     29  C   LIG d   1       4.914  -4.574  -5.309  0.00  0.00    -0.022 C 
ATOM     30  H   LIG d   1       4.136  -4.980  -4.661  0.00  0.00     0.027 H 
ATOM     31  H   LIG d   1       4.591  -4.636  -6.348  0.00  0.00     0.027 H 
ATOM     32  H   LIG d   1       5.831  -5.148  -5.177  0.00  0.00     0.027 H 
ENDBRANCH   1  29
TORSDOF 4
ENDMDL
MODEL 3
REMARK VINA RESULT:      -5.0      3.515      4.196
REMARK  4 active torsions:
REMARK  status: ('A' for Active; 'I' for Inactive)
REMARK    1  A    between atoms: C_1  and  C_2 
REMARK    2  A    between atoms: C_4  and  N_31 
REMARK    3  A    between atoms: C_14  and  N_31 
REMARK    4  A    between atoms: C_15  and  N_31 
ROOT
ATOM      1  C   LIG d   1       4.685  -1.651  -6.122  0.00  0.00     0.140 C 
ATOM      2  H   LIG d   1       5.701  -1.268  -6.225  0.00  0.00     0.079 H 
ATOM      3  C   LIG d   1       4.684  -2.861  -5.180  0.00  0.00     0.020 C 
ATOM      4  H   LIG d   1       3.658  -3.187  -5.003  0.00  0.00     0.089 H 
ATOM      5  C   LIG d   1       5.326  -2.441  -3.856  0.00  0.00     0.022 C 
ATOM      6  C   LIG d   1       4.725  -1.140  -3.389  0.00  0.00    -0.000 A 
ATOM      7  C   LIG d   1       4.880  -0.772  -2.063  0.00  0.00    -0.055 A 
ATOM      8  C   LIG d   1       4.344   0.415  -1.602  0.00  0.00    -0.061 A 
ATOM      9  C   LIG d   1       3.651   1.242  -2.466  0.00  0.00    -0.058 A 
ATOM     10  C   LIG d   1       3.492   0.881  -3.788  0.00  0.00    -0.020 A 
ATOM     11  C   LIG d   1       4.029  -0.316  -4.256  0.00  0.00     0.124 A 
ATOM     12  O   LIG d   1       3.844  -0.642  -5.561  0.00  0.00    -0.483 OA
ATOM     13  H   LIG d   1       5.149  -3.212  -3.106  0.00  0.00     0.037 H 
ATOM     14  H   LIG d   1       6.400  -2.314  -3.998  0.00  0.00     0.037 H 
ATOM     15  H   LIG d   1       5.420  -1.416  -1.386  0.00  0.00     0.062 H 
ATOM     16  H   LIG d   1       4.468   0.697  -0.567  0.00  0.00     0.062 H 
ATOM     17  H   LIG d   1       3.234   2.171  -2.106  0.00  0.00     0.062 H 
ATOM     18  H   LIG d   1       2.951   1.527  -4.463  0.00  0.00     0.065 H 
ENDROOT
BRANCH   3  19
ATOM     19  N   LIG d   1       5.446  -3.962  -5.806  0.00  0.00     0.236 N 
ATOM     20  H   LIG d   1       5.498  -3.797  -6.818  0.00  0.00     0.203 HD
BRANCH  19  21
ATOM     21  C   LIG d   1       6.816  -4.004  -5.254  0.00  0.00    -0.043 C 
ATOM     22  H   LIG d   1       6.954  -4.895  -4.641  0.00  0.00     0.078 H 
ATOM     23  H   LIG d   1       7.528  -4.019  -6.080  0.00  0.00     0.078 H 
ATOM     24  H   LIG d   1       6.982  -3.116  -4.646  0.00  0.00     0.078 H 
ENDBRANCH  19  21
BRANCH  19  25
ATOM     25  C   LIG d   1       4.763  -5.250  -5.565  0.00  0.00    -0.043 C 
ATOM     26  H   LIG d   1       5.511  -6.036  -5.466  0.00  0.00     0.078 H 
ATOM     27  H   LIG d   1       4.189  -5.178  -4.641  0.00  0.00     0.078 H 
ATOM     28  H   LIG d   1       4.094  -5.489  -6.391  0.00  0.00     0.078 H 
ENDBRANCH  19  25
ENDBRANCH   3  19
BRANCH   1  29
ATOM     29  C   LIG d   1       4.150  -2.064  -7.495  0.00  0.00    -0.022 C 
ATOM     30  H   LIG d   1       4.751  -1.595  -8.274  0.00  0.00     0.027 H 
ATOM     31  H   LIG d   1       4.206  -3.148  -7.595  0.00  0.00     0.027 H 
ATOM     32  H   LIG d   1       3.114  -1.742  -7.593  0.00  0.00     0.027 H 
ENDBRANCH   1  29
TORSDOF 4
ENDMDL
MODEL 4
REMARK VINA RESULT:      -4.9      1.329      2.592
REMARK  4 active torsions:
REMARK  status: ('A' for Active; 'I' for Inactive)
REMARK    1  A    between atoms: C_1  and  C_2 
REMARK    2  A    between atoms: C_4  and  N_31 
REMARK    3  A    between atoms: C_14  and  N_31 
REMARK    4  A    between atoms: C_15  and  N_31 
ROOT
ATOM      1  C   LIG d   1       7.999  -0.644  -4.918  0.00  0.00     0.140 C 
ATOM      2  H   LIG d   1       7.389  -0.366  -5.779  0.00  0.00     0.079 H 
ATOM      3  C   LIG d   1       8.481   0.622  -4.197  0.00  0.00     0.020 C 
ATOM      4  H   LIG d   1       9.012   0.345  -3.286  0.00  0.00     0.089 H 
ATOM      5  C   LIG d   1       7.257   1.470  -3.844  0.00  0.00     0.022 C 
ATOM      6  C   LIG d   1       6.209   0.604  -3.195  0.00  0.00    -0.000 A 
ATOM      7  C   LIG d   1       5.197   1.212  -2.469  0.00  0.00    -0.055 A 
ATOM      8  C   LIG d   1       4.219   0.449  -1.863  0.00  0.00    -0.061 A 
ATOM      9  C   LIG d   1       4.245  -0.929  -1.980  0.00  0.00    -0.058 A 
ATOM     10  C   LIG d   1       5.250  -1.541  -2.700  0.00  0.00    -0.020 A 
ATOM     11  C   LIG d   1       6.240  -0.775  -3.310  0.00  0.00     0.124 A 
ATOM     12  O   LIG d   1       7.218  -1.413  -4.003  0.00  0.00    -0.483 OA
ATOM     13  H   LIG d   1       7.552   2.262  -3.155  0.00  0.00     0.037 H 
ATOM     14  H   LIG d   1       6.849   1.914  -4.752  0.00  0.00     0.037 H 
ATOM     15  H   LIG d   1       5.175   2.287  -2.376  0.00  0.00     0.062 H 
ATOM     16  H   LIG d   1       3.432   0.928  -1.299  0.00  0.00     0.062 H 
ATOM     17  H   LIG d   1       3.478  -1.526  -1.508  0.00  0.00     0.062 H 
ATOM     18  H   LIG d   1       5.270  -2.616  -2.791  0.00  0.00     0.065 H 
ENDROOT
BRANCH   3  19
ATOM     19  N   LIG d   1       9.395   1.367  -5.089  0.00  0.00     0.236 N 
ATOM     20  H   LIG d   1       9.932   0.696  -5.651  0.00  0.00     0.203 HD
BRANCH  19  21
ATOM     21  C   LIG d   1       8.617   2.238  -5.995  0.00  0.00    -0.043 C 
ATOM     22  H   LIG d   1       8.624   1.838  -7.008  0.00  0.00     0.078 H 
ATOM     23  H   LIG d   1       7.590   2.293  -5.634  0.00  0.00     0.078 H 
ATOM     24  H   LIG d   1       9.057   3.234  -5.994  0.00  0.00     0.078 H 
ENDBRANCH  19  21
BRANCH  19  25
ATOM     25  C   LIG d   1      10.333   2.179  -4.286  0.00  0.00    -0.043 C 
ATOM     26  H   LIG d   1       9.786   2.650  -3.470  0.00  0.00     0.078 H 
ATOM     27  H   LIG d   1      11.104   1.527  -3.878  0.00  0.00     0.078 H 
ATOM     28  H   LIG d   1      10.797   2.948  -4.904  0.00  0.00     0.078 H 
ENDBRANCH  19  25
ENDBRANCH   3  19
BRANCH   1  29
ATOM     29  C   LIG d   1       9.204  -1.463  -5.385  0.00  0.00    -0.022 C 
ATOM     30  H   LIG d   1       9.879  -0.823  -5.953  0.00  0.00     0.027 H 
ATOM     31  H   LIG d   1       9.727  -1.866  -4.518  0.00  0.00     0.027 H 
ATOM     32  H   LIG d   1       8.863  -2.283  -6.017  0.00  0.00     0.027 H 
ENDBRANCH   1  29
TORSDOF 4
ENDMDL
MODEL 5
REMARK VINA RESULT:      -4.8      3.785      4.632
REMARK  4 active torsions:
REMARK  status: ('A' for Active; 'I' for Inactive)
REMARK    1  A    between atoms: C_1  and  C_2 
REMARK    2  A    between atoms: C_4  and  N_31 
REMARK    3  A    between atoms: C_14  and  N_31 
REMARK    4  A    between atoms: C_15  and  N_31 
ROOT
ATOM      1  C   LIG d   1       4.519  -2.058  -6.482  0.00  0.00     0.140 C 
ATOM      2  H   LIG d   1       3.542  -2.540  -6.444  0.00  0.00     0.079 H 
ATOM      3  C   LIG d   1       4.362  -0.612  -6.970  0.00  0.00     0.020 C 
ATOM      4  H   LIG d   1       5.324  -0.101  -6.920  0.00  0.00     0.089 H 
ATOM      5  C   LIG d   1       3.355   0.096  -6.061  0.00  0.00     0.022 C 
ATOM      6  C   LIG d   1       3.703  -0.163  -4.618  0.00  0.00    -0.000 A 
ATOM      7  C   LIG d   1       3.168   0.665  -3.644  0.00  0.00    -0.055 A 
ATOM      8  C   LIG d   1       3.464   0.454  -2.312  0.00  0.00    -0.061 A 
ATOM      9  C   LIG d   1       4.297  -0.586  -1.944  0.00  0.00    -0.058 A 
ATOM     10  C   LIG d   1       4.835  -1.413  -2.909  0.00  0.00    -0.020 A 
ATOM     11  C   LIG d   1       4.541  -1.203  -4.254  0.00  0.00     0.124 A 
ATOM     12  O   LIG d   1       5.095  -2.032  -5.175  0.00  0.00    -0.483 OA
ATOM     13  H   LIG d   1       3.383   1.169  -6.255  0.00  0.00     0.037 H 
ATOM     14  H   LIG d   1       2.353  -0.281  -6.266  0.00  0.00     0.037 H 
ATOM     15  H   LIG d   1       2.518   1.478  -3.928  0.00  0.00     0.062 H 
ATOM     16  H   LIG d   1       3.044   1.102  -1.556  0.00  0.00     0.062 H 
ATOM     17  H   LIG d   1       4.527  -0.752  -0.902  0.00  0.00     0.062 H 
ATOM     18  H   LIG d   1       5.485  -2.226  -2.622  0.00  0.00     0.065 H 
ENDROOT
BRANCH   3  19
ATOM     19  N   LIG d   1       3.887  -0.624  -8.370  0.00  0.00     0.236 N 
ATOM     20  H   LIG d   1       4.132  -1.524  -8.798  0.00  0.00     0.203 HD
BRANCH  19  21
ATOM     21  C   LIG d   1       2.418  -0.460  -8.405  0.00  0.00    -0.043 C 
ATOM     22  H   LIG d   1       1.963  -0.910  -7.523  0.00  0.00     0.078 H 
ATOM     23  H   LIG d   1       2.183   0.604  -8.431  0.00  0.00     0.078 H 
ATOM     24  H   LIG d   1       2.028  -0.941  -9.301  0.00  0.00     0.078 H 
ENDBRANCH  19  21
BRANCH  19  25
ATOM     25  C   LIG d   1       4.535   0.463  -9.133  0.00  0.00    -0.043 C 
ATOM     26  H   LIG d   1       4.125   0.482 -10.142  0.00  0.00     0.078 H 
ATOM     27  H   LIG d   1       4.329   1.412  -8.640  0.00  0.00     0.078 H 
ATOM     28  H   LIG d   1       5.613   0.305  -9.183  0.00  0.00     0.078 H 
ENDBRANCH  19  25
ENDBRANCH   3  19
BRANCH   1  29
ATOM     29  C   LIG d   1       5.435  -2.828  -7.435  0.00  0.00    -0.022 C 
ATOM     30  H   LIG d   1       5.588  -2.243  -8.342  0.00  0.00     0.027 H 
ATOM     31  H   LIG d   1       6.395  -3.006  -6.951  0.00  0.00     0.027 H 
ATOM     32  H   LIG d   1       4.974  -3.782  -7.691  0.00  0.00     0.027 H 
ENDBRANCH   1  29
TORSDOF 4
ENDMDL
MODEL 6
REMARK VINA RESULT:      -4.7      3.881      4.242
REMARK  4 active torsions:
REMARK  status: ('A' for Active; 'I' for Inactive)
REMARK    1  A    between atoms: C_1  and  C_2 
REMARK    2  A    between atoms: C_4  and  N_31 
REMARK    3  A    between atoms: C_14  and  N_31 
REMARK    4  A    between atoms: C_15  and  N_31 
ROOT
ATOM      1  C   LIG d   1       3.937   0.161  -7.014  0.00  0.00     0.140 C 
ATOM      2  H   LIG d   1       4.965   0.514  -6.921  0.00  0.00     0.079 H 
ATOM      3  C   LIG d   1       3.935  -1.342  -7.320  0.00  0.00     0.020 C 
ATOM      4  H   LIG d   1       2.910  -1.714  -7.321  0.00  0.00     0.089 H 
ATOM      5  C   LIG d   1       4.742  -2.056  -6.234  0.00  0.00     0.022 C 
ATOM      6  C   LIG d   1       4.299  -1.578  -4.875  0.00  0.00    -0.000 A 
ATOM      7  C   LIG d   1       4.618  -2.341  -3.763  0.00  0.00    -0.055 A 
ATOM      8  C   LIG d   1       4.230  -1.931  -2.503  0.00  0.00    -0.061 A 
ATOM      9  C   LIG d   1       3.521  -0.754  -2.345  0.00  0.00    -0.058 A 
ATOM     10  C   LIG d   1       3.198   0.009  -3.449  0.00  0.00    -0.020 A 
ATOM     11  C   LIG d   1       3.586  -0.402  -4.721  0.00  0.00     0.124 A 
ATOM     12  O   LIG d   1       3.243   0.371  -5.784  0.00  0.00    -0.483 OA
ATOM     13  H   LIG d   1       4.582  -3.132  -6.310  0.00  0.00     0.037 H 
ATOM     14  H   LIG d   1       5.802  -1.838  -6.367  0.00  0.00     0.037 H 
ATOM     15  H   LIG d   1       5.171  -3.260  -3.883  0.00  0.00     0.062 H 
ATOM     16  H   LIG d   1       4.482  -2.529  -1.639  0.00  0.00     0.062 H 
ATOM     17  H   LIG d   1       3.219  -0.433  -1.360  0.00  0.00     0.062 H 
ATOM     18  H   LIG d   1       2.645   0.928  -3.326  0.00  0.00     0.065 H 
ENDROOT
BRANCH   3  19
ATOM     19  N   LIG d   1       4.537  -1.565  -8.652  0.00  0.00     0.236 N 
ATOM     20  H   LIG d   1       4.462  -0.700  -9.200  0.00  0.00     0.203 HD
BRANCH  19  21
ATOM     21  C   LIG d   1       5.965  -1.919  -8.506  0.00  0.00    -0.043 C 
ATOM     22  H   LIG d   1       6.100  -2.638  -7.699  0.00  0.00     0.078 H 
ATOM     23  H   LIG d   1       6.317  -2.354  -9.442  0.00  0.00     0.078 H 
ATOM     24  H   LIG d   1       6.535  -1.016  -8.288  0.00  0.00     0.078 H 
ENDBRANCH  19  21
BRANCH  19  25
ATOM     25  C   LIG d   1       3.818  -2.645  -9.358  0.00  0.00    -0.043 C 
ATOM     26  H   LIG d   1       2.981  -2.975  -8.743  0.00  0.00     0.078 H 
ATOM     27  H   LIG d   1       3.441  -2.257 -10.305  0.00  0.00     0.078 H 
ATOM     28  H   LIG d   1       4.483  -3.486  -9.549  0.00  0.00     0.078 H 
ENDBRANCH  19  25
ENDBRANCH   3  19
BRANCH   1  29
ATOM     29  C   LIG d   1       3.233   0.919  -8.141  0.00  0.00    -0.022 C 
ATOM     30  H   LIG d   1       2.843   1.861  -7.755  0.00  0.00     0.027 H 
ATOM     31  H   LIG d   1       3.943   1.120  -8.943  0.00  0.00     0.027 H 
ATOM     32  H   LIG d   1       2.410   0.317  -8.525  0.00  0.00     0.027 H 
ENDBRANCH   1  29
TORSDOF 4
ENDMDL
MODEL 7
REMARK VINA RESULT:      -4.5      4.091      5.229
REMARK  4 active torsions:
REMARK  status: ('A' for Active; 'I' for Inactive)
REMARK    1  A    between atoms: C_1  and  C_2 
REMARK    2  A    between atoms: C_4  and  N_31 
REMARK    3  A    between atoms: C_14  and  N_31 
REMARK    4  A    between atoms: C_15  and  N_31 
ROOT
ATOM      1  C   LIG d   1       3.427   0.290  -4.168  0.00  0.00     0.140 C 
ATOM      2  H   LIG d   1       2.617  -0.412  -3.964  0.00  0.00     0.079 H 
ATOM      3  C   LIG d   1       4.747  -0.478  -4.322  0.00  0.00     0.020 C 
ATOM      4  H   LIG d   1       5.539   0.211  -4.617  0.00  0.00     0.089 H 
ATOM      5  C   LIG d   1       4.560  -1.542  -5.405  0.00  0.00     0.022 C 
ATOM      6  C   LIG d   1       3.918  -0.925  -6.621  0.00  0.00    -0.000 A 
ATOM      7  C   LIG d   1       3.996  -1.596  -7.830  0.00  0.00    -0.055 A 
ATOM      8  C   LIG d   1       3.417  -1.060  -8.963  0.00  0.00    -0.061 A 
ATOM      9  C   LIG d   1       2.754   0.151  -8.894  0.00  0.00    -0.058 A 
ATOM     10  C   LIG d   1       2.674   0.826  -7.692  0.00  0.00    -0.020 A 
ATOM     11  C   LIG d   1       3.258   0.290  -6.549  0.00  0.00     0.124 A 
ATOM     12  O   LIG d   1       3.166   0.987  -5.387  0.00  0.00    -0.483 OA
ATOM     13  H   LIG d   1       5.532  -1.956  -5.678  0.00  0.00     0.037 H 
ATOM     14  H   LIG d   1       3.922  -2.340  -5.024  0.00  0.00     0.037 H 
ATOM     15  H   LIG d   1       4.514  -2.541  -7.887  0.00  0.00     0.062 H 
ATOM     16  H   LIG d   1       3.480  -1.587  -9.904  0.00  0.00     0.062 H 
ATOM     17  H   LIG d   1       2.299   0.570  -9.779  0.00  0.00     0.062 H 
ATOM     18  H   LIG d   1       2.156   1.771  -7.638  0.00  0.00     0.065 H 
ENDROOT
BRANCH   3  19
ATOM     19  N   LIG d   1       5.097  -1.101  -3.029  0.00  0.00     0.236 N 
ATOM     20  H   LIG d   1       5.005  -0.399  -2.284  0.00  0.00     0.203 HD
BRANCH  19  21
ATOM     21  C   LIG d   1       4.179  -2.224  -2.745  0.00  0.00    -0.043 C 
ATOM     22  H   LIG d   1       3.143  -1.888  -2.779  0.00  0.00     0.078 H 
ATOM     23  H   LIG d   1       4.332  -3.002  -3.494  0.00  0.00     0.078 H 
ATOM     24  H   LIG d   1       4.399  -2.623  -1.756  0.00  0.00     0.078 H 
ENDBRANCH  19  21
BRANCH  19  25
ATOM     25  C   LIG d   1       6.493  -1.585  -3.062  0.00  0.00    -0.043 C 
ATOM     26  H   LIG d   1       7.025  -1.194  -2.196  0.00  0.00     0.078 H 
ATOM     27  H   LIG d   1       6.489  -2.674  -3.025  0.00  0.00     0.078 H 
ATOM     28  H   LIG d   1       6.990  -1.254  -3.974  0.00  0.00     0.078 H 
ENDBRANCH  19  25
ENDBRANCH   3  19
BRANCH   1  29
ATOM     29  C   LIG d   1       3.543   1.290  -3.016  0.00  0.00    -0.022 C 
ATOM     30  H   LIG d   1       4.587   1.377  -2.716  0.00  0.00     0.027 H 
ATOM     31  H   LIG d   1       3.175   2.262  -3.341  0.00  0.00     0.027 H 
ATOM     32  H   LIG d   1       2.950   0.940  -2.171  0.00  0.00     0.027 H 
ENDBRANCH   1  29
TORSDOF 4
ENDMDL
MODEL 8
REMARK VINA RESULT:      -4.2      3.196      4.234
REMARK  4 active torsions:
REMARK  status: ('A' for Active; 'I' for Inactive)
REMARK    1  A    between atoms: C_1  and  C_2 
REMARK    2  A    between atoms: C_4  and  N_31 
REMARK    3  A    between atoms: C_14  and  N_31 
REMARK    4  A    between atoms: C_15  and  N_31 
ROOT
ATOM      1  C   LIG d   1       6.952  -2.966  -5.289  0.00  0.00     0.140 C 
ATOM      2  H   LIG d   1       7.334  -3.639  -4.520  0.00  0.00     0.079 H 
ATOM      3  C   LIG d   1       5.550  -3.419  -5.718  0.00  0.00     0.020 C 
ATOM      4  H   LIG d   1       5.130  -2.696  -6.418  0.00  0.00     0.089 H 
ATOM      5  C   LIG d   1       4.668  -3.503  -4.471  0.00  0.00     0.022 C 
ATOM      6  C   LIG d   1       4.821  -2.245  -3.655  0.00  0.00    -0.000 A 
ATOM      7  C   LIG d   1       3.858  -1.946  -2.704  0.00  0.00    -0.055 A 
ATOM      8  C   LIG d   1       3.969  -0.803  -1.937  0.00  0.00    -0.061 A 
ATOM      9  C   LIG d   1       5.043   0.049  -2.115  0.00  0.00    -0.058 A 
ATOM     10  C   LIG d   1       6.004  -0.242  -3.062  0.00  0.00    -0.020 A 
ATOM     11  C   LIG d   1       5.896  -1.392  -3.838  0.00  0.00     0.124 A 
ATOM     12  O   LIG d   1       6.856  -1.641  -4.765  0.00  0.00    -0.483 OA
ATOM     13  H   LIG d   1       3.626  -3.618  -4.770  0.00  0.00     0.037 H 
ATOM     14  H   LIG d   1       4.968  -4.363  -3.871  0.00  0.00     0.037 H 
ATOM     15  H   LIG d   1       3.019  -2.609  -2.563  0.00  0.00     0.062 H 
ATOM     16  H   LIG d   1       3.216  -0.575  -1.197  0.00  0.00     0.062 H 
ATOM     17  H   LIG d   1       5.130   0.942  -1.514  0.00  0.00     0.062 H 
ATOM     18  H   LIG d   1       6.843   0.423  -3.201  0.00  0.00     0.065 H 
ENDROOT
BRANCH   3  19
ATOM     19  N   LIG d   1       5.650  -4.738  -6.379  0.00  0.00     0.236 N 
ATOM     20  H   LIG d   1       6.642  -4.967  -6.519  0.00  0.00     0.203 HD
BRANCH  19  21
ATOM     21  C   LIG d   1       5.033  -5.776  -5.528  0.00  0.00    -0.043 C 
ATOM     22  H   LIG d   1       4.529  -5.322  -4.676  0.00  0.00     0.078 H 
ATOM     23  H   LIG d   1       4.309  -6.334  -6.122  0.00  0.00     0.078 H 
ATOM     24  H   LIG d   1       5.810  -6.452  -5.172  0.00  0.00     0.078 H 
ENDBRANCH  19  21
BRANCH  19  25
ATOM     25  C   LIG d   1       4.978  -4.696  -7.694  0.00  0.00    -0.043 C 
ATOM     26  H   LIG d   1       5.730  -4.760  -8.480  0.00  0.00     0.078 H 
ATOM     27  H   LIG d   1       4.300  -5.546  -7.771  0.00  0.00     0.078 H 
ATOM     28  H   LIG d   1       4.414  -3.770  -7.806  0.00  0.00     0.078 H 
ENDBRANCH  19  25
ENDBRANCH   3  19
BRANCH   1  29
ATOM     29  C   LIG d   1       7.891  -2.978  -6.497  0.00  0.00    -0.022 C 
ATOM     30  H   LIG d   1       7.847  -3.954  -6.980  0.00  0.00     0.027 H 
ATOM     31  H   LIG d   1       7.584  -2.207  -7.203  0.00  0.00     0.027 H 
ATOM     32  H   LIG d   1       8.911  -2.783  -6.166  0.00  0.00     0.027 H 
ENDBRANCH   1  29
TORSDOF 4
ENDMDL
MODEL 9
REMARK VINA RESULT:      -4.2      1.924      4.599
REMARK  4 active torsions:
REMARK  status: ('A' for Active; 'I' for Inactive)
REMARK    1  A    between atoms: C_1  and  C_2 
REMARK    2  A    between atoms: C_4  and  N_31 
REMARK    3  A    between atoms: C_14  and  N_31 
REMARK    4  A    between atoms: C_15  and  N_31 
ROOT
ATOM      1  C   LIG d   1       5.373   0.953  -3.072  0.00  0.00     0.140 C 
ATOM      2  H   LIG d   1       4.788   1.529  -3.790  0.00  0.00     0.079 H 
ATOM      3  C   LIG d   1       5.626  -0.456  -3.626  0.00  0.00     0.020 C 
ATOM      4  H   LIG d   1       6.288  -1.000  -2.952  0.00  0.00     0.089 H 
ATOM      5  C   LIG d   1       6.286  -0.321  -5.000  0.00  0.00     0.022 C 
ATOM      6  C   LIG d   1       7.429   0.659  -4.921  0.00  0.00    -0.000 A 
ATOM      7  C   LIG d   1       8.382   0.654  -5.927  0.00  0.00    -0.055 A 
ATOM      8  C   LIG d   1       9.440   1.540  -5.887  0.00  0.00    -0.061 A 
ATOM      9  C   LIG d   1       9.552   2.438  -4.842  0.00  0.00    -0.058 A 
ATOM     10  C   LIG d   1       8.607   2.447  -3.837  0.00  0.00    -0.020 A 
ATOM     11  C   LIG d   1       7.540   1.554  -3.871  0.00  0.00     0.124 A 
ATOM     12  O   LIG d   1       6.635   1.587  -2.860  0.00  0.00    -0.483 OA
ATOM     13  H   LIG d   1       6.663  -1.294  -5.318  0.00  0.00     0.037 H 
ATOM     14  H   LIG d   1       5.552   0.036  -5.722  0.00  0.00     0.037 H 
ATOM     15  H   LIG d   1       8.297  -0.046  -6.744  0.00  0.00     0.062 H 
ATOM     16  H   LIG d   1      10.181   1.532  -6.674  0.00  0.00     0.062 H 
ATOM     17  H   LIG d   1      10.379   3.133  -4.812  0.00  0.00     0.062 H 
ATOM     18  H   LIG d   1       8.694   3.149  -3.021  0.00  0.00     0.065 H 
ENDROOT
BRANCH   3  19
ATOM     19  N   LIG d   1       4.338  -1.172  -3.731  0.00  0.00     0.236 N 
ATOM     20  H   LIG d   1       3.784  -0.989  -2.886  0.00  0.00     0.203 HD
BRANCH  19  21
ATOM     21  C   LIG d   1       3.588  -0.690  -4.911  0.00  0.00    -0.043 C 
ATOM     22  H   LIG d   1       2.564  -1.060  -4.889  0.00  0.00     0.078 H 
ATOM     23  H   LIG d   1       3.580   0.400  -4.901  0.00  0.00     0.078 H 
ATOM     24  H   LIG d   1       4.083  -1.042  -5.815  0.00  0.00     0.078 H 
ENDBRANCH  19  21
BRANCH  19  25
ATOM     25  C   LIG d   1       4.576  -2.626  -3.843  0.00  0.00    -0.043 C 
ATOM     26  H   LIG d   1       4.317  -3.102  -2.897  0.00  0.00     0.078 H 
ATOM     27  H   LIG d   1       3.944  -3.027  -4.635  0.00  0.00     0.078 H 
ATOM     28  H   LIG d   1       5.622  -2.826  -4.075  0.00  0.00     0.078 H 
ENDBRANCH  19  25
ENDBRANCH   3  19
BRANCH   1  29
ATOM     29  C   LIG d   1       4.613   0.858  -1.748  0.00  0.00    -0.022 C 
ATOM     30  H   LIG d   1       3.574   1.147  -1.905  0.00  0.00     0.027 H 
ATOM     31  H   LIG d   1       4.654  -0.166  -1.378  0.00  0.00     0.027 H 
ATOM     32  H   LIG d   1       5.069   1.527  -1.019  0.00  0.00     0.027 H 
ENDBRANCH   1  29
TORSDOF 4
ENDMDL
MODEL 10
REMARK VINA RESULT:      -4.1      5.719      8.219
REMARK  4 active torsions:
REMARK  status: ('A' for Active; 'I' for Inactive)
REMARK    1  A    between atoms: C_1  and  C_2 
REMARK    2  A    between atoms: C_4  and  N_31 
REMARK    3  A    between atoms: C_14  and  N_31 
REMARK    4  A    between atoms: C_15  and  N_31 
ROOT
ATOM      1  C   LIG d   1      10.918   6.527  -0.697  0.00  0.00     0.140 C 
ATOM      2  H   LIG d   1      11.853   6.829  -1.170  0.00  0.00     0.079 H 
ATOM      3  C   LIG d   1       9.784   7.451  -1.161  0.00  0.00     0.020 C 
ATOM      4  H   LIG d   1       8.834   7.094  -0.762  0.00  0.00     0.089 H 
ATOM      5  C   LIG d   1       9.741   7.429  -2.690  0.00  0.00     0.022 C 
ATOM      6  C   LIG d   1       9.781   6.004  -3.180  0.00  0.00    -0.000 A 
ATOM      7  C   LIG d   1       9.383   5.735  -4.479  0.00  0.00    -0.055 A 
ATOM      8  C   LIG d   1       9.409   4.441  -4.961  0.00  0.00    -0.061 A 
ATOM      9  C   LIG d   1       9.835   3.408  -4.147  0.00  0.00    -0.058 A 
ATOM     10  C   LIG d   1      10.231   3.670  -2.851  0.00  0.00    -0.020 A 
ATOM     11  C   LIG d   1      10.204   4.972  -2.361  0.00  0.00     0.124 A 
ATOM     12  O   LIG d   1      10.593   5.190  -1.079  0.00  0.00    -0.483 OA
ATOM     13  H   LIG d   1       8.823   7.906  -3.034  0.00  0.00     0.037 H 
ATOM     14  H   LIG d   1      10.600   7.973  -3.085  0.00  0.00     0.037 H 
ATOM     15  H   LIG d   1       9.049   6.539  -5.117  0.00  0.00     0.062 H 
ATOM     16  H   LIG d   1       9.098   4.236  -5.975  0.00  0.00     0.062 H 
ATOM     17  H   LIG d   1       9.857   2.396  -4.524  0.00  0.00     0.062 H 
ATOM     18  H   LIG d   1      10.564   2.863  -2.216  0.00  0.00     0.065 H 
ENDROOT
BRANCH   3  19
ATOM     19  N   LIG d   1      10.041   8.819  -0.663  0.00  0.00     0.236 N 
ATOM     20  H   LIG d   1      10.381   8.763   0.305  0.00  0.00     0.203 HD
BRANCH  19  21
ATOM     21  C   LIG d   1      11.072   9.473  -1.496  0.00  0.00    -0.043 C 
ATOM     22  H   LIG d   1      11.461   8.777  -2.238  0.00  0.00     0.078 H 
ATOM     23  H   LIG d   1      10.624  10.329  -2.002  0.00  0.00     0.078 H 
ATOM     24  H   LIG d   1      11.884   9.813  -0.856  0.00  0.00     0.078 H 
ENDBRANCH  19  21
BRANCH  19  25
ATOM     25  C   LIG d   1       8.793   9.609  -0.689  0.00  0.00    -0.043 C 
ATOM     26  H   LIG d   1       7.951   8.950  -0.478  0.00  0.00     0.078 H 
ATOM     27  H   LIG d   1       8.849  10.382   0.077  0.00  0.00     0.078 H 
ATOM     28  H   LIG d   1       8.655  10.074  -1.665  0.00  0.00     0.078 H 
ENDBRANCH  19  25
ENDBRANCH   3  19
BRANCH   1  29
ATOM     29  C   LIG d   1      11.061   6.610   0.824  0.00  0.00    -0.022 C 
ATOM     30  H   LIG d   1      11.876   7.291   1.074  0.00  0.00     0.027 H 
ATOM     31  H   LIG d   1      10.132   6.979   1.257  0.00  0.00     0.027 H 
ATOM     32  H   LIG d   1      11.281   5.620   1.223  0.00  0.00     0.027 H 
ENDBRANCH   1  29
TORSDOF 4
ENDMDL
