MODEL 1
REMARK VINA RESULT:      -3.9      0.000      0.000
REMARK  10 active torsions:
REMARK  status: ('A' for Active; 'I' for Inactive)
REMARK    1  A    between atoms: C_1  and  C_2 
REMARK    2  A    between atoms: C_2  and  O_4 
REMARK    3  A    between atoms: O_4  and  C_5 
REMARK    4  A    between atoms: C_5  and  C_7 
REMARK    5  A    between atoms: C_5  and  C_11 
REMARK    6  A    between atoms: C_7  and  C_8 
REMARK    7  A    between atoms: C_11  and  N_12 
REMARK    8  A    between atoms: N_12  and  C_13 
REMARK    9  A    between atoms: N_12  and  C_14 
REMARK   10  A    between atoms: N_12  and  C_15 
ROOT
ATOM      1  C   LIG d   1       5.857  -2.365  -3.610  0.00  0.00     0.007 C 
ATOM      2  H   LIG d   1       6.130  -2.592  -2.579  0.00  0.00     0.085 H 
ATOM      3  H   LIG d   1       5.252  -3.178  -4.012  0.00  0.00     0.085 H 
ENDROOT
BRANCH   1   4
ATOM      4  C   LIG d   1       5.056  -1.063  -3.653  0.00  0.00     0.147 C 
ATOM      5  H   LIG d   1       5.688  -0.261  -4.034  0.00  0.00     0.079 H 
BRANCH   4   6
ATOM      6  O   LIG d   1       3.925  -1.227  -4.511  0.00  0.00    -0.456 OA
BRANCH   6   7
ATOM      7  C   LIG d   1       3.652  -0.220  -5.357  0.00  0.00     0.304 C 
ATOM      8  O   LIG d   1       4.430   0.053  -6.240  0.00  0.00    -0.251 OA
BRANCH   7   9
ATOM      9  C   LIG d   1       2.377   0.568  -5.204  0.00  0.00     0.033 C 
ATOM     10  H   LIG d   1       2.487   1.283  -4.389  0.00  0.00     0.034 H 
ATOM     11  H   LIG d   1       2.168   1.102  -6.131  0.00  0.00     0.034 H 
ATOM     12  H   LIG d   1       1.555  -0.112  -4.982  0.00  0.00     0.034 H 
ENDBRANCH   7   9
ENDBRANCH   6   7
ENDBRANCH   4   6
BRANCH   4  13
ATOM     13  C   LIG d   1       4.580  -0.710  -2.242  0.00  0.00     0.029 C 
ATOM     14  H   LIG d   1       3.587  -1.130  -2.078  0.00  0.00     0.036 H 
ATOM     15  H   LIG d   1       5.274  -1.124  -1.510  0.00  0.00     0.036 H 
BRANCH  13  16
ATOM     16  C   LIG d   1       4.523   0.787  -2.090  0.00  0.00     0.045 C 
ATOM     17  O   LIG d   1       3.455   1.339  -1.880  0.00  0.00    -0.550 OA
ATOM     18  O   LIG d   1       5.543   1.449  -2.177  0.00  0.00    -0.550 OA
ENDBRANCH  13  16
ENDBRANCH   4  13
ENDBRANCH   1   4
BRANCH   1  19
ATOM     19  N   LIG d   1       7.076  -2.218  -4.417  0.00  0.00     0.239 N 
BRANCH  19  20
ATOM     20  C   LIG d   1       8.149  -3.036  -3.838  0.00  0.00    -0.042 C 
ATOM     21  H   LIG d   1       7.952  -3.195  -2.778  0.00  0.00     0.078 H 
ATOM     22  H   LIG d   1       8.189  -3.998  -4.348  0.00  0.00     0.078 H 
ATOM     23  H   LIG d   1       9.103  -2.521  -3.957  0.00  0.00     0.078 H 
ENDBRANCH  19  20
BRANCH  19  24
ATOM     24  C   LIG d   1       6.809  -2.660  -5.792  0.00  0.00    -0.042 C 
ATOM     25  H   LIG d   1       6.976  -3.735  -5.868  0.00  0.00     0.078 H 
ATOM     26  H   LIG d   1       5.776  -2.433  -6.054  0.00  0.00     0.078 H 
ATOM     27  H   LIG d   1       7.479  -2.140  -6.477  0.00  0.00     0.078 H 
ENDBRANCH  19  24
BRANCH  19  28
ATOM     28  C   LIG d   1       7.487  -0.807  -4.429  0.00  0.00    -0.042 C 
ATOM     29  H   LIG d   1       6.603  -0.171  -4.469  0.00  0.00     0.078 H 
ATOM     30  H   LIG d   1       8.052  -0.586  -3.523  0.00  0.00     0.078 H 
ATOM     31  H   LIG d   1       8.111  -0.618  -5.301  0.00  0.00     0.078 H 
ENDBRANCH  19  28
ENDBRANCH   1  19
TORSDOF 10
ENDMDL
MODEL 2
REMARK VINA RESULT:      -3.7      2.227      4.239
REMARK  10 active torsions:
REMARK  status: ('A' for Active; 'I' for Inactive)
REMARK    1  A    between atoms: C_1  and  C_2 
REMARK    2  A    between atoms: C_2  and  O_4 
REMARK    3  A    between atoms: O_4  and  C_5 
REMARK    4  A    between atoms: C_5  and  C_7 
REMARK    5  A    between atoms: C_5  and  C_11 
REMARK    6  A    between atoms: C_7  and  C_8 
REMARK    7  A    between atoms: C_11  and  N_12 
REMARK    8  A    between atoms: N_12  and  C_13 
REMARK    9  A    between atoms: N_12  and  C_14 
REMARK   10  A    between atoms: N_12  and  C_15 
ROOT
ATOM      1  C   LIG d   1       3.548  -0.170  -5.890  0.00  0.00     0.007 C 
ATOM      2  H   LIG d   1       2.710  -0.868  -5.860  0.00  0.00     0.085 H 
ATOM      3  H   LIG d   1       3.168   0.851  -5.927  0.00  0.00     0.085 H 
ENDROOT
BRANCH   1   4
ATOM      4  C   LIG d   1       4.406  -0.350  -4.637  0.00  0.00     0.147 C 
ATOM      5  H   LIG d   1       5.441  -0.528  -4.929  0.00  0.00     0.079 H 
BRANCH   4   6
ATOM      6  O   LIG d   1       4.335   0.832  -3.836  0.00  0.00    -0.456 OA
BRANCH   6   7
ATOM      7  C   LIG d   1       5.332   1.034  -2.959  0.00  0.00     0.304 C 
ATOM      8  O   LIG d   1       5.080   1.218  -1.792  0.00  0.00    -0.251 OA
BRANCH   7   9
ATOM      9  C   LIG d   1       6.763   1.032  -3.431  0.00  0.00     0.033 C 
ATOM     10  H   LIG d   1       7.028   2.026  -3.790  0.00  0.00     0.034 H 
ATOM     11  H   LIG d   1       7.417   0.757  -2.604  0.00  0.00     0.034 H 
ATOM     12  H   LIG d   1       6.877   0.312  -4.241  0.00  0.00     0.034 H 
ENDBRANCH   7   9
ENDBRANCH   6   7
ENDBRANCH   4   6
BRANCH   4  13
ATOM     13  C   LIG d   1       3.891  -1.544  -3.831  0.00  0.00     0.029 C 
ATOM     14  H   LIG d   1       3.855  -1.280  -2.774  0.00  0.00     0.036 H 
ATOM     15  H   LIG d   1       2.890  -1.808  -4.174  0.00  0.00     0.036 H 
BRANCH  13  16
ATOM     16  C   LIG d   1       4.816  -2.718  -4.024  0.00  0.00     0.045 C 
ATOM     17  O   LIG d   1       6.021  -2.571  -3.905  0.00  0.00    -0.550 OA
ATOM     18  O   LIG d   1       4.360  -3.814  -4.300  0.00  0.00    -0.550 OA
ENDBRANCH  13  16
ENDBRANCH   4  13
ENDBRANCH   1   4
BRANCH   1  19
ATOM     19  N   LIG d   1       4.361  -0.434  -7.084  0.00  0.00     0.239 N 
BRANCH  19  20
ATOM     20  C   LIG d   1       4.008   0.526  -8.139  0.00  0.00    -0.042 C 
ATOM     21  H   LIG d   1       4.742   0.467  -8.943  0.00  0.00     0.078 H 
ATOM     22  H   LIG d   1       3.019   0.288  -8.531  0.00  0.00     0.078 H 
ATOM     23  H   LIG d   1       4.003   1.535  -7.725  0.00  0.00     0.078 H 
ENDBRANCH  19  20
BRANCH  19  24
ATOM     24  C   LIG d   1       5.784  -0.292  -6.749  0.00  0.00    -0.042 C 
ATOM     25  H   LIG d   1       6.000  -0.849  -5.837  0.00  0.00     0.078 H 
ATOM     26  H   LIG d   1       6.391  -0.683  -7.565  0.00  0.00     0.078 H 
ATOM     27  H   LIG d   1       6.018   0.761  -6.596  0.00  0.00     0.078 H 
ENDBRANCH  19  24
BRANCH  19  28
ATOM     28  C   LIG d   1       4.104  -1.800  -7.560  0.00  0.00    -0.042 C 
ATOM     29  H   LIG d   1       3.711  -2.402  -6.740  0.00  0.00     0.078 H 
ATOM     30  H   LIG d   1       3.377  -1.772  -8.371  0.00  0.00     0.078 H 
ATOM     31  H   LIG d   1       5.033  -2.240  -7.920  0.00  0.00     0.078 H 
ENDBRANCH  19  28
ENDBRANCH   1  19
TORSDOF 10
ENDMDL
MODEL 3
REMARK VINA RESULT:      -3.7      2.658      4.188
REMARK  10 active torsions:
REMARK  status: ('A' for Active; 'I' for Inactive)
REMARK    1  A    between atoms: C_1  and  C_2 
REMARK    2  A    between atoms: C_2  and  O_4 
REMARK    3  A    between atoms: O_4  and  C_5 
REMARK    4  A    between atoms: C_5  and  C_7 
REMARK    5  A    between atoms: C_5  and  C_11 
REMARK    6  A    between atoms: C_7  and  C_8 
REMARK    7  A    between atoms: C_11  and  N_12 
REMARK    8  A    between atoms: N_12  and  C_13 
REMARK    9  A    between atoms: N_12  and  C_14 
REMARK   10  A    between atoms: N_12  and  C_15 
ROOT
ATOM      1  C   LIG d   1       5.060  -0.044  -4.051  0.00  0.00     0.007 C 
ATOM      2  H   LIG d   1       5.909  -0.561  -3.603  0.00  0.00     0.085 H 
ATOM      3  H   LIG d   1       5.372   0.947  -4.381  0.00  0.00     0.085 H 
ENDROOT
BRANCH   1   4
ATOM      4  C   LIG d   1       4.551  -0.845  -5.251  0.00  0.00     0.147 C 
ATOM      5  H   LIG d   1       3.514  -1.135  -5.079  0.00  0.00     0.079 H 
BRANCH   4   6
ATOM      6  O   LIG d   1       4.631  -0.041  -6.430  0.00  0.00    -0.456 OA
BRANCH   6   7
ATOM      7  C   LIG d   1       3.474   0.260  -7.041  0.00  0.00     0.304 C 
ATOM      8  O   LIG d   1       2.880   1.270  -6.746  0.00  0.00    -0.251 OA
BRANCH   7   9
ATOM      9  C   LIG d   1       2.916  -0.663  -8.094  0.00  0.00     0.033 C 
ATOM     10  H   LIG d   1       3.595  -0.693  -8.946  0.00  0.00     0.034 H 
ATOM     11  H   LIG d   1       2.810  -1.665  -7.679  0.00  0.00     0.034 H 
ATOM     12  H   LIG d   1       1.943  -0.298  -8.418  0.00  0.00     0.034 H 
ENDBRANCH   7   9
ENDBRANCH   6   7
ENDBRANCH   4   6
BRANCH   4  13
ATOM     13  C   LIG d   1       5.408  -2.099  -5.429  0.00  0.00     0.029 C 
ATOM     14  H   LIG d   1       5.715  -2.184  -6.472  0.00  0.00     0.036 H 
ATOM     15  H   LIG d   1       6.292  -2.028  -4.795  0.00  0.00     0.036 H 
BRANCH  13  16
ATOM     16  C   LIG d   1       4.608  -3.315  -5.041  0.00  0.00     0.045 C 
ATOM     17  O   LIG d   1       4.221  -4.090  -5.900  0.00  0.00    -0.550 OA
ATOM     18  O   LIG d   1       4.347  -3.525  -3.869  0.00  0.00    -0.550 OA
ENDBRANCH  13  16
ENDBRANCH   4  13
ENDBRANCH   1   4
BRANCH   1  19
ATOM     19  N   LIG d   1       3.986   0.087  -3.057  0.00  0.00     0.239 N 
BRANCH  19  20
ATOM     20  C   LIG d   1       4.356  -0.644  -1.838  0.00  0.00    -0.042 C 
ATOM     21  H   LIG d   1       5.158  -1.346  -2.065  0.00  0.00     0.078 H 
ATOM     22  H   LIG d   1       4.694   0.061  -1.079  0.00  0.00     0.078 H 
ATOM     23  H   LIG d   1       3.489  -1.191  -1.466  0.00  0.00     0.078 H 
ENDBRANCH  19  20
BRANCH  19  24
ATOM     24  C   LIG d   1       3.786   1.506  -2.736  0.00  0.00    -0.042 C 
ATOM     25  H   LIG d   1       4.273   1.738  -1.789  0.00  0.00     0.078 H 
ATOM     26  H   LIG d   1       4.217   2.122  -3.526  0.00  0.00     0.078 H 
ATOM     27  H   LIG d   1       2.719   1.713  -2.657  0.00  0.00     0.078 H 
ENDBRANCH  19  24
BRANCH  19  28
ATOM     28  C   LIG d   1       2.742  -0.471  -3.605  0.00  0.00    -0.042 C 
ATOM     29  H   LIG d   1       2.979  -1.297  -4.276  0.00  0.00     0.078 H 
ATOM     30  H   LIG d   1       2.117  -0.834  -2.789  0.00  0.00     0.078 H 
ATOM     31  H   LIG d   1       2.208   0.303  -4.155  0.00  0.00     0.078 H 
ENDBRANCH  19  28
ENDBRANCH   1  19
TORSDOF 10
ENDMDL
MODEL 4
REMARK VINA RESULT:      -3.6      1.651      3.729
REMARK  10 active torsions:
REMARK  status: ('A' for Active; 'I' for Inactive)
REMARK    1  A    between atoms: C_1  and  C_2 
REMARK    2  A    between atoms: C_2  and  O_4 
REMARK    3  A    between atoms: O_4  and  C_5 
REMARK    4  A    between atoms: C_5  and  C_7 
REMARK    5  A    between atoms: C_5  and  C_11 
REMARK    6  A    between atoms: C_7  and  C_8 
REMARK    7  A    between atoms: C_11  and  N_12 
REMARK    8  A    between atoms: N_12  and  C_13 
REMARK    9  A    between atoms: N_12  and  C_14 
REMARK   10  A    between atoms: N_12  and  C_15 
ROOT
ATOM      1  C   LIG d   1       4.599  -1.459  -5.447  0.00  0.00     0.007 C 
ATOM      2  H   LIG d   1       3.928  -1.865  -6.204  0.00  0.00     0.085 H 
ATOM      3  H   LIG d   1       5.484  -1.045  -5.931  0.00  0.00     0.085 H 
ENDROOT
BRANCH   1   4
ATOM      4  C   LIG d   1       3.881  -0.357  -4.667  0.00  0.00     0.147 C 
ATOM      5  H   LIG d   1       3.501  -0.764  -3.730  0.00  0.00     0.079 H 
BRANCH   4   6
ATOM      6  O   LIG d   1       4.796   0.704  -4.387  0.00  0.00    -0.456 OA
BRANCH   6   7
ATOM      7  C   LIG d   1       4.976   1.029  -3.097  0.00  0.00     0.304 C 
ATOM      8  O   LIG d   1       6.071   1.356  -2.704  0.00  0.00    -0.251 OA
BRANCH   7   9
ATOM      9  C   LIG d   1       3.813   0.984  -2.140  0.00  0.00     0.033 C 
ATOM     10  H   LIG d   1       3.011   0.385  -2.570  0.00  0.00     0.034 H 
ATOM     11  H   LIG d   1       4.135   0.538  -1.198  0.00  0.00     0.034 H 
ATOM     12  H   LIG d   1       3.453   1.996  -1.959  0.00  0.00     0.034 H 
ENDBRANCH   7   9
ENDBRANCH   6   7
ENDBRANCH   4   6
BRANCH   4  13
ATOM     13  C   LIG d   1       2.715   0.181  -5.499  0.00  0.00     0.029 C 
ATOM     14  H   LIG d   1       1.850  -0.472  -5.378  0.00  0.00     0.036 H 
ATOM     15  H   LIG d   1       2.461   1.186  -5.161  0.00  0.00     0.036 H 
BRANCH  13  16
ATOM     16  C   LIG d   1       3.112   0.225  -6.951  0.00  0.00     0.045 C 
ATOM     17  O   LIG d   1       3.937   1.037  -7.334  0.00  0.00    -0.550 OA
ATOM     18  O   LIG d   1       2.608  -0.552  -7.745  0.00  0.00    -0.550 OA
ENDBRANCH  13  16
ENDBRANCH   4  13
ENDBRANCH   1   4
BRANCH   1  19
ATOM     19  N   LIG d   1       5.002  -2.530  -4.525  0.00  0.00     0.239 N 
BRANCH  19  20
ATOM     20  C   LIG d   1       4.124  -2.518  -3.347  0.00  0.00    -0.042 C 
ATOM     21  H   LIG d   1       4.470  -1.759  -2.645  0.00  0.00     0.078 H 
ATOM     22  H   LIG d   1       3.104  -2.290  -3.656  0.00  0.00     0.078 H 
ATOM     23  H   LIG d   1       4.150  -3.496  -2.866  0.00  0.00     0.078 H 
ENDBRANCH  19  20
BRANCH  19  24
ATOM     24  C   LIG d   1       4.895  -3.827  -5.204  0.00  0.00    -0.042 C 
ATOM     25  H   LIG d   1       4.308  -4.511  -4.591  0.00  0.00     0.078 H 
ATOM     26  H   LIG d   1       4.407  -3.693  -6.169  0.00  0.00     0.078 H 
ATOM     27  H   LIG d   1       5.892  -4.241  -5.356  0.00  0.00     0.078 H 
ENDBRANCH  19  24
BRANCH  19  28
ATOM     28  C   LIG d   1       6.393  -2.312  -4.101  0.00  0.00    -0.042 C 
ATOM     29  H   LIG d   1       7.062  -2.879  -4.749  0.00  0.00     0.078 H 
ATOM     30  H   LIG d   1       6.632  -1.251  -4.171  0.00  0.00     0.078 H 
ATOM     31  H   LIG d   1       6.515  -2.646  -3.072  0.00  0.00     0.078 H 
ENDBRANCH  19  28
ENDBRANCH   1  19
TORSDOF 10
ENDMDL
MODEL 5
REMARK VINA RESULT:      -3.5      1.775      3.676
REMARK  10 active torsions:
REMARK  status: ('A' for Active; 'I' for Inactive)
REMARK    1  A    between atoms: C_1  and  C_2 
REMARK    2  A    between atoms: C_2  and  O_4 
REMARK    3  A    between atoms: O_4  and  C_5 
REMARK    4  A    between atoms: C_5  and  C_7 
REMARK    5  A    between atoms: C_5  and  C_11 
REMARK    6  A    between atoms: C_7  and  C_8 
REMARK    7  A    between atoms: C_11  and  N_12 
REMARK    8  A    between atoms: N_12  and  C_13 
REMARK    9  A    between atoms: N_12  and  C_14 
REMARK   10  A    between atoms: N_12  and  C_15 
ROOT
ATOM      1  C   LIG d   1       5.831  -0.679  -5.099  0.00  0.00     0.007 C 
ATOM      2  H   LIG d   1       6.551  -0.601  -5.914  0.00  0.00     0.085 H 
ATOM      3  H   LIG d   1       6.060   0.068  -4.339  0.00  0.00     0.085 H 
ENDROOT
BRANCH   1   4
ATOM      4  C   LIG d   1       4.420  -0.442  -5.638  0.00  0.00     0.147 C 
ATOM      5  H   LIG d   1       3.825  -1.347  -5.510  0.00  0.00     0.079 H 
BRANCH   4   6
ATOM      6  O   LIG d   1       3.809   0.634  -4.922  0.00  0.00    -0.456 OA
BRANCH   6   7
ATOM      7  C   LIG d   1       3.201   0.327  -3.765  0.00  0.00     0.304 C 
ATOM      8  O   LIG d   1       2.333  -0.513  -3.744  0.00  0.00    -0.251 OA
BRANCH   7   9
ATOM      9  C   LIG d   1       3.602   1.030  -2.494  0.00  0.00     0.033 C 
ATOM     10  H   LIG d   1       3.292   0.433  -1.636  0.00  0.00     0.034 H 
ATOM     11  H   LIG d   1       4.684   1.158  -2.476  0.00  0.00     0.034 H 
ATOM     12  H   LIG d   1       3.119   2.005  -2.451  0.00  0.00     0.034 H 
ENDBRANCH   7   9
ENDBRANCH   6   7
ENDBRANCH   4   6
BRANCH   4  13
ATOM     13  C   LIG d   1       4.494  -0.088  -7.125  0.00  0.00     0.029 C 
ATOM     14  H   LIG d   1       5.283   0.648  -7.284  0.00  0.00     0.036 H 
ATOM     15  H   LIG d   1       4.714  -0.987  -7.701  0.00  0.00     0.036 H 
BRANCH  13  16
ATOM     16  C   LIG d   1       3.175   0.486  -7.572  0.00  0.00     0.045 C 
ATOM     17  O   LIG d   1       2.225  -0.253  -7.769  0.00  0.00    -0.550 OA
ATOM     18  O   LIG d   1       3.057   1.688  -7.736  0.00  0.00    -0.550 OA
ENDBRANCH  13  16
ENDBRANCH   4  13
ENDBRANCH   1   4
BRANCH   1  19
ATOM     19  N   LIG d   1       5.909  -2.021  -4.504  0.00  0.00     0.239 N 
BRANCH  19  20
ATOM     20  C   LIG d   1       4.745  -2.812  -4.925  0.00  0.00    -0.042 C 
ATOM     21  H   LIG d   1       4.616  -3.655  -4.245  0.00  0.00     0.078 H 
ATOM     22  H   LIG d   1       3.853  -2.186  -4.903  0.00  0.00     0.078 H 
ATOM     23  H   LIG d   1       4.905  -3.183  -5.937  0.00  0.00     0.078 H 
ENDBRANCH  19  20
BRANCH  19  24
ATOM     24  C   LIG d   1       7.141  -2.684  -4.952  0.00  0.00    -0.042 C 
ATOM     25  H   LIG d   1       7.567  -2.133  -5.790  0.00  0.00     0.078 H 
ATOM     26  H   LIG d   1       7.859  -2.710  -4.132  0.00  0.00     0.078 H 
ATOM     27  H   LIG d   1       6.912  -3.702  -5.265  0.00  0.00     0.078 H 
ENDBRANCH  19  24
BRANCH  19  28
ATOM     28  C   LIG d   1       5.920  -1.906  -3.039  0.00  0.00    -0.042 C 
ATOM     29  H   LIG d   1       6.494  -2.731  -2.615  0.00  0.00     0.078 H 
ATOM     30  H   LIG d   1       6.378  -0.960  -2.752  0.00  0.00     0.078 H 
ATOM     31  H   LIG d   1       4.898  -1.945  -2.664  0.00  0.00     0.078 H 
ENDBRANCH  19  28
ENDBRANCH   1  19
TORSDOF 10
ENDMDL
MODEL 6
REMARK VINA RESULT:      -3.4      2.318      3.772
REMARK  10 active torsions:
REMARK  status: ('A' for Active; 'I' for Inactive)
REMARK    1  A    between atoms: C_1  and  C_2 
REMARK    2  A    between atoms: C_2  and  O_4 
REMARK    3  A    between atoms: O_4  and  C_5 
REMARK    4  A    between atoms: C_5  and  C_7 
REMARK    5  A    between atoms: C_5  and  C_11 
REMARK    6  A    between atoms: C_7  and  C_8 
REMARK    7  A    between atoms: C_11  and  N_12 
REMARK    8  A    between atoms: N_12  and  C_13 
REMARK    9  A    between atoms: N_12  and  C_14 
REMARK   10  A    between atoms: N_12  and  C_15 
ROOT
ATOM      1  C   LIG d   1       4.641  -1.375  -5.878  0.00  0.00     0.007 C 
ATOM      2  H   LIG d   1       5.497  -2.018  -6.086  0.00  0.00     0.085 H 
ATOM      3  H   LIG d   1       3.831  -1.973  -5.461  0.00  0.00     0.085 H 
ENDROOT
BRANCH   1   4
ATOM      4  C   LIG d   1       5.046  -0.294  -4.874  0.00  0.00     0.147 C 
ATOM      5  H   LIG d   1       5.016   0.681  -5.360  0.00  0.00     0.079 H 
BRANCH   4   6
ATOM      6  O   LIG d   1       4.139  -0.304  -3.770  0.00  0.00    -0.456 OA
BRANCH   6   7
ATOM      7  C   LIG d   1       4.002   0.842  -3.085  0.00  0.00     0.304 C 
ATOM      8  O   LIG d   1       3.496   1.804  -3.613  0.00  0.00    -0.251 OA
BRANCH   7   9
ATOM      9  C   LIG d   1       4.478   0.928  -1.658  0.00  0.00     0.033 C 
ATOM     10  H   LIG d   1       3.879   0.264  -1.034  0.00  0.00     0.034 H 
ATOM     11  H   LIG d   1       5.525   0.629  -1.606  0.00  0.00     0.034 H 
ATOM     12  H   LIG d   1       4.374   1.952  -1.302  0.00  0.00     0.034 H 
ENDBRANCH   7   9
ENDBRANCH   6   7
ENDBRANCH   4   6
BRANCH   4  13
ATOM     13  C   LIG d   1       6.465  -0.570  -4.372  0.00  0.00     0.029 C 
ATOM     14  H   LIG d   1       6.447  -0.708  -3.291  0.00  0.00     0.036 H 
ATOM     15  H   LIG d   1       6.850  -1.473  -4.848  0.00  0.00     0.036 H 
BRANCH  13  16
ATOM     16  C   LIG d   1       7.355   0.597  -4.714  0.00  0.00     0.045 C 
ATOM     17  O   LIG d   1       7.127   1.697  -4.240  0.00  0.00    -0.550 OA
ATOM     18  O   LIG d   1       8.304   0.441  -5.464  0.00  0.00    -0.550 OA
ENDBRANCH  13  16
ENDBRANCH   4  13
ENDBRANCH   1   4
BRANCH   1  19
ATOM     19  N   LIG d   1       4.190  -0.742  -7.125  0.00  0.00     0.239 N 
BRANCH  19  20
ATOM     20  C   LIG d   1       5.288   0.047  -7.699  0.00  0.00    -0.042 C 
ATOM     21  H   LIG d   1       5.564   0.841  -7.006  0.00  0.00     0.078 H 
ATOM     22  H   LIG d   1       6.148  -0.600  -7.873  0.00  0.00     0.078 H 
ATOM     23  H   LIG d   1       4.965   0.485  -8.644  0.00  0.00     0.078 H 
ENDBRANCH  19  20
BRANCH  19  24
ATOM     24  C   LIG d   1       3.779  -1.779  -8.080  0.00  0.00    -0.042 C 
ATOM     25  H   LIG d   1       3.740  -2.744  -7.575  0.00  0.00     0.078 H 
ATOM     26  H   LIG d   1       2.794  -1.537  -8.478  0.00  0.00     0.078 H 
ATOM     27  H   LIG d   1       4.499  -1.825  -8.897  0.00  0.00     0.078 H 
ENDBRANCH  19  24
BRANCH  19  28
ATOM     28  C   LIG d   1       3.050   0.141  -6.840  0.00  0.00    -0.042 C 
ATOM     29  H   LIG d   1       3.279   1.151  -7.180  0.00  0.00     0.078 H 
ATOM     30  H   LIG d   1       2.167  -0.226  -7.363  0.00  0.00     0.078 H 
ATOM     31  H   LIG d   1       2.859   0.153  -5.768  0.00  0.00     0.078 H 
ENDBRANCH  19  28
ENDBRANCH   1  19
TORSDOF 10
ENDMDL
MODEL 7
REMARK VINA RESULT:      -3.3      2.007      3.713
REMARK  10 active torsions:
REMARK  status: ('A' for Active; 'I' for Inactive)
REMARK    1  A    between atoms: C_1  and  C_2 
REMARK    2  A    between atoms: C_2  and  O_4 
REMARK    3  A    between atoms: O_4  and  C_5 
REMARK    4  A    between atoms: C_5  and  C_7 
REMARK    5  A    between atoms: C_5  and  C_11 
REMARK    6  A    between atoms: C_7  and  C_8 
REMARK    7  A    between atoms: C_11  and  N_12 
REMARK    8  A    between atoms: N_12  and  C_13 
REMARK    9  A    between atoms: N_12  and  C_14 
REMARK   10  A    between atoms: N_12  and  C_15 
ROOT
ATOM      1  C   LIG d   1       6.444  -2.030  -4.050  0.00  0.00     0.007 C 
ATOM      2  H   LIG d   1       7.191  -2.526  -4.671  0.00  0.00     0.085 H 
ATOM      3  H   LIG d   1       6.601  -2.302  -3.006  0.00  0.00     0.085 H 
ENDROOT
BRANCH   1   4
ATOM      4  C   LIG d   1       6.573  -0.514  -4.208  0.00  0.00     0.147 C 
ATOM      5  H   LIG d   1       5.757  -0.143  -4.828  0.00  0.00     0.079 H 
BRANCH   4   6
ATOM      6  O   LIG d   1       6.514   0.106  -2.922  0.00  0.00    -0.456 OA
BRANCH   6   7
ATOM      7  C   LIG d   1       5.460   0.900  -2.677  0.00  0.00     0.304 C 
ATOM      8  O   LIG d   1       5.255   1.864  -3.376  0.00  0.00    -0.251 OA
BRANCH   7   9
ATOM      9  C   LIG d   1       4.533   0.589  -1.530  0.00  0.00     0.033 C 
ATOM     10  H   LIG d   1       4.947  -0.228  -0.939  0.00  0.00     0.034 H 
ATOM     11  H   LIG d   1       4.424   1.473  -0.901  0.00  0.00     0.034 H 
ATOM     12  H   LIG d   1       3.558   0.297  -1.920  0.00  0.00     0.034 H 
ENDBRANCH   7   9
ENDBRANCH   6   7
ENDBRANCH   4   6
BRANCH   4  13
ATOM     13  C   LIG d   1       7.910  -0.182  -4.874  0.00  0.00     0.029 C 
ATOM     14  H   LIG d   1       8.681  -0.081  -4.110  0.00  0.00     0.036 H 
ATOM     15  H   LIG d   1       8.183  -0.984  -5.561  0.00  0.00     0.036 H 
BRANCH  13  16
ATOM     16  C   LIG d   1       7.786   1.112  -5.635  0.00  0.00     0.045 C 
ATOM     17  O   LIG d   1       7.076   1.171  -6.625  0.00  0.00    -0.550 OA
ATOM     18  O   LIG d   1       8.393   2.100  -5.261  0.00  0.00    -0.550 OA
ENDBRANCH  13  16
ENDBRANCH   4  13
ENDBRANCH   1   4
BRANCH   1  19
ATOM     19  N   LIG d   1       5.101  -2.454  -4.469  0.00  0.00     0.239 N 
BRANCH  19  20
ATOM     20  C   LIG d   1       4.540  -1.460  -5.394  0.00  0.00    -0.042 C 
ATOM     21  H   LIG d   1       4.005  -0.698  -4.827  0.00  0.00     0.078 H 
ATOM     22  H   LIG d   1       5.346  -0.993  -5.959  0.00  0.00     0.078 H 
ATOM     23  H   LIG d   1       3.851  -1.952  -6.081  0.00  0.00     0.078 H 
ENDBRANCH  19  20
BRANCH  19  24
ATOM     24  C   LIG d   1       5.185  -3.757  -5.141  0.00  0.00    -0.042 C 
ATOM     25  H   LIG d   1       5.750  -3.653  -6.068  0.00  0.00     0.078 H 
ATOM     26  H   LIG d   1       5.686  -4.471  -4.488  0.00  0.00     0.078 H 
ATOM     27  H   LIG d   1       4.181  -4.114  -5.367  0.00  0.00     0.078 H 
ENDBRANCH  19  24
BRANCH  19  28
ATOM     28  C   LIG d   1       4.233  -2.567  -3.289  0.00  0.00    -0.042 C 
ATOM     29  H   LIG d   1       3.384  -3.209  -3.523  0.00  0.00     0.078 H 
ATOM     30  H   LIG d   1       4.798  -3.000  -2.463  0.00  0.00     0.078 H 
ATOM     31  H   LIG d   1       3.875  -1.579  -3.005  0.00  0.00     0.078 H 
ENDBRANCH  19  28
ENDBRANCH   1  19
TORSDOF 10
ENDMDL
MODEL 8
REMARK VINA RESULT:      -3.3      9.338     10.412
REMARK  10 active torsions:
REMARK  status: ('A' for Active; 'I' for Inactive)
REMARK    1  A    between atoms: C_1  and  C_2 
REMARK    2  A    between atoms: C_2  and  O_4 
REMARK    3  A    between atoms: O_4  and  C_5 
REMARK    4  A    between atoms: C_5  and  C_7 
REMARK    5  A    between atoms: C_5  and  C_11 
REMARK    6  A    between atoms: C_7  and  C_8 
REMARK    7  A    between atoms: C_11  and  N_12 
REMARK    8  A    between atoms: N_12  and  C_13 
REMARK    9  A    between atoms: N_12  and  C_14 
REMARK   10  A    between atoms: N_12  and  C_15 
ROOT
ATOM      1  C   LIG d   1       9.847   6.563  -2.858  0.00  0.00     0.007 C 
ATOM      2  H   LIG d   1       9.902   5.484  -3.007  0.00  0.00     0.085 H 
ATOM      3  H   LIG d   1       8.819   6.897  -3.002  0.00  0.00     0.085 H 
ENDROOT
BRANCH   1   4
ATOM      4  C   LIG d   1      10.302   6.907  -1.439  0.00  0.00     0.147 C 
ATOM      5  H   LIG d   1      11.194   7.531  -1.485  0.00  0.00     0.079 H 
BRANCH   4   6
ATOM      6  O   LIG d   1       9.261   7.615  -0.763  0.00  0.00    -0.456 OA
BRANCH   6   7
ATOM      7  C   LIG d   1       9.400   8.946  -0.654  0.00  0.00     0.304 C 
ATOM      8  O   LIG d   1       8.431   9.663  -0.736  0.00  0.00    -0.251 OA
BRANCH   7   9
ATOM      9  C   LIG d   1      10.766   9.544  -0.432  0.00  0.00     0.033 C 
ATOM     10  H   LIG d   1      11.427   9.252  -1.247  0.00  0.00     0.034 H 
ATOM     11  H   LIG d   1      10.684  10.631  -0.401  0.00  0.00     0.034 H 
ATOM     12  H   LIG d   1      11.171   9.182   0.512  0.00  0.00     0.034 H 
ENDBRANCH   7   9
ENDBRANCH   6   7
ENDBRANCH   4   6
BRANCH   4  13
ATOM     13  C   LIG d   1      10.620   5.618  -0.678  0.00  0.00     0.029 C 
ATOM     14  H   LIG d   1       9.696   5.072  -0.487  0.00  0.00     0.036 H 
ATOM     15  H   LIG d   1      11.290   5.000  -1.276  0.00  0.00     0.036 H 
BRANCH  13  16
ATOM     16  C   LIG d   1      11.283   5.958   0.631  0.00  0.00     0.045 C 
ATOM     17  O   LIG d   1      10.719   5.706   1.683  0.00  0.00    -0.550 OA
ATOM     18  O   LIG d   1      12.383   6.483   0.640  0.00  0.00    -0.550 OA
ENDBRANCH  13  16
ENDBRANCH   4  13
ENDBRANCH   1   4
BRANCH   1  19
ATOM     19  N   LIG d   1      10.720   7.236  -3.829  0.00  0.00     0.239 N 
BRANCH  19  20
ATOM     20  C   LIG d   1      10.861   6.395  -5.026  0.00  0.00    -0.042 C 
ATOM     21  H   LIG d   1      10.006   6.554  -5.683  0.00  0.00     0.078 H 
ATOM     22  H   LIG d   1      11.778   6.663  -5.552  0.00  0.00     0.078 H 
ATOM     23  H   LIG d   1      10.903   5.347  -4.730  0.00  0.00     0.078 H 
ENDBRANCH  19  20
BRANCH  19  24
ATOM     24  C   LIG d   1      10.131   8.528  -4.204  0.00  0.00    -0.042 C 
ATOM     25  H   LIG d   1       9.667   8.445  -5.187  0.00  0.00     0.078 H 
ATOM     26  H   LIG d   1       9.378   8.812  -3.469  0.00  0.00     0.078 H 
ATOM     27  H   LIG d   1      10.913   9.288  -4.235  0.00  0.00     0.078 H 
ENDBRANCH  19  24
BRANCH  19  28
ATOM     28  C   LIG d   1      12.042   7.457  -3.228  0.00  0.00    -0.042 C 
ATOM     29  H   LIG d   1      12.534   6.497  -3.069  0.00  0.00     0.078 H 
ATOM     30  H   LIG d   1      12.648   8.069  -3.896  0.00  0.00     0.078 H 
ATOM     31  H   LIG d   1      11.926   7.968  -2.273  0.00  0.00     0.078 H 
ENDBRANCH  19  28
ENDBRANCH   1  19
TORSDOF 10
ENDMDL
MODEL 9
REMARK VINA RESULT:      -3.3      9.012     10.956
REMARK  10 active torsions:
REMARK  status: ('A' for Active; 'I' for Inactive)
REMARK    1  A    between atoms: C_1  and  C_2 
REMARK    2  A    between atoms: C_2  and  O_4 
REMARK    3  A    between atoms: O_4  and  C_5 
REMARK    4  A    between atoms: C_5  and  C_7 
REMARK    5  A    between atoms: C_5  and  C_11 
REMARK    6  A    between atoms: C_7  and  C_8 
REMARK    7  A    between atoms: C_11  and  N_12 
REMARK    8  A    between atoms: N_12  and  C_13 
REMARK    9  A    between atoms: N_12  and  C_14 
REMARK   10  A    between atoms: N_12  and  C_15 
ROOT
ATOM      1  C   LIG d   1       9.434   8.277  -0.907  0.00  0.00     0.007 C 
ATOM      2  H   LIG d   1       8.629   8.475  -1.615  0.00  0.00     0.085 H 
ATOM      3  H   LIG d   1       9.015   8.142   0.091  0.00  0.00     0.085 H 
ENDROOT
BRANCH   1   4
ATOM      4  C   LIG d   1      10.179   7.008  -1.323  0.00  0.00     0.147 C 
ATOM      5  H   LIG d   1      11.199   7.264  -1.612  0.00  0.00     0.079 H 
BRANCH   4   6
ATOM      6  O   LIG d   1      10.212   6.092  -0.226  0.00  0.00    -0.456 OA
BRANCH   6   7
ATOM      7  C   LIG d   1      11.349   6.037   0.487  0.00  0.00     0.304 C 
ATOM      8  O   LIG d   1      11.305   6.049   1.695  0.00  0.00    -0.251 OA
BRANCH   7   9
ATOM      9  C   LIG d   1      12.678   5.960  -0.219  0.00  0.00     0.033 C 
ATOM     10  H   LIG d   1      12.760   6.784  -0.928  0.00  0.00     0.034 H 
ATOM     11  H   LIG d   1      13.482   6.030   0.514  0.00  0.00     0.034 H 
ATOM     12  H   LIG d   1      12.752   5.013  -0.752  0.00  0.00     0.034 H 
ENDBRANCH   7   9
ENDBRANCH   6   7
ENDBRANCH   4   6
BRANCH   4  13
ATOM     13  C   LIG d   1       9.461   6.359  -2.507  0.00  0.00     0.029 C 
ATOM     14  H   LIG d   1       8.429   6.140  -2.232  0.00  0.00     0.036 H 
ATOM     15  H   LIG d   1       9.473   7.042  -3.357  0.00  0.00     0.036 H 
BRANCH  13  16
ATOM     16  C   LIG d   1      10.162   5.079  -2.881  0.00  0.00     0.045 C 
ATOM     17  O   LIG d   1       9.603   4.008  -2.720  0.00  0.00    -0.550 OA
ATOM     18  O   LIG d   1      11.289   5.114  -3.346  0.00  0.00    -0.550 OA
ENDBRANCH  13  16
ENDBRANCH   4  13
ENDBRANCH   1   4
BRANCH   1  19
ATOM     19  N   LIG d   1      10.367   9.412  -0.895  0.00  0.00     0.239 N 
BRANCH  19  20
ATOM     20  C   LIG d   1       9.685  10.611  -1.400  0.00  0.00    -0.042 C 
ATOM     21  H   LIG d   1       9.422  10.465  -2.448  0.00  0.00     0.078 H 
ATOM     22  H   LIG d   1       8.779  10.786  -0.820  0.00  0.00     0.078 H 
ATOM     23  H   LIG d   1      10.348  11.472  -1.309  0.00  0.00     0.078 H 
ENDBRANCH  19  20
BRANCH  19  24
ATOM     24  C   LIG d   1      10.830   9.652   0.478  0.00  0.00    -0.042 C 
ATOM     25  H   LIG d   1      10.920  10.725   0.649  0.00  0.00     0.078 H 
ATOM     26  H   LIG d   1      10.113   9.231   1.182  0.00  0.00     0.078 H 
ATOM     27  H   LIG d   1      11.801   9.178   0.621  0.00  0.00     0.078 H 
ENDBRANCH  19  24
BRANCH  19  28
ATOM     28  C   LIG d   1      11.519   9.107  -1.754  0.00  0.00    -0.042 C 
ATOM     29  H   LIG d   1      12.310   9.836  -1.574  0.00  0.00     0.078 H 
ATOM     30  H   LIG d   1      11.889   8.107  -1.524  0.00  0.00     0.078 H 
ATOM     31  H   LIG d   1      11.216   9.151  -2.799  0.00  0.00     0.078 H 
ENDBRANCH  19  28
ENDBRANCH   1  19
TORSDOF 10
ENDMDL
MODEL 10
REMARK VINA RESULT:      -3.3      1.691      3.272
REMARK  10 active torsions:
REMARK  status: ('A' for Active; 'I' for Inactive)
REMARK    1  A    between atoms: C_1  and  C_2 
REMARK    2  A    between atoms: C_2  and  O_4 
REMARK    3  A    between atoms: O_4  and  C_5 
REMARK    4  A    between atoms: C_5  and  C_7 
REMARK    5  A    between atoms: C_5  and  C_11 
REMARK    6  A    between atoms: C_7  and  C_8 
REMARK    7  A    between atoms: C_11  and  N_12 
REMARK    8  A    between atoms: N_12  and  C_13 
REMARK    9  A    between atoms: N_12  and  C_14 
REMARK   10  A    between atoms: N_12  and  C_15 
ROOT
ATOM      1  C   LIG d   1       5.714  -1.772  -5.634  0.00  0.00     0.007 C 
ATOM      2  H   LIG d   1       5.102  -2.146  -6.455  0.00  0.00     0.085 H 
ATOM      3  H   LIG d   1       6.703  -1.508  -6.011  0.00  0.00     0.085 H 
ENDROOT
BRANCH   1   4
ATOM      4  C   LIG d   1       5.052  -0.535  -5.026  0.00  0.00     0.147 C 
ATOM      5  H   LIG d   1       4.835  -0.720  -3.974  0.00  0.00     0.079 H 
BRANCH   4   6
ATOM      6  O   LIG d   1       5.935   0.583  -5.140  0.00  0.00    -0.456 OA
BRANCH   6   7
ATOM      7  C   LIG d   1       6.560   0.982  -4.020  0.00  0.00     0.304 C 
ATOM      8  O   LIG d   1       5.921   1.444  -3.104  0.00  0.00    -0.251 OA
BRANCH   7   9
ATOM      9  C   LIG d   1       8.057   0.854  -3.907  0.00  0.00     0.033 C 
ATOM     10  H   LIG d   1       8.386  -0.041  -4.433  0.00  0.00     0.034 H 
ATOM     11  H   LIG d   1       8.530   1.731  -4.350  0.00  0.00     0.034 H 
ATOM     12  H   LIG d   1       8.337   0.781  -2.856  0.00  0.00     0.034 H 
ENDBRANCH   7   9
ENDBRANCH   6   7
ENDBRANCH   4   6
BRANCH   4  13
ATOM     13  C   LIG d   1       3.750  -0.234  -5.769  0.00  0.00     0.029 C 
ATOM     14  H   LIG d   1       3.955   0.431  -6.608  0.00  0.00     0.036 H 
ATOM     15  H   LIG d   1       3.321  -1.165  -6.141  0.00  0.00     0.036 H 
BRANCH  13  16
ATOM     16  C   LIG d   1       2.776   0.429  -4.830  0.00  0.00     0.045 C 
ATOM     17  O   LIG d   1       2.526   1.616  -4.950  0.00  0.00    -0.550 OA
ATOM     18  O   LIG d   1       2.237  -0.222  -3.951  0.00  0.00    -0.550 OA
ENDBRANCH  13  16
ENDBRANCH   4  13
ENDBRANCH   1   4
BRANCH   1  19
ATOM     19  N   LIG d   1       5.844  -2.814  -4.607  0.00  0.00     0.239 N 
BRANCH  19  20
ATOM     20  C   LIG d   1       5.238  -4.061  -5.094  0.00  0.00    -0.042 C 
ATOM     21  H   LIG d   1       4.554  -4.449  -4.340  0.00  0.00     0.078 H 
ATOM     22  H   LIG d   1       4.690  -3.863  -6.015  0.00  0.00     0.078 H 
ATOM     23  H   LIG d   1       6.021  -4.794  -5.286  0.00  0.00     0.078 H 
ENDBRANCH  19  20
BRANCH  19  24
ATOM     24  C   LIG d   1       7.266  -3.041  -4.316  0.00  0.00    -0.042 C 
ATOM     25  H   LIG d   1       7.385  -3.996  -3.805  0.00  0.00     0.078 H 
ATOM     26  H   LIG d   1       7.830  -3.055  -5.249  0.00  0.00     0.078 H 
ATOM     27  H   LIG d   1       7.639  -2.239  -3.679  0.00  0.00     0.078 H 
ENDBRANCH  19  24
BRANCH  19  28
ATOM     28  C   LIG d   1       5.158  -2.382  -3.382  0.00  0.00    -0.042 C 
ATOM     29  H   LIG d   1       4.080  -2.395  -3.546  0.00  0.00     0.078 H 
ATOM     30  H   LIG d   1       5.409  -3.060  -2.566  0.00  0.00     0.078 H 
ATOM     31  H   LIG d   1       5.474  -1.371  -3.126  0.00  0.00     0.078 H 
ENDBRANCH  19  28
ENDBRANCH   1  19
TORSDOF 10
ENDMDL
