MODEL 1
REMARK VINA RESULT:      -5.0      0.000      0.000
REMARK  3 active torsions:
REMARK  status: ('A' for Active; 'I' for Inactive)
REMARK    1  A    between atoms: C_3  and  N_10 
REMARK    2  A    between atoms: C_5  and  C_6 
REMARK       I    between atoms: C_6  and  N_8 
REMARK    3  A    between atoms: N_8  and  N_9 
ROOT
ATOM      1  C   LIG d   1       4.129  -2.509  -2.997  0.00  0.00    -0.004 A 
ATOM      2  C   LIG d   1       4.254  -1.401  -2.146  0.00  0.00     0.060 A 
ATOM      3  C   LIG d   1       4.888  -0.433  -2.843  0.00  0.00     0.438 A 
ATOM      4  O   LIG d   1       5.155  -0.893  -4.072  0.00  0.00    -0.395 OA
ATOM      5  C   LIG d   1       4.700  -2.157  -4.187  0.00  0.00     0.198 A 
ATOM      6  H   LIG d   1       3.669  -3.457  -2.758  0.00  0.00     0.066 H 
ATOM      7  H   LIG d   1       3.905  -1.333  -1.126  0.00  0.00     0.072 H 
ENDROOT
BRANCH   5   8
ATOM      8  C   LIG d   1       4.803  -3.005  -5.378  0.00  0.00     0.293 C 
ATOM      9  O   LIG d   1       5.776  -2.921  -6.103  0.00  0.00    -0.266 OA
ATOM     10  N   LIG d   1       3.819  -3.879  -5.671  0.00  0.00    -0.247 N 
ATOM     11  H   LIG d   1       3.043  -3.947  -5.093  0.00  0.00     0.169 HD
BRANCH  10  12
ATOM     12  N   LIG d   1       3.915  -4.670  -6.780  0.00  0.00    -0.254 NA
ATOM     13  H   LIG d   1       3.364  -5.509  -6.674  0.00  0.00     0.141 HD
ATOM     14  H   LIG d   1       3.645  -4.164  -7.611  0.00  0.00     0.141 HD
ENDBRANCH  10  12
ENDBRANCH   5   8
BRANCH   3  15
ATOM     15  N   LIG d   1       5.230   0.914  -2.333  0.00  0.00     0.119 N 
ATOM     16  O   LIG d   1       5.929   1.658  -2.999  0.00  0.00     0.045 OA
ATOM     17  O   LIG d   1       4.814   1.279  -1.248  0.00  0.00    -0.574 OA
ENDBRANCH   3  15
TORSDOF 3
ENDMDL
MODEL 2
REMARK VINA RESULT:      -4.9      2.141      2.273
REMARK  3 active torsions:
REMARK  status: ('A' for Active; 'I' for Inactive)
REMARK    1  A    between atoms: C_3  and  N_10 
REMARK    2  A    between atoms: C_5  and  C_6 
REMARK       I    between atoms: C_6  and  N_8 
REMARK    3  A    between atoms: N_8  and  N_9 
ROOT
ATOM      1  C   LIG d   1       3.948  -2.179  -2.629  0.00  0.00    -0.004 A 
ATOM      2  C   LIG d   1       3.442  -0.878  -2.483  0.00  0.00     0.060 A 
ATOM      3  C   LIG d   1       3.625  -0.245  -3.664  0.00  0.00     0.438 A 
ATOM      4  O   LIG d   1       4.215  -1.092  -4.518  0.00  0.00    -0.395 OA
ATOM      5  C   LIG d   1       4.420  -2.276  -3.906  0.00  0.00     0.198 A 
ATOM      6  H   LIG d   1       3.960  -2.953  -1.876  0.00  0.00     0.066 H 
ATOM      7  H   LIG d   1       2.987  -0.461  -1.597  0.00  0.00     0.072 H 
ENDROOT
BRANCH   5   8
ATOM      8  C   LIG d   1       5.043  -3.460  -4.507  0.00  0.00     0.293 C 
ATOM      9  O   LIG d   1       4.354  -4.404  -4.844  0.00  0.00    -0.266 OA
ATOM     10  N   LIG d   1       6.378  -3.501  -4.686  0.00  0.00    -0.247 N 
ATOM     11  H   LIG d   1       6.927  -2.748  -4.418  0.00  0.00     0.169 HD
BRANCH  10  12
ATOM     12  N   LIG d   1       6.958  -4.604  -5.246  0.00  0.00    -0.254 NA
ATOM     13  H   LIG d   1       7.276  -5.246  -4.535  0.00  0.00     0.141 HD
ATOM     14  H   LIG d   1       6.327  -5.059  -5.888  0.00  0.00     0.141 HD
ENDBRANCH  10  12
ENDBRANCH   5   8
BRANCH   3  15
ATOM     15  N   LIG d   1       3.238   1.152  -3.963  0.00  0.00     0.119 N 
ATOM     16  O   LIG d   1       3.624   2.058  -3.245  0.00  0.00     0.045 OA
ATOM     17  O   LIG d   1       2.533   1.396  -4.926  0.00  0.00    -0.574 OA
ENDBRANCH   3  15
TORSDOF 3
ENDMDL
MODEL 3
REMARK VINA RESULT:      -4.7     11.776     13.100
REMARK  3 active torsions:
REMARK  status: ('A' for Active; 'I' for Inactive)
REMARK    1  A    between atoms: C_3  and  N_10 
REMARK    2  A    between atoms: C_5  and  C_6 
REMARK       I    between atoms: C_6  and  N_8 
REMARK    3  A    between atoms: N_8  and  N_9 
ROOT
ATOM      1  C   LIG d   1      11.057  10.464   0.140  0.00  0.00    -0.004 A 
ATOM      2  C   LIG d   1      11.414   9.349   0.913  0.00  0.00     0.060 A 
ATOM      3  C   LIG d   1      10.803   8.274   0.366  0.00  0.00     0.438 A 
ATOM      4  O   LIG d   1      10.095   8.676  -0.697  0.00  0.00    -0.395 OA
ATOM      5  C   LIG d   1      10.236  10.009  -0.852  0.00  0.00     0.198 A 
ATOM      6  H   LIG d   1      11.371  11.485   0.300  0.00  0.00     0.066 H 
ATOM      7  H   LIG d   1      12.059   9.347   1.779  0.00  0.00     0.072 H 
ENDROOT
BRANCH   5   8
ATOM      8  C   LIG d   1       9.616  10.825  -1.900  0.00  0.00     0.293 C 
ATOM      9  O   LIG d   1      10.310  11.511  -2.627  0.00  0.00    -0.266 OA
ATOM     10  N   LIG d   1       8.278  10.815  -2.059  0.00  0.00    -0.247 N 
ATOM     11  H   LIG d   1       7.725  10.267  -1.480  0.00  0.00     0.169 HD
BRANCH  10  12
ATOM     12  N   LIG d   1       7.700  11.575  -3.036  0.00  0.00    -0.254 NA
ATOM     13  H   LIG d   1       8.228  12.421  -3.196  0.00  0.00     0.141 HD
ATOM     14  H   LIG d   1       7.595  11.048  -3.891  0.00  0.00     0.141 HD
ENDBRANCH  10  12
ENDBRANCH   5   8
BRANCH   3  15
ATOM     15  N   LIG d   1      10.902   6.881   0.859  0.00  0.00     0.119 N 
ATOM     16  O   LIG d   1      10.403   5.972   0.220  0.00  0.00     0.045 OA
ATOM     17  O   LIG d   1      11.482   6.645   1.904  0.00  0.00    -0.574 OA
ENDBRANCH   3  15
TORSDOF 3
ENDMDL
MODEL 4
REMARK VINA RESULT:      -4.5      3.537      3.776
REMARK  3 active torsions:
REMARK  status: ('A' for Active; 'I' for Inactive)
REMARK    1  A    between atoms: C_3  and  N_10 
REMARK    2  A    between atoms: C_5  and  C_6 
REMARK       I    between atoms: C_6  and  N_8 
REMARK    3  A    between atoms: N_8  and  N_9 
ROOT
ATOM      1  C   LIG d   1       4.387  -1.063  -5.746  0.00  0.00    -0.004 A 
ATOM      2  C   LIG d   1       4.645  -1.078  -4.367  0.00  0.00     0.060 A 
ATOM      3  C   LIG d   1       3.940  -0.063  -3.819  0.00  0.00     0.438 A 
ATOM      4  O   LIG d   1       3.268   0.568  -4.791  0.00  0.00    -0.395 OA
ATOM      5  C   LIG d   1       3.527  -0.027  -5.974  0.00  0.00     0.198 A 
ATOM      6  H   LIG d   1       4.791  -1.740  -6.484  0.00  0.00     0.066 H 
ATOM      7  H   LIG d   1       5.282  -1.772  -3.840  0.00  0.00     0.072 H 
ENDROOT
BRANCH   5   8
ATOM      8  C   LIG d   1       2.983   0.371  -7.276  0.00  0.00     0.293 C 
ATOM      9  O   LIG d   1       2.387  -0.440  -7.959  0.00  0.00    -0.266 OA
ATOM     10  N   LIG d   1       3.142   1.634  -7.716  0.00  0.00    -0.247 N 
ATOM     11  H   LIG d   1       3.617   2.281  -7.170  0.00  0.00     0.169 HD
BRANCH  10  12
ATOM     12  N   LIG d   1       2.634   2.005  -8.928  0.00  0.00    -0.254 NA
ATOM     13  H   LIG d   1       3.305   1.844  -9.665  0.00  0.00     0.141 HD
ATOM     14  H   LIG d   1       1.766   1.528  -9.119  0.00  0.00     0.141 HD
ENDBRANCH  10  12
ENDBRANCH   5   8
BRANCH   3  15
ATOM     15  N   LIG d   1       3.914   0.293  -2.382  0.00  0.00     0.119 N 
ATOM     16  O   LIG d   1       4.380  -0.473  -1.557  0.00  0.00     0.045 OA
ATOM     17  O   LIG d   1       3.426   1.350  -2.025  0.00  0.00    -0.574 OA
ENDBRANCH   3  15
TORSDOF 3
ENDMDL
MODEL 5
REMARK VINA RESULT:      -4.4      8.250     10.054
REMARK  3 active torsions:
REMARK  status: ('A' for Active; 'I' for Inactive)
REMARK    1  A    between atoms: C_3  and  N_10 
REMARK    2  A    between atoms: C_5  and  C_6 
REMARK       I    between atoms: C_6  and  N_8 
REMARK    3  A    between atoms: N_8  and  N_9 
ROOT
ATOM      1  C   LIG d   1       9.712   6.826  -1.903  0.00  0.00    -0.004 A 
ATOM      2  C   LIG d   1       9.971   7.704  -0.840  0.00  0.00     0.060 A 
ATOM      3  C   LIG d   1      10.714   7.028   0.063  0.00  0.00     0.438 A 
ATOM      4  O   LIG d   1      10.922   5.786  -0.394  0.00  0.00    -0.395 OA
ATOM      5  C   LIG d   1      10.318   5.643  -1.592  0.00  0.00     0.198 A 
ATOM      6  H   LIG d   1       9.144   7.044  -2.796  0.00  0.00     0.066 H 
ATOM      7  H   LIG d   1       9.642   8.730  -0.760  0.00  0.00     0.072 H 
ENDROOT
BRANCH   5   8
ATOM      8  C   LIG d   1      10.313   4.429  -2.414  0.00  0.00     0.293 C 
ATOM      9  O   LIG d   1       9.658   4.391  -3.438  0.00  0.00    -0.266 OA
ATOM     10  N   LIG d   1      11.035   3.356  -2.036  0.00  0.00    -0.247 N 
ATOM     11  H   LIG d   1      11.558   3.386  -1.220  0.00  0.00     0.169 HD
BRANCH  10  12
ATOM     12  N   LIG d   1      11.031   2.225  -2.802  0.00  0.00    -0.254 NA
ATOM     13  H   LIG d   1      11.594   2.348  -3.631  0.00  0.00     0.141 HD
ATOM     14  H   LIG d   1      11.340   1.425  -2.270  0.00  0.00     0.141 HD
ENDBRANCH  10  12
ENDBRANCH   5   8
BRANCH   3  15
ATOM     15  N   LIG d   1      11.218   7.570   1.346  0.00  0.00     0.119 N 
ATOM     16  O   LIG d   1      11.311   6.843   2.319  0.00  0.00     0.045 OA
ATOM     17  O   LIG d   1      11.538   8.742   1.428  0.00  0.00    -0.574 OA
ENDBRANCH   3  15
TORSDOF 3
ENDMDL
MODEL 6
REMARK VINA RESULT:      -4.2      3.502      5.290
REMARK  3 active torsions:
REMARK  status: ('A' for Active; 'I' for Inactive)
REMARK    1  A    between atoms: C_3  and  N_10 
REMARK    2  A    between atoms: C_5  and  C_6 
REMARK       I    between atoms: C_6  and  N_8 
REMARK    3  A    between atoms: N_8  and  N_9 
ROOT
ATOM      1  C   LIG d   1       7.512   0.035  -4.094  0.00  0.00    -0.004 A 
ATOM      2  C   LIG d   1       6.397  -0.579  -3.503  0.00  0.00     0.060 A 
ATOM      3  C   LIG d   1       5.734   0.377  -2.815  0.00  0.00     0.438 A 
ATOM      4  O   LIG d   1       6.386   1.539  -2.957  0.00  0.00    -0.395 OA
ATOM      5  C   LIG d   1       7.473   1.352  -3.733  0.00  0.00     0.198 A 
ATOM      6  H   LIG d   1       8.256  -0.442  -4.715  0.00  0.00     0.066 H 
ATOM      7  H   LIG d   1       6.118  -1.619  -3.585  0.00  0.00     0.072 H 
ENDROOT
BRANCH   5   8
ATOM      8  C   LIG d   1       8.443   2.380  -4.120  0.00  0.00     0.293 C 
ATOM      9  O   LIG d   1       9.045   3.001  -3.265  0.00  0.00    -0.266 OA
ATOM     10  N   LIG d   1       8.668   2.639  -5.423  0.00  0.00    -0.247 N 
ATOM     11  H   LIG d   1       8.188   2.143  -6.106  0.00  0.00     0.169 HD
BRANCH  10  12
ATOM     12  N   LIG d   1       9.573   3.597  -5.784  0.00  0.00    -0.254 NA
ATOM     13  H   LIG d   1       9.473   3.838  -6.760  0.00  0.00     0.141 HD
ATOM     14  H   LIG d   1       9.488   4.414  -5.199  0.00  0.00     0.141 HD
ENDBRANCH  10  12
ENDBRANCH   5   8
BRANCH   3  15
ATOM     15  N   LIG d   1       4.493   0.175  -2.034  0.00  0.00     0.119 N 
ATOM     16  O   LIG d   1       4.224  -0.929  -1.593  0.00  0.00     0.045 OA
ATOM     17  O   LIG d   1       3.740   1.111  -1.833  0.00  0.00    -0.574 OA
ENDBRANCH   3  15
TORSDOF 3
ENDMDL
MODEL 7
REMARK VINA RESULT:      -4.2      8.648     11.088
REMARK  3 active torsions:
REMARK  status: ('A' for Active; 'I' for Inactive)
REMARK    1  A    between atoms: C_3  and  N_10 
REMARK    2  A    between atoms: C_5  and  C_6 
REMARK       I    between atoms: C_6  and  N_8 
REMARK    3  A    between atoms: N_8  and  N_9 
ROOT
ATOM      1  C   LIG d   1      11.060   6.517   0.009  0.00  0.00    -0.004 A 
ATOM      2  C   LIG d   1      11.280   5.235  -0.517  0.00  0.00     0.060 A 
ATOM      3  C   LIG d   1      10.582   5.153  -1.671  0.00  0.00     0.438 A 
ATOM      4  O   LIG d   1       9.949   6.316  -1.875  0.00  0.00    -0.395 OA
ATOM      5  C   LIG d   1      10.227   7.161  -0.861  0.00  0.00     0.198 A 
ATOM      6  H   LIG d   1      11.470   6.917   0.925  0.00  0.00     0.066 H 
ATOM      7  H   LIG d   1      11.896   4.461  -0.084  0.00  0.00     0.072 H 
ENDROOT
BRANCH   5   8
ATOM      8  C   LIG d   1       9.723   8.530  -0.718  0.00  0.00     0.293 C 
ATOM      9  O   LIG d   1      10.309   9.323  -0.005  0.00  0.00    -0.266 OA
ATOM     10  N   LIG d   1       8.611   8.911  -1.377  0.00  0.00    -0.247 N 
ATOM     11  H   LIG d   1       8.144   8.280  -1.947  0.00  0.00     0.169 HD
BRANCH  10  12
ATOM     12  N   LIG d   1       8.141  10.187  -1.245  0.00  0.00    -0.254 NA
ATOM     13  H   LIG d   1       8.265  10.708  -2.101  0.00  0.00     0.141 HD
ATOM     14  H   LIG d   1       7.174  10.189  -0.957  0.00  0.00     0.141 HD
ENDBRANCH  10  12
ENDBRANCH   5   8
BRANCH   3  15
ATOM     15  N   LIG d   1      10.526   3.973  -2.564  0.00  0.00     0.119 N 
ATOM     16  O   LIG d   1       9.449   3.504  -2.886  0.00  0.00     0.045 OA
ATOM     17  O   LIG d   1      11.557   3.471  -2.976  0.00  0.00    -0.574 OA
ENDBRANCH   3  15
TORSDOF 3
ENDMDL
MODEL 8
REMARK VINA RESULT:      -4.2     13.435     14.118
REMARK  3 active torsions:
REMARK  status: ('A' for Active; 'I' for Inactive)
REMARK    1  A    between atoms: C_3  and  N_10 
REMARK    2  A    between atoms: C_5  and  C_6 
REMARK       I    between atoms: C_6  and  N_8 
REMARK    3  A    between atoms: N_8  and  N_9 
ROOT
ATOM      1  C   LIG d   1      10.347   9.044  -0.593  0.00  0.00    -0.004 A 
ATOM      2  C   LIG d   1      11.059   8.757   0.581  0.00  0.00     0.060 A 
ATOM      3  C   LIG d   1      11.354   9.938   1.167  0.00  0.00     0.438 A 
ATOM      4  O   LIG d   1      10.860  10.928   0.412  0.00  0.00    -0.395 OA
ATOM      5  C   LIG d   1      10.242  10.404  -0.666  0.00  0.00     0.198 A 
ATOM      6  H   LIG d   1       9.956   8.328  -1.302  0.00  0.00     0.066 H 
ATOM      7  H   LIG d   1      11.318   7.776   0.951  0.00  0.00     0.072 H 
ENDROOT
BRANCH   5   8
ATOM      8  C   LIG d   1       9.576  11.161  -1.731  0.00  0.00     0.293 C 
ATOM      9  O   LIG d   1      10.161  12.071  -2.287  0.00  0.00    -0.266 OA
ATOM     10  N   LIG d   1       8.317  10.848  -2.094  0.00  0.00    -0.247 N 
ATOM     11  H   LIG d   1       7.850  10.122  -1.651  0.00  0.00     0.169 HD
BRANCH  10  12
ATOM     12  N   LIG d   1       7.696  11.553  -3.086  0.00  0.00    -0.254 NA
ATOM     13  H   LIG d   1       8.333  11.745  -3.845  0.00  0.00     0.141 HD
ATOM     14  H   LIG d   1       6.876  11.068  -3.417  0.00  0.00     0.141 HD
ENDBRANCH  10  12
ENDBRANCH   5   8
BRANCH   3  15
ATOM     15  N   LIG d   1      12.100  10.110   2.434  0.00  0.00     0.119 N 
ATOM     16  O   LIG d   1      12.609   9.145   2.976  0.00  0.00     0.045 OA
ATOM     17  O   LIG d   1      12.204  11.216   2.934  0.00  0.00    -0.574 OA
ENDBRANCH   3  15
TORSDOF 3
ENDMDL
MODEL 9
REMARK VINA RESULT:      -4.2     12.958     14.815
REMARK  3 active torsions:
REMARK  status: ('A' for Active; 'I' for Inactive)
REMARK    1  A    between atoms: C_3  and  N_10 
REMARK    2  A    between atoms: C_5  and  C_6 
REMARK       I    between atoms: C_6  and  N_8 
REMARK    3  A    between atoms: N_8  and  N_9 
ROOT
ATOM      1  C   LIG d   1      11.314  11.635  -4.611  0.00  0.00    -0.004 A 
ATOM      2  C   LIG d   1      11.257  12.479  -5.731  0.00  0.00     0.060 A 
ATOM      3  C   LIG d   1       9.951  12.720  -5.982  0.00  0.00     0.438 A 
ATOM      4  O   LIG d   1       9.212  12.067  -5.076  0.00  0.00    -0.395 OA
ATOM      5  C   LIG d   1      10.024  11.399  -4.231  0.00  0.00     0.198 A 
ATOM      6  H   LIG d   1      12.206  11.247  -4.142  0.00  0.00     0.066 H 
ATOM      7  H   LIG d   1      12.098  12.868  -6.285  0.00  0.00     0.072 H 
ENDROOT
BRANCH   5   8
ATOM      8  C   LIG d   1       9.597  10.566  -3.103  0.00  0.00     0.293 C 
ATOM      9  O   LIG d   1      10.207   9.549  -2.833  0.00  0.00    -0.266 OA
ATOM     10  N   LIG d   1       8.528  10.926  -2.365  0.00  0.00    -0.247 N 
ATOM     11  H   LIG d   1       8.042  11.738  -2.580  0.00  0.00     0.169 HD
BRANCH  10  12
ATOM     12  N   LIG d   1       8.130  10.150  -1.314  0.00  0.00    -0.254 NA
ATOM     13  H   LIG d   1       8.762  10.249  -0.532  0.00  0.00     0.141 HD
ATOM     14  H   LIG d   1       7.183  10.366  -1.042  0.00  0.00     0.141 HD
ENDBRANCH  10  12
ENDBRANCH   5   8
BRANCH   3  15
ATOM     15  N   LIG d   1       9.424  13.565  -7.077  0.00  0.00     0.119 N 
ATOM     16  O   LIG d   1       9.047  13.050  -8.116  0.00  0.00     0.045 OA
ATOM     17  O   LIG d   1       9.369  14.774  -6.941  0.00  0.00    -0.574 OA
ENDBRANCH   3  15
TORSDOF 3
ENDMDL
MODEL 10
REMARK VINA RESULT:      -4.0     13.745     14.195
REMARK  3 active torsions:
REMARK  status: ('A' for Active; 'I' for Inactive)
REMARK    1  A    between atoms: C_3  and  N_10 
REMARK    2  A    between atoms: C_5  and  C_6 
REMARK       I    between atoms: C_6  and  N_8 
REMARK    3  A    between atoms: N_8  and  N_9 
ROOT
ATOM      1  C   LIG d   1      11.044 -11.220   2.743  0.00  0.00    -0.004 A 
ATOM      2  C   LIG d   1      11.380 -12.197   3.693  0.00  0.00     0.060 A 
ATOM      3  C   LIG d   1      12.008 -11.564   4.709  0.00  0.00     0.438 A 
ATOM      4  O   LIG d   1      12.071 -10.256   4.427  0.00  0.00    -0.395 OA
ATOM      5  C   LIG d   1      11.489 -10.026   3.233  0.00  0.00     0.198 A 
ATOM      6  H   LIG d   1      10.532 -11.383   1.805  0.00  0.00     0.066 H 
ATOM      7  H   LIG d   1      11.173 -13.254   3.627  0.00  0.00     0.072 H 
ENDROOT
BRANCH   5   8
ATOM      8  C   LIG d   1      11.358  -8.722   2.575  0.00  0.00     0.293 C 
ATOM      9  O   LIG d   1      11.698  -7.710   3.158  0.00  0.00    -0.266 OA
ATOM     10  N   LIG d   1      10.862  -8.644   1.325  0.00  0.00    -0.247 N 
ATOM     11  H   LIG d   1      10.591  -9.452   0.859  0.00  0.00     0.169 HD
BRANCH  10  12
ATOM     12  N   LIG d   1      10.741  -7.430   0.711  0.00  0.00    -0.254 NA
ATOM     13  H   LIG d   1      10.659  -6.688   1.391  0.00  0.00     0.141 HD
ATOM     14  H   LIG d   1      11.513  -7.262   0.084  0.00  0.00     0.141 HD
ENDBRANCH  10  12
ENDBRANCH   5   8
BRANCH   3  15
ATOM     15  N   LIG d   1      12.537 -12.209   5.932  0.00  0.00     0.119 N 
ATOM     16  O   LIG d   1      12.889 -11.526   6.877  0.00  0.00     0.045 OA
ATOM     17  O   LIG d   1      12.622 -13.423   5.992  0.00  0.00    -0.574 OA
ENDBRANCH   3  15
TORSDOF 3
ENDMDL
