MODEL 1
REMARK VINA RESULT:      -7.0      0.000      0.000
REMARK  6 active torsions:
REMARK  status: ('A' for Active; 'I' for Inactive)
REMARK    1  A    between atoms: C_1  and  C_2 
REMARK    2  A    between atoms: C_6  and  O_25 
REMARK    3  A    between atoms: C_7  and  C_24 
REMARK    4  A    between atoms: C_12  and  C_13 
REMARK    5  A    between atoms: C_13  and  C_14 
REMARK    6  A    between atoms: C_14  and  C_15 
REMARK       I    between atoms: C_15  and  N_17 
ROOT
ATOM      1  C   LIG d   1       6.829  -4.342  -5.142  0.00  0.00    -0.030 A 
ATOM      2  C   LIG d   1       6.450  -3.133  -4.409  0.00  0.00     0.021 A 
ATOM      3  C   LIG d   1       7.422  -2.278  -3.879  0.00  0.00    -0.047 A 
ATOM      4  C   LIG d   1       7.042  -1.160  -3.194  0.00  0.00    -0.019 A 
ATOM      5  C   LIG d   1       5.691  -0.866  -3.019  0.00  0.00     0.123 A 
ATOM      6  C   LIG d   1       4.715  -1.701  -3.538  0.00  0.00     0.034 A 
ATOM      7  C   LIG d   1       5.084  -2.841  -4.236  0.00  0.00     0.146 A 
ATOM      8  O   LIG d   1       4.150  -3.669  -4.749  0.00  0.00    -0.422 OA
ATOM      9  C   LIG d   1       4.491  -4.777  -5.427  0.00  0.00     0.341 A 
ATOM     10  O   LIG d   1       3.612  -5.493  -5.871  0.00  0.00    -0.245 OA
ATOM     11  C   LIG d   1       5.839  -5.130  -5.638  0.00  0.00     0.041 A 
ATOM     12  H   LIG d   1       8.471  -2.501  -4.011  0.00  0.00     0.063 H 
ATOM     13  H   LIG d   1       7.792  -0.500  -2.785  0.00  0.00     0.065 H 
ENDROOT
BRANCH  11  14
ATOM     14  C   LIG d   1       6.181  -6.382  -6.404  0.00  0.00    -0.012 C 
ATOM     15  H   LIG d   1       7.243  -6.600  -6.288  0.00  0.00     0.032 H 
ATOM     16  H   LIG d   1       5.953  -6.235  -7.460  0.00  0.00     0.032 H 
BRANCH  14  17
ATOM     17  C   LIG d   1       5.358  -7.552  -5.861  0.00  0.00     0.028 C 
ATOM     18  H   LIG d   1       5.030  -8.181  -6.690  0.00  0.00     0.036 H 
ATOM     19  H   LIG d   1       4.488  -7.169  -5.329  0.00  0.00     0.036 H 
BRANCH  17  20
ATOM     20  C   LIG d   1       6.206  -8.367  -4.919  0.00  0.00     0.216 C 
ATOM     21  O   LIG d   1       7.291  -7.954  -4.568  0.00  0.00    -0.276 OA
ATOM     22  N   LIG d   1       5.758  -9.556  -4.466  0.00  0.00    -0.291 N 
ATOM     23  C   LIG d   1       4.448 -10.085  -4.873  0.00  0.00     0.091 C 
ATOM     24  C   LIG d   1       6.560 -10.379  -3.542  0.00  0.00     0.031 C 
ATOM     25  C   LIG d   1       3.760 -10.667  -3.668  0.00  0.00     0.231 C 
ATOM     26  H   LIG d   1       4.585 -10.861  -5.626  0.00  0.00     0.056 H 
ATOM     27  H   LIG d   1       3.841  -9.279  -5.286  0.00  0.00     0.056 H 
ATOM     28  N   LIG d   1       4.387 -10.898  -2.514  0.00  0.00    -0.312 N 
ATOM     29  O   LIG d   1       2.581 -10.939  -3.751  0.00  0.00    -0.274 OA
ATOM     30  C   LIG d   1       5.772 -10.541  -2.240  0.00  0.00     0.027 C 
ATOM     31  H   LIG d   1       3.886 -11.335  -1.808  0.00  0.00     0.149 HD
ATOM     32  H   LIG d   1       5.798  -9.602  -1.687  0.00  0.00     0.048 H 
ATOM     33  H   LIG d   1       6.232 -11.323  -1.637  0.00  0.00     0.048 H 
ATOM     34  H   LIG d   1       7.509  -9.885  -3.339  0.00  0.00     0.048 H 
ATOM     35  H   LIG d   1       6.742 -11.359  -3.985  0.00  0.00     0.048 H 
ENDBRANCH  17  20
ENDBRANCH  14  17
ENDBRANCH  11  14
BRANCH   1  36
ATOM     36  C   LIG d   1       8.278  -4.702  -5.348  0.00  0.00    -0.039 C 
ATOM     37  H   LIG d   1       8.801  -4.666  -4.392  0.00  0.00     0.028 H 
ATOM     38  H   LIG d   1       8.347  -5.708  -5.763  0.00  0.00     0.028 H 
ATOM     39  H   LIG d   1       8.734  -3.992  -6.038  0.00  0.00     0.028 H 
ENDBRANCH   1  36
BRANCH   6  40
ATOM     40  C   LIG d   1       3.257  -1.373  -3.344  0.00  0.00    -0.033 C 
ATOM     41  H   LIG d   1       3.022  -0.442  -3.861  0.00  0.00     0.028 H 
ATOM     42  H   LIG d   1       2.646  -2.178  -3.751  0.00  0.00     0.028 H 
ATOM     43  H   LIG d   1       3.049  -1.259  -2.280  0.00  0.00     0.028 H 
ENDBRANCH   6  40
BRANCH   5  44
ATOM     44  O   LIG d   1       5.328   0.250  -2.336  0.00  0.00    -0.506 OA
ATOM     45  H   LIG d   1       5.711   1.067  -2.686  0.00  0.00     0.292 HD
ENDBRANCH   5  44
TORSDOF 6
ENDMDL
MODEL 2
REMARK VINA RESULT:      -6.9      4.203      5.680
REMARK  6 active torsions:
REMARK  status: ('A' for Active; 'I' for Inactive)
REMARK    1  A    between atoms: C_1  and  C_2 
REMARK    2  A    between atoms: C_6  and  O_25 
REMARK    3  A    between atoms: C_7  and  C_24 
REMARK    4  A    between atoms: C_12  and  C_13 
REMARK    5  A    between atoms: C_13  and  C_14 
REMARK    6  A    between atoms: C_14  and  C_15 
REMARK       I    between atoms: C_15  and  N_17 
ROOT
ATOM      1  C   LIG d   1       6.844  -2.354  -4.321  0.00  0.00    -0.030 A 
ATOM      2  C   LIG d   1       5.977  -1.340  -3.716  0.00  0.00     0.021 A 
ATOM      3  C   LIG d   1       6.512  -0.157  -3.192  0.00  0.00    -0.047 A 
ATOM      4  C   LIG d   1       5.683   0.769  -2.628  0.00  0.00    -0.019 A 
ATOM      5  C   LIG d   1       4.309   0.544  -2.570  0.00  0.00     0.123 A 
ATOM      6  C   LIG d   1       3.763  -0.620  -3.086  0.00  0.00     0.034 A 
ATOM      7  C   LIG d   1       4.590  -1.571  -3.662  0.00  0.00     0.146 A 
ATOM      8  O   LIG d   1       4.080  -2.714  -4.169  0.00  0.00    -0.422 OA
ATOM      9  C   LIG d   1       4.868  -3.646  -4.729  0.00  0.00     0.341 A 
ATOM     10  O   LIG d   1       4.361  -4.660  -5.174  0.00  0.00    -0.245 OA
ATOM     11  C   LIG d   1       6.264  -3.478  -4.818  0.00  0.00     0.041 A 
ATOM     12  H   LIG d   1       7.576   0.022  -3.233  0.00  0.00     0.063 H 
ATOM     13  H   LIG d   1       6.095   1.681  -2.223  0.00  0.00     0.065 H 
ENDROOT
BRANCH  11  14
ATOM     14  C   LIG d   1       7.115  -4.548  -5.455  0.00  0.00    -0.012 C 
ATOM     15  H   LIG d   1       6.527  -5.459  -5.568  0.00  0.00     0.032 H 
ATOM     16  H   LIG d   1       7.979  -4.749  -4.822  0.00  0.00     0.032 H 
BRANCH  14  17
ATOM     17  C   LIG d   1       7.587  -4.071  -6.830  0.00  0.00     0.028 C 
ATOM     18  H   LIG d   1       8.448  -4.663  -7.144  0.00  0.00     0.036 H 
ATOM     19  H   LIG d   1       7.869  -3.021  -6.773  0.00  0.00     0.036 H 
BRANCH  17  20
ATOM     20  C   LIG d   1       6.472  -4.240  -7.829  0.00  0.00     0.216 C 
ATOM     21  O   LIG d   1       6.193  -5.344  -8.247  0.00  0.00    -0.276 OA
ATOM     22  N   LIG d   1       5.784  -3.163  -8.260  0.00  0.00    -0.291 N 
ATOM     23  C   LIG d   1       6.098  -1.811  -7.774  0.00  0.00     0.091 C 
ATOM     24  C   LIG d   1       4.686  -3.290  -9.236  0.00  0.00     0.031 C 
ATOM     25  C   LIG d   1       4.812  -1.083  -7.489  0.00  0.00     0.231 C 
ATOM     26  H   LIG d   1       6.662  -1.272  -8.534  0.00  0.00     0.056 H 
ATOM     27  H   LIG d   1       6.688  -1.879  -6.860  0.00  0.00     0.056 H 
ATOM     28  N   LIG d   1       3.621  -1.526  -7.895  0.00  0.00    -0.312 N 
ATOM     29  O   LIG d   1       4.862  -0.046  -6.863  0.00  0.00    -0.274 OA
ATOM     30  C   LIG d   1       3.398  -2.795  -8.574  0.00  0.00     0.027 C 
ATOM     31  H   LIG d   1       2.849  -0.964  -7.725  0.00  0.00     0.149 HD
ATOM     32  H   LIG d   1       3.060  -3.535  -7.850  0.00  0.00     0.048 H 
ATOM     33  H   LIG d   1       2.631  -2.664  -9.336  0.00  0.00     0.048 H 
ATOM     34  H   LIG d   1       4.572  -4.333  -9.527  0.00  0.00     0.048 H 
ATOM     35  H   LIG d   1       4.903  -2.685 -10.116  0.00  0.00     0.048 H 
ENDBRANCH  17  20
ENDBRANCH  14  17
ENDBRANCH  11  14
BRANCH   1  36
ATOM     36  C   LIG d   1       8.335  -2.154  -4.397  0.00  0.00    -0.039 C 
ATOM     37  H   LIG d   1       8.578  -1.126  -4.130  0.00  0.00     0.028 H 
ATOM     38  H   LIG d   1       8.828  -2.836  -3.703  0.00  0.00     0.028 H 
ATOM     39  H   LIG d   1       8.678  -2.357  -5.411  0.00  0.00     0.028 H 
ENDBRANCH   1  36
BRANCH   6  40
ATOM     40  C   LIG d   1       2.276  -0.852  -3.020  0.00  0.00    -0.033 C 
ATOM     41  H   LIG d   1       2.026  -1.344  -2.079  0.00  0.00     0.028 H 
ATOM     42  H   LIG d   1       1.756   0.105  -3.078  0.00  0.00     0.028 H 
ATOM     43  H   LIG d   1       1.969  -1.485  -3.853  0.00  0.00     0.028 H 
ENDBRANCH   6  40
BRANCH   5  44
ATOM     44  O   LIG d   1       3.497   1.476  -2.007  0.00  0.00    -0.506 OA
ATOM     45  H   LIG d   1       3.861   2.373  -2.020  0.00  0.00     0.292 HD
ENDBRANCH   5  44
TORSDOF 6
ENDMDL
MODEL 3
REMARK VINA RESULT:      -6.6     12.635     14.619
REMARK  6 active torsions:
REMARK  status: ('A' for Active; 'I' for Inactive)
REMARK    1  A    between atoms: C_1  and  C_2 
REMARK    2  A    between atoms: C_6  and  O_25 
REMARK    3  A    between atoms: C_7  and  C_24 
REMARK    4  A    between atoms: C_12  and  C_13 
REMARK    5  A    between atoms: C_13  and  C_14 
REMARK    6  A    between atoms: C_14  and  C_15 
REMARK       I    between atoms: C_15  and  N_17 
ROOT
ATOM      1  C   LIG d   1      10.149   8.003  -2.725  0.00  0.00    -0.030 A 
ATOM      2  C   LIG d   1      10.559   8.085  -1.322  0.00  0.00     0.021 A 
ATOM      3  C   LIG d   1      10.903   9.312  -0.743  0.00  0.00    -0.047 A 
ATOM      4  C   LIG d   1      11.288   9.360   0.565  0.00  0.00    -0.019 A 
ATOM      5  C   LIG d   1      11.342   8.195   1.328  0.00  0.00     0.123 A 
ATOM      6  C   LIG d   1      11.004   6.973   0.771  0.00  0.00     0.034 A 
ATOM      7  C   LIG d   1      10.611   6.906  -0.556  0.00  0.00     0.146 A 
ATOM      8  O   LIG d   1      10.279   5.724  -1.119  0.00  0.00    -0.422 OA
ATOM      9  C   LIG d   1       9.897   5.642  -2.404  0.00  0.00     0.341 A 
ATOM     10  O   LIG d   1       9.606   4.554  -2.867  0.00  0.00    -0.245 OA
ATOM     11  C   LIG d   1       9.822   6.783  -3.228  0.00  0.00     0.041 A 
ATOM     12  H   LIG d   1      10.863  10.218  -1.330  0.00  0.00     0.063 H 
ATOM     13  H   LIG d   1      11.553  10.307   1.012  0.00  0.00     0.065 H 
ENDROOT
BRANCH  11  14
ATOM     14  C   LIG d   1       9.388   6.650  -4.665  0.00  0.00    -0.012 C 
ATOM     15  H   LIG d   1       9.033   7.615  -5.028  0.00  0.00     0.032 H 
ATOM     16  H   LIG d   1       8.585   5.917  -4.736  0.00  0.00     0.032 H 
BRANCH  14  17
ATOM     17  C   LIG d   1      10.575   6.191  -5.515  0.00  0.00     0.028 C 
ATOM     18  H   LIG d   1      11.270   5.627  -4.893  0.00  0.00     0.036 H 
ATOM     19  H   LIG d   1      11.083   7.062  -5.929  0.00  0.00     0.036 H 
BRANCH  17  20
ATOM     20  C   LIG d   1      10.081   5.316  -6.637  0.00  0.00     0.216 C 
ATOM     21  O   LIG d   1       9.647   4.209  -6.397  0.00  0.00    -0.276 OA
ATOM     22  N   LIG d   1      10.120   5.763  -7.909  0.00  0.00    -0.291 N 
ATOM     23  C   LIG d   1      10.640   7.100  -8.233  0.00  0.00     0.091 C 
ATOM     24  C   LIG d   1       9.643   4.935  -9.032  0.00  0.00     0.031 C 
ATOM     25  C   LIG d   1       9.737   7.742  -9.251  0.00  0.00     0.231 C 
ATOM     26  H   LIG d   1      11.647   7.010  -8.642  0.00  0.00     0.056 H 
ATOM     27  H   LIG d   1      10.666   7.711  -7.331  0.00  0.00     0.056 H 
ATOM     28  N   LIG d   1       8.805   7.067  -9.924  0.00  0.00    -0.312 N 
ATOM     29  O   LIG d   1       9.865   8.928  -9.469  0.00  0.00    -0.274 OA
ATOM     30  C   LIG d   1       8.478   5.665  -9.703  0.00  0.00     0.027 C 
ATOM     31  H   LIG d   1       8.309   7.543 -10.608  0.00  0.00     0.149 HD
ATOM     32  H   LIG d   1       7.597   5.597  -9.065  0.00  0.00     0.048 H 
ATOM     33  H   LIG d   1       8.262   5.192 -10.661  0.00  0.00     0.048 H 
ATOM     34  H   LIG d   1       9.306   3.969  -8.659  0.00  0.00     0.048 H 
ATOM     35  H   LIG d   1      10.449   4.790  -9.751  0.00  0.00     0.048 H 
ENDBRANCH  17  20
ENDBRANCH  14  17
ENDBRANCH  11  14
BRANCH   1  36
ATOM     36  C   LIG d   1      10.084   9.237  -3.588  0.00  0.00    -0.039 C 
ATOM     37  H   LIG d   1       9.512   9.019  -4.490  0.00  0.00     0.028 H 
ATOM     38  H   LIG d   1       9.597  10.041  -3.034  0.00  0.00     0.028 H 
ATOM     39  H   LIG d   1      11.093   9.543  -3.862  0.00  0.00     0.028 H 
ENDBRANCH   1  36
BRANCH   6  40
ATOM     40  C   LIG d   1      11.065   5.720   1.606  0.00  0.00    -0.033 C 
ATOM     41  H   LIG d   1      11.825   5.834   2.380  0.00  0.00     0.028 H 
ATOM     42  H   LIG d   1      10.095   5.547   2.073  0.00  0.00     0.028 H 
ATOM     43  H   LIG d   1      11.320   4.871   0.970  0.00  0.00     0.028 H 
ENDBRANCH   6  40
BRANCH   5  44
ATOM     44  O   LIG d   1      11.726   8.260   2.629  0.00  0.00    -0.506 OA
ATOM     45  H   LIG d   1      12.344   8.980   2.821  0.00  0.00     0.292 HD
ENDBRANCH   5  44
TORSDOF 6
ENDMDL
MODEL 4
REMARK VINA RESULT:      -6.5      3.169      7.793
REMARK  6 active torsions:
REMARK  status: ('A' for Active; 'I' for Inactive)
REMARK    1  A    between atoms: C_1  and  C_2 
REMARK    2  A    between atoms: C_6  and  O_25 
REMARK    3  A    between atoms: C_7  and  C_24 
REMARK    4  A    between atoms: C_12  and  C_13 
REMARK    5  A    between atoms: C_13  and  C_14 
REMARK    6  A    between atoms: C_14  and  C_15 
REMARK       I    between atoms: C_15  and  N_17 
ROOT
ATOM      1  C   LIG d   1       7.005  -5.834  -5.431  0.00  0.00    -0.030 A 
ATOM      2  C   LIG d   1       6.997  -7.286  -5.242  0.00  0.00     0.021 A 
ATOM      3  C   LIG d   1       8.190  -7.997  -5.073  0.00  0.00    -0.047 A 
ATOM      4  C   LIG d   1       8.155  -9.351  -4.904  0.00  0.00    -0.019 A 
ATOM      5  C   LIG d   1       6.938 -10.030  -4.901  0.00  0.00     0.123 A 
ATOM      6  C   LIG d   1       5.747  -9.342  -5.065  0.00  0.00     0.034 A 
ATOM      7  C   LIG d   1       5.765  -7.967  -5.238  0.00  0.00     0.146 A 
ATOM      8  O   LIG d   1       4.616  -7.276  -5.401  0.00  0.00    -0.422 OA
ATOM      9  C   LIG d   1       4.616  -5.944  -5.570  0.00  0.00     0.341 A 
ATOM     10  O   LIG d   1       3.554  -5.365  -5.713  0.00  0.00    -0.245 OA
ATOM     11  C   LIG d   1       5.813  -5.200  -5.584  0.00  0.00     0.041 A 
ATOM     12  H   LIG d   1       9.137  -7.476  -5.076  0.00  0.00     0.063 H 
ATOM     13  H   LIG d   1       9.076  -9.899  -4.774  0.00  0.00     0.065 H 
ENDROOT
BRANCH  11  14
ATOM     14  C   LIG d   1       5.771  -3.705  -5.776  0.00  0.00    -0.012 C 
ATOM     15  H   LIG d   1       4.769  -3.407  -6.085  0.00  0.00     0.032 H 
ATOM     16  H   LIG d   1       6.489  -3.418  -6.543  0.00  0.00     0.032 H 
BRANCH  14  17
ATOM     17  C   LIG d   1       6.125  -3.013  -4.458  0.00  0.00     0.028 C 
ATOM     18  H   LIG d   1       6.851  -2.221  -4.647  0.00  0.00     0.036 H 
ATOM     19  H   LIG d   1       6.552  -3.740  -3.768  0.00  0.00     0.036 H 
BRANCH  17  20
ATOM     20  C   LIG d   1       4.880  -2.417  -3.854  0.00  0.00     0.216 C 
ATOM     21  O   LIG d   1       4.011  -3.142  -3.417  0.00  0.00    -0.276 OA
ATOM     22  N   LIG d   1       4.731  -1.078  -3.799  0.00  0.00    -0.291 N 
ATOM     23  C   LIG d   1       5.765  -0.172  -4.320  0.00  0.00     0.091 C 
ATOM     24  C   LIG d   1       3.527  -0.460  -3.214  0.00  0.00     0.031 C 
ATOM     25  C   LIG d   1       5.954   0.963  -3.352  0.00  0.00     0.231 C 
ATOM     26  H   LIG d   1       5.452   0.221  -5.288  0.00  0.00     0.056 H 
ATOM     27  H   LIG d   1       6.704  -0.715  -4.433  0.00  0.00     0.056 H 
ATOM     28  N   LIG d   1       5.108   1.215  -2.352  0.00  0.00    -0.312 N 
ATOM     29  O   LIG d   1       6.920   1.684  -3.487  0.00  0.00    -0.274 OA
ATOM     30  C   LIG d   1       3.959   0.386  -2.014  0.00  0.00     0.027 C 
ATOM     31  H   LIG d   1       5.268   2.004  -1.813  0.00  0.00     0.149 HD
ATOM     32  H   LIG d   1       4.223  -0.273  -1.187  0.00  0.00     0.048 H 
ATOM     33  H   LIG d   1       3.131   1.026  -1.710  0.00  0.00     0.048 H 
ATOM     34  H   LIG d   1       2.837  -1.237  -2.887  0.00  0.00     0.048 H 
ATOM     35  H   LIG d   1       3.041   0.175  -3.955  0.00  0.00     0.048 H 
ENDBRANCH  17  20
ENDBRANCH  14  17
ENDBRANCH  11  14
BRANCH   1  36
ATOM     36  C   LIG d   1       8.299  -5.062  -5.449  0.00  0.00    -0.039 C 
ATOM     37  H   LIG d   1       8.090  -4.006  -5.623  0.00  0.00     0.028 H 
ATOM     38  H   LIG d   1       8.804  -5.178  -4.489  0.00  0.00     0.028 H 
ATOM     39  H   LIG d   1       8.938  -5.442  -6.245  0.00  0.00     0.028 H 
ENDBRANCH   1  36
BRANCH   6  40
ATOM     40  C   LIG d   1       4.437 -10.086  -5.058  0.00  0.00    -0.033 C 
ATOM     41  H   LIG d   1       3.682  -9.499  -5.583  0.00  0.00     0.028 H 
ATOM     42  H   LIG d   1       4.562 -11.046  -5.559  0.00  0.00     0.028 H 
ATOM     43  H   LIG d   1       4.118 -10.250  -4.029  0.00  0.00     0.028 H 
ENDBRANCH   6  40
BRANCH   5  44
ATOM     44  O   LIG d   1       6.919 -11.377  -4.732  0.00  0.00    -0.506 OA
ATOM     45  H   LIG d   1       6.810 -11.656  -3.811  0.00  0.00     0.292 HD
ENDBRANCH   5  44
TORSDOF 6
ENDMDL
MODEL 5
REMARK VINA RESULT:      -6.4      5.202      7.660
REMARK  6 active torsions:
REMARK  status: ('A' for Active; 'I' for Inactive)
REMARK    1  A    between atoms: C_1  and  C_2 
REMARK    2  A    between atoms: C_6  and  O_25 
REMARK    3  A    between atoms: C_7  and  C_24 
REMARK    4  A    between atoms: C_12  and  C_13 
REMARK    5  A    between atoms: C_13  and  C_14 
REMARK    6  A    between atoms: C_14  and  C_15 
REMARK       I    between atoms: C_15  and  N_17 
ROOT
ATOM      1  C   LIG d   1       4.608  -1.997  -6.174  0.00  0.00    -0.030 A 
ATOM      2  C   LIG d   1       4.248  -1.357  -7.441  0.00  0.00     0.021 A 
ATOM      3  C   LIG d   1       4.451  -2.012  -8.662  0.00  0.00    -0.047 A 
ATOM      4  C   LIG d   1       4.112  -1.391  -9.828  0.00  0.00    -0.019 A 
ATOM      5  C   LIG d   1       3.567  -0.108  -9.812  0.00  0.00     0.123 A 
ATOM      6  C   LIG d   1       3.358   0.554  -8.614  0.00  0.00     0.034 A 
ATOM      7  C   LIG d   1       3.696  -0.063  -7.419  0.00  0.00     0.146 A 
ATOM      8  O   LIG d   1       3.503   0.565  -6.239  0.00  0.00    -0.422 OA
ATOM      9  C   LIG d   1       3.826  -0.018  -5.074  0.00  0.00     0.341 A 
ATOM     10  O   LIG d   1       3.632   0.587  -4.035  0.00  0.00    -0.245 OA
ATOM     11  C   LIG d   1       4.381  -1.313  -5.023  0.00  0.00     0.041 A 
ATOM     12  H   LIG d   1       4.874  -3.005  -8.680  0.00  0.00     0.063 H 
ATOM     13  H   LIG d   1       4.268  -1.895 -10.770  0.00  0.00     0.065 H 
ENDROOT
BRANCH  11  14
ATOM     14  C   LIG d   1       4.731  -1.933  -3.694  0.00  0.00    -0.012 C 
ATOM     15  H   LIG d   1       4.953  -2.991  -3.834  0.00  0.00     0.032 H 
ATOM     16  H   LIG d   1       3.888  -1.827  -3.011  0.00  0.00     0.032 H 
BRANCH  14  17
ATOM     17  C   LIG d   1       5.956  -1.228  -3.108  0.00  0.00     0.028 C 
ATOM     18  H   LIG d   1       6.001  -1.410  -2.034  0.00  0.00     0.036 H 
ATOM     19  H   LIG d   1       5.881  -0.156  -3.292  0.00  0.00     0.036 H 
BRANCH  17  20
ATOM     20  C   LIG d   1       7.203  -1.764  -3.761  0.00  0.00     0.216 C 
ATOM     21  O   LIG d   1       7.620  -2.864  -3.463  0.00  0.00    -0.276 OA
ATOM     22  N   LIG d   1       7.857  -1.022  -4.678  0.00  0.00    -0.291 N 
ATOM     23  C   LIG d   1       7.379   0.314  -5.061  0.00  0.00     0.091 C 
ATOM     24  C   LIG d   1       9.080  -1.515  -5.338  0.00  0.00     0.031 C 
ATOM     25  C   LIG d   1       7.483   0.461  -6.555  0.00  0.00     0.231 C 
ATOM     26  H   LIG d   1       7.992   1.074  -4.576  0.00  0.00     0.056 H 
ATOM     27  H   LIG d   1       6.340   0.433  -4.754  0.00  0.00     0.056 H 
ATOM     28  N   LIG d   1       8.164  -0.390  -7.323  0.00  0.00    -0.312 N 
ATOM     29  O   LIG d   1       6.923   1.398  -7.084  0.00  0.00    -0.274 OA
ATOM     30  C   LIG d   1       8.808  -1.604  -6.842  0.00  0.00     0.027 C 
ATOM     31  H   LIG d   1       8.234  -0.187  -8.269  0.00  0.00     0.149 HD
ATOM     32  H   LIG d   1       8.160  -2.458  -7.039  0.00  0.00     0.048 H 
ATOM     33  H   LIG d   1       9.752  -1.742  -7.369  0.00  0.00     0.048 H 
ATOM     34  H   LIG d   1       9.334  -2.502  -4.952  0.00  0.00     0.048 H 
ATOM     35  H   LIG d   1       9.903  -0.825  -5.154  0.00  0.00     0.048 H 
ENDBRANCH  17  20
ENDBRANCH  14  17
ENDBRANCH  11  14
BRANCH   1  36
ATOM     36  C   LIG d   1       5.207  -3.380  -6.147  0.00  0.00    -0.039 C 
ATOM     37  H   LIG d   1       5.884  -3.499  -6.993  0.00  0.00     0.028 H 
ATOM     38  H   LIG d   1       5.760  -3.517  -5.217  0.00  0.00     0.028 H 
ATOM     39  H   LIG d   1       4.412  -4.122  -6.210  0.00  0.00     0.028 H 
ENDBRANCH   1  36
BRANCH   6  40
ATOM     40  C   LIG d   1       2.766   1.939  -8.608  0.00  0.00    -0.033 C 
ATOM     41  H   LIG d   1       3.567   2.678  -8.670  0.00  0.00     0.028 H 
ATOM     42  H   LIG d   1       2.101   2.054  -9.464  0.00  0.00     0.028 H 
ATOM     43  H   LIG d   1       2.204   2.091  -7.687  0.00  0.00     0.028 H 
ENDBRANCH   6  40
BRANCH   5  44
ATOM     44  O   LIG d   1       3.234   0.497 -10.982  0.00  0.00    -0.506 OA
ATOM     45  H   LIG d   1       3.255   1.464 -10.944  0.00  0.00     0.292 HD
ENDBRANCH   5  44
TORSDOF 6
ENDMDL
MODEL 6
REMARK VINA RESULT:      -6.4      7.390     10.491
REMARK  6 active torsions:
REMARK  status: ('A' for Active; 'I' for Inactive)
REMARK    1  A    between atoms: C_1  and  C_2 
REMARK    2  A    between atoms: C_6  and  O_25 
REMARK    3  A    between atoms: C_7  and  C_24 
REMARK    4  A    between atoms: C_12  and  C_13 
REMARK    5  A    between atoms: C_13  and  C_14 
REMARK    6  A    between atoms: C_14  and  C_15 
REMARK       I    between atoms: C_15  and  N_17 
ROOT
ATOM      1  C   LIG d   1       9.768   5.292  -4.632  0.00  0.00    -0.030 A 
ATOM      2  C   LIG d   1       9.615   6.418  -5.555  0.00  0.00     0.021 A 
ATOM      3  C   LIG d   1       9.513   7.730  -5.079  0.00  0.00    -0.047 A 
ATOM      4  C   LIG d   1       9.365   8.761  -5.961  0.00  0.00    -0.019 A 
ATOM      5  C   LIG d   1       9.314   8.516  -7.332  0.00  0.00     0.123 A 
ATOM      6  C   LIG d   1       9.415   7.224  -7.820  0.00  0.00     0.034 A 
ATOM      7  C   LIG d   1       9.566   6.164  -6.939  0.00  0.00     0.146 A 
ATOM      8  O   LIG d   1       9.664   4.897  -7.393  0.00  0.00    -0.422 OA
ATOM      9  C   LIG d   1       9.810   3.860  -6.552  0.00  0.00     0.341 A 
ATOM     10  O   LIG d   1       9.895   2.734  -7.009  0.00  0.00    -0.245 OA
ATOM     11  C   LIG d   1       9.868   4.042  -5.156  0.00  0.00     0.041 A 
ATOM     12  H   LIG d   1       9.551   7.926  -4.018  0.00  0.00     0.063 H 
ATOM     13  H   LIG d   1       9.286   9.773  -5.594  0.00  0.00     0.065 H 
ENDROOT
BRANCH  11  14
ATOM     14  C   LIG d   1      10.032   2.852  -4.245  0.00  0.00    -0.012 C 
ATOM     15  H   LIG d   1      10.669   3.124  -3.403  0.00  0.00     0.032 H 
ATOM     16  H   LIG d   1      10.491   2.032  -4.798  0.00  0.00     0.032 H 
BRANCH  14  17
ATOM     17  C   LIG d   1       8.660   2.414  -3.726  0.00  0.00     0.028 C 
ATOM     18  H   LIG d   1       7.904   3.129  -4.052  0.00  0.00     0.036 H 
ATOM     19  H   LIG d   1       8.679   2.376  -2.638  0.00  0.00     0.036 H 
BRANCH  17  20
ATOM     20  C   LIG d   1       8.329   1.049  -4.272  0.00  0.00     0.216 C 
ATOM     21  O   LIG d   1       9.171   0.416  -4.874  0.00  0.00    -0.276 OA
ATOM     22  N   LIG d   1       7.097   0.532  -4.092  0.00  0.00    -0.291 N 
ATOM     23  C   LIG d   1       6.055   1.273  -3.367  0.00  0.00     0.091 C 
ATOM     24  C   LIG d   1       6.739  -0.801  -4.610  0.00  0.00     0.031 C 
ATOM     25  C   LIG d   1       5.333   0.329  -2.446  0.00  0.00     0.231 C 
ATOM     26  H   LIG d   1       5.349   1.701  -4.080  0.00  0.00     0.056 H 
ATOM     27  H   LIG d   1       6.513   2.072  -2.784  0.00  0.00     0.056 H 
ATOM     28  N   LIG d   1       5.459  -0.997  -2.520  0.00  0.00    -0.312 N 
ATOM     29  O   LIG d   1       4.601   0.794  -1.599  0.00  0.00    -0.274 OA
ATOM     30  C   LIG d   1       6.366  -1.692  -3.423  0.00  0.00     0.027 C 
ATOM     31  H   LIG d   1       4.909  -1.537  -1.931  0.00  0.00     0.149 HD
ATOM     32  H   LIG d   1       7.272  -1.965  -2.883  0.00  0.00     0.048 H 
ATOM     33  H   LIG d   1       5.883  -2.596  -3.791  0.00  0.00     0.048 H 
ATOM     34  H   LIG d   1       7.588  -1.231  -5.140  0.00  0.00     0.048 H 
ATOM     35  H   LIG d   1       5.888  -0.717  -5.288  0.00  0.00     0.048 H 
ENDBRANCH  17  20
ENDBRANCH  14  17
ENDBRANCH  11  14
BRANCH   1  36
ATOM     36  C   LIG d   1       9.820   5.512  -3.142  0.00  0.00    -0.039 C 
ATOM     37  H   LIG d   1       9.149   4.809  -2.647  0.00  0.00     0.028 H 
ATOM     38  H   LIG d   1      10.839   5.353  -2.787  0.00  0.00     0.028 H 
ATOM     39  H   LIG d   1       9.510   6.531  -2.914  0.00  0.00     0.028 H 
ENDBRANCH   1  36
BRANCH   6  40
ATOM     40  C   LIG d   1       9.361   6.970  -9.304  0.00  0.00    -0.033 C 
ATOM     41  H   LIG d   1       9.854   6.024  -9.530  0.00  0.00     0.028 H 
ATOM     42  H   LIG d   1       8.320   6.922  -9.627  0.00  0.00     0.028 H 
ATOM     43  H   LIG d   1       9.868   7.779  -9.830  0.00  0.00     0.028 H 
ENDBRANCH   6  40
BRANCH   5  44
ATOM     44  O   LIG d   1       9.167   9.553  -8.196  0.00  0.00    -0.506 OA
ATOM     45  H   LIG d   1      10.004   9.907  -8.530  0.00  0.00     0.292 HD
ENDBRANCH   5  44
TORSDOF 6
ENDMDL
MODEL 7
REMARK VINA RESULT:      -6.3      6.685      8.079
REMARK  6 active torsions:
REMARK  status: ('A' for Active; 'I' for Inactive)
REMARK    1  A    between atoms: C_1  and  C_2 
REMARK    2  A    between atoms: C_6  and  O_25 
REMARK    3  A    between atoms: C_7  and  C_24 
REMARK    4  A    between atoms: C_12  and  C_13 
REMARK    5  A    between atoms: C_13  and  C_14 
REMARK    6  A    between atoms: C_14  and  C_15 
REMARK       I    between atoms: C_15  and  N_17 
ROOT
ATOM      1  C   LIG d   1       6.857  -0.508  -6.084  0.00  0.00    -0.030 A 
ATOM      2  C   LIG d   1       6.019  -0.083  -4.961  0.00  0.00     0.021 A 
ATOM      3  C   LIG d   1       6.569   0.595  -3.867  0.00  0.00    -0.047 A 
ATOM      4  C   LIG d   1       5.767   0.974  -2.831  0.00  0.00    -0.019 A 
ATOM      5  C   LIG d   1       4.402   0.690  -2.854  0.00  0.00     0.123 A 
ATOM      6  C   LIG d   1       3.841   0.022  -3.929  0.00  0.00     0.034 A 
ATOM      7  C   LIG d   1       4.641  -0.371  -4.991  0.00  0.00     0.146 A 
ATOM      8  O   LIG d   1       4.115  -1.025  -6.048  0.00  0.00    -0.422 OA
ATOM      9  C   LIG d   1       4.877  -1.413  -7.083  0.00  0.00     0.341 A 
ATOM     10  O   LIG d   1       4.357  -2.000  -8.015  0.00  0.00    -0.245 OA
ATOM     11  C   LIG d   1       6.262  -1.156  -7.119  0.00  0.00     0.041 A 
ATOM     12  H   LIG d   1       7.626   0.816  -3.843  0.00  0.00     0.063 H 
ATOM     13  H   LIG d   1       6.191   1.497  -1.987  0.00  0.00     0.065 H 
ENDROOT
BRANCH  11  14
ATOM     14  C   LIG d   1       7.084  -1.608  -8.300  0.00  0.00    -0.012 C 
ATOM     15  H   LIG d   1       6.557  -2.404  -8.826  0.00  0.00     0.032 H 
ATOM     16  H   LIG d   1       8.048  -1.979  -7.950  0.00  0.00     0.032 H 
BRANCH  14  17
ATOM     17  C   LIG d   1       7.304  -0.428  -9.248  0.00  0.00     0.028 C 
ATOM     18  H   LIG d   1       8.318  -0.467  -9.649  0.00  0.00     0.036 H 
ATOM     19  H   LIG d   1       7.165   0.506  -8.705  0.00  0.00     0.036 H 
BRANCH  17  20
ATOM     20  C   LIG d   1       6.314  -0.503 -10.381  0.00  0.00     0.216 C 
ATOM     21  O   LIG d   1       6.454  -1.332 -11.256  0.00  0.00    -0.276 OA
ATOM     22  N   LIG d   1       5.272   0.351 -10.424  0.00  0.00    -0.291 N 
ATOM     23  C   LIG d   1       5.073   1.368  -9.380  0.00  0.00     0.091 C 
ATOM     24  C   LIG d   1       4.282   0.305 -11.516  0.00  0.00     0.031 C 
ATOM     25  C   LIG d   1       3.615   1.415  -9.014  0.00  0.00     0.231 C 
ATOM     26  H   LIG d   1       5.388   2.342  -9.755  0.00  0.00     0.056 H 
ATOM     27  H   LIG d   1       5.662   1.108  -8.500  0.00  0.00     0.056 H 
ATOM     28  N   LIG d   1       2.664   0.824  -9.739  0.00  0.00    -0.312 N 
ATOM     29  O   LIG d   1       3.289   2.019  -8.014  0.00  0.00    -0.274 OA
ATOM     30  C   LIG d   1       2.913  -0.008 -10.908  0.00  0.00     0.027 C 
ATOM     31  H   LIG d   1       1.742   0.957  -9.469  0.00  0.00     0.149 HD
ATOM     32  H   LIG d   1       2.882  -1.057 -10.615  0.00  0.00     0.048 H 
ATOM     33  H   LIG d   1       2.139   0.178 -11.652  0.00  0.00     0.048 H 
ATOM     34  H   LIG d   1       4.555  -0.474 -12.227  0.00  0.00     0.048 H 
ATOM     35  H   LIG d   1       4.247   1.270 -12.023  0.00  0.00     0.048 H 
ENDBRANCH  17  20
ENDBRANCH  14  17
ENDBRANCH  11  14
BRANCH   1  36
ATOM     36  C   LIG d   1       8.338  -0.228  -6.095  0.00  0.00    -0.039 C 
ATOM     37  H   LIG d   1       8.517   0.793  -5.756  0.00  0.00     0.028 H 
ATOM     38  H   LIG d   1       8.844  -0.926  -5.427  0.00  0.00     0.028 H 
ATOM     39  H   LIG d   1       8.723  -0.348  -7.107  0.00  0.00     0.028 H 
ENDBRANCH   1  36
BRANCH   6  40
ATOM     40  C   LIG d   1       2.364  -0.278  -3.945  0.00  0.00    -0.033 C 
ATOM     41  H   LIG d   1       1.805   0.633  -3.727  0.00  0.00     0.028 H 
ATOM     42  H   LIG d   1       2.080  -0.650  -4.929  0.00  0.00     0.028 H 
ATOM     43  H   LIG d   1       2.138  -1.032  -3.191  0.00  0.00     0.028 H 
ENDBRANCH   6  40
BRANCH   5  44
ATOM     44  O   LIG d   1       3.617   1.075  -1.816  0.00  0.00    -0.506 OA
ATOM     45  H   LIG d   1       4.046   1.005  -0.951  0.00  0.00     0.292 HD
ENDBRANCH   5  44
TORSDOF 6
ENDMDL
MODEL 8
REMARK VINA RESULT:      -6.3     12.335     14.770
REMARK  6 active torsions:
REMARK  status: ('A' for Active; 'I' for Inactive)
REMARK    1  A    between atoms: C_1  and  C_2 
REMARK    2  A    between atoms: C_6  and  O_25 
REMARK    3  A    between atoms: C_7  and  C_24 
REMARK    4  A    between atoms: C_12  and  C_13 
REMARK    5  A    between atoms: C_13  and  C_14 
REMARK    6  A    between atoms: C_14  and  C_15 
REMARK       I    between atoms: C_15  and  N_17 
ROOT
ATOM      1  C   LIG d   1      10.062   6.236  -2.398  0.00  0.00    -0.030 A 
ATOM      2  C   LIG d   1      10.495   6.713  -1.083  0.00  0.00     0.021 A 
ATOM      3  C   LIG d   1      10.734   5.816  -0.035  0.00  0.00    -0.047 A 
ATOM      4  C   LIG d   1      11.131   6.287   1.182  0.00  0.00    -0.019 A 
ATOM      5  C   LIG d   1      11.299   7.655   1.389  0.00  0.00     0.123 A 
ATOM      6  C   LIG d   1      11.068   8.556   0.363  0.00  0.00     0.034 A 
ATOM      7  C   LIG d   1      10.664   8.095  -0.880  0.00  0.00     0.146 A 
ATOM      8  O   LIG d   1      10.432   8.956  -1.894  0.00  0.00    -0.422 OA
ATOM      9  C   LIG d   1      10.040   8.525  -3.103  0.00  0.00     0.341 A 
ATOM     10  O   LIG d   1       9.843   9.340  -3.987  0.00  0.00    -0.245 OA
ATOM     11  C   LIG d   1       9.851   7.156  -3.376  0.00  0.00     0.041 A 
ATOM     12  H   LIG d   1      10.604   4.755  -0.190  0.00  0.00     0.063 H 
ATOM     13  H   LIG d   1      11.315   5.595   1.991  0.00  0.00     0.065 H 
ENDROOT
BRANCH  11  14
ATOM     14  C   LIG d   1       9.410   6.712  -4.748  0.00  0.00    -0.012 C 
ATOM     15  H   LIG d   1       8.890   7.531  -5.245  0.00  0.00     0.032 H 
ATOM     16  H   LIG d   1       8.739   5.858  -4.655  0.00  0.00     0.032 H 
BRANCH  14  17
ATOM     17  C   LIG d   1      10.636   6.312  -5.573  0.00  0.00     0.028 C 
ATOM     18  H   LIG d   1      11.352   5.797  -4.933  0.00  0.00     0.036 H 
ATOM     19  H   LIG d   1      11.099   7.205  -5.992  0.00  0.00     0.036 H 
BRANCH  17  20
ATOM     20  C   LIG d   1      10.211   5.395  -6.690  0.00  0.00     0.216 C 
ATOM     21  O   LIG d   1       9.844   4.265  -6.441  0.00  0.00    -0.276 OA
ATOM     22  N   LIG d   1      10.238   5.829  -7.966  0.00  0.00    -0.291 N 
ATOM     23  C   LIG d   1      10.677   7.192  -8.301  0.00  0.00     0.091 C 
ATOM     24  C   LIG d   1       9.828   4.960  -9.084  0.00  0.00     0.031 C 
ATOM     25  C   LIG d   1       9.748   7.764  -9.337  0.00  0.00     0.231 C 
ATOM     26  H   LIG d   1      11.692   7.161  -8.697  0.00  0.00     0.056 H 
ATOM     27  H   LIG d   1      10.653   7.813  -7.406  0.00  0.00     0.056 H 
ATOM     28  N   LIG d   1       8.868   7.024 -10.013  0.00  0.00    -0.312 N 
ATOM     29  O   LIG d   1       9.804   8.953  -9.568  0.00  0.00    -0.274 OA
ATOM     30  C   LIG d   1       8.627   5.607  -9.778  0.00  0.00     0.027 C 
ATOM     31  H   LIG d   1       8.352   7.460 -10.708  0.00  0.00     0.149 HD
ATOM     32  H   LIG d   1       7.745   5.492  -9.149  0.00  0.00     0.048 H 
ATOM     33  H   LIG d   1       8.454   5.110 -10.732  0.00  0.00     0.048 H 
ATOM     34  H   LIG d   1       9.547   3.978  -8.704  0.00  0.00     0.048 H 
ATOM     35  H   LIG d   1      10.650   4.857  -9.793  0.00  0.00     0.048 H 
ENDBRANCH  17  20
ENDBRANCH  14  17
ENDBRANCH  11  14
BRANCH   1  36
ATOM     36  C   LIG d   1       9.861   4.766  -2.663  0.00  0.00    -0.039 C 
ATOM     37  H   LIG d   1       9.004   4.630  -3.323  0.00  0.00     0.028 H 
ATOM     38  H   LIG d   1      10.753   4.358  -3.138  0.00  0.00     0.028 H 
ATOM     39  H   LIG d   1       9.680   4.249  -1.721  0.00  0.00     0.028 H 
ENDBRANCH   1  36
BRANCH   6  40
ATOM     40  C   LIG d   1      11.255  10.032   0.598  0.00  0.00    -0.033 C 
ATOM     41  H   LIG d   1      10.356  10.444   1.058  0.00  0.00     0.028 H 
ATOM     42  H   LIG d   1      12.106  10.190   1.260  0.00  0.00     0.028 H 
ATOM     43  H   LIG d   1      11.436  10.532  -0.354  0.00  0.00     0.028 H 
ENDBRANCH   6  40
BRANCH   5  44
ATOM     44  O   LIG d   1      11.696   8.108   2.607  0.00  0.00    -0.506 OA
ATOM     45  H   LIG d   1      11.449   7.527   3.341  0.00  0.00     0.292 HD
ENDBRANCH   5  44
TORSDOF 6
ENDMDL
MODEL 9
REMARK VINA RESULT:      -6.3      3.345      3.829
REMARK  6 active torsions:
REMARK  status: ('A' for Active; 'I' for Inactive)
REMARK    1  A    between atoms: C_1  and  C_2 
REMARK    2  A    between atoms: C_6  and  O_25 
REMARK    3  A    between atoms: C_7  and  C_24 
REMARK    4  A    between atoms: C_12  and  C_13 
REMARK    5  A    between atoms: C_13  and  C_14 
REMARK    6  A    between atoms: C_14  and  C_15 
REMARK       I    between atoms: C_15  and  N_17 
ROOT
ATOM      1  C   LIG d   1       6.864  -2.429  -4.306  0.00  0.00    -0.030 A 
ATOM      2  C   LIG d   1       6.001  -1.399  -3.725  0.00  0.00     0.021 A 
ATOM      3  C   LIG d   1       6.537  -0.196  -3.251  0.00  0.00    -0.047 A 
ATOM      4  C   LIG d   1       5.711   0.746  -2.708  0.00  0.00    -0.019 A 
ATOM      5  C   LIG d   1       4.339   0.516  -2.621  0.00  0.00     0.123 A 
ATOM      6  C   LIG d   1       3.793  -0.668  -3.087  0.00  0.00     0.034 A 
ATOM      7  C   LIG d   1       4.617  -1.636  -3.641  0.00  0.00     0.146 A 
ATOM      8  O   LIG d   1       4.106  -2.798  -4.100  0.00  0.00    -0.422 OA
ATOM      9  C   LIG d   1       4.890  -3.745  -4.639  0.00  0.00     0.341 A 
ATOM     10  O   LIG d   1       4.382  -4.777  -5.039  0.00  0.00    -0.245 OA
ATOM     11  C   LIG d   1       6.284  -3.574  -4.754  0.00  0.00     0.041 A 
ATOM     12  H   LIG d   1       7.599  -0.012  -3.314  0.00  0.00     0.063 H 
ATOM     13  H   LIG d   1       6.124   1.674  -2.342  0.00  0.00     0.065 H 
ENDROOT
BRANCH  11  14
ATOM     14  C   LIG d   1       7.131  -4.661  -5.366  0.00  0.00    -0.012 C 
ATOM     15  H   LIG d   1       6.794  -5.632  -5.002  0.00  0.00     0.032 H 
ATOM     16  H   LIG d   1       8.173  -4.510  -5.086  0.00  0.00     0.032 H 
BRANCH  14  17
ATOM     17  C   LIG d   1       6.998  -4.613  -6.890  0.00  0.00     0.028 C 
ATOM     18  H   LIG d   1       7.798  -3.999  -7.305  0.00  0.00     0.036 H 
ATOM     19  H   LIG d   1       6.034  -4.183  -7.157  0.00  0.00     0.036 H 
BRANCH  17  20
ATOM     20  C   LIG d   1       7.098  -6.010  -7.446  0.00  0.00     0.216 C 
ATOM     21  O   LIG d   1       8.020  -6.728  -7.120  0.00  0.00    -0.276 OA
ATOM     22  N   LIG d   1       6.163  -6.461  -8.306  0.00  0.00    -0.291 N 
ATOM     23  C   LIG d   1       5.034  -5.616  -8.721  0.00  0.00     0.091 C 
ATOM     24  C   LIG d   1       6.228  -7.823  -8.869  0.00  0.00     0.031 C 
ATOM     25  C   LIG d   1       3.777  -6.442  -8.717  0.00  0.00     0.231 C 
ATOM     26  H   LIG d   1       5.216  -5.232  -9.725  0.00  0.00     0.056 H 
ATOM     27  H   LIG d   1       4.926  -4.784  -8.025  0.00  0.00     0.056 H 
ATOM     28  N   LIG d   1       3.782  -7.773  -8.625  0.00  0.00    -0.312 N 
ATOM     29  O   LIG d   1       2.711  -5.872  -8.802  0.00  0.00    -0.274 OA
ATOM     30  C   LIG d   1       4.975  -8.583  -8.426  0.00  0.00     0.027 C 
ATOM     31  H   LIG d   1       2.931  -8.233  -8.694  0.00  0.00     0.149 HD
ATOM     32  H   LIG d   1       5.066  -8.838  -7.371  0.00  0.00     0.048 H 
ATOM     33  H   LIG d   1       4.888  -9.500  -9.009  0.00  0.00     0.048 H 
ATOM     34  H   LIG d   1       7.117  -8.332  -8.498  0.00  0.00     0.048 H 
ATOM     35  H   LIG d   1       6.261  -7.771  -9.957  0.00  0.00     0.048 H 
ENDBRANCH  17  20
ENDBRANCH  14  17
ENDBRANCH  11  14
BRANCH   1  36
ATOM     36  C   LIG d   1       8.353  -2.225  -4.412  0.00  0.00    -0.039 C 
ATOM     37  H   LIG d   1       8.742  -1.881  -3.453  0.00  0.00     0.028 H 
ATOM     38  H   LIG d   1       8.831  -3.168  -4.680  0.00  0.00     0.028 H 
ATOM     39  H   LIG d   1       8.565  -1.480  -5.178  0.00  0.00     0.028 H 
ENDBRANCH   1  36
BRANCH   6  40
ATOM     40  C   LIG d   1       2.308  -0.905  -2.990  0.00  0.00    -0.033 C 
ATOM     41  H   LIG d   1       1.783   0.049  -3.045  0.00  0.00     0.028 H 
ATOM     42  H   LIG d   1       1.987  -1.543  -3.814  0.00  0.00     0.028 H 
ATOM     43  H   LIG d   1       2.079  -1.392  -2.041  0.00  0.00     0.028 H 
ENDBRANCH   6  40
BRANCH   5  44
ATOM     44  O   LIG d   1       3.531   1.463  -2.079  0.00  0.00    -0.506 OA
ATOM     45  H   LIG d   1       3.933   1.948  -1.344  0.00  0.00     0.292 HD
ENDBRANCH   5  44
TORSDOF 6
ENDMDL
MODEL 10
REMARK VINA RESULT:      -6.2      4.289      5.310
REMARK  6 active torsions:
REMARK  status: ('A' for Active; 'I' for Inactive)
REMARK    1  A    between atoms: C_1  and  C_2 
REMARK    2  A    between atoms: C_6  and  O_25 
REMARK    3  A    between atoms: C_7  and  C_24 
REMARK    4  A    between atoms: C_12  and  C_13 
REMARK    5  A    between atoms: C_13  and  C_14 
REMARK    6  A    between atoms: C_14  and  C_15 
REMARK       I    between atoms: C_15  and  N_17 
ROOT
ATOM      1  C   LIG d   1       5.523  -3.417  -4.939  0.00  0.00    -0.030 A 
ATOM      2  C   LIG d   1       5.258  -2.309  -4.019  0.00  0.00     0.021 A 
ATOM      3  C   LIG d   1       4.237  -2.393  -3.066  0.00  0.00    -0.047 A 
ATOM      4  C   LIG d   1       4.007  -1.344  -2.224  0.00  0.00    -0.019 A 
ATOM      5  C   LIG d   1       4.782  -0.189  -2.309  0.00  0.00     0.123 A 
ATOM      6  C   LIG d   1       5.798  -0.090  -3.245  0.00  0.00     0.034 A 
ATOM      7  C   LIG d   1       6.045  -1.146  -4.108  0.00  0.00     0.146 A 
ATOM      8  O   LIG d   1       7.029  -1.070  -5.029  0.00  0.00    -0.422 OA
ATOM      9  C   LIG d   1       7.280  -2.084  -5.872  0.00  0.00     0.341 A 
ATOM     10  O   LIG d   1       8.179  -1.968  -6.686  0.00  0.00    -0.245 OA
ATOM     11  C   LIG d   1       6.532  -3.277  -5.838  0.00  0.00     0.041 A 
ATOM     12  H   LIG d   1       3.632  -3.286  -2.997  0.00  0.00     0.063 H 
ATOM     13  H   LIG d   1       3.219  -1.409  -1.489  0.00  0.00     0.065 H 
ENDROOT
BRANCH  11  14
ATOM     14  C   LIG d   1       6.845  -4.393  -6.802  0.00  0.00    -0.012 C 
ATOM     15  H   LIG d   1       7.416  -3.998  -7.643  0.00  0.00     0.032 H 
ATOM     16  H   LIG d   1       5.915  -4.829  -7.167  0.00  0.00     0.032 H 
BRANCH  14  17
ATOM     17  C   LIG d   1       7.668  -5.468  -6.088  0.00  0.00     0.028 C 
ATOM     18  H   LIG d   1       7.461  -6.441  -6.534  0.00  0.00     0.036 H 
ATOM     19  H   LIG d   1       7.400  -5.488  -5.032  0.00  0.00     0.036 H 
BRANCH  17  20
ATOM     20  C   LIG d   1       9.135  -5.153  -6.229  0.00  0.00     0.216 C 
ATOM     21  O   LIG d   1       9.617  -4.987  -7.330  0.00  0.00    -0.276 OA
ATOM     22  N   LIG d   1       9.912  -5.055  -5.132  0.00  0.00    -0.291 N 
ATOM     23  C   LIG d   1       9.359  -5.250  -3.784  0.00  0.00     0.091 C 
ATOM     24  C   LIG d   1      11.351  -4.747  -5.232  0.00  0.00     0.031 C 
ATOM     25  C   LIG d   1       9.921  -4.198  -2.867  0.00  0.00     0.231 C 
ATOM     26  H   LIG d   1       9.634  -6.239  -3.416  0.00  0.00     0.056 H 
ATOM     27  H   LIG d   1       8.273  -5.162  -3.818  0.00  0.00     0.056 H 
ATOM     28  N   LIG d   1      10.956  -3.423  -3.198  0.00  0.00    -0.312 N 
ATOM     29  O   LIG d   1       9.411  -4.047  -1.778  0.00  0.00    -0.274 OA
ATOM     30  C   LIG d   1      11.609  -3.428  -4.499  0.00  0.00     0.027 C 
ATOM     31  H   LIG d   1      11.296  -2.814  -2.525  0.00  0.00     0.149 HD
ATOM     32  H   LIG d   1      11.223  -2.604  -5.098  0.00  0.00     0.048 H 
ATOM     33  H   LIG d   1      12.682  -3.299  -4.362  0.00  0.00     0.048 H 
ATOM     34  H   LIG d   1      11.633  -4.647  -6.279  0.00  0.00     0.048 H 
ATOM     35  H   LIG d   1      11.932  -5.545  -4.769  0.00  0.00     0.048 H 
ENDBRANCH  17  20
ENDBRANCH  14  17
ENDBRANCH  11  14
BRANCH   1  36
ATOM     36  C   LIG d   1       4.703  -4.681  -4.887  0.00  0.00    -0.039 C 
ATOM     37  H   LIG d   1       4.796  -5.133  -3.900  0.00  0.00     0.028 H 
ATOM     38  H   LIG d   1       3.657  -4.443  -5.081  0.00  0.00     0.028 H 
ATOM     39  H   LIG d   1       5.063  -5.379  -5.642  0.00  0.00     0.028 H 
ENDBRANCH   1  36
BRANCH   6  40
ATOM     40  C   LIG d   1       6.631   1.163  -3.326  0.00  0.00    -0.033 C 
ATOM     41  H   LIG d   1       6.055   1.953  -3.809  0.00  0.00     0.028 H 
ATOM     42  H   LIG d   1       6.910   1.480  -2.321  0.00  0.00     0.028 H 
ATOM     43  H   LIG d   1       7.532   0.964  -3.908  0.00  0.00     0.028 H 
ENDBRANCH   6  40
BRANCH   5  44
ATOM     44  O   LIG d   1       4.542   0.846  -1.463  0.00  0.00    -0.506 OA
ATOM     45  H   LIG d   1       5.203   0.943  -0.763  0.00  0.00     0.292 HD
ENDBRANCH   5  44
TORSDOF 6
ENDMDL
