MODEL 1
REMARK VINA RESULT:      -6.1      0.000      0.000
REMARK  8 active torsions:
REMARK  status: ('A' for Active; 'I' for Inactive)
REMARK    1  A    between atoms: C_1  and  C_2 
REMARK    2  A    between atoms: C_2  and  C_3 
REMARK    3  A    between atoms: C_3  and  C_4 
REMARK    4  A    between atoms: C_3  and  C_5 
REMARK    5  A    between atoms: C_3  and  C_6 
REMARK    6  A    between atoms: C_6  and  O_8 
REMARK    7  A    between atoms: O_8  and  C_9 
REMARK    8  A    between atoms: C_10  and  C_20 
ROOT
ATOM      1  C   LIG d   1       5.188  -0.981  -4.401  0.00  0.00     0.167 A 
ATOM      2  C   LIG d   1       5.495  -2.171  -4.976  0.00  0.00     0.110 A 
ATOM      3  C   LIG d   1       4.591  -3.194  -4.443  0.00  0.00     0.344 A 
ATOM      4  O   LIG d   1       4.605  -4.369  -4.756  0.00  0.00    -0.245 OA
ATOM      5  O   LIG d   1       3.742  -2.641  -3.557  0.00  0.00    -0.447 OA
ATOM      6  C   LIG d   1       4.042  -1.247  -3.455  0.00  0.00     0.172 A 
ATOM      7  C   LIG d   1       2.824  -0.420  -3.866  0.00  0.00    -0.005 C 
ATOM      8  C   LIG d   1       3.169   1.069  -3.780  0.00  0.00    -0.049 C 
ATOM      9  C   LIG d   1       3.571   1.417  -2.345  0.00  0.00    -0.053 C 
ATOM     10  C   LIG d   1       4.795   0.591  -1.943  0.00  0.00    -0.049 C 
ATOM     11  C   LIG d   1       4.455  -0.898  -2.025  0.00  0.00    -0.005 C 
ATOM     12  H   LIG d   1       2.544  -0.669  -4.889  0.00  0.00     0.031 H 
ATOM     13  H   LIG d   1       1.993  -0.640  -3.196  0.00  0.00     0.031 H 
ATOM     14  H   LIG d   1       3.996   1.291  -4.453  0.00  0.00     0.027 H 
ATOM     15  H   LIG d   1       2.299   1.660  -4.066  0.00  0.00     0.027 H 
ATOM     16  H   LIG d   1       3.813   2.478  -2.283  0.00  0.00     0.026 H 
ATOM     17  H   LIG d   1       2.745   1.192  -1.671  0.00  0.00     0.026 H 
ATOM     18  H   LIG d   1       5.622   0.813  -2.619  0.00  0.00     0.027 H 
ATOM     19  H   LIG d   1       5.084   0.842  -0.922  0.00  0.00     0.027 H 
ATOM     20  H   LIG d   1       3.634  -1.121  -1.345  0.00  0.00     0.031 H 
ATOM     21  H   LIG d   1       5.329  -1.486  -1.746  0.00  0.00     0.031 H 
ENDROOT
BRANCH   1  22
ATOM     22  O   LIG d   1       5.791   0.205  -4.626  0.00  0.00    -0.425 OA
BRANCH  22  23
ATOM     23  C   LIG d   1       7.097   0.316  -4.327  0.00  0.00     0.318 C 
ATOM     24  O   LIG d   1       7.532  -0.196  -3.323  0.00  0.00    -0.250 OA
BRANCH  23  25
ATOM     25  C   LIG d   1       8.018   1.081  -5.242  0.00  0.00     0.062 C 
BRANCH  25  26
ATOM     26  C   LIG d   1       9.355   0.347  -5.350  0.00  0.00    -0.041 C 
ATOM     27  H   LIG d   1       9.218  -0.699  -5.075  0.00  0.00     0.027 H 
ATOM     28  H   LIG d   1      10.078   0.808  -4.678  0.00  0.00     0.027 H 
BRANCH  26  29
ATOM     29  C   LIG d   1       9.869   0.432  -6.789  0.00  0.00    -0.064 C 
ATOM     30  H   LIG d   1       9.032   0.612  -7.463  0.00  0.00     0.023 H 
ATOM     31  H   LIG d   1      10.586   1.250  -6.871  0.00  0.00     0.023 H 
ATOM     32  H   LIG d   1      10.356  -0.506  -7.057  0.00  0.00     0.023 H 
ENDBRANCH  26  29
ENDBRANCH  25  26
BRANCH  25  33
ATOM     33  C   LIG d   1       8.250   2.484  -4.676  0.00  0.00    -0.050 C 
ATOM     34  H   LIG d   1       8.226   3.211  -5.487  0.00  0.00     0.024 H 
ATOM     35  H   LIG d   1       7.468   2.719  -3.954  0.00  0.00     0.024 H 
ATOM     36  H   LIG d   1       9.222   2.520  -4.183  0.00  0.00     0.024 H 
ENDBRANCH  25  33
BRANCH  25  37
ATOM     37  C   LIG d   1       7.381   1.190  -6.629  0.00  0.00    -0.050 C 
ATOM     38  H   LIG d   1       6.916   0.240  -6.891  0.00  0.00     0.024 H 
ATOM     39  H   LIG d   1       6.625   1.975  -6.621  0.00  0.00     0.024 H 
ATOM     40  H   LIG d   1       8.149   1.434  -7.363  0.00  0.00     0.024 H 
ENDBRANCH  25  37
ENDBRANCH  23  25
ENDBRANCH  22  23
ENDBRANCH   1  22
BRANCH   2  41
ATOM     41  C   LIG d   1       6.565  -2.399  -5.976  0.00  0.00     0.011 A 
ATOM     42  C   LIG d   1       7.780  -2.963  -5.585  0.00  0.00     0.050 A 
ATOM     43  C   LIG d   1       8.772  -3.177  -6.522  0.00  0.00    -0.024 A 
ATOM     44 CL   LIG d   1       8.042  -3.400  -3.926  0.00  0.00    -0.083 Cl
ATOM     45  C   LIG d   1       8.566  -2.824  -7.844  0.00  0.00     0.042 A 
ATOM     46  H   LIG d   1       9.711  -3.619  -6.222  0.00  0.00     0.065 H 
ATOM     47  C   LIG d   1       7.364  -2.258  -8.235  0.00  0.00    -0.043 A 
ATOM     48 CL   LIG d   1       9.820  -3.090  -9.016  0.00  0.00    -0.084 Cl
ATOM     49  C   LIG d   1       6.365  -2.044  -7.310  0.00  0.00    -0.051 A 
ATOM     50  H   LIG d   1       7.210  -1.984  -9.269  0.00  0.00     0.063 H 
ATOM     51  H   LIG d   1       5.428  -1.604  -7.616  0.00  0.00     0.062 H 
ENDBRANCH   2  41
TORSDOF 8
ENDMDL
MODEL 2
REMARK VINA RESULT:      -6.0      1.713      3.827
REMARK  8 active torsions:
REMARK  status: ('A' for Active; 'I' for Inactive)
REMARK    1  A    between atoms: C_1  and  C_2 
REMARK    2  A    between atoms: C_2  and  C_3 
REMARK    3  A    between atoms: C_3  and  C_4 
REMARK    4  A    between atoms: C_3  and  C_5 
REMARK    5  A    between atoms: C_3  and  C_6 
REMARK    6  A    between atoms: C_6  and  O_8 
REMARK    7  A    between atoms: O_8  and  C_9 
REMARK    8  A    between atoms: C_10  and  C_20 
ROOT
ATOM      1  C   LIG d   1       5.581  -0.195  -4.427  0.00  0.00     0.167 A 
ATOM      2  C   LIG d   1       6.793   0.386  -4.615  0.00  0.00     0.110 A 
ATOM      3  C   LIG d   1       7.025   1.345  -3.533  0.00  0.00     0.344 A 
ATOM      4  O   LIG d   1       8.020   2.032  -3.411  0.00  0.00    -0.245 OA
ATOM      5  O   LIG d   1       5.973   1.353  -2.693  0.00  0.00    -0.447 OA
ATOM      6  C   LIG d   1       5.005   0.418  -3.174  0.00  0.00     0.172 A 
ATOM      7  C   LIG d   1       4.762  -0.668  -2.126  0.00  0.00    -0.005 C 
ATOM      8  C   LIG d   1       3.746  -1.677  -2.666  0.00  0.00    -0.049 C 
ATOM      9  C   LIG d   1       2.433  -0.958  -2.981  0.00  0.00    -0.053 C 
ATOM     10  C   LIG d   1       2.681   0.122  -4.036  0.00  0.00    -0.049 C 
ATOM     11  C   LIG d   1       3.695   1.135  -3.499  0.00  0.00    -0.005 C 
ATOM     12  H   LIG d   1       5.700  -1.178  -1.909  0.00  0.00     0.031 H 
ATOM     13  H   LIG d   1       4.374  -0.213  -1.214  0.00  0.00     0.031 H 
ATOM     14  H   LIG d   1       4.136  -2.135  -3.574  0.00  0.00     0.027 H 
ATOM     15  H   LIG d   1       3.567  -2.448  -1.917  0.00  0.00     0.027 H 
ATOM     16  H   LIG d   1       1.707  -1.678  -3.361  0.00  0.00     0.026 H 
ATOM     17  H   LIG d   1       2.044  -0.496  -2.073  0.00  0.00     0.026 H 
ATOM     18  H   LIG d   1       3.072  -0.339  -4.943  0.00  0.00     0.027 H 
ATOM     19  H   LIG d   1       1.744   0.631  -4.262  0.00  0.00     0.027 H 
ATOM     20  H   LIG d   1       3.301   1.600  -2.596  0.00  0.00     0.031 H 
ATOM     21  H   LIG d   1       3.877   1.900  -4.254  0.00  0.00     0.031 H 
ENDROOT
BRANCH   1  22
ATOM     22  O   LIG d   1       5.003  -1.131  -5.208  0.00  0.00    -0.425 OA
BRANCH  22  23
ATOM     23  C   LIG d   1       4.746  -0.814  -6.489  0.00  0.00     0.318 C 
ATOM     24  O   LIG d   1       4.455   0.321  -6.783  0.00  0.00    -0.250 OA
BRANCH  23  25
ATOM     25  C   LIG d   1       4.820  -1.874  -7.557  0.00  0.00     0.062 C 
BRANCH  25  26
ATOM     26  C   LIG d   1       5.095  -3.233  -6.910  0.00  0.00    -0.041 C 
ATOM     27  H   LIG d   1       4.309  -3.934  -7.189  0.00  0.00     0.027 H 
ATOM     28  H   LIG d   1       5.115  -3.121  -5.826  0.00  0.00     0.027 H 
BRANCH  26  29
ATOM     29  C   LIG d   1       6.447  -3.763  -7.392  0.00  0.00    -0.064 C 
ATOM     30  H   LIG d   1       6.537  -4.818  -7.133  0.00  0.00     0.023 H 
ATOM     31  H   LIG d   1       6.518  -3.647  -8.475  0.00  0.00     0.023 H 
ATOM     32  H   LIG d   1       7.250  -3.201  -6.914  0.00  0.00     0.023 H 
ENDBRANCH  26  29
ENDBRANCH  25  26
BRANCH  25  33
ATOM     33  C   LIG d   1       5.948  -1.536  -8.534  0.00  0.00    -0.050 C 
ATOM     34  H   LIG d   1       6.685  -2.339  -8.529  0.00  0.00     0.024 H 
ATOM     35  H   LIG d   1       5.539  -1.425  -9.538  0.00  0.00     0.024 H 
ATOM     36  H   LIG d   1       6.424  -0.604  -8.230  0.00  0.00     0.024 H 
ENDBRANCH  25  33
BRANCH  25  37
ATOM     37  C   LIG d   1       3.490  -1.929  -8.313  0.00  0.00    -0.050 C 
ATOM     38  H   LIG d   1       3.067  -2.930  -8.231  0.00  0.00     0.024 H 
ATOM     39  H   LIG d   1       2.798  -1.206  -7.883  0.00  0.00     0.024 H 
ATOM     40  H   LIG d   1       3.659  -1.690  -9.363  0.00  0.00     0.024 H 
ENDBRANCH  25  37
ENDBRANCH  23  25
ENDBRANCH  22  23
ENDBRANCH   1  22
BRANCH   2  41
ATOM     41  C   LIG d   1       7.727   0.097  -5.731  0.00  0.00     0.011 A 
ATOM     42  C   LIG d   1       8.441  -1.101  -5.753  0.00  0.00     0.050 A 
ATOM     43  C   LIG d   1       9.305  -1.367  -6.798  0.00  0.00    -0.024 A 
ATOM     44 CL   LIG d   1       8.239  -2.258  -4.476  0.00  0.00    -0.083 Cl
ATOM     45  C   LIG d   1       9.470  -0.442  -7.814  0.00  0.00     0.042 A 
ATOM     46  H   LIG d   1       9.854  -2.297  -6.820  0.00  0.00     0.065 H 
ATOM     47  C   LIG d   1       8.768   0.751  -7.793  0.00  0.00    -0.043 A 
ATOM     48 CL   LIG d   1      10.563  -0.780  -9.121  0.00  0.00    -0.084 Cl
ATOM     49  C   LIG d   1       7.898   1.025  -6.758  0.00  0.00    -0.051 A 
ATOM     50  H   LIG d   1       8.902   1.469  -8.589  0.00  0.00     0.063 H 
ATOM     51  H   LIG d   1       7.351   1.955  -6.742  0.00  0.00     0.062 H 
ENDBRANCH   2  41
TORSDOF 8
ENDMDL
MODEL 3
REMARK VINA RESULT:      -5.8      2.071      3.267
REMARK  8 active torsions:
REMARK  status: ('A' for Active; 'I' for Inactive)
REMARK    1  A    between atoms: C_1  and  C_2 
REMARK    2  A    between atoms: C_2  and  C_3 
REMARK    3  A    between atoms: C_3  and  C_4 
REMARK    4  A    between atoms: C_3  and  C_5 
REMARK    5  A    between atoms: C_3  and  C_6 
REMARK    6  A    between atoms: C_6  and  O_8 
REMARK    7  A    between atoms: O_8  and  C_9 
REMARK    8  A    between atoms: C_10  and  C_20 
ROOT
ATOM      1  C   LIG d   1       4.780  -0.502  -4.994  0.00  0.00     0.167 A 
ATOM      2  C   LIG d   1       4.476  -0.425  -6.315  0.00  0.00     0.110 A 
ATOM      3  C   LIG d   1       3.097   0.050  -6.450  0.00  0.00     0.344 A 
ATOM      4  O   LIG d   1       2.521   0.226  -7.506  0.00  0.00    -0.245 OA
ATOM      5  O   LIG d   1       2.563   0.262  -5.233  0.00  0.00    -0.447 OA
ATOM      6  C   LIG d   1       3.544  -0.063  -4.247  0.00  0.00     0.172 A 
ATOM      7  C   LIG d   1       3.859   1.169  -3.398  0.00  0.00    -0.005 C 
ATOM      8  C   LIG d   1       4.932   0.815  -2.365  0.00  0.00    -0.049 C 
ATOM      9  C   LIG d   1       4.422  -0.316  -1.469  0.00  0.00    -0.053 C 
ATOM     10  C   LIG d   1       4.117  -1.548  -2.324  0.00  0.00    -0.049 C 
ATOM     11  C   LIG d   1       3.042  -1.199  -3.356  0.00  0.00    -0.005 C 
ATOM     12  H   LIG d   1       4.224   1.969  -4.041  0.00  0.00     0.031 H 
ATOM     13  H   LIG d   1       2.954   1.497  -2.885  0.00  0.00     0.031 H 
ATOM     14  H   LIG d   1       5.837   0.492  -2.878  0.00  0.00     0.027 H 
ATOM     15  H   LIG d   1       5.151   1.690  -1.755  0.00  0.00     0.027 H 
ATOM     16  H   LIG d   1       5.184  -0.565  -0.731  0.00  0.00     0.026 H 
ATOM     17  H   LIG d   1       3.514   0.006  -0.959  0.00  0.00     0.026 H 
ATOM     18  H   LIG d   1       5.024  -1.868  -2.837  0.00  0.00     0.027 H 
ATOM     19  H   LIG d   1       3.757  -2.354  -1.684  0.00  0.00     0.027 H 
ATOM     20  H   LIG d   1       2.134  -0.885  -2.843  0.00  0.00     0.031 H 
ATOM     21  H   LIG d   1       2.830  -2.075  -3.969  0.00  0.00     0.031 H 
ENDROOT
BRANCH   1  22
ATOM     22  O   LIG d   1       5.952  -0.897  -4.455  0.00  0.00    -0.425 OA
BRANCH  22  23
ATOM     23  C   LIG d   1       6.371  -2.150  -4.704  0.00  0.00     0.318 C 
ATOM     24  O   LIG d   1       5.572  -3.055  -4.751  0.00  0.00    -0.250 OA
BRANCH  23  25
ATOM     25  C   LIG d   1       7.836  -2.426  -4.922  0.00  0.00     0.062 C 
BRANCH  25  26
ATOM     26  C   LIG d   1       8.017  -3.239  -6.205  0.00  0.00    -0.041 C 
ATOM     27  H   LIG d   1       7.161  -3.078  -6.860  0.00  0.00     0.027 H 
ATOM     28  H   LIG d   1       8.090  -4.298  -5.956  0.00  0.00     0.027 H 
BRANCH  26  29
ATOM     29  C   LIG d   1       9.295  -2.792  -6.916  0.00  0.00    -0.064 C 
ATOM     30  H   LIG d   1       9.762  -1.986  -6.351  0.00  0.00     0.023 H 
ATOM     31  H   LIG d   1       9.985  -3.634  -6.988  0.00  0.00     0.023 H 
ATOM     32  H   LIG d   1       9.049  -2.439  -7.918  0.00  0.00     0.023 H 
ENDBRANCH  26  29
ENDBRANCH  25  26
BRANCH  25  33
ATOM     33  C   LIG d   1       8.388  -3.217  -3.733  0.00  0.00    -0.050 C 
ATOM     34  H   LIG d   1       9.312  -2.754  -3.387  0.00  0.00     0.024 H 
ATOM     35  H   LIG d   1       7.657  -3.218  -2.926  0.00  0.00     0.024 H 
ATOM     36  H   LIG d   1       8.589  -4.243  -4.043  0.00  0.00     0.024 H 
ENDBRANCH  25  33
BRANCH  25  37
ATOM     37  C   LIG d   1       8.591  -1.101  -5.046  0.00  0.00    -0.050 C 
ATOM     38  H   LIG d   1       8.052  -0.438  -5.723  0.00  0.00     0.024 H 
ATOM     39  H   LIG d   1       8.669  -0.633  -4.065  0.00  0.00     0.024 H 
ATOM     40  H   LIG d   1       9.590  -1.287  -5.439  0.00  0.00     0.024 H 
ENDBRANCH  25  37
ENDBRANCH  23  25
ENDBRANCH  22  23
ENDBRANCH   1  22
BRANCH   2  41
ATOM     41  C   LIG d   1       5.389  -0.766  -7.433  0.00  0.00     0.011 A 
ATOM     42  C   LIG d   1       5.214  -1.955  -8.141  0.00  0.00     0.050 A 
ATOM     43  C   LIG d   1       6.064  -2.264  -9.186  0.00  0.00    -0.024 A 
ATOM     44 CL   LIG d   1       3.929  -3.040  -7.715  0.00  0.00    -0.083 Cl
ATOM     45  C   LIG d   1       7.092  -1.401  -9.522  0.00  0.00     0.042 A 
ATOM     46  H   LIG d   1       5.926  -3.181  -9.739  0.00  0.00     0.065 H 
ATOM     47  C   LIG d   1       7.273  -0.223  -8.818  0.00  0.00    -0.043 A 
ATOM     48 CL   LIG d   1       8.161  -1.799 -10.832  0.00  0.00    -0.084 Cl
ATOM     49  C   LIG d   1       6.427   0.099  -7.777  0.00  0.00    -0.051 A 
ATOM     50  H   LIG d   1       8.078   0.446  -9.085  0.00  0.00     0.063 H 
ATOM     51  H   LIG d   1       6.569   1.018  -7.229  0.00  0.00     0.062 H 
ENDBRANCH   2  41
TORSDOF 8
ENDMDL
MODEL 4
REMARK VINA RESULT:      -5.8      2.504      3.773
REMARK  8 active torsions:
REMARK  status: ('A' for Active; 'I' for Inactive)
REMARK    1  A    between atoms: C_1  and  C_2 
REMARK    2  A    between atoms: C_2  and  C_3 
REMARK    3  A    between atoms: C_3  and  C_4 
REMARK    4  A    between atoms: C_3  and  C_5 
REMARK    5  A    between atoms: C_3  and  C_6 
REMARK    6  A    between atoms: C_6  and  O_8 
REMARK    7  A    between atoms: O_8  and  C_9 
REMARK    8  A    between atoms: C_10  and  C_20 
ROOT
ATOM      1  C   LIG d   1       4.453  -1.055  -5.100  0.00  0.00     0.167 A 
ATOM      2  C   LIG d   1       4.138  -0.809  -6.397  0.00  0.00     0.110 A 
ATOM      3  C   LIG d   1       3.170   0.290  -6.442  0.00  0.00     0.344 A 
ATOM      4  O   LIG d   1       2.686   0.752  -7.457  0.00  0.00    -0.245 OA
ATOM      5  O   LIG d   1       2.896   0.713  -5.194  0.00  0.00    -0.447 OA
ATOM      6  C   LIG d   1       3.652  -0.078  -4.274  0.00  0.00     0.172 A 
ATOM      7  C   LIG d   1       4.593   0.818  -3.468  0.00  0.00    -0.005 C 
ATOM      8  C   LIG d   1       5.417  -0.044  -2.508  0.00  0.00    -0.049 C 
ATOM      9  C   LIG d   1       4.476  -0.793  -1.562  0.00  0.00    -0.053 C 
ATOM     10  C   LIG d   1       3.543  -1.694  -2.374  0.00  0.00    -0.049 C 
ATOM     11  C   LIG d   1       2.716  -0.835  -3.334  0.00  0.00    -0.005 C 
ATOM     12  H   LIG d   1       5.262   1.346  -4.146  0.00  0.00     0.031 H 
ATOM     13  H   LIG d   1       4.008   1.539  -2.897  0.00  0.00     0.031 H 
ATOM     14  H   LIG d   1       6.006  -0.762  -3.078  0.00  0.00     0.027 H 
ATOM     15  H   LIG d   1       6.083   0.593  -1.928  0.00  0.00     0.027 H 
ATOM     16  H   LIG d   1       5.063  -1.404  -0.875  0.00  0.00     0.026 H 
ATOM     17  H   LIG d   1       3.884  -0.076  -0.994  0.00  0.00     0.026 H 
ATOM     18  H   LIG d   1       4.135  -2.410  -2.945  0.00  0.00     0.027 H 
ATOM     19  H   LIG d   1       2.876  -2.229  -1.699  0.00  0.00     0.027 H 
ATOM     20  H   LIG d   1       2.119  -0.124  -2.763  0.00  0.00     0.031 H 
ATOM     21  H   LIG d   1       2.056  -1.478  -3.918  0.00  0.00     0.031 H 
ENDROOT
BRANCH   1  22
ATOM     22  O   LIG d   1       5.309  -1.990  -4.639  0.00  0.00    -0.425 OA
BRANCH  22  23
ATOM     23  C   LIG d   1       6.597  -1.910  -5.019  0.00  0.00     0.318 C 
ATOM     24  O   LIG d   1       7.119  -0.829  -5.154  0.00  0.00    -0.250 OA
BRANCH  23  25
ATOM     25  C   LIG d   1       7.387  -3.167  -5.276  0.00  0.00     0.062 C 
BRANCH  25  26
ATOM     26  C   LIG d   1       8.111  -3.048  -6.619  0.00  0.00    -0.041 C 
ATOM     27  H   LIG d   1       9.153  -2.781  -6.446  0.00  0.00     0.027 H 
ATOM     28  H   LIG d   1       7.632  -2.277  -7.222  0.00  0.00     0.027 H 
BRANCH  26  29
ATOM     29  C   LIG d   1       8.043  -4.388  -7.355  0.00  0.00    -0.064 C 
ATOM     30  H   LIG d   1       8.702  -5.105  -6.866  0.00  0.00     0.023 H 
ATOM     31  H   LIG d   1       7.018  -4.762  -7.334  0.00  0.00     0.023 H 
ATOM     32  H   LIG d   1       8.358  -4.250  -8.389  0.00  0.00     0.023 H 
ENDBRANCH  26  29
ENDBRANCH  25  26
BRANCH  25  33
ATOM     33  C   LIG d   1       6.438  -4.367  -5.312  0.00  0.00    -0.050 C 
ATOM     34  H   LIG d   1       5.562  -4.119  -5.911  0.00  0.00     0.024 H 
ATOM     35  H   LIG d   1       6.949  -5.222  -5.753  0.00  0.00     0.024 H 
ATOM     36  H   LIG d   1       6.126  -4.613  -4.297  0.00  0.00     0.024 H 
ENDBRANCH  25  33
BRANCH  25  37
ATOM     37  C   LIG d   1       8.413  -3.362  -4.158  0.00  0.00    -0.050 C 
ATOM     38  H   LIG d   1       8.179  -4.271  -3.605  0.00  0.00     0.024 H 
ATOM     39  H   LIG d   1       9.410  -3.446  -4.590  0.00  0.00     0.024 H 
ATOM     40  H   LIG d   1       8.381  -2.507  -3.483  0.00  0.00     0.024 H 
ENDBRANCH  25  37
ENDBRANCH  23  25
ENDBRANCH  22  23
ENDBRANCH   1  22
BRANCH   2  41
ATOM     41  C   LIG d   1       4.683  -1.531  -7.571  0.00  0.00     0.011 A 
ATOM     42  C   LIG d   1       5.641  -0.925  -8.384  0.00  0.00     0.050 A 
ATOM     43  C   LIG d   1       6.149  -1.606  -9.474  0.00  0.00    -0.024 A 
ATOM     44 CL   LIG d   1       6.198   0.679  -8.023  0.00  0.00    -0.083 Cl
ATOM     45  C   LIG d   1       5.701  -2.882  -9.765  0.00  0.00     0.042 A 
ATOM     46  H   LIG d   1       6.895  -1.140 -10.100  0.00  0.00     0.065 H 
ATOM     47  C   LIG d   1       4.746  -3.486  -8.965  0.00  0.00    -0.043 A 
ATOM     48 CL   LIG d   1       6.339  -3.729 -11.140  0.00  0.00    -0.084 Cl
ATOM     49  C   LIG d   1       4.236  -2.818  -7.871  0.00  0.00    -0.051 A 
ATOM     50  H   LIG d   1       4.400  -4.482  -9.198  0.00  0.00     0.063 H 
ATOM     51  H   LIG d   1       3.491  -3.290  -7.248  0.00  0.00     0.062 H 
ENDBRANCH   2  41
TORSDOF 8
ENDMDL
MODEL 5
REMARK VINA RESULT:      -5.6      2.678      4.271
REMARK  8 active torsions:
REMARK  status: ('A' for Active; 'I' for Inactive)
REMARK    1  A    between atoms: C_1  and  C_2 
REMARK    2  A    between atoms: C_2  and  C_3 
REMARK    3  A    between atoms: C_3  and  C_4 
REMARK    4  A    between atoms: C_3  and  C_5 
REMARK    5  A    between atoms: C_3  and  C_6 
REMARK    6  A    between atoms: C_6  and  O_8 
REMARK    7  A    between atoms: O_8  and  C_9 
REMARK    8  A    between atoms: C_10  and  C_20 
ROOT
ATOM      1  C   LIG d   1       4.292  -1.028  -5.306  0.00  0.00     0.167 A 
ATOM      2  C   LIG d   1       3.975  -0.550  -6.536  0.00  0.00     0.110 A 
ATOM      3  C   LIG d   1       3.217   0.693  -6.373  0.00  0.00     0.344 A 
ATOM      4  O   LIG d   1       2.783   1.370  -7.286  0.00  0.00    -0.245 OA
ATOM      5  O   LIG d   1       3.071   0.975  -5.065  0.00  0.00    -0.447 OA
ATOM      6  C   LIG d   1       3.710  -0.056  -4.308  0.00  0.00     0.172 A 
ATOM      7  C   LIG d   1       4.826   0.543  -3.451  0.00  0.00    -0.005 C 
ATOM      8  C   LIG d   1       5.520  -0.575  -2.669  0.00  0.00    -0.049 C 
ATOM      9  C   LIG d   1       4.499  -1.279  -1.773  0.00  0.00    -0.053 C 
ATOM     10  C   LIG d   1       3.390  -1.882  -2.637  0.00  0.00    -0.049 C 
ATOM     11  C   LIG d   1       2.691  -0.768  -3.420  0.00  0.00    -0.005 C 
ATOM     12  H   LIG d   1       5.551   1.040  -4.095  0.00  0.00     0.031 H 
ATOM     13  H   LIG d   1       4.400   1.265  -2.754  0.00  0.00     0.031 H 
ATOM     14  H   LIG d   1       5.949  -1.294  -3.365  0.00  0.00     0.027 H 
ATOM     15  H   LIG d   1       6.311  -0.149  -2.052  0.00  0.00     0.027 H 
ATOM     16  H   LIG d   1       4.995  -2.072  -1.212  0.00  0.00     0.026 H 
ATOM     17  H   LIG d   1       4.067  -0.559  -1.078  0.00  0.00     0.026 H 
ATOM     18  H   LIG d   1       3.822  -2.601  -3.334  0.00  0.00     0.027 H 
ATOM     19  H   LIG d   1       2.665  -2.387  -1.998  0.00  0.00     0.027 H 
ATOM     20  H   LIG d   1       2.253  -0.054  -2.723  0.00  0.00     0.031 H 
ATOM     21  H   LIG d   1       1.905  -1.199  -4.041  0.00  0.00     0.031 H 
ENDROOT
BRANCH   1  22
ATOM     22  O   LIG d   1       4.986  -2.151  -5.028  0.00  0.00    -0.425 OA
BRANCH  22  23
ATOM     23  C   LIG d   1       6.245  -2.246  -5.491  0.00  0.00     0.318 C 
ATOM     24  O   LIG d   1       6.973  -1.283  -5.460  0.00  0.00    -0.250 OA
BRANCH  23  25
ATOM     25  C   LIG d   1       6.746  -3.553  -6.048  0.00  0.00     0.062 C 
BRANCH  25  26
ATOM     26  C   LIG d   1       5.557  -4.419  -6.467  0.00  0.00    -0.041 C 
ATOM     27  H   LIG d   1       5.710  -4.775  -7.486  0.00  0.00     0.027 H 
ATOM     28  H   LIG d   1       4.643  -3.827  -6.422  0.00  0.00     0.027 H 
BRANCH  26  29
ATOM     29  C   LIG d   1       5.438  -5.615  -5.521  0.00  0.00    -0.064 C 
ATOM     30  H   LIG d   1       5.614  -6.536  -6.076  0.00  0.00     0.023 H 
ATOM     31  H   LIG d   1       6.178  -5.523  -4.724  0.00  0.00     0.023 H 
ATOM     32  H   LIG d   1       4.439  -5.637  -5.087  0.00  0.00     0.023 H 
ENDBRANCH  26  29
ENDBRANCH  25  26
BRANCH  25  33
ATOM     33  C   LIG d   1       7.559  -4.285  -4.978  0.00  0.00    -0.050 C 
ATOM     34  H   LIG d   1       8.520  -4.587  -5.395  0.00  0.00     0.024 H 
ATOM     35  H   LIG d   1       7.724  -3.622  -4.129  0.00  0.00     0.024 H 
ATOM     36  H   LIG d   1       7.012  -5.169  -4.648  0.00  0.00     0.024 H 
ENDBRANCH  25  33
BRANCH  25  37
ATOM     37  C   LIG d   1       7.634  -3.281  -7.265  0.00  0.00    -0.050 C 
ATOM     38  H   LIG d   1       8.652  -3.605  -7.051  0.00  0.00     0.024 H 
ATOM     39  H   LIG d   1       7.251  -3.829  -8.125  0.00  0.00     0.024 H 
ATOM     40  H   LIG d   1       7.631  -2.213  -7.485  0.00  0.00     0.024 H 
ENDBRANCH  25  37
ENDBRANCH  23  25
ENDBRANCH  22  23
ENDBRANCH   1  22
BRANCH   2  41
ATOM     41  C   LIG d   1       4.337  -1.181  -7.828  0.00  0.00     0.011 A 
ATOM     42  C   LIG d   1       5.391  -0.670  -8.585  0.00  0.00     0.050 A 
ATOM     43  C   LIG d   1       5.727  -1.266  -9.786  0.00  0.00    -0.024 A 
ATOM     44 CL   LIG d   1       6.284   0.705  -8.017  0.00  0.00    -0.083 Cl
ATOM     45  C   LIG d   1       5.012  -2.360 -10.242  0.00  0.00     0.042 A 
ATOM     46  H   LIG d   1       6.547  -0.876 -10.370  0.00  0.00     0.065 H 
ATOM     47  C   LIG d   1       3.961  -2.866  -9.496  0.00  0.00    -0.043 A 
ATOM     48 CL   LIG d   1       5.435  -3.099 -11.755  0.00  0.00    -0.084 Cl
ATOM     49  C   LIG d   1       3.620  -2.283  -8.294  0.00  0.00    -0.051 A 
ATOM     50  H   LIG d   1       3.406  -3.719  -9.858  0.00  0.00     0.063 H 
ATOM     51  H   LIG d   1       2.801  -2.679  -7.713  0.00  0.00     0.062 H 
ENDBRANCH   2  41
TORSDOF 8
ENDMDL
MODEL 6
REMARK VINA RESULT:      -5.5      2.576      3.759
REMARK  8 active torsions:
REMARK  status: ('A' for Active; 'I' for Inactive)
REMARK    1  A    between atoms: C_1  and  C_2 
REMARK    2  A    between atoms: C_2  and  C_3 
REMARK    3  A    between atoms: C_3  and  C_4 
REMARK    4  A    between atoms: C_3  and  C_5 
REMARK    5  A    between atoms: C_3  and  C_6 
REMARK    6  A    between atoms: C_6  and  O_8 
REMARK    7  A    between atoms: O_8  and  C_9 
REMARK    8  A    between atoms: C_10  and  C_20 
ROOT
ATOM      1  C   LIG d   1       5.698  -0.440  -4.995  0.00  0.00     0.167 A 
ATOM      2  C   LIG d   1       6.888  -0.851  -5.502  0.00  0.00     0.110 A 
ATOM      3  C   LIG d   1       7.658  -1.486  -4.429  0.00  0.00     0.344 A 
ATOM      4  O   LIG d   1       8.770  -1.961  -4.556  0.00  0.00    -0.245 OA
ATOM      5  O   LIG d   1       6.952  -1.466  -3.283  0.00  0.00    -0.447 OA
ATOM      6  C   LIG d   1       5.702  -0.820  -3.534  0.00  0.00     0.172 A 
ATOM      7  C   LIG d   1       4.551  -1.783  -3.243  0.00  0.00    -0.005 C 
ATOM      8  C   LIG d   1       3.220  -1.089  -3.545  0.00  0.00    -0.049 C 
ATOM      9  C   LIG d   1       3.087   0.159  -2.669  0.00  0.00    -0.053 C 
ATOM     10  C   LIG d   1       4.238   1.121  -2.971  0.00  0.00    -0.049 C 
ATOM     11  C   LIG d   1       5.570   0.432  -2.669  0.00  0.00    -0.005 C 
ATOM     12  H   LIG d   1       4.649  -2.667  -3.872  0.00  0.00     0.031 H 
ATOM     13  H   LIG d   1       4.579  -2.076  -2.193  0.00  0.00     0.031 H 
ATOM     14  H   LIG d   1       3.190  -0.801  -4.595  0.00  0.00     0.027 H 
ATOM     15  H   LIG d   1       2.398  -1.771  -3.331  0.00  0.00     0.027 H 
ATOM     16  H   LIG d   1       2.137   0.651  -2.880  0.00  0.00     0.026 H 
ATOM     17  H   LIG d   1       3.121  -0.129  -1.618  0.00  0.00     0.026 H 
ATOM     18  H   LIG d   1       4.206   1.407  -4.023  0.00  0.00     0.027 H 
ATOM     19  H   LIG d   1       4.140   2.011  -2.350  0.00  0.00     0.027 H 
ATOM     20  H   LIG d   1       5.605   0.153  -1.617  0.00  0.00     0.031 H 
ATOM     21  H   LIG d   1       6.390   1.116  -2.891  0.00  0.00     0.031 H 
ENDROOT
BRANCH   1  22
ATOM     22  O   LIG d   1       4.709   0.189  -5.663  0.00  0.00    -0.425 OA
BRANCH  22  23
ATOM     23  C   LIG d   1       4.108  -0.469  -6.670  0.00  0.00     0.318 C 
ATOM     24  O   LIG d   1       4.069  -1.677  -6.662  0.00  0.00    -0.250 OA
BRANCH  23  25
ATOM     25  C   LIG d   1       3.487   0.298  -7.808  0.00  0.00     0.062 C 
BRANCH  25  26
ATOM     26  C   LIG d   1       4.579   0.730  -8.788  0.00  0.00    -0.041 C 
ATOM     27  H   LIG d   1       4.513   0.127  -9.694  0.00  0.00     0.027 H 
ATOM     28  H   LIG d   1       5.557   0.589  -8.328  0.00  0.00     0.027 H 
BRANCH  26  29
ATOM     29  C   LIG d   1       4.391   2.206  -9.144  0.00  0.00    -0.064 C 
ATOM     30  H   LIG d   1       4.308   2.312 -10.225  0.00  0.00     0.023 H 
ATOM     31  H   LIG d   1       3.483   2.581  -8.670  0.00  0.00     0.023 H 
ATOM     32  H   LIG d   1       5.248   2.778  -8.787  0.00  0.00     0.023 H 
ENDBRANCH  26  29
ENDBRANCH  25  26
BRANCH  25  33
ATOM     33  C   LIG d   1       2.775   1.536  -7.259  0.00  0.00    -0.050 C 
ATOM     34  H   LIG d   1       3.086   2.414  -7.825  0.00  0.00     0.024 H 
ATOM     35  H   LIG d   1       1.697   1.407  -7.353  0.00  0.00     0.024 H 
ATOM     36  H   LIG d   1       3.035   1.669  -6.209  0.00  0.00     0.024 H 
ENDBRANCH  25  33
BRANCH  25  37
ATOM     37  C   LIG d   1       2.476  -0.594  -8.531  0.00  0.00    -0.050 C 
ATOM     38  H   LIG d   1       1.630  -0.791  -7.873  0.00  0.00     0.024 H 
ATOM     39  H   LIG d   1       2.125  -0.090  -9.432  0.00  0.00     0.024 H 
ATOM     40  H   LIG d   1       2.951  -1.536  -8.804  0.00  0.00     0.024 H 
ENDBRANCH  25  37
ENDBRANCH  23  25
ENDBRANCH  22  23
ENDBRANCH   1  22
BRANCH   2  41
ATOM     41  C   LIG d   1       7.334  -0.686  -6.906  0.00  0.00     0.011 A 
ATOM     42  C   LIG d   1       7.894   0.521  -7.325  0.00  0.00     0.050 A 
ATOM     43  C   LIG d   1       8.313   0.668  -8.633  0.00  0.00    -0.024 A 
ATOM     44 CL   LIG d   1       8.071   1.834  -6.203  0.00  0.00    -0.083 Cl
ATOM     45  C   LIG d   1       8.167  -0.376  -9.530  0.00  0.00     0.042 A 
ATOM     46  H   LIG d   1       8.753   1.599  -8.958  0.00  0.00     0.065 H 
ATOM     47  C   LIG d   1       7.606  -1.574  -9.120  0.00  0.00    -0.043 A 
ATOM     48 CL   LIG d   1       8.689  -0.183 -11.175  0.00  0.00    -0.084 Cl
ATOM     49  C   LIG d   1       7.189  -1.733  -7.815  0.00  0.00    -0.051 A 
ATOM     50  H   LIG d   1       7.494  -2.385  -9.825  0.00  0.00     0.063 H 
ATOM     51  H   LIG d   1       6.752  -2.668  -7.496  0.00  0.00     0.062 H 
ENDBRANCH   2  41
TORSDOF 8
ENDMDL
MODEL 7
REMARK VINA RESULT:      -5.3      2.720      3.625
REMARK  8 active torsions:
REMARK  status: ('A' for Active; 'I' for Inactive)
REMARK    1  A    between atoms: C_1  and  C_2 
REMARK    2  A    between atoms: C_2  and  C_3 
REMARK    3  A    between atoms: C_3  and  C_4 
REMARK    4  A    between atoms: C_3  and  C_5 
REMARK    5  A    between atoms: C_3  and  C_6 
REMARK    6  A    between atoms: C_6  and  O_8 
REMARK    7  A    between atoms: O_8  and  C_9 
REMARK    8  A    between atoms: C_10  and  C_20 
ROOT
ATOM      1  C   LIG d   1       5.030  -0.916  -5.563  0.00  0.00     0.167 A 
ATOM      2  C   LIG d   1       5.632  -1.985  -6.143  0.00  0.00     0.110 A 
ATOM      3  C   LIG d   1       5.879  -2.998  -5.114  0.00  0.00     0.344 A 
ATOM      4  O   LIG d   1       6.407  -4.076  -5.309  0.00  0.00    -0.245 OA
ATOM      5  O   LIG d   1       5.435  -2.559  -3.921  0.00  0.00    -0.447 OA
ATOM      6  C   LIG d   1       4.886  -1.252  -4.098  0.00  0.00     0.172 A 
ATOM      7  C   LIG d   1       3.409  -1.248  -3.704  0.00  0.00    -0.005 C 
ATOM      8  C   LIG d   1       2.827   0.150  -3.925  0.00  0.00    -0.049 C 
ATOM      9  C   LIG d   1       3.594   1.161  -3.071  0.00  0.00    -0.053 C 
ATOM     10  C   LIG d   1       5.070   1.159  -3.475  0.00  0.00    -0.049 C 
ATOM     11  C   LIG d   1       5.656  -0.237  -3.253  0.00  0.00    -0.005 C 
ATOM     12  H   LIG d   1       2.868  -1.968  -4.318  0.00  0.00     0.031 H 
ATOM     13  H   LIG d   1       3.313  -1.520  -2.653  0.00  0.00     0.031 H 
ATOM     14  H   LIG d   1       2.919   0.420  -4.977  0.00  0.00     0.027 H 
ATOM     15  H   LIG d   1       1.776   0.156  -3.639  0.00  0.00     0.027 H 
ATOM     16  H   LIG d   1       3.177   2.157  -3.225  0.00  0.00     0.026 H 
ATOM     17  H   LIG d   1       3.506   0.890  -2.019  0.00  0.00     0.026 H 
ATOM     18  H   LIG d   1       5.159   1.428  -4.528  0.00  0.00     0.027 H 
ATOM     19  H   LIG d   1       5.615   1.882  -2.868  0.00  0.00     0.027 H 
ATOM     20  H   LIG d   1       5.574  -0.503  -2.200  0.00  0.00     0.031 H 
ATOM     21  H   LIG d   1       6.706  -0.240  -3.548  0.00  0.00     0.031 H 
ENDROOT
BRANCH   1  22
ATOM     22  O   LIG d   1       4.640   0.222  -6.172  0.00  0.00    -0.425 OA
BRANCH  22  23
ATOM     23  C   LIG d   1       3.749   0.129  -7.175  0.00  0.00     0.318 C 
ATOM     24  O   LIG d   1       2.813  -0.629  -7.081  0.00  0.00    -0.250 OA
BRANCH  23  25
ATOM     25  C   LIG d   1       3.918   0.968  -8.415  0.00  0.00     0.062 C 
BRANCH  25  26
ATOM     26  C   LIG d   1       3.616   0.118  -9.651  0.00  0.00    -0.041 C 
ATOM     27  H   LIG d   1       2.549   0.159  -9.867  0.00  0.00     0.027 H 
ATOM     28  H   LIG d   1       3.910  -0.914  -9.462  0.00  0.00     0.027 H 
BRANCH  26  29
ATOM     29  C   LIG d   1       4.401   0.661 -10.847  0.00  0.00    -0.064 C 
ATOM     30  H   LIG d   1       5.126  -0.083 -11.174  0.00  0.00     0.023 H 
ATOM     31  H   LIG d   1       3.711   0.881 -11.663  0.00  0.00     0.023 H 
ATOM     32  H   LIG d   1       4.921   1.574 -10.556  0.00  0.00     0.023 H 
ENDBRANCH  26  29
ENDBRANCH  25  26
BRANCH  25  33
ATOM     33  C   LIG d   1       5.357   1.484  -8.489  0.00  0.00    -0.050 C 
ATOM     34  H   LIG d   1       5.430   2.245  -9.265  0.00  0.00     0.024 H 
ATOM     35  H   LIG d   1       5.638   1.916  -7.529  0.00  0.00     0.024 H 
ATOM     36  H   LIG d   1       6.027   0.657  -8.726  0.00  0.00     0.024 H 
ENDBRANCH  25  33
BRANCH  25  37
ATOM     37  C   LIG d   1       2.953   2.154  -8.363  0.00  0.00    -0.050 C 
ATOM     38  H   LIG d   1       2.631   2.405  -9.373  0.00  0.00     0.024 H 
ATOM     39  H   LIG d   1       2.084   1.890  -7.760  0.00  0.00     0.024 H 
ATOM     40  H   LIG d   1       3.456   3.013  -7.918  0.00  0.00     0.024 H 
ENDBRANCH  25  37
ENDBRANCH  23  25
ENDBRANCH  22  23
ENDBRANCH   1  22
BRANCH   2  41
ATOM     41  C   LIG d   1       5.981  -2.106  -7.579  0.00  0.00     0.011 A 
ATOM     42  C   LIG d   1       5.209  -2.906  -8.422  0.00  0.00     0.050 A 
ATOM     43  C   LIG d   1       5.536  -3.011  -9.760  0.00  0.00    -0.024 A 
ATOM     44 CL   LIG d   1       3.837  -3.762  -7.792  0.00  0.00    -0.083 Cl
ATOM     45  C   LIG d   1       6.634  -2.333 -10.261  0.00  0.00     0.042 A 
ATOM     46  H   LIG d   1       4.936  -3.624 -10.415  0.00  0.00     0.065 H 
ATOM     47  C   LIG d   1       7.406  -1.543  -9.427  0.00  0.00    -0.043 A 
ATOM     48 CL   LIG d   1       7.043  -2.474 -11.943  0.00  0.00    -0.084 Cl
ATOM     49  C   LIG d   1       7.086  -1.427  -8.091  0.00  0.00    -0.051 A 
ATOM     50  H   LIG d   1       8.262  -1.017  -9.824  0.00  0.00     0.063 H 
ATOM     51  H   LIG d   1       7.689  -0.810  -7.441  0.00  0.00     0.062 H 
ENDBRANCH   2  41
TORSDOF 8
ENDMDL
MODEL 8
REMARK VINA RESULT:      -5.1      3.100      4.824
REMARK  8 active torsions:
REMARK  status: ('A' for Active; 'I' for Inactive)
REMARK    1  A    between atoms: C_1  and  C_2 
REMARK    2  A    between atoms: C_2  and  C_3 
REMARK    3  A    between atoms: C_3  and  C_4 
REMARK    4  A    between atoms: C_3  and  C_5 
REMARK    5  A    between atoms: C_3  and  C_6 
REMARK    6  A    between atoms: C_6  and  O_8 
REMARK    7  A    between atoms: O_8  and  C_9 
REMARK    8  A    between atoms: C_10  and  C_20 
ROOT
ATOM      1  C   LIG d   1       4.430  -0.062  -7.606  0.00  0.00     0.167 A 
ATOM      2  C   LIG d   1       4.307  -0.376  -6.291  0.00  0.00     0.110 A 
ATOM      3  C   LIG d   1       3.002   0.094  -5.818  0.00  0.00     0.344 A 
ATOM      4  O   LIG d   1       2.585  -0.033  -4.683  0.00  0.00    -0.245 OA
ATOM      5  O   LIG d   1       2.334   0.686  -6.826  0.00  0.00    -0.447 OA
ATOM      6  C   LIG d   1       3.154   0.644  -7.996  0.00  0.00     0.172 A 
ATOM      7  C   LIG d   1       2.444  -0.137  -9.102  0.00  0.00    -0.005 C 
ATOM      8  C   LIG d   1       3.344  -0.198 -10.339  0.00  0.00    -0.049 C 
ATOM      9  C   LIG d   1       3.648   1.222 -10.819  0.00  0.00    -0.053 C 
ATOM     10  C   LIG d   1       4.365   1.995  -9.710  0.00  0.00    -0.049 C 
ATOM     11  C   LIG d   1       3.467   2.062  -8.473  0.00  0.00    -0.005 C 
ATOM     12  H   LIG d   1       2.234  -1.148  -8.756  0.00  0.00     0.031 H 
ATOM     13  H   LIG d   1       1.510   0.364  -9.358  0.00  0.00     0.031 H 
ATOM     14  H   LIG d   1       4.276  -0.703 -10.085  0.00  0.00     0.027 H 
ATOM     15  H   LIG d   1       2.837  -0.748 -11.131  0.00  0.00     0.027 H 
ATOM     16  H   LIG d   1       4.286   1.178 -11.702  0.00  0.00     0.026 H 
ATOM     17  H   LIG d   1       2.715   1.728 -11.070  0.00  0.00     0.026 H 
ATOM     18  H   LIG d   1       5.296   1.488  -9.457  0.00  0.00     0.027 H 
ATOM     19  H   LIG d   1       4.584   3.006 -10.055  0.00  0.00     0.027 H 
ATOM     20  H   LIG d   1       2.539   2.575  -8.724  0.00  0.00     0.031 H 
ATOM     21  H   LIG d   1       3.981   2.606  -7.681  0.00  0.00     0.031 H 
ENDROOT
BRANCH   1  22
ATOM     22  O   LIG d   1       5.485  -0.323  -8.404  0.00  0.00    -0.425 OA
BRANCH  22  23
ATOM     23  C   LIG d   1       6.679   0.192  -8.062  0.00  0.00     0.318 C 
ATOM     24  O   LIG d   1       6.742   1.293  -7.569  0.00  0.00    -0.250 OA
BRANCH  23  25
ATOM     25  C   LIG d   1       7.938  -0.603  -8.296  0.00  0.00     0.062 C 
BRANCH  25  26
ATOM     26  C   LIG d   1       8.753   0.049  -9.414  0.00  0.00    -0.041 C 
ATOM     27  H   LIG d   1       9.731  -0.429  -9.476  0.00  0.00     0.027 H 
ATOM     28  H   LIG d   1       8.880   1.110  -9.199  0.00  0.00     0.027 H 
BRANCH  26  29
ATOM     29  C   LIG d   1       8.018  -0.118 -10.745  0.00  0.00    -0.064 C 
ATOM     30  H   LIG d   1       7.930   0.852 -11.236  0.00  0.00     0.023 H 
ATOM     31  H   LIG d   1       8.578  -0.801 -11.386  0.00  0.00     0.023 H 
ATOM     32  H   LIG d   1       7.024  -0.525 -10.563  0.00  0.00     0.023 H 
ENDBRANCH  26  29
ENDBRANCH  25  26
BRANCH  25  33
ATOM     33  C   LIG d   1       7.570  -2.033  -8.700  0.00  0.00    -0.050 C 
ATOM     34  H   LIG d   1       6.765  -2.006  -9.434  0.00  0.00     0.024 H 
ATOM     35  H   LIG d   1       8.441  -2.524  -9.132  0.00  0.00     0.024 H 
ATOM     36  H   LIG d   1       7.241  -2.585  -7.819  0.00  0.00     0.024 H 
ENDBRANCH  25  33
BRANCH  25  37
ATOM     37  C   LIG d   1       8.767  -0.634  -7.010  0.00  0.00    -0.050 C 
ATOM     38  H   LIG d   1       8.104  -0.558  -6.149  0.00  0.00     0.024 H 
ATOM     39  H   LIG d   1       9.324  -1.569  -6.959  0.00  0.00     0.024 H 
ATOM     40  H   LIG d   1       9.464   0.204  -7.007  0.00  0.00     0.024 H 
ENDBRANCH  25  37
ENDBRANCH  23  25
ENDBRANCH  22  23
ENDBRANCH   1  22
BRANCH   2  41
ATOM     41  C   LIG d   1       5.324  -1.077  -5.471  0.00  0.00     0.011 A 
ATOM     42  C   LIG d   1       5.531  -2.447  -5.634  0.00  0.00     0.050 A 
ATOM     43  C   LIG d   1       6.484  -3.094  -4.870  0.00  0.00    -0.024 A 
ATOM     44 CL   LIG d   1       4.598  -3.335  -6.797  0.00  0.00    -0.083 Cl
ATOM     45  C   LIG d   1       7.223  -2.387  -3.939  0.00  0.00     0.042 A 
ATOM     46  H   LIG d   1       6.649  -4.154  -4.999  0.00  0.00     0.065 H 
ATOM     47  C   LIG d   1       7.017  -1.029  -3.770  0.00  0.00    -0.043 A 
ATOM     48 CL   LIG d   1       8.415  -3.208  -2.978  0.00  0.00    -0.084 Cl
ATOM     49  C   LIG d   1       6.073  -0.371  -4.530  0.00  0.00    -0.051 A 
ATOM     50  H   LIG d   1       7.598  -0.483  -3.040  0.00  0.00     0.063 H 
ATOM     51  H   LIG d   1       5.913   0.688  -4.397  0.00  0.00     0.062 H 
ENDBRANCH   2  41
TORSDOF 8
ENDMDL
MODEL 9
REMARK VINA RESULT:      -5.0      3.695      6.568
REMARK  8 active torsions:
REMARK  status: ('A' for Active; 'I' for Inactive)
REMARK    1  A    between atoms: C_1  and  C_2 
REMARK    2  A    between atoms: C_2  and  C_3 
REMARK    3  A    between atoms: C_3  and  C_4 
REMARK    4  A    between atoms: C_3  and  C_5 
REMARK    5  A    between atoms: C_3  and  C_6 
REMARK    6  A    between atoms: C_6  and  O_8 
REMARK    7  A    between atoms: O_8  and  C_9 
REMARK    8  A    between atoms: C_10  and  C_20 
ROOT
ATOM      1  C   LIG d   1       3.265  -1.245  -8.316  0.00  0.00     0.167 A 
ATOM      2  C   LIG d   1       3.346  -0.163  -7.501  0.00  0.00     0.110 A 
ATOM      3  C   LIG d   1       3.083   1.040  -8.295  0.00  0.00     0.344 A 
ATOM      4  O   LIG d   1       3.082   2.176  -7.860  0.00  0.00    -0.245 OA
ATOM      5  O   LIG d   1       2.844   0.703  -9.576  0.00  0.00    -0.447 OA
ATOM      6  C   LIG d   1       2.941  -0.718  -9.693  0.00  0.00     0.172 A 
ATOM      7  C   LIG d   1       1.609  -1.295 -10.172  0.00  0.00    -0.005 C 
ATOM      8  C   LIG d   1       1.718  -2.819 -10.265  0.00  0.00    -0.049 C 
ATOM      9  C   LIG d   1       2.828  -3.189 -11.251  0.00  0.00    -0.053 C 
ATOM     10  C   LIG d   1       4.160  -2.616 -10.763  0.00  0.00    -0.049 C 
ATOM     11  C   LIG d   1       4.055  -1.093 -10.670  0.00  0.00    -0.005 C 
ATOM     12  H   LIG d   1       0.824  -1.030  -9.464  0.00  0.00     0.031 H 
ATOM     13  H   LIG d   1       1.368  -0.886 -11.154  0.00  0.00     0.031 H 
ATOM     14  H   LIG d   1       1.954  -3.227  -9.283  0.00  0.00     0.027 H 
ATOM     15  H   LIG d   1       0.771  -3.230 -10.613  0.00  0.00     0.027 H 
ATOM     16  H   LIG d   1       2.903  -4.275 -11.321  0.00  0.00     0.026 H 
ATOM     17  H   LIG d   1       2.594  -2.778 -12.234  0.00  0.00     0.026 H 
ATOM     18  H   LIG d   1       4.393  -3.026  -9.779  0.00  0.00     0.027 H 
ATOM     19  H   LIG d   1       4.950  -2.884 -11.464  0.00  0.00     0.027 H 
ATOM     20  H   LIG d   1       3.829  -0.683 -11.654  0.00  0.00     0.031 H 
ATOM     21  H   LIG d   1       5.002  -0.685 -10.315  0.00  0.00     0.031 H 
ENDROOT
BRANCH   1  22
ATOM     22  O   LIG d   1       3.443  -2.536  -7.967  0.00  0.00    -0.425 OA
BRANCH  22  23
ATOM     23  C   LIG d   1       4.681  -2.932  -7.622  0.00  0.00     0.318 C 
ATOM     24  O   LIG d   1       5.645  -2.352  -8.063  0.00  0.00    -0.250 OA
BRANCH  23  25
ATOM     25  C   LIG d   1       4.866  -4.099  -6.687  0.00  0.00     0.062 C 
BRANCH  25  26
ATOM     26  C   LIG d   1       4.831  -3.605  -5.240  0.00  0.00    -0.041 C 
ATOM     27  H   LIG d   1       4.287  -4.322  -4.625  0.00  0.00     0.027 H 
ATOM     28  H   LIG d   1       4.331  -2.637  -5.199  0.00  0.00     0.027 H 
BRANCH  26  29
ATOM     29  C   LIG d   1       6.261  -3.463  -4.714  0.00  0.00    -0.064 C 
ATOM     30  H   LIG d   1       6.422  -2.442  -4.370  0.00  0.00     0.023 H 
ATOM     31  H   LIG d   1       6.413  -4.155  -3.885  0.00  0.00     0.023 H 
ATOM     32  H   LIG d   1       6.966  -3.694  -5.513  0.00  0.00     0.023 H 
ENDBRANCH  26  29
ENDBRANCH  25  26
BRANCH  25  33
ATOM     33  C   LIG d   1       6.215  -4.766  -6.966  0.00  0.00    -0.050 C 
ATOM     34  H   LIG d   1       6.143  -5.364  -7.875  0.00  0.00     0.024 H 
ATOM     35  H   LIG d   1       6.980  -4.001  -7.095  0.00  0.00     0.024 H 
ATOM     36  H   LIG d   1       6.482  -5.410  -6.128  0.00  0.00     0.024 H 
ENDBRANCH  25  33
BRANCH  25  37
ATOM     37  C   LIG d   1       3.741  -5.112  -6.909  0.00  0.00    -0.050 C 
ATOM     38  H   LIG d   1       2.991  -4.682  -7.571  0.00  0.00     0.024 H 
ATOM     39  H   LIG d   1       4.149  -6.016  -7.361  0.00  0.00     0.024 H 
ATOM     40  H   LIG d   1       3.282  -5.361  -5.952  0.00  0.00     0.024 H 
ENDBRANCH  25  37
ENDBRANCH  23  25
ENDBRANCH  22  23
ENDBRANCH   1  22
BRANCH   2  41
ATOM     41  C   LIG d   1       3.650  -0.194  -6.050  0.00  0.00     0.011 A 
ATOM     42  C   LIG d   1       4.961  -0.022  -5.606  0.00  0.00     0.050 A 
ATOM     43  C   LIG d   1       5.237  -0.046  -4.253  0.00  0.00    -0.024 A 
ATOM     44 CL   LIG d   1       6.242   0.227  -6.751  0.00  0.00    -0.083 Cl
ATOM     45  C   LIG d   1       4.217  -0.251  -3.340  0.00  0.00     0.042 A 
ATOM     46  H   LIG d   1       6.251   0.092  -3.907  0.00  0.00     0.065 H 
ATOM     47  C   LIG d   1       2.915  -0.427  -3.777  0.00  0.00    -0.043 A 
ATOM     48 CL   LIG d   1       4.573  -0.287  -1.640  0.00  0.00    -0.084 Cl
ATOM     49  C   LIG d   1       2.627  -0.400  -5.125  0.00  0.00    -0.051 A 
ATOM     50  H   LIG d   1       2.124  -0.587  -3.059  0.00  0.00     0.063 H 
ATOM     51  H   LIG d   1       1.611  -0.537  -5.464  0.00  0.00     0.062 H 
ENDBRANCH   2  41
TORSDOF 8
ENDMDL
MODEL 10
REMARK VINA RESULT:      -4.9      3.205      4.468
REMARK  8 active torsions:
REMARK  status: ('A' for Active; 'I' for Inactive)
REMARK    1  A    between atoms: C_1  and  C_2 
REMARK    2  A    between atoms: C_2  and  C_3 
REMARK    3  A    between atoms: C_3  and  C_4 
REMARK    4  A    between atoms: C_3  and  C_5 
REMARK    5  A    between atoms: C_3  and  C_6 
REMARK    6  A    between atoms: C_6  and  O_8 
REMARK    7  A    between atoms: O_8  and  C_9 
REMARK    8  A    between atoms: C_10  and  C_20 
ROOT
ATOM      1  C   LIG d   1       6.124  -0.278  -5.692  0.00  0.00     0.167 A 
ATOM      2  C   LIG d   1       5.071  -1.117  -5.868  0.00  0.00     0.110 A 
ATOM      3  C   LIG d   1       4.983  -2.007  -4.707  0.00  0.00     0.344 A 
ATOM      4  O   LIG d   1       4.147  -2.877  -4.557  0.00  0.00    -0.245 OA
ATOM      5  O   LIG d   1       5.964  -1.718  -3.831  0.00  0.00    -0.447 OA
ATOM      6  C   LIG d   1       6.742  -0.644  -4.364  0.00  0.00     0.172 A 
ATOM      7  C   LIG d   1       6.693   0.556  -3.418  0.00  0.00    -0.005 C 
ATOM      8  C   LIG d   1       7.506   1.707  -4.014  0.00  0.00    -0.049 C 
ATOM      9  C   LIG d   1       8.956   1.259  -4.208  0.00  0.00    -0.053 C 
ATOM     10  C   LIG d   1       8.999   0.064  -5.163  0.00  0.00    -0.049 C 
ATOM     11  C   LIG d   1       8.189  -1.091  -4.569  0.00  0.00    -0.005 C 
ATOM     12  H   LIG d   1       5.659   0.872  -3.286  0.00  0.00     0.031 H 
ATOM     13  H   LIG d   1       7.115   0.274  -2.452  0.00  0.00     0.031 H 
ATOM     14  H   LIG d   1       7.082   1.992  -4.976  0.00  0.00     0.027 H 
ATOM     15  H   LIG d   1       7.478   2.560  -3.337  0.00  0.00     0.027 H 
ATOM     16  H   LIG d   1       9.537   2.081  -4.629  0.00  0.00     0.026 H 
ATOM     17  H   LIG d   1       9.380   0.971  -3.246  0.00  0.00     0.026 H 
ATOM     18  H   LIG d   1       8.573   0.350  -6.124  0.00  0.00     0.027 H 
ATOM     19  H   LIG d   1      10.033  -0.252  -5.303  0.00  0.00     0.027 H 
ATOM     20  H   LIG d   1       8.619  -1.382  -3.611  0.00  0.00     0.031 H 
ATOM     21  H   LIG d   1       8.214  -1.940  -5.252  0.00  0.00     0.031 H 
ENDROOT
BRANCH   1  22
ATOM     22  O   LIG d   1       6.538   0.688  -6.537  0.00  0.00    -0.425 OA
BRANCH  22  23
ATOM     23  C   LIG d   1       7.012   0.316  -7.738  0.00  0.00     0.318 C 
ATOM     24  O   LIG d   1       7.512  -0.775  -7.878  0.00  0.00    -0.250 OA
BRANCH  23  25
ATOM     25  C   LIG d   1       6.922   1.259  -8.910  0.00  0.00     0.062 C 
BRANCH  25  26
ATOM     26  C   LIG d   1       7.797   2.485  -8.646  0.00  0.00    -0.041 C 
ATOM     27  H   LIG d   1       7.447   2.995  -7.749  0.00  0.00     0.027 H 
ATOM     28  H   LIG d   1       7.738   3.164  -9.497  0.00  0.00     0.027 H 
BRANCH  26  29
ATOM     29  C   LIG d   1       9.248   2.043  -8.447  0.00  0.00    -0.064 C 
ATOM     30  H   LIG d   1       9.610   2.405  -7.486  0.00  0.00     0.023 H 
ATOM     31  H   LIG d   1       9.303   0.953  -8.470  0.00  0.00     0.023 H 
ATOM     32  H   LIG d   1       9.866   2.453  -9.246  0.00  0.00     0.023 H 
ENDBRANCH  26  29
ENDBRANCH  25  26
BRANCH  25  33
ATOM     33  C   LIG d   1       5.468   1.700  -9.099  0.00  0.00    -0.050 C 
ATOM     34  H   LIG d   1       5.427   2.786  -9.180  0.00  0.00     0.024 H 
ATOM     35  H   LIG d   1       5.067   1.251 -10.007  0.00  0.00     0.024 H 
ATOM     36  H   LIG d   1       4.877   1.377  -8.241  0.00  0.00     0.024 H 
ENDBRANCH  25  33
BRANCH  25  37
ATOM     37  C   LIG d   1       7.407   0.547 -10.175  0.00  0.00    -0.050 C 
ATOM     38  H   LIG d   1       6.705  -0.243 -10.438  0.00  0.00     0.024 H 
ATOM     39  H   LIG d   1       7.470   1.264 -10.994  0.00  0.00     0.024 H 
ATOM     40  H   LIG d   1       8.391   0.115  -9.994  0.00  0.00     0.024 H 
ENDBRANCH  25  37
ENDBRANCH  23  25
ENDBRANCH  22  23
ENDBRANCH   1  22
BRANCH   2  41
ATOM     41  C   LIG d   1       4.164  -1.131  -7.040  0.00  0.00     0.011 A 
ATOM     42  C   LIG d   1       3.085  -0.249  -7.101  0.00  0.00     0.050 A 
ATOM     43  C   LIG d   1       2.246  -0.262  -8.199  0.00  0.00    -0.024 A 
ATOM     44 CL   LIG d   1       2.802   0.869  -5.804  0.00  0.00    -0.083 Cl
ATOM     45  C   LIG d   1       2.468  -1.157  -9.230  0.00  0.00     0.042 A 
ATOM     46  H   LIG d   1       1.414   0.425  -8.250  0.00  0.00     0.065 H 
ATOM     47  C   LIG d   1       3.534  -2.039  -9.172  0.00  0.00    -0.043 A 
ATOM     48 CL   LIG d   1       1.406  -1.174 -10.604  0.00  0.00    -0.084 Cl
ATOM     49  C   LIG d   1       4.381  -2.031  -8.084  0.00  0.00    -0.051 A 
ATOM     50  H   LIG d   1       3.701  -2.736  -9.980  0.00  0.00     0.063 H 
ATOM     51  H   LIG d   1       5.212  -2.719  -8.039  0.00  0.00     0.062 H 
ENDBRANCH   2  41
TORSDOF 8
ENDMDL
