MODEL 1
REMARK VINA RESULT:      -7.1      0.000      0.000
REMARK  8 active torsions:
REMARK  status: ('A' for Active; 'I' for Inactive)
REMARK    1  A    between atoms: C_1  and  N_2 
REMARK    2  A    between atoms: C_11  and  C_14 
REMARK    3  A    between atoms: C_14  and  C_16 
REMARK    4  A    between atoms: C_16  and  C_17 
REMARK    5  A    between atoms: C_17  and  C_19 
REMARK    6  A    between atoms: C_17  and  N_26 
REMARK    7  A    between atoms: N_26  and  C_27 
REMARK    8  A    between atoms: N_26  and  C_33 
ROOT
ATOM      1  C   LIG d   1       6.780  -1.427  -6.249  0.00  0.00     0.060 C 
ATOM      2  H   LIG d   1       6.802  -1.656  -7.325  0.00  0.00     0.056 H 
ENDROOT
BRANCH   1   3
ATOM      3  C   LIG d   1       7.526  -0.126  -5.948  0.00  0.00     0.034 C 
ATOM      4  H   LIG d   1       8.404  -0.343  -5.322  0.00  0.00     0.037 H 
ATOM      5  H   LIG d   1       6.857   0.566  -5.416  0.00  0.00     0.037 H 
BRANCH   3   6
ATOM      6  C   LIG d   1       7.976   0.506  -7.241  0.00  0.00     0.170 C 
ATOM      7  O   LIG d   1       8.876   1.320  -7.237  0.00  0.00    -0.292 OA
BRANCH   6   8
ATOM      8  C   LIG d   1       7.349   0.149  -8.457  0.00  0.00     0.073 A 
ATOM      9  C   LIG d   1       6.150   0.862  -8.920  0.00  0.00     0.199 A 
ATOM     10  C   LIG d   1       5.556   0.429 -10.199  0.00  0.00     0.046 A 
ATOM     11  O   LIG d   1       5.666   1.774  -8.272  0.00  0.00    -0.286 OA
ATOM     12  C   LIG d   1       6.152  -0.631 -10.900  0.00  0.00     0.052 A 
ATOM     13  C   LIG d   1       4.417   1.054 -10.708  0.00  0.00    -0.049 A 
ATOM     14  N   LIG d   1       7.283  -1.249 -10.403  0.00  0.00    -0.356 N 
ATOM     15  C   LIG d   1       5.600  -1.042 -12.110  0.00  0.00    -0.037 A 
ATOM     16  C   LIG d   1       7.859  -0.890  -9.243  0.00  0.00    -0.022 A 
ATOM     17  O   LIG d   1       8.957  -1.548  -8.826  0.00  0.00    -0.861 OA
ATOM     18  C   LIG d   1       4.476  -0.416 -12.602  0.00  0.00    -0.060 A 
ATOM     19  H   LIG d   1       6.052  -1.854 -12.661  0.00  0.00     0.064 H 
ATOM     20  C   LIG d   1       3.884   0.629 -11.905  0.00  0.00    -0.061 A 
ATOM     21  H   LIG d   1       4.051  -0.741 -13.540  0.00  0.00     0.062 H 
ATOM     22  H   LIG d   1       3.003   1.109 -12.303  0.00  0.00     0.062 H 
ATOM     23  H   LIG d   1       3.956   1.867 -10.167  0.00  0.00     0.062 H 
BRANCH  14  24
ATOM     24  C   LIG d   1       7.877  -2.347 -11.171  0.00  0.00     0.011 C 
ATOM     25  H   LIG d   1       8.044  -3.208 -10.509  0.00  0.00     0.045 H 
ATOM     26  H   LIG d   1       8.837  -2.019 -11.596  0.00  0.00     0.045 H 
ATOM     27  H   LIG d   1       7.196  -2.636 -11.985  0.00  0.00     0.045 H 
ENDBRANCH  14  24
ENDBRANCH   6   8
ENDBRANCH   3   6
ENDBRANCH   1   3
BRANCH   1  28
ATOM     28  C   LIG d   1       7.407  -2.557  -5.473  0.00  0.00    -0.026 A 
ATOM     29  C   LIG d   1       7.126  -3.867  -5.812  0.00  0.00    -0.055 A 
ATOM     30  C   LIG d   1       7.701  -4.903  -5.102  0.00  0.00    -0.043 A 
ATOM     31  H   LIG d   1       6.459  -4.081  -6.634  0.00  0.00     0.062 H 
ATOM     32  C   LIG d   1       8.557  -4.629  -4.049  0.00  0.00     0.041 A 
ATOM     33  H   LIG d   1       7.483  -5.927  -5.367  0.00  0.00     0.063 H 
ATOM     34  C   LIG d   1       8.837  -3.317  -3.711  0.00  0.00    -0.043 A 
ATOM     35 CL   LIG d   1       9.279  -5.931  -3.156  0.00  0.00    -0.084 Cl
ATOM     36  C   LIG d   1       8.266  -2.282  -4.426  0.00  0.00    -0.055 A 
ATOM     37  H   LIG d   1       9.505  -3.103  -2.890  0.00  0.00     0.063 H 
ATOM     38  H   LIG d   1       8.488  -1.258  -4.164  0.00  0.00     0.062 H 
ENDBRANCH   1  28
BRANCH   1  39
ATOM     39  N   LIG d   1       5.375  -1.286  -5.858  0.00  0.00    -0.292 N 
BRANCH  39  40
ATOM     40  C   LIG d   1       5.030  -1.206  -4.507  0.00  0.00     0.035 A 
ATOM     41  C   LIG d   1       5.342  -0.069  -3.773  0.00  0.00    -0.040 A 
ATOM     42  C   LIG d   1       4.999   0.005  -2.437  0.00  0.00    -0.060 A 
ATOM     43  H   LIG d   1       5.852   0.757  -4.247  0.00  0.00     0.064 H 
ATOM     44  C   LIG d   1       4.345  -1.051  -1.830  0.00  0.00    -0.062 A 
ATOM     45  H   LIG d   1       5.240   0.890  -1.867  0.00  0.00     0.062 H 
ATOM     46  C   LIG d   1       4.033  -2.185  -2.557  0.00  0.00    -0.060 A 
ATOM     47  H   LIG d   1       4.077  -0.990  -0.785  0.00  0.00     0.062 H 
ATOM     48  C   LIG d   1       4.369  -2.264  -3.894  0.00  0.00    -0.040 A 
ATOM     49  H   LIG d   1       3.522  -3.008  -2.080  0.00  0.00     0.062 H 
ATOM     50  H   LIG d   1       4.121  -3.148  -4.463  0.00  0.00     0.064 H 
ENDBRANCH  39  40
BRANCH  39  51
ATOM     51  C   LIG d   1       4.380  -1.231  -6.838  0.00  0.00     0.035 A 
ATOM     52  C   LIG d   1       4.327  -2.200  -7.832  0.00  0.00    -0.040 A 
ATOM     53  C   LIG d   1       3.343  -2.143  -8.798  0.00  0.00    -0.060 A 
ATOM     54  H   LIG d   1       5.055  -2.998  -7.847  0.00  0.00     0.064 H 
ATOM     55  C   LIG d   1       2.410  -1.123  -8.777  0.00  0.00    -0.062 A 
ATOM     56  H   LIG d   1       3.302  -2.897  -9.570  0.00  0.00     0.062 H 
ATOM     57  C   LIG d   1       2.460  -0.156  -7.791  0.00  0.00    -0.060 A 
ATOM     58  H   LIG d   1       1.641  -1.081  -9.535  0.00  0.00     0.062 H 
ATOM     59  C   LIG d   1       3.438  -0.209  -6.817  0.00  0.00    -0.040 A 
ATOM     60  H   LIG d   1       1.730   0.639  -7.777  0.00  0.00     0.062 H 
ATOM     61  H   LIG d   1       3.474   0.543  -6.044  0.00  0.00     0.064 H 
ENDBRANCH  39  51
ENDBRANCH   1  39
TORSDOF 8
ENDMDL
MODEL 2
REMARK VINA RESULT:      -7.0      0.019      3.015
REMARK  8 active torsions:
REMARK  status: ('A' for Active; 'I' for Inactive)
REMARK    1  A    between atoms: C_1  and  N_2 
REMARK    2  A    between atoms: C_11  and  C_14 
REMARK    3  A    between atoms: C_14  and  C_16 
REMARK    4  A    between atoms: C_16  and  C_17 
REMARK    5  A    between atoms: C_17  and  C_19 
REMARK    6  A    between atoms: C_17  and  N_26 
REMARK    7  A    between atoms: N_26  and  C_27 
REMARK    8  A    between atoms: N_26  and  C_33 
ROOT
ATOM      1  C   LIG d   1       6.779  -1.427  -6.264  0.00  0.00     0.060 C 
ATOM      2  H   LIG d   1       6.800  -1.657  -7.340  0.00  0.00     0.056 H 
ENDROOT
BRANCH   1   3
ATOM      3  C   LIG d   1       7.527  -0.127  -5.965  0.00  0.00     0.034 C 
ATOM      4  H   LIG d   1       8.407  -0.344  -5.343  0.00  0.00     0.037 H 
ATOM      5  H   LIG d   1       6.861   0.565  -5.429  0.00  0.00     0.037 H 
BRANCH   3   6
ATOM      6  C   LIG d   1       7.972   0.506  -7.259  0.00  0.00     0.170 C 
ATOM      7  O   LIG d   1       8.866   1.327  -7.257  0.00  0.00    -0.292 OA
BRANCH   6   8
ATOM      8  C   LIG d   1       7.345   0.144  -8.475  0.00  0.00     0.073 A 
ATOM      9  C   LIG d   1       6.148   0.856  -8.942  0.00  0.00     0.199 A 
ATOM     10  C   LIG d   1       5.554   0.417 -10.220  0.00  0.00     0.046 A 
ATOM     11  O   LIG d   1       5.663   1.771  -8.299  0.00  0.00    -0.286 OA
ATOM     12  C   LIG d   1       6.151  -0.647 -10.914  0.00  0.00     0.052 A 
ATOM     13  C   LIG d   1       4.416   1.040 -10.733  0.00  0.00    -0.049 A 
ATOM     14  N   LIG d   1       7.280  -1.263 -10.414  0.00  0.00    -0.356 N 
ATOM     15  C   LIG d   1       5.599  -1.063 -12.123  0.00  0.00    -0.037 A 
ATOM     16  C   LIG d   1       7.855  -0.899  -9.255  0.00  0.00    -0.022 A 
ATOM     17  O   LIG d   1       8.953  -1.555  -8.833  0.00  0.00    -0.861 OA
ATOM     18  C   LIG d   1       4.476  -0.440 -12.619  0.00  0.00    -0.060 A 
ATOM     19  H   LIG d   1       6.051  -1.878 -12.670  0.00  0.00     0.064 H 
ATOM     20  C   LIG d   1       3.884   0.609 -11.928  0.00  0.00    -0.061 A 
ATOM     21  H   LIG d   1       4.052  -0.769 -13.556  0.00  0.00     0.062 H 
ATOM     22  H   LIG d   1       3.004   1.088 -12.330  0.00  0.00     0.062 H 
ATOM     23  H   LIG d   1       3.955   1.856 -10.197  0.00  0.00     0.062 H 
BRANCH  14  24
ATOM     24  C   LIG d   1       7.874  -2.365 -11.176  0.00  0.00     0.011 C 
ATOM     25  H   LIG d   1       8.953  -2.189 -11.294  0.00  0.00     0.045 H 
ATOM     26  H   LIG d   1       7.401  -2.422 -12.167  0.00  0.00     0.045 H 
ATOM     27  H   LIG d   1       7.713  -3.311 -10.639  0.00  0.00     0.045 H 
ENDBRANCH  14  24
ENDBRANCH   6   8
ENDBRANCH   3   6
ENDBRANCH   1   3
BRANCH   1  28
ATOM     28  C   LIG d   1       7.407  -2.557  -5.490  0.00  0.00    -0.026 A 
ATOM     29  C   LIG d   1       7.125  -3.867  -5.827  0.00  0.00    -0.055 A 
ATOM     30  C   LIG d   1       7.701  -4.904  -5.117  0.00  0.00    -0.043 A 
ATOM     31  H   LIG d   1       6.456  -4.081  -6.647  0.00  0.00     0.062 H 
ATOM     32  C   LIG d   1       8.559  -4.630  -4.067  0.00  0.00     0.041 A 
ATOM     33  H   LIG d   1       7.481  -5.927  -5.381  0.00  0.00     0.063 H 
ATOM     34  C   LIG d   1       8.840  -3.318  -3.729  0.00  0.00    -0.043 A 
ATOM     35 CL   LIG d   1       9.282  -5.931  -3.175  0.00  0.00    -0.084 Cl
ATOM     36  C   LIG d   1       8.269  -2.283  -4.444  0.00  0.00    -0.055 A 
ATOM     37  H   LIG d   1       9.510  -3.104  -2.910  0.00  0.00     0.063 H 
ATOM     38  H   LIG d   1       8.492  -1.258  -4.183  0.00  0.00     0.062 H 
ENDBRANCH   1  28
BRANCH   1  39
ATOM     39  N   LIG d   1       5.375  -1.285  -5.871  0.00  0.00    -0.292 N 
BRANCH  39  40
ATOM     40  C   LIG d   1       4.378  -1.227  -6.847  0.00  0.00     0.035 A 
ATOM     41  C   LIG d   1       4.317  -2.195  -7.840  0.00  0.00    -0.040 A 
ATOM     42  C   LIG d   1       3.329  -2.134  -8.803  0.00  0.00    -0.060 A 
ATOM     43  H   LIG d   1       5.041  -2.997  -7.858  0.00  0.00     0.064 H 
ATOM     44  C   LIG d   1       2.401  -1.109  -8.780  0.00  0.00    -0.062 A 
ATOM     45  H   LIG d   1       3.281  -2.888  -9.575  0.00  0.00     0.062 H 
ATOM     46  C   LIG d   1       2.459  -0.143  -7.793  0.00  0.00    -0.060 A 
ATOM     47  H   LIG d   1       1.629  -1.064  -9.533  0.00  0.00     0.062 H 
ATOM     48  C   LIG d   1       3.442  -0.201  -6.824  0.00  0.00    -0.040 A 
ATOM     49  H   LIG d   1       1.733   0.657  -7.778  0.00  0.00     0.062 H 
ATOM     50  H   LIG d   1       3.483   0.552  -6.051  0.00  0.00     0.064 H 
ENDBRANCH  39  40
BRANCH  39  51
ATOM     51  C   LIG d   1       5.034  -1.207  -4.517  0.00  0.00     0.035 A 
ATOM     52  C   LIG d   1       4.383  -2.269  -3.901  0.00  0.00    -0.040 A 
ATOM     53  C   LIG d   1       4.048  -2.189  -2.564  0.00  0.00    -0.060 A 
ATOM     54  H   LIG d   1       4.141  -3.156  -4.468  0.00  0.00     0.064 H 
ATOM     55  C   LIG d   1       4.359  -1.054  -1.839  0.00  0.00    -0.062 A 
ATOM     56  H   LIG d   1       3.542  -3.014  -2.085  0.00  0.00     0.062 H 
ATOM     57  C   LIG d   1       5.006   0.005  -2.449  0.00  0.00    -0.060 A 
ATOM     58  H   LIG d   1       4.096  -0.994  -0.793  0.00  0.00     0.062 H 
ATOM     59  C   LIG d   1       5.350  -0.070  -3.784  0.00  0.00    -0.040 A 
ATOM     60  H   LIG d   1       5.248   0.890  -1.879  0.00  0.00     0.062 H 
ATOM     61  H   LIG d   1       5.859   0.755  -4.259  0.00  0.00     0.064 H 
ENDBRANCH  39  51
ENDBRANCH   1  39
TORSDOF 8
ENDMDL
MODEL 3
REMARK VINA RESULT:      -6.7      0.851      2.363
REMARK  8 active torsions:
REMARK  status: ('A' for Active; 'I' for Inactive)
REMARK    1  A    between atoms: C_1  and  N_2 
REMARK    2  A    between atoms: C_11  and  C_14 
REMARK    3  A    between atoms: C_14  and  C_16 
REMARK    4  A    between atoms: C_16  and  C_17 
REMARK    5  A    between atoms: C_17  and  C_19 
REMARK    6  A    between atoms: C_17  and  N_26 
REMARK    7  A    between atoms: N_26  and  C_27 
REMARK    8  A    between atoms: N_26  and  C_33 
ROOT
ATOM      1  C   LIG d   1       6.682  -1.666  -6.596  0.00  0.00     0.060 C 
ATOM      2  H   LIG d   1       6.644  -2.045  -7.629  0.00  0.00     0.056 H 
ENDROOT
BRANCH   1   3
ATOM      3  C   LIG d   1       7.446  -0.343  -6.523  0.00  0.00     0.034 C 
ATOM      4  H   LIG d   1       8.332  -0.466  -5.883  0.00  0.00     0.037 H 
ATOM      5  H   LIG d   1       6.793   0.435  -6.101  0.00  0.00     0.037 H 
BRANCH   3   6
ATOM      6  C   LIG d   1       7.881   0.064  -7.908  0.00  0.00     0.170 C 
ATOM      7  O   LIG d   1       9.013   0.459  -8.097  0.00  0.00    -0.292 OA
BRANCH   6   8
ATOM      8  C   LIG d   1       6.970  -0.015  -8.986  0.00  0.00     0.073 A 
ATOM      9  C   LIG d   1       7.042  -1.122  -9.951  0.00  0.00     0.199 A 
ATOM     10  C   LIG d   1       6.056  -1.131 -11.047  0.00  0.00     0.046 A 
ATOM     11  O   LIG d   1       7.886  -1.996  -9.849  0.00  0.00    -0.286 OA
ATOM     12  C   LIG d   1       5.111  -0.095 -11.119  0.00  0.00     0.052 A 
ATOM     13  C   LIG d   1       6.057  -2.146 -12.005  0.00  0.00    -0.049 A 
ATOM     14  N   LIG d   1       5.101   0.909 -10.171  0.00  0.00    -0.356 N 
ATOM     15  C   LIG d   1       4.174  -0.100 -12.148  0.00  0.00    -0.037 A 
ATOM     16  C   LIG d   1       5.981   0.959  -9.155  0.00  0.00    -0.022 A 
ATOM     17  O   LIG d   1       5.907   1.976  -8.276  0.00  0.00    -0.861 OA
ATOM     18  C   LIG d   1       4.185  -1.109 -13.086  0.00  0.00    -0.060 A 
ATOM     19  H   LIG d   1       3.438   0.689 -12.212  0.00  0.00     0.064 H 
ATOM     20  C   LIG d   1       5.123  -2.130 -13.017  0.00  0.00    -0.061 A 
ATOM     21  H   LIG d   1       3.457  -1.105 -13.883  0.00  0.00     0.062 H 
ATOM     22  H   LIG d   1       5.120  -2.913 -13.760  0.00  0.00     0.062 H 
ATOM     23  H   LIG d   1       6.786  -2.942 -11.952  0.00  0.00     0.062 H 
BRANCH  14  24
ATOM     24  C   LIG d   1       4.093   1.966 -10.280  0.00  0.00     0.011 C 
ATOM     25  H   LIG d   1       4.527   2.921  -9.948  0.00  0.00     0.045 H 
ATOM     26  H   LIG d   1       3.229   1.716  -9.647  0.00  0.00     0.045 H 
ATOM     27  H   LIG d   1       3.767   2.056 -11.326  0.00  0.00     0.045 H 
ENDBRANCH  14  24
ENDBRANCH   6   8
ENDBRANCH   3   6
ENDBRANCH   1   3
BRANCH   1  28
ATOM     28  C   LIG d   1       7.349  -2.681  -5.705  0.00  0.00    -0.026 A 
ATOM     29  C   LIG d   1       8.218  -2.266  -4.713  0.00  0.00    -0.055 A 
ATOM     30  C   LIG d   1       8.829  -3.197  -3.895  0.00  0.00    -0.043 A 
ATOM     31  H   LIG d   1       8.418  -1.214  -4.578  0.00  0.00     0.062 H 
ATOM     32  C   LIG d   1       8.572  -4.546  -4.069  0.00  0.00     0.041 A 
ATOM     33  H   LIG d   1       9.507  -2.873  -3.121  0.00  0.00     0.063 H 
ATOM     34  C   LIG d   1       7.702  -4.960  -5.062  0.00  0.00    -0.043 A 
ATOM     35 CL   LIG d   1       9.340  -5.715  -3.042  0.00  0.00    -0.084 Cl
ATOM     36  C   LIG d   1       7.087  -4.028  -5.875  0.00  0.00    -0.055 A 
ATOM     37  H   LIG d   1       7.501  -6.013  -5.198  0.00  0.00     0.063 H 
ATOM     38  H   LIG d   1       6.404  -4.352  -6.647  0.00  0.00     0.062 H 
ENDBRANCH   1  28
BRANCH   1  39
ATOM     39  N   LIG d   1       5.301  -1.458  -6.153  0.00  0.00    -0.292 N 
BRANCH  39  40
ATOM     40  C   LIG d   1       5.012  -1.359  -4.790  0.00  0.00     0.035 A 
ATOM     41  C   LIG d   1       4.377  -2.407  -4.134  0.00  0.00    -0.040 A 
ATOM     42  C   LIG d   1       4.093  -2.305  -2.787  0.00  0.00    -0.060 A 
ATOM     43  H   LIG d   1       4.109  -3.301  -4.679  0.00  0.00     0.064 H 
ATOM     44  C   LIG d   1       4.438  -1.163  -2.090  0.00  0.00    -0.062 A 
ATOM     45  H   LIG d   1       3.601  -3.121  -2.277  0.00  0.00     0.062 H 
ATOM     46  C   LIG d   1       5.069  -0.117  -2.739  0.00  0.00    -0.060 A 
ATOM     47  H   LIG d   1       4.215  -1.086  -1.036  0.00  0.00     0.062 H 
ATOM     48  C   LIG d   1       5.360  -0.214  -4.085  0.00  0.00    -0.040 A 
ATOM     49  H   LIG d   1       5.337   0.774  -2.191  0.00  0.00     0.062 H 
ATOM     50  H   LIG d   1       5.857   0.601  -4.590  0.00  0.00     0.064 H 
ENDBRANCH  39  40
BRANCH  39  51
ATOM     51  C   LIG d   1       4.273  -1.358  -7.094  0.00  0.00     0.035 A 
ATOM     52  C   LIG d   1       3.403  -0.274  -7.063  0.00  0.00    -0.040 A 
ATOM     53  C   LIG d   1       2.389  -0.178  -7.995  0.00  0.00    -0.060 A 
ATOM     54  H   LIG d   1       3.522   0.492  -6.311  0.00  0.00     0.064 H 
ATOM     55  C   LIG d   1       2.238  -1.159  -8.958  0.00  0.00    -0.062 A 
ATOM     56  H   LIG d   1       1.714   0.664  -7.971  0.00  0.00     0.062 H 
ATOM     57  C   LIG d   1       3.101  -2.238  -8.991  0.00  0.00    -0.060 A 
ATOM     58  H   LIG d   1       1.444  -1.081  -9.686  0.00  0.00     0.062 H 
ATOM     59  C   LIG d   1       4.121  -2.339  -8.066  0.00  0.00    -0.040 A 
ATOM     60  H   LIG d   1       2.980  -3.002  -9.745  0.00  0.00     0.062 H 
ATOM     61  H   LIG d   1       4.798  -3.180  -8.096  0.00  0.00     0.064 H 
ENDBRANCH  39  51
ENDBRANCH   1  39
TORSDOF 8
ENDMDL
MODEL 4
REMARK VINA RESULT:      -6.7      0.839      3.527
REMARK  8 active torsions:
REMARK  status: ('A' for Active; 'I' for Inactive)
REMARK    1  A    between atoms: C_1  and  N_2 
REMARK    2  A    between atoms: C_11  and  C_14 
REMARK    3  A    between atoms: C_14  and  C_16 
REMARK    4  A    between atoms: C_16  and  C_17 
REMARK    5  A    between atoms: C_17  and  C_19 
REMARK    6  A    between atoms: C_17  and  N_26 
REMARK    7  A    between atoms: N_26  and  C_27 
REMARK    8  A    between atoms: N_26  and  C_33 
ROOT
ATOM      1  C   LIG d   1       6.643  -1.588  -6.625  0.00  0.00     0.060 C 
ATOM      2  H   LIG d   1       6.614  -1.952  -7.663  0.00  0.00     0.056 H 
ENDROOT
BRANCH   1   3
ATOM      3  C   LIG d   1       7.395  -0.259  -6.529  0.00  0.00     0.034 C 
ATOM      4  H   LIG d   1       8.280  -0.384  -5.889  0.00  0.00     0.037 H 
ATOM      5  H   LIG d   1       6.734   0.506  -6.097  0.00  0.00     0.037 H 
BRANCH   3   6
ATOM      6  C   LIG d   1       7.830   0.172  -7.907  0.00  0.00     0.170 C 
ATOM      7  O   LIG d   1       8.935   0.646  -8.074  0.00  0.00    -0.292 OA
BRANCH   6   8
ATOM      8  C   LIG d   1       6.949   0.027  -9.004  0.00  0.00     0.073 A 
ATOM      9  C   LIG d   1       7.083  -1.107  -9.928  0.00  0.00     0.199 A 
ATOM     10  C   LIG d   1       6.125  -1.187 -11.047  0.00  0.00     0.046 A 
ATOM     11  O   LIG d   1       7.953  -1.948  -9.778  0.00  0.00    -0.286 OA
ATOM     12  C   LIG d   1       5.148  -0.187 -11.176  0.00  0.00     0.052 A 
ATOM     13  C   LIG d   1       6.185  -2.232 -11.970  0.00  0.00    -0.049 A 
ATOM     14  N   LIG d   1       5.080   0.846 -10.262  0.00  0.00    -0.356 N 
ATOM     15  C   LIG d   1       4.237  -0.258 -12.226  0.00  0.00    -0.037 A 
ATOM     16  C   LIG d   1       5.932   0.960  -9.228  0.00  0.00    -0.022 A 
ATOM     17  O   LIG d   1       5.802   2.002  -8.385  0.00  0.00    -0.861 OA
ATOM     18  C   LIG d   1       4.307  -1.296 -13.130  0.00  0.00    -0.060 A 
ATOM     19  H   LIG d   1       3.477   0.502 -12.334  0.00  0.00     0.064 H 
ATOM     20  C   LIG d   1       5.277  -2.280 -13.004  0.00  0.00    -0.061 A 
ATOM     21  H   LIG d   1       3.599  -1.344 -13.944  0.00  0.00     0.062 H 
ATOM     22  H   LIG d   1       5.319  -3.087 -13.721  0.00  0.00     0.062 H 
ATOM     23  H   LIG d   1       6.939  -2.999 -11.874  0.00  0.00     0.062 H 
BRANCH  14  24
ATOM     24  C   LIG d   1       4.040   1.864 -10.430  0.00  0.00     0.011 C 
ATOM     25  H   LIG d   1       3.074   1.373 -10.619  0.00  0.00     0.045 H 
ATOM     26  H   LIG d   1       4.295   2.511 -11.282  0.00  0.00     0.045 H 
ATOM     27  H   LIG d   1       3.970   2.472  -9.517  0.00  0.00     0.045 H 
ENDBRANCH  14  24
ENDBRANCH   6   8
ENDBRANCH   3   6
ENDBRANCH   1   3
BRANCH   1  28
ATOM     28  C   LIG d   1       7.315  -2.610  -5.745  0.00  0.00    -0.026 A 
ATOM     29  C   LIG d   1       7.092  -3.958  -5.956  0.00  0.00    -0.055 A 
ATOM     30  C   LIG d   1       7.708  -4.895  -5.149  0.00  0.00    -0.043 A 
ATOM     31  H   LIG d   1       6.436  -4.278  -6.752  0.00  0.00     0.062 H 
ATOM     32  C   LIG d   1       8.548  -4.485  -4.129  0.00  0.00     0.041 A 
ATOM     33  H   LIG d   1       7.534  -5.948  -5.314  0.00  0.00     0.063 H 
ATOM     34  C   LIG d   1       8.771  -3.136  -3.918  0.00  0.00    -0.043 A 
ATOM     35 CL   LIG d   1       9.322  -5.662  -3.115  0.00  0.00    -0.084 Cl
ATOM     36  C   LIG d   1       8.159  -2.200  -4.729  0.00  0.00    -0.055 A 
ATOM     37  H   LIG d   1       9.427  -2.815  -3.123  0.00  0.00     0.063 H 
ATOM     38  H   LIG d   1       8.336  -1.146  -4.568  0.00  0.00     0.062 H 
ENDBRANCH   1  28
BRANCH   1  39
ATOM     39  N   LIG d   1       5.259  -1.398  -6.185  0.00  0.00    -0.292 N 
BRANCH  39  40
ATOM     40  C   LIG d   1       4.232  -1.303  -7.128  0.00  0.00     0.035 A 
ATOM     41  C   LIG d   1       3.357  -0.224  -7.099  0.00  0.00    -0.040 A 
ATOM     42  C   LIG d   1       2.344  -0.133  -8.032  0.00  0.00    -0.060 A 
ATOM     43  H   LIG d   1       3.471   0.544  -6.347  0.00  0.00     0.064 H 
ATOM     44  C   LIG d   1       2.199  -1.114  -8.996  0.00  0.00    -0.062 A 
ATOM     45  H   LIG d   1       1.664   0.706  -8.010  0.00  0.00     0.062 H 
ATOM     46  C   LIG d   1       3.067  -2.190  -9.027  0.00  0.00    -0.060 A 
ATOM     47  H   LIG d   1       1.406  -1.041  -9.725  0.00  0.00     0.062 H 
ATOM     48  C   LIG d   1       4.086  -2.285  -8.099  0.00  0.00    -0.040 A 
ATOM     49  H   LIG d   1       2.951  -2.955  -9.781  0.00  0.00     0.062 H 
ATOM     50  H   LIG d   1       4.767  -3.123  -8.128  0.00  0.00     0.064 H 
ENDBRANCH  39  40
BRANCH  39  51
ATOM     51  C   LIG d   1       4.965  -1.312  -4.821  0.00  0.00     0.035 A 
ATOM     52  C   LIG d   1       4.384  -2.391  -4.165  0.00  0.00    -0.040 A 
ATOM     53  C   LIG d   1       4.096  -2.303  -2.818  0.00  0.00    -0.060 A 
ATOM     54  H   LIG d   1       4.160  -3.297  -4.709  0.00  0.00     0.064 H 
ATOM     55  C   LIG d   1       4.384  -1.144  -2.122  0.00  0.00    -0.062 A 
ATOM     56  H   LIG d   1       3.645  -3.141  -2.307  0.00  0.00     0.062 H 
ATOM     57  C   LIG d   1       4.961  -0.068  -2.772  0.00  0.00    -0.060 A 
ATOM     58  H   LIG d   1       4.157  -1.078  -1.067  0.00  0.00     0.062 H 
ATOM     59  C   LIG d   1       5.257  -0.151  -4.118  0.00  0.00    -0.040 A 
ATOM     60  H   LIG d   1       5.185   0.835  -2.225  0.00  0.00     0.062 H 
ATOM     61  H   LIG d   1       5.713   0.688  -4.624  0.00  0.00     0.064 H 
ENDBRANCH  39  51
ENDBRANCH   1  39
TORSDOF 8
ENDMDL
MODEL 5
REMARK VINA RESULT:      -6.6      3.133      6.016
REMARK  8 active torsions:
REMARK  status: ('A' for Active; 'I' for Inactive)
REMARK    1  A    between atoms: C_1  and  N_2 
REMARK    2  A    between atoms: C_11  and  C_14 
REMARK    3  A    between atoms: C_14  and  C_16 
REMARK    4  A    between atoms: C_16  and  C_17 
REMARK    5  A    between atoms: C_17  and  C_19 
REMARK    6  A    between atoms: C_17  and  N_26 
REMARK    7  A    between atoms: N_26  and  C_27 
REMARK    8  A    between atoms: N_26  and  C_33 
ROOT
ATOM      1  C   LIG d   1       6.243  -0.929  -6.425  0.00  0.00     0.060 C 
ATOM      2  H   LIG d   1       6.472   0.088  -6.074  0.00  0.00     0.056 H 
ENDROOT
BRANCH   1   3
ATOM      3  C   LIG d   1       7.409  -1.510  -7.228  0.00  0.00     0.034 C 
ATOM      4  H   LIG d   1       7.028  -1.947  -8.163  0.00  0.00     0.037 H 
ATOM      5  H   LIG d   1       7.910  -2.289  -6.636  0.00  0.00     0.037 H 
BRANCH   3   6
ATOM      6  C   LIG d   1       8.392  -0.413  -7.550  0.00  0.00     0.170 C 
ATOM      7  O   LIG d   1       8.578  -0.085  -8.704  0.00  0.00    -0.292 OA
BRANCH   6   8
ATOM      8  C   LIG d   1       9.099   0.231  -6.508  0.00  0.00     0.073 A 
ATOM      9  C   LIG d   1       8.596   1.482  -5.923  0.00  0.00     0.199 A 
ATOM     10  C   LIG d   1       9.392   2.091  -4.840  0.00  0.00     0.046 A 
ATOM     11  O   LIG d   1       7.564   1.996  -6.317  0.00  0.00    -0.286 OA
ATOM     12  C   LIG d   1      10.576   1.459  -4.430  0.00  0.00     0.052 A 
ATOM     13  C   LIG d   1       8.984   3.279  -4.232  0.00  0.00    -0.049 A 
ATOM     14  N   LIG d   1      10.981   0.280  -5.025  0.00  0.00    -0.356 N 
ATOM     15  C   LIG d   1      11.330   2.025  -3.406  0.00  0.00    -0.037 A 
ATOM     16  C   LIG d   1      10.290  -0.311  -6.015  0.00  0.00    -0.022 A 
ATOM     17  O   LIG d   1      10.757  -1.457  -6.546  0.00  0.00    -0.861 OA
ATOM     18  C   LIG d   1      10.916   3.197  -2.813  0.00  0.00    -0.060 A 
ATOM     19  H   LIG d   1      12.241   1.546  -3.078  0.00  0.00     0.064 H 
ATOM     20  C   LIG d   1       9.747   3.824  -3.223  0.00  0.00    -0.061 A 
ATOM     21  H   LIG d   1      11.506   3.633  -2.021  0.00  0.00     0.062 H 
ATOM     22  H   LIG d   1       9.436   4.743  -2.749  0.00  0.00     0.062 H 
ATOM     23  H   LIG d   1       8.075   3.768  -4.549  0.00  0.00     0.062 H 
BRANCH  14  24
ATOM     24  C   LIG d   1      12.220  -0.350  -4.561  0.00  0.00     0.011 C 
ATOM     25  H   LIG d   1      12.585   0.175  -3.667  0.00  0.00     0.045 H 
ATOM     26  H   LIG d   1      12.979  -0.294  -5.355  0.00  0.00     0.045 H 
ATOM     27  H   LIG d   1      12.026  -1.404  -4.314  0.00  0.00     0.045 H 
ENDBRANCH  14  24
ENDBRANCH   6   8
ENDBRANCH   3   6
ENDBRANCH   1   3
BRANCH   1  28
ATOM     28  C   LIG d   1       5.004  -0.907  -7.282  0.00  0.00    -0.026 A 
ATOM     29  C   LIG d   1       3.894  -0.192  -6.874  0.00  0.00    -0.055 A 
ATOM     30  C   LIG d   1       2.758  -0.171  -7.660  0.00  0.00    -0.043 A 
ATOM     31  H   LIG d   1       3.916   0.352  -5.941  0.00  0.00     0.062 H 
ATOM     32  C   LIG d   1       2.731  -0.867  -8.855  0.00  0.00     0.041 A 
ATOM     33  H   LIG d   1       1.891   0.388  -7.342  0.00  0.00     0.063 H 
ATOM     34  C   LIG d   1       3.842  -1.583  -9.262  0.00  0.00    -0.043 A 
ATOM     35 CL   LIG d   1       1.303  -0.842  -9.842  0.00  0.00    -0.084 Cl
ATOM     36  C   LIG d   1       4.980  -1.598  -8.479  0.00  0.00    -0.055 A 
ATOM     37  H   LIG d   1       3.822  -2.127 -10.196  0.00  0.00     0.063 H 
ATOM     38  H   LIG d   1       5.849  -2.154  -8.799  0.00  0.00     0.062 H 
ENDBRANCH   1  28
BRANCH   1  39
ATOM     39  N   LIG d   1       6.005  -1.759  -5.241  0.00  0.00    -0.292 N 
BRANCH  39  40
ATOM     40  C   LIG d   1       5.514  -1.181  -4.068  0.00  0.00     0.035 A 
ATOM     41  C   LIG d   1       4.689  -1.912  -3.223  0.00  0.00    -0.040 A 
ATOM     42  C   LIG d   1       4.206  -1.336  -2.064  0.00  0.00    -0.060 A 
ATOM     43  H   LIG d   1       4.428  -2.931  -3.471  0.00  0.00     0.064 H 
ATOM     44  C   LIG d   1       4.541  -0.033  -1.746  0.00  0.00    -0.062 A 
ATOM     45  H   LIG d   1       3.566  -1.905  -1.406  0.00  0.00     0.062 H 
ATOM     46  C   LIG d   1       5.361   0.698  -2.586  0.00  0.00    -0.060 A 
ATOM     47  H   LIG d   1       4.162   0.415  -0.839  0.00  0.00     0.062 H 
ATOM     48  C   LIG d   1       5.851   0.127  -3.743  0.00  0.00    -0.040 A 
ATOM     49  H   LIG d   1       5.620   1.716  -2.334  0.00  0.00     0.062 H 
ATOM     50  H   LIG d   1       6.495   0.697  -4.397  0.00  0.00     0.064 H 
ENDBRANCH  39  40
BRANCH  39  51
ATOM     51  C   LIG d   1       6.269  -3.131  -5.286  0.00  0.00     0.035 A 
ATOM     52  C   LIG d   1       7.498  -3.617  -4.856  0.00  0.00    -0.040 A 
ATOM     53  C   LIG d   1       7.756  -4.973  -4.901  0.00  0.00    -0.060 A 
ATOM     54  H   LIG d   1       8.250  -2.935  -4.487  0.00  0.00     0.064 H 
ATOM     55  C   LIG d   1       6.794  -5.846  -5.373  0.00  0.00    -0.062 A 
ATOM     56  H   LIG d   1       8.711  -5.351  -4.567  0.00  0.00     0.062 H 
ATOM     57  C   LIG d   1       5.570  -5.366  -5.803  0.00  0.00    -0.060 A 
ATOM     58  H   LIG d   1       6.998  -6.906  -5.407  0.00  0.00     0.062 H 
ATOM     59  C   LIG d   1       5.303  -4.012  -5.755  0.00  0.00    -0.040 A 
ATOM     60  H   LIG d   1       4.821  -6.051  -6.170  0.00  0.00     0.062 H 
ATOM     61  H   LIG d   1       4.345  -3.638  -6.086  0.00  0.00     0.064 H 
ENDBRANCH  39  51
ENDBRANCH   1  39
TORSDOF 8
ENDMDL
MODEL 6
REMARK VINA RESULT:      -6.6      3.135      6.278
REMARK  8 active torsions:
REMARK  status: ('A' for Active; 'I' for Inactive)
REMARK    1  A    between atoms: C_1  and  N_2 
REMARK    2  A    between atoms: C_11  and  C_14 
REMARK    3  A    between atoms: C_14  and  C_16 
REMARK    4  A    between atoms: C_16  and  C_17 
REMARK    5  A    between atoms: C_17  and  C_19 
REMARK    6  A    between atoms: C_17  and  N_26 
REMARK    7  A    between atoms: N_26  and  C_27 
REMARK    8  A    between atoms: N_26  and  C_33 
ROOT
ATOM      1  C   LIG d   1       6.221  -0.928  -6.435  0.00  0.00     0.060 C 
ATOM      2  H   LIG d   1       6.450   0.087  -6.078  0.00  0.00     0.056 H 
ENDROOT
BRANCH   1   3
ATOM      3  C   LIG d   1       7.389  -1.506  -7.236  0.00  0.00     0.034 C 
ATOM      4  H   LIG d   1       7.011  -1.944  -8.171  0.00  0.00     0.037 H 
ATOM      5  H   LIG d   1       7.892  -2.284  -6.643  0.00  0.00     0.037 H 
BRANCH   3   6
ATOM      6  C   LIG d   1       8.370  -0.407  -7.558  0.00  0.00     0.170 C 
ATOM      7  O   LIG d   1       8.550  -0.072  -8.711  0.00  0.00    -0.292 OA
BRANCH   6   8
ATOM      8  C   LIG d   1       9.081   0.233  -6.516  0.00  0.00     0.073 A 
ATOM      9  C   LIG d   1       8.578   1.478  -5.919  0.00  0.00     0.199 A 
ATOM     10  C   LIG d   1       9.378   2.082  -4.837  0.00  0.00     0.046 A 
ATOM     11  O   LIG d   1       7.541   1.991  -6.303  0.00  0.00    -0.286 OA
ATOM     12  C   LIG d   1      10.568   1.451  -4.439  0.00  0.00     0.052 A 
ATOM     13  C   LIG d   1       8.971   3.264  -4.217  0.00  0.00    -0.049 A 
ATOM     14  N   LIG d   1      10.973   0.278  -5.044  0.00  0.00    -0.356 N 
ATOM     15  C   LIG d   1      11.325   2.013  -3.416  0.00  0.00    -0.037 A 
ATOM     16  C   LIG d   1      10.277  -0.309  -6.034  0.00  0.00    -0.022 A 
ATOM     17  O   LIG d   1      10.745  -1.449  -6.576  0.00  0.00    -0.861 OA
ATOM     18  C   LIG d   1      10.911   3.180  -2.812  0.00  0.00    -0.060 A 
ATOM     19  H   LIG d   1      12.241   1.535  -3.097  0.00  0.00     0.064 H 
ATOM     20  C   LIG d   1       9.738   3.805  -3.210  0.00  0.00    -0.061 A 
ATOM     21  H   LIG d   1      11.505   3.612  -2.020  0.00  0.00     0.062 H 
ATOM     22  H   LIG d   1       9.426   4.720  -2.728  0.00  0.00     0.062 H 
ATOM     23  H   LIG d   1       8.057   3.752  -4.526  0.00  0.00     0.062 H 
BRANCH  14  24
ATOM     24  C   LIG d   1      12.217  -0.350  -4.593  0.00  0.00     0.011 C 
ATOM     25  H   LIG d   1      12.601  -1.011  -5.383  0.00  0.00     0.045 H 
ATOM     26  H   LIG d   1      12.022  -0.939  -3.685  0.00  0.00     0.045 H 
ATOM     27  H   LIG d   1      12.962   0.428  -4.371  0.00  0.00     0.045 H 
ENDBRANCH  14  24
ENDBRANCH   6   8
ENDBRANCH   3   6
ENDBRANCH   1   3
BRANCH   1  28
ATOM     28  C   LIG d   1       4.985  -0.901  -7.296  0.00  0.00    -0.026 A 
ATOM     29  C   LIG d   1       3.874  -0.187  -6.888  0.00  0.00    -0.055 A 
ATOM     30  C   LIG d   1       2.741  -0.162  -7.678  0.00  0.00    -0.043 A 
ATOM     31  H   LIG d   1       3.893   0.351  -5.953  0.00  0.00     0.062 H 
ATOM     32  C   LIG d   1       2.718  -0.851  -8.878  0.00  0.00     0.041 A 
ATOM     33  H   LIG d   1       1.873   0.396  -7.360  0.00  0.00     0.063 H 
ATOM     34  C   LIG d   1       3.830  -1.565  -9.285  0.00  0.00    -0.043 A 
ATOM     35 CL   LIG d   1       1.294  -0.819  -9.870  0.00  0.00    -0.084 Cl
ATOM     36  C   LIG d   1       4.965  -1.585  -8.497  0.00  0.00    -0.055 A 
ATOM     37  H   LIG d   1       3.813  -2.104 -10.221  0.00  0.00     0.063 H 
ATOM     38  H   LIG d   1       5.836  -2.140  -8.817  0.00  0.00     0.062 H 
ENDBRANCH   1  28
BRANCH   1  39
ATOM     39  N   LIG d   1       5.978  -1.764  -5.256  0.00  0.00    -0.292 N 
BRANCH  39  40
ATOM     40  C   LIG d   1       6.221  -3.139  -5.311  0.00  0.00     0.035 A 
ATOM     41  C   LIG d   1       5.234  -4.004  -5.766  0.00  0.00    -0.040 A 
ATOM     42  C   LIG d   1       5.478  -5.362  -5.818  0.00  0.00    -0.060 A 
ATOM     43  H   LIG d   1       4.276  -3.613  -6.080  0.00  0.00     0.064 H 
ATOM     44  C   LIG d   1       6.704  -5.861  -5.418  0.00  0.00    -0.062 A 
ATOM     45  H   LIG d   1       4.711  -6.034  -6.173  0.00  0.00     0.062 H 
ATOM     46  C   LIG d   1       7.688  -5.003  -4.964  0.00  0.00    -0.060 A 
ATOM     47  H   LIG d   1       6.893  -6.924  -5.461  0.00  0.00     0.062 H 
ATOM     48  C   LIG d   1       7.452  -3.644  -4.913  0.00  0.00    -0.040 A 
ATOM     49  H   LIG d   1       8.645  -5.397  -4.652  0.00  0.00     0.062 H 
ATOM     50  H   LIG d   1       8.224  -2.973  -4.563  0.00  0.00     0.064 H 
ENDBRANCH  39  40
BRANCH  39  51
ATOM     51  C   LIG d   1       5.501  -1.185  -4.076  0.00  0.00     0.035 A 
ATOM     52  C   LIG d   1       4.696  -1.922  -3.216  0.00  0.00    -0.040 A 
ATOM     53  C   LIG d   1       4.227  -1.348  -2.051  0.00  0.00    -0.060 A 
ATOM     54  H   LIG d   1       4.439  -2.943  -3.457  0.00  0.00     0.064 H 
ATOM     55  C   LIG d   1       4.557  -0.041  -1.741  0.00  0.00    -0.062 A 
ATOM     56  H   LIG d   1       3.602  -1.920  -1.382  0.00  0.00     0.062 H 
ATOM     57  C   LIG d   1       5.356   0.695  -2.596  0.00  0.00    -0.060 A 
ATOM     58  H   LIG d   1       4.188   0.406  -0.829  0.00  0.00     0.062 H 
ATOM     59  C   LIG d   1       5.834   0.125  -3.760  0.00  0.00    -0.040 A 
ATOM     60  H   LIG d   1       5.613   1.715  -2.350  0.00  0.00     0.062 H 
ATOM     61  H   LIG d   1       6.463   0.699  -4.424  0.00  0.00     0.064 H 
ENDBRANCH  39  51
ENDBRANCH   1  39
TORSDOF 8
ENDMDL
MODEL 7
REMARK VINA RESULT:      -6.5      2.527      4.623
REMARK  8 active torsions:
REMARK  status: ('A' for Active; 'I' for Inactive)
REMARK    1  A    between atoms: C_1  and  N_2 
REMARK    2  A    between atoms: C_11  and  C_14 
REMARK    3  A    between atoms: C_14  and  C_16 
REMARK    4  A    between atoms: C_16  and  C_17 
REMARK    5  A    between atoms: C_17  and  C_19 
REMARK    6  A    between atoms: C_17  and  N_26 
REMARK    7  A    between atoms: N_26  and  C_27 
REMARK    8  A    between atoms: N_26  and  C_33 
ROOT
ATOM      1  C   LIG d   1       6.937  -3.140  -4.531  0.00  0.00     0.060 C 
ATOM      2  H   LIG d   1       6.237  -3.477  -3.751  0.00  0.00     0.056 H 
ENDROOT
BRANCH   1   3
ATOM      3  C   LIG d   1       6.479  -3.599  -5.916  0.00  0.00     0.034 C 
ATOM      4  H   LIG d   1       6.912  -4.585  -6.138  0.00  0.00     0.037 H 
ATOM      5  H   LIG d   1       6.813  -2.873  -6.672  0.00  0.00     0.037 H 
BRANCH   3   6
ATOM      6  C   LIG d   1       4.975  -3.694  -5.942  0.00  0.00     0.170 C 
ATOM      7  O   LIG d   1       4.379  -4.149  -4.987  0.00  0.00    -0.292 OA
BRANCH   6   8
ATOM      8  C   LIG d   1       4.259  -3.255  -7.080  0.00  0.00     0.073 A 
ATOM      9  C   LIG d   1       3.883  -1.842  -7.231  0.00  0.00     0.199 A 
ATOM     10  C   LIG d   1       3.137  -1.466  -8.447  0.00  0.00     0.046 A 
ATOM     11  O   LIG d   1       4.176  -1.015  -6.385  0.00  0.00    -0.286 OA
ATOM     12  C   LIG d   1       2.821  -2.461  -9.385  0.00  0.00     0.052 A 
ATOM     13  C   LIG d   1       2.743  -0.145  -8.666  0.00  0.00    -0.049 A 
ATOM     14  N   LIG d   1       3.214  -3.768  -9.176  0.00  0.00    -0.356 N 
ATOM     15  C   LIG d   1       2.122  -2.112 -10.536  0.00  0.00    -0.037 A 
ATOM     16  C   LIG d   1       3.894  -4.159  -8.084  0.00  0.00    -0.022 A 
ATOM     17  O   LIG d   1       4.234  -5.455  -7.953  0.00  0.00    -0.861 OA
ATOM     18  C   LIG d   1       1.739  -0.805 -10.741  0.00  0.00    -0.060 A 
ATOM     19  H   LIG d   1       1.876  -2.868 -11.269  0.00  0.00     0.064 H 
ATOM     20  C   LIG d   1       2.048   0.177  -9.810  0.00  0.00    -0.061 A 
ATOM     21  H   LIG d   1       1.194  -0.541 -11.635  0.00  0.00     0.062 H 
ATOM     22  H   LIG d   1       1.740   1.198  -9.984  0.00  0.00     0.062 H 
ATOM     23  H   LIG d   1       2.983   0.620  -7.942  0.00  0.00     0.062 H 
BRANCH  14  24
ATOM     24  C   LIG d   1       2.869  -4.774 -10.184  0.00  0.00     0.011 C 
ATOM     25  H   LIG d   1       3.715  -5.464 -10.317  0.00  0.00     0.045 H 
ATOM     26  H   LIG d   1       2.650  -4.274 -11.139  0.00  0.00     0.045 H 
ATOM     27  H   LIG d   1       1.985  -5.337  -9.854  0.00  0.00     0.045 H 
ENDBRANCH  14  24
ENDBRANCH   6   8
ENDBRANCH   3   6
ENDBRANCH   1   3
BRANCH   1  28
ATOM     28  C   LIG d   1       8.314  -3.685  -4.250  0.00  0.00    -0.026 A 
ATOM     29  C   LIG d   1       8.826  -3.643  -2.967  0.00  0.00    -0.055 A 
ATOM     30  C   LIG d   1      10.088  -4.143  -2.710  0.00  0.00    -0.043 A 
ATOM     31  H   LIG d   1       8.239  -3.219  -2.166  0.00  0.00     0.062 H 
ATOM     32  C   LIG d   1      10.840  -4.686  -3.737  0.00  0.00     0.041 A 
ATOM     33  H   LIG d   1      10.488  -4.110  -1.708  0.00  0.00     0.063 H 
ATOM     34  C   LIG d   1      10.326  -4.728  -5.021  0.00  0.00    -0.043 A 
ATOM     35 CL   LIG d   1      12.425  -5.314  -3.414  0.00  0.00    -0.084 Cl
ATOM     36  C   LIG d   1       9.062  -4.233  -5.276  0.00  0.00    -0.055 A 
ATOM     37  H   LIG d   1      10.912  -5.152  -5.823  0.00  0.00     0.063 H 
ATOM     38  H   LIG d   1       8.659  -4.270  -6.278  0.00  0.00     0.062 H 
ENDBRANCH   1  28
BRANCH   1  39
ATOM     39  N   LIG d   1       6.973  -1.676  -4.488  0.00  0.00    -0.292 N 
BRANCH  39  40
ATOM     40  C   LIG d   1       7.825  -0.972  -5.342  0.00  0.00     0.035 A 
ATOM     41  C   LIG d   1       9.072  -0.555  -4.894  0.00  0.00    -0.040 A 
ATOM     42  C   LIG d   1       9.912   0.141  -5.741  0.00  0.00    -0.060 A 
ATOM     43  H   LIG d   1       9.385  -0.777  -3.884  0.00  0.00     0.064 H 
ATOM     44  C   LIG d   1       9.512   0.423  -7.034  0.00  0.00    -0.062 A 
ATOM     45  H   LIG d   1      10.882   0.463  -5.393  0.00  0.00     0.062 H 
ATOM     46  C   LIG d   1       8.271   0.011  -7.483  0.00  0.00    -0.060 A 
ATOM     47  H   LIG d   1      10.171   0.967  -7.695  0.00  0.00     0.062 H 
ATOM     48  C   LIG d   1       7.429  -0.689  -6.643  0.00  0.00    -0.040 A 
ATOM     49  H   LIG d   1       7.962   0.234  -8.494  0.00  0.00     0.062 H 
ATOM     50  H   LIG d   1       6.461  -1.015  -6.996  0.00  0.00     0.064 H 
ENDBRANCH  39  40
BRANCH  39  51
ATOM     51  C   LIG d   1       6.153  -0.984  -3.592  0.00  0.00     0.035 A 
ATOM     52  C   LIG d   1       5.260  -1.679  -2.785  0.00  0.00    -0.040 A 
ATOM     53  C   LIG d   1       4.453  -0.992  -1.901  0.00  0.00    -0.060 A 
ATOM     54  H   LIG d   1       5.200  -2.755  -2.850  0.00  0.00     0.064 H 
ATOM     55  C   LIG d   1       4.532   0.386  -1.817  0.00  0.00    -0.062 A 
ATOM     56  H   LIG d   1       3.759  -1.532  -1.274  0.00  0.00     0.062 H 
ATOM     57  C   LIG d   1       5.418   1.081  -2.619  0.00  0.00    -0.060 A 
ATOM     58  H   LIG d   1       3.899   0.921  -1.124  0.00  0.00     0.062 H 
ATOM     59  C   LIG d   1       6.233   0.400  -3.502  0.00  0.00    -0.040 A 
ATOM     60  H   LIG d   1       5.478   2.157  -2.550  0.00  0.00     0.062 H 
ATOM     61  H   LIG d   1       6.929   0.943  -4.124  0.00  0.00     0.064 H 
ENDBRANCH  39  51
ENDBRANCH   1  39
TORSDOF 8
ENDMDL
MODEL 8
REMARK VINA RESULT:      -6.5      2.527      4.139
REMARK  8 active torsions:
REMARK  status: ('A' for Active; 'I' for Inactive)
REMARK    1  A    between atoms: C_1  and  N_2 
REMARK    2  A    between atoms: C_11  and  C_14 
REMARK    3  A    between atoms: C_14  and  C_16 
REMARK    4  A    between atoms: C_16  and  C_17 
REMARK    5  A    between atoms: C_17  and  C_19 
REMARK    6  A    between atoms: C_17  and  N_26 
REMARK    7  A    between atoms: N_26  and  C_27 
REMARK    8  A    between atoms: N_26  and  C_33 
ROOT
ATOM      1  C   LIG d   1       6.939  -3.149  -4.525  0.00  0.00     0.060 C 
ATOM      2  H   LIG d   1       6.239  -3.486  -3.746  0.00  0.00     0.056 H 
ENDROOT
BRANCH   1   3
ATOM      3  C   LIG d   1       6.483  -3.608  -5.911  0.00  0.00     0.034 C 
ATOM      4  H   LIG d   1       6.915  -4.595  -6.131  0.00  0.00     0.037 H 
ATOM      5  H   LIG d   1       6.819  -2.883  -6.667  0.00  0.00     0.037 H 
BRANCH   3   6
ATOM      6  C   LIG d   1       4.978  -3.702  -5.939  0.00  0.00     0.170 C 
ATOM      7  O   LIG d   1       4.381  -4.158  -4.986  0.00  0.00    -0.292 OA
BRANCH   6   8
ATOM      8  C   LIG d   1       4.264  -3.258  -7.076  0.00  0.00     0.073 A 
ATOM      9  C   LIG d   1       3.887  -1.845  -7.221  0.00  0.00     0.199 A 
ATOM     10  C   LIG d   1       3.143  -1.464  -8.437  0.00  0.00     0.046 A 
ATOM     11  O   LIG d   1       4.178  -1.021  -6.371  0.00  0.00    -0.286 OA
ATOM     12  C   LIG d   1       2.830  -2.455  -9.380  0.00  0.00     0.052 A 
ATOM     13  C   LIG d   1       2.748  -0.143  -8.651  0.00  0.00    -0.049 A 
ATOM     14  N   LIG d   1       3.223  -3.763  -9.176  0.00  0.00    -0.356 N 
ATOM     15  C   LIG d   1       2.132  -2.102 -10.531  0.00  0.00    -0.037 A 
ATOM     16  C   LIG d   1       3.902  -4.158  -8.084  0.00  0.00    -0.022 A 
ATOM     17  O   LIG d   1       4.243  -5.454  -7.958  0.00  0.00    -0.861 OA
ATOM     18  C   LIG d   1       1.749  -0.794 -10.731  0.00  0.00    -0.060 A 
ATOM     19  H   LIG d   1       1.888  -2.855 -11.267  0.00  0.00     0.064 H 
ATOM     20  C   LIG d   1       2.054   0.184  -9.795  0.00  0.00    -0.061 A 
ATOM     21  H   LIG d   1       1.205  -0.527 -11.625  0.00  0.00     0.062 H 
ATOM     22  H   LIG d   1       1.746   1.205  -9.965  0.00  0.00     0.062 H 
ATOM     23  H   LIG d   1       2.985   0.620  -7.923  0.00  0.00     0.062 H 
BRANCH  14  24
ATOM     24  C   LIG d   1       2.882  -4.765 -10.190  0.00  0.00     0.011 C 
ATOM     25  H   LIG d   1       2.590  -4.258 -11.121  0.00  0.00     0.045 H 
ATOM     26  H   LIG d   1       2.044  -5.380  -9.829  0.00  0.00     0.045 H 
ATOM     27  H   LIG d   1       3.753  -5.407 -10.379  0.00  0.00     0.045 H 
ENDBRANCH  14  24
ENDBRANCH   6   8
ENDBRANCH   3   6
ENDBRANCH   1   3
BRANCH   1  28
ATOM     28  C   LIG d   1       8.316  -3.693  -4.244  0.00  0.00    -0.026 A 
ATOM     29  C   LIG d   1       9.065  -4.241  -5.268  0.00  0.00    -0.055 A 
ATOM     30  C   LIG d   1      10.328  -4.740  -5.010  0.00  0.00    -0.043 A 
ATOM     31  H   LIG d   1       8.664  -4.278  -6.269  0.00  0.00     0.062 H 
ATOM     32  C   LIG d   1      10.842  -4.693  -3.726  0.00  0.00     0.041 A 
ATOM     33  H   LIG d   1      10.914  -5.167  -5.810  0.00  0.00     0.063 H 
ATOM     34  C   LIG d   1      10.091  -4.145  -2.702  0.00  0.00    -0.043 A 
ATOM     35 CL   LIG d   1      12.427  -5.320  -3.402  0.00  0.00    -0.084 Cl
ATOM     36  C   LIG d   1       8.831  -3.640  -2.962  0.00  0.00    -0.055 A 
ATOM     37  H   LIG d   1      10.491  -4.107  -1.699  0.00  0.00     0.063 H 
ATOM     38  H   LIG d   1       8.246  -3.208  -2.163  0.00  0.00     0.062 H 
ENDBRANCH   1  28
BRANCH   1  39
ATOM     39  N   LIG d   1       6.975  -1.685  -4.483  0.00  0.00    -0.292 N 
BRANCH  39  40
ATOM     40  C   LIG d   1       6.156  -0.991  -3.589  0.00  0.00     0.035 A 
ATOM     41  C   LIG d   1       5.259  -1.682  -2.784  0.00  0.00    -0.040 A 
ATOM     42  C   LIG d   1       4.452  -0.992  -1.901  0.00  0.00    -0.060 A 
ATOM     43  H   LIG d   1       5.195  -2.759  -2.848  0.00  0.00     0.064 H 
ATOM     44  C   LIG d   1       4.535   0.385  -1.818  0.00  0.00    -0.062 A 
ATOM     45  H   LIG d   1       3.756  -1.530  -1.274  0.00  0.00     0.062 H 
ATOM     46  C   LIG d   1       5.425   1.077  -2.618  0.00  0.00    -0.060 A 
ATOM     47  H   LIG d   1       3.902   0.922  -1.126  0.00  0.00     0.062 H 
ATOM     48  C   LIG d   1       6.239   0.393  -3.500  0.00  0.00    -0.040 A 
ATOM     49  H   LIG d   1       5.487   2.153  -2.550  0.00  0.00     0.062 H 
ATOM     50  H   LIG d   1       6.938   0.933  -4.121  0.00  0.00     0.064 H 
ENDBRANCH  39  40
BRANCH  39  51
ATOM     51  C   LIG d   1       7.828  -0.982  -5.339  0.00  0.00     0.035 A 
ATOM     52  C   LIG d   1       7.431  -0.701  -6.640  0.00  0.00    -0.040 A 
ATOM     53  C   LIG d   1       8.275  -0.006  -7.483  0.00  0.00    -0.060 A 
ATOM     54  H   LIG d   1       6.462  -1.025  -6.992  0.00  0.00     0.064 H 
ATOM     55  C   LIG d   1       9.515   0.409  -7.033  0.00  0.00    -0.062 A 
ATOM     56  H   LIG d   1       7.967   0.213  -8.494  0.00  0.00     0.062 H 
ATOM     57  C   LIG d   1       9.914   0.130  -5.739  0.00  0.00    -0.060 A 
ATOM     58  H   LIG d   1      10.174   0.953  -7.694  0.00  0.00     0.062 H 
ATOM     59  C   LIG d   1       9.072  -0.559  -4.888  0.00  0.00    -0.040 A 
ATOM     60  H   LIG d   1      10.882   0.457  -5.390  0.00  0.00     0.062 H 
ATOM     61  H   LIG d   1       9.382  -0.772  -3.876  0.00  0.00     0.064 H 
ENDBRANCH  39  51
ENDBRANCH   1  39
TORSDOF 8
ENDMDL
MODEL 9
REMARK VINA RESULT:      -6.4      3.015      5.116
REMARK  8 active torsions:
REMARK  status: ('A' for Active; 'I' for Inactive)
REMARK    1  A    between atoms: C_1  and  N_2 
REMARK    2  A    between atoms: C_11  and  C_14 
REMARK    3  A    between atoms: C_14  and  C_16 
REMARK    4  A    between atoms: C_16  and  C_17 
REMARK    5  A    between atoms: C_17  and  C_19 
REMARK    6  A    between atoms: C_17  and  N_26 
REMARK    7  A    between atoms: N_26  and  C_27 
REMARK    8  A    between atoms: N_26  and  C_33 
ROOT
ATOM      1  C   LIG d   1       6.471  -2.022  -6.333  0.00  0.00     0.060 C 
ATOM      2  H   LIG d   1       6.654  -1.785  -7.392  0.00  0.00     0.056 H 
ENDROOT
BRANCH   1   3
ATOM      3  C   LIG d   1       7.725  -1.780  -5.491  0.00  0.00     0.034 C 
ATOM      4  H   LIG d   1       8.213  -2.742  -5.275  0.00  0.00     0.037 H 
ATOM      5  H   LIG d   1       7.445  -1.290  -4.547  0.00  0.00     0.037 H 
BRANCH   3   6
ATOM      6  C   LIG d   1       8.679  -0.894  -6.252  0.00  0.00     0.170 C 
ATOM      7  O   LIG d   1       8.848  -1.066  -7.442  0.00  0.00    -0.292 OA
BRANCH   6   8
ATOM      8  C   LIG d   1       9.376   0.136  -5.579  0.00  0.00     0.073 A 
ATOM      9  C   LIG d   1       8.766   1.460  -5.397  0.00  0.00     0.199 A 
ATOM     10  C   LIG d   1       9.559   2.480  -4.685  0.00  0.00     0.046 A 
ATOM     11  O   LIG d   1       7.649   1.707  -5.820  0.00  0.00    -0.286 OA
ATOM     12  C   LIG d   1      10.841   2.143  -4.225  0.00  0.00     0.052 A 
ATOM     13  C   LIG d   1       9.052   3.763  -4.471  0.00  0.00    -0.049 A 
ATOM     14  N   LIG d   1      11.346   0.873  -4.429  0.00  0.00    -0.356 N 
ATOM     15  C   LIG d   1      11.593   3.098  -3.548  0.00  0.00    -0.037 A 
ATOM     16  C   LIG d   1      10.660  -0.088  -5.073  0.00  0.00    -0.022 A 
ATOM     17  O   LIG d   1      11.227  -1.298  -5.235  0.00  0.00    -0.861 OA
ATOM     18  C   LIG d   1      11.081   4.360  -3.343  0.00  0.00    -0.060 A 
ATOM     19  H   LIG d   1      12.581   2.851  -3.185  0.00  0.00     0.064 H 
ATOM     20  C   LIG d   1       9.815   4.694  -3.803  0.00  0.00    -0.061 A 
ATOM     21  H   LIG d   1      11.671   5.098  -2.819  0.00  0.00     0.062 H 
ATOM     22  H   LIG d   1       9.427   5.688  -3.635  0.00  0.00     0.062 H 
ATOM     23  H   LIG d   1       8.066   4.024  -4.828  0.00  0.00     0.062 H 
BRANCH  14  24
ATOM     24  C   LIG d   1      12.686   0.563  -3.926  0.00  0.00     0.011 C 
ATOM     25  H   LIG d   1      13.439   1.012  -4.589  0.00  0.00     0.045 H 
ATOM     26  H   LIG d   1      12.824  -0.528  -3.900  0.00  0.00     0.045 H 
ATOM     27  H   LIG d   1      12.801   0.970  -2.911  0.00  0.00     0.045 H 
ENDBRANCH  14  24
ENDBRANCH   6   8
ENDBRANCH   3   6
ENDBRANCH   1   3
BRANCH   1  28
ATOM     28  C   LIG d   1       6.046  -3.461  -6.199  0.00  0.00    -0.026 A 
ATOM     29  C   LIG d   1       4.875  -3.894  -6.794  0.00  0.00    -0.055 A 
ATOM     30  C   LIG d   1       4.485  -5.214  -6.671  0.00  0.00    -0.043 A 
ATOM     31  H   LIG d   1       4.267  -3.201  -7.355  0.00  0.00     0.062 H 
ATOM     32  C   LIG d   1       5.265  -6.102  -5.952  0.00  0.00     0.041 A 
ATOM     33  H   LIG d   1       3.571  -5.552  -7.136  0.00  0.00     0.063 H 
ATOM     34  C   LIG d   1       6.436  -5.668  -5.357  0.00  0.00    -0.043 A 
ATOM     35 CL   LIG d   1       4.775  -7.760  -5.798  0.00  0.00    -0.084 Cl
ATOM     36  C   LIG d   1       6.829  -4.350  -5.485  0.00  0.00    -0.055 A 
ATOM     37  H   LIG d   1       7.046  -6.361  -4.796  0.00  0.00     0.063 H 
ATOM     38  H   LIG d   1       7.745  -4.011  -5.025  0.00  0.00     0.062 H 
ENDBRANCH   1  28
BRANCH   1  39
ATOM     39  N   LIG d   1       5.393  -1.147  -5.866  0.00  0.00    -0.292 N 
BRANCH  39  40
ATOM     40  C   LIG d   1       5.061  -1.110  -4.509  0.00  0.00     0.035 A 
ATOM     41  C   LIG d   1       4.327  -2.145  -3.943  0.00  0.00    -0.040 A 
ATOM     42  C   LIG d   1       4.000  -2.104  -2.602  0.00  0.00    -0.060 A 
ATOM     43  H   LIG d   1       4.013  -2.981  -4.552  0.00  0.00     0.064 H 
ATOM     44  C   LIG d   1       4.403  -1.035  -1.822  0.00  0.00    -0.062 A 
ATOM     45  H   LIG d   1       3.431  -2.909  -2.161  0.00  0.00     0.062 H 
ATOM     46  C   LIG d   1       5.133  -0.004  -2.383  0.00  0.00    -0.060 A 
ATOM     47  H   LIG d   1       4.147  -1.006  -0.774  0.00  0.00     0.062 H 
ATOM     48  C   LIG d   1       5.467  -0.040  -3.722  0.00  0.00    -0.040 A 
ATOM     49  H   LIG d   1       5.446   0.830  -1.771  0.00  0.00     0.062 H 
ATOM     50  H   LIG d   1       6.041   0.764  -4.158  0.00  0.00     0.064 H 
ENDBRANCH  39  40
BRANCH  39  51
ATOM     51  C   LIG d   1       4.696  -0.349  -6.778  0.00  0.00     0.035 A 
ATOM     52  C   LIG d   1       5.359   0.206  -7.865  0.00  0.00    -0.040 A 
ATOM     53  C   LIG d   1       4.668   0.993  -8.765  0.00  0.00    -0.060 A 
ATOM     54  H   LIG d   1       6.414   0.020  -8.008  0.00  0.00     0.064 H 
ATOM     55  C   LIG d   1       3.317   1.229  -8.584  0.00  0.00    -0.062 A 
ATOM     56  H   LIG d   1       5.182   1.424  -9.610  0.00  0.00     0.062 H 
ATOM     57  C   LIG d   1       2.655   0.679  -7.502  0.00  0.00    -0.060 A 
ATOM     58  H   LIG d   1       2.779   1.845  -9.289  0.00  0.00     0.062 H 
ATOM     59  C   LIG d   1       3.338  -0.114  -6.601  0.00  0.00    -0.040 A 
ATOM     60  H   LIG d   1       1.600   0.865  -7.364  0.00  0.00     0.062 H 
ATOM     61  H   LIG d   1       2.819  -0.547  -5.759  0.00  0.00     0.064 H 
ENDBRANCH  39  51
ENDBRANCH   1  39
TORSDOF 8
ENDMDL
