MODEL 1
REMARK VINA RESULT:      -7.8      0.000      0.000
REMARK  2 active torsions:
REMARK  status: ('A' for Active; 'I' for Inactive)
REMARK    1  A    between atoms: C_1  and  C_2 
REMARK    2  A    between atoms: C_9  and  C_13 
ROOT
ATOM      1  C   LIG d   1       4.751  -1.814  -7.789  0.00  0.00     0.034 A 
ATOM      2  C   LIG d   1       4.817  -1.553  -6.428  0.00  0.00     0.146 A 
ATOM      3  C   LIG d   1       4.057  -0.501  -5.896  0.00  0.00     0.026 A 
ATOM      4  C   LIG d   1       3.247   0.265  -6.731  0.00  0.00    -0.044 A 
ATOM      5  C   LIG d   1       3.191  -0.006  -8.084  0.00  0.00    -0.004 A 
ATOM      6  C   LIG d   1       3.943  -1.044  -8.616  0.00  0.00     0.131 A 
ATOM      7  O   LIG d   1       3.917  -1.337  -9.941  0.00  0.00    -0.484 OA
ATOM      8  C   LIG d   1       2.838  -0.817 -10.719  0.00  0.00     0.126 C 
ATOM      9  H   LIG d   1       1.913  -1.328 -10.453  0.00  0.00     0.078 H 
ATOM     10  C   LIG d   1       2.703   0.682 -10.420  0.00  0.00    -0.007 C 
ATOM     11  C   LIG d   1       2.299   0.844  -8.953  0.00  0.00    -0.021 C 
ATOM     12  C   LIG d   1       4.129  -0.224  -4.449  0.00  0.00    -0.000 A 
ATOM     13  C   LIG d   1       3.402   0.804  -3.859  0.00  0.00    -0.053 A 
ATOM     14  C   LIG d   1       3.509   1.020  -2.500  0.00  0.00    -0.061 A 
ATOM     15  C   LIG d   1       4.333   0.222  -1.720  0.00  0.00    -0.061 A 
ATOM     16  C   LIG d   1       5.062  -0.802  -2.287  0.00  0.00    -0.047 A 
ATOM     17  C   LIG d   1       4.968  -1.036  -3.658  0.00  0.00     0.067 A 
ATOM     18  C   LIG d   1       5.722  -2.114  -4.313  0.00  0.00     0.345 A 
ATOM     19  O   LIG d   1       6.452  -2.829  -3.654  0.00  0.00    -0.244 OA
ATOM     20  O   LIG d   1       5.609  -2.311  -5.637  0.00  0.00    -0.421 OA
ATOM     21  H   LIG d   1       2.663   1.074  -6.319  0.00  0.00     0.063 H 
ATOM     22  H   LIG d   1       1.939   1.118 -11.063  0.00  0.00     0.031 H 
ATOM     23  H   LIG d   1       3.658   1.178 -10.595  0.00  0.00     0.031 H 
ATOM     24  H   LIG d   1       2.398   1.890  -8.663  0.00  0.00     0.032 H 
ATOM     25  H   LIG d   1       1.262   0.530  -8.826  0.00  0.00     0.032 H 
ATOM     26  H   LIG d   1       2.758   1.429  -4.460  0.00  0.00     0.062 H 
ATOM     27  H   LIG d   1       2.945   1.818  -2.039  0.00  0.00     0.062 H 
ATOM     28  H   LIG d   1       4.405   0.405  -0.658  0.00  0.00     0.062 H 
ATOM     29  H   LIG d   1       5.702  -1.418  -1.673  0.00  0.00     0.063 H 
ENDROOT
BRANCH   8  30
ATOM     30  C   LIG d   1       3.125  -1.018 -12.185  0.00  0.00    -0.007 A 
ATOM     31  C   LIG d   1       2.297  -1.820 -12.949  0.00  0.00    -0.055 A 
ATOM     32  C   LIG d   1       2.560  -2.003 -14.293  0.00  0.00    -0.061 A 
ATOM     33  H   LIG d   1       1.444  -2.301 -12.495  0.00  0.00     0.062 H 
ATOM     34  C   LIG d   1       3.653  -1.385 -14.874  0.00  0.00    -0.062 A 
ATOM     35  H   LIG d   1       1.913  -2.629 -14.890  0.00  0.00     0.062 H 
ATOM     36  C   LIG d   1       4.481  -0.585 -14.110  0.00  0.00    -0.061 A 
ATOM     37  H   LIG d   1       3.858  -1.529 -15.925  0.00  0.00     0.062 H 
ATOM     38  C   LIG d   1       4.214  -0.396 -12.767  0.00  0.00    -0.055 A 
ATOM     39  H   LIG d   1       5.334  -0.103 -14.564  0.00  0.00     0.062 H 
ATOM     40  H   LIG d   1       4.858   0.233 -12.172  0.00  0.00     0.062 H 
ENDBRANCH   8  30
BRANCH   1  41
ATOM     41  C   LIG d   1       5.562  -2.941  -8.373  0.00  0.00    -0.033 C 
ATOM     42  H   LIG d   1       4.945  -3.508  -9.071  0.00  0.00     0.028 H 
ATOM     43  H   LIG d   1       6.425  -2.533  -8.900  0.00  0.00     0.028 H 
ATOM     44  H   LIG d   1       5.901  -3.597  -7.572  0.00  0.00     0.028 H 
ENDBRANCH   1  41
TORSDOF 2
ENDMDL
MODEL 2
REMARK VINA RESULT:      -7.4     11.508     16.146
REMARK  2 active torsions:
REMARK  status: ('A' for Active; 'I' for Inactive)
REMARK    1  A    between atoms: C_1  and  C_2 
REMARK    2  A    between atoms: C_9  and  C_13 
ROOT
ATOM      1  C   LIG d   1      11.013   6.984   0.505  0.00  0.00     0.034 A 
ATOM      2  C   LIG d   1      10.640   6.729  -0.806  0.00  0.00     0.146 A 
ATOM      3  C   LIG d   1      10.619   7.786  -1.728  0.00  0.00     0.026 A 
ATOM      4  C   LIG d   1      10.972   9.071  -1.323  0.00  0.00    -0.044 A 
ATOM      5  C   LIG d   1      11.342   9.310  -0.015  0.00  0.00    -0.004 A 
ATOM      6  C   LIG d   1      11.362   8.269   0.903  0.00  0.00     0.131 A 
ATOM      7  O   LIG d   1      11.715   8.467   2.199  0.00  0.00    -0.484 OA
ATOM      8  C   LIG d   1      12.419   9.666   2.524  0.00  0.00     0.126 C 
ATOM      9  H   LIG d   1      13.429   9.622   2.116  0.00  0.00     0.078 H 
ATOM     10  C   LIG d   1      11.666  10.851   1.906  0.00  0.00    -0.007 C 
ATOM     11  C   LIG d   1      11.722  10.714   0.383  0.00  0.00    -0.021 C 
ATOM     12  C   LIG d   1      10.221   7.514  -3.122  0.00  0.00    -0.000 A 
ATOM     13  C   LIG d   1      10.178   8.516  -4.085  0.00  0.00    -0.053 A 
ATOM     14  C   LIG d   1       9.796   8.205  -5.374  0.00  0.00    -0.061 A 
ATOM     15  C   LIG d   1       9.456   6.905  -5.717  0.00  0.00    -0.061 A 
ATOM     16  C   LIG d   1       9.491   5.898  -4.776  0.00  0.00    -0.047 A 
ATOM     17  C   LIG d   1       9.874   6.192  -3.468  0.00  0.00     0.067 A 
ATOM     18  C   LIG d   1       9.931   5.156  -2.427  0.00  0.00     0.345 A 
ATOM     19  O   LIG d   1       9.637   4.008  -2.699  0.00  0.00    -0.244 OA
ATOM     20  O   LIG d   1      10.302   5.474  -1.176  0.00  0.00    -0.421 OA
ATOM     21  H   LIG d   1      10.955   9.883  -2.035  0.00  0.00     0.063 H 
ATOM     22  H   LIG d   1      12.139  11.786   2.209  0.00  0.00     0.031 H 
ATOM     23  H   LIG d   1      10.628  10.840   2.238  0.00  0.00     0.031 H 
ATOM     24  H   LIG d   1      11.026  11.420  -0.071  0.00  0.00     0.032 H 
ATOM     25  H   LIG d   1      12.733  10.929   0.036  0.00  0.00     0.032 H 
ATOM     26  H   LIG d   1      10.442   9.531  -3.826  0.00  0.00     0.062 H 
ATOM     27  H   LIG d   1       9.763   8.983  -6.124  0.00  0.00     0.062 H 
ATOM     28  H   LIG d   1       9.159   6.680  -6.730  0.00  0.00     0.062 H 
ATOM     29  H   LIG d   1       9.224   4.889  -5.051  0.00  0.00     0.063 H 
ENDROOT
BRANCH   8  30
ATOM     30  C   LIG d   1      12.482   9.829   4.021  0.00  0.00    -0.007 A 
ATOM     31  C   LIG d   1      12.973  10.999   4.569  0.00  0.00    -0.055 A 
ATOM     32  C   LIG d   1      13.030  11.148   5.942  0.00  0.00    -0.061 A 
ATOM     33  H   LIG d   1      13.311  11.797   3.925  0.00  0.00     0.062 H 
ATOM     34  C   LIG d   1      12.596  10.126   6.766  0.00  0.00    -0.062 A 
ATOM     35  H   LIG d   1      13.413  12.062   6.371  0.00  0.00     0.062 H 
ATOM     36  C   LIG d   1      12.106   8.957   6.218  0.00  0.00    -0.061 A 
ATOM     37  H   LIG d   1      12.640  10.243   7.840  0.00  0.00     0.062 H 
ATOM     38  C   LIG d   1      12.043   8.810   4.845  0.00  0.00    -0.055 A 
ATOM     39  H   LIG d   1      11.767   8.158   6.862  0.00  0.00     0.062 H 
ATOM     40  H   LIG d   1      11.655   7.898   4.416  0.00  0.00     0.062 H 
ENDBRANCH   8  30
BRANCH   1  41
ATOM     41  C   LIG d   1      11.040   5.858   1.507  0.00  0.00    -0.033 C 
ATOM     42  H   LIG d   1      11.323   6.249   2.485  0.00  0.00     0.028 H 
ATOM     43  H   LIG d   1      10.052   5.403   1.569  0.00  0.00     0.028 H 
ATOM     44  H   LIG d   1      11.767   5.110   1.191  0.00  0.00     0.028 H 
ENDBRANCH   1  41
TORSDOF 2
ENDMDL
MODEL 3
REMARK VINA RESULT:      -7.3      1.760      2.846
REMARK  2 active torsions:
REMARK  status: ('A' for Active; 'I' for Inactive)
REMARK    1  A    between atoms: C_1  and  C_2 
REMARK    2  A    between atoms: C_9  and  C_13 
ROOT
ATOM      1  C   LIG d   1       3.214   0.373  -8.270  0.00  0.00     0.034 A 
ATOM      2  C   LIG d   1       3.279   0.311  -6.886  0.00  0.00     0.146 A 
ATOM      3  C   LIG d   1       3.824  -0.829  -6.278  0.00  0.00     0.026 A 
ATOM      4  C   LIG d   1       4.293  -1.880  -7.061  0.00  0.00    -0.044 A 
ATOM      5  C   LIG d   1       4.223  -1.805  -8.439  0.00  0.00    -0.004 A 
ATOM      6  C   LIG d   1       3.682  -0.680  -9.046  0.00  0.00     0.131 A 
ATOM      7  O   LIG d   1       3.592  -0.573 -10.397  0.00  0.00    -0.484 OA
ATOM      8  C   LIG d   1       4.388  -1.453 -11.191  0.00  0.00     0.126 C 
ATOM      9  H   LIG d   1       5.439  -1.175 -11.106  0.00  0.00     0.078 H 
ATOM     10  C   LIG d   1       4.191  -2.884 -10.675  0.00  0.00    -0.007 C 
ATOM     11  C   LIG d   1       4.746  -2.962  -9.252  0.00  0.00    -0.021 C 
ATOM     12  C   LIG d   1       3.891  -0.894  -4.806  0.00  0.00    -0.000 A 
ATOM     13  C   LIG d   1       4.418  -1.995  -4.140  0.00  0.00    -0.053 A 
ATOM     14  C   LIG d   1       4.455  -2.003  -2.760  0.00  0.00    -0.061 A 
ATOM     15  C   LIG d   1       3.971  -0.925  -2.034  0.00  0.00    -0.061 A 
ATOM     16  C   LIG d   1       3.444   0.176  -2.676  0.00  0.00    -0.047 A 
ATOM     17  C   LIG d   1       3.398   0.203  -4.069  0.00  0.00     0.067 A 
ATOM     18  C   LIG d   1       2.849   1.351  -4.804  0.00  0.00     0.345 A 
ATOM     19  O   LIG d   1       2.418   2.310  -4.193  0.00  0.00    -0.244 OA
ATOM     20  O   LIG d   1       2.818   1.344  -6.146  0.00  0.00    -0.421 OA
ATOM     21  H   LIG d   1       4.712  -2.757  -6.591  0.00  0.00     0.063 H 
ATOM     22  H   LIG d   1       4.725  -3.584 -11.318  0.00  0.00     0.031 H 
ATOM     23  H   LIG d   1       3.128  -3.129 -10.669  0.00  0.00     0.031 H 
ATOM     24  H   LIG d   1       4.434  -3.900  -8.792  0.00  0.00     0.032 H 
ATOM     25  H   LIG d   1       5.835  -2.920  -9.285  0.00  0.00     0.032 H 
ATOM     26  H   LIG d   1       4.797  -2.838  -4.699  0.00  0.00     0.062 H 
ATOM     27  H   LIG d   1       4.864  -2.858  -2.241  0.00  0.00     0.062 H 
ATOM     28  H   LIG d   1       4.007  -0.947  -0.955  0.00  0.00     0.062 H 
ATOM     29  H   LIG d   1       3.070   1.011  -2.103  0.00  0.00     0.063 H 
ENDROOT
BRANCH   8  30
ATOM     30  C   LIG d   1       3.955  -1.368 -12.633  0.00  0.00    -0.007 A 
ATOM     31  C   LIG d   1       2.824  -2.041 -13.056  0.00  0.00    -0.055 A 
ATOM     32  C   LIG d   1       2.428  -1.962 -14.378  0.00  0.00    -0.061 A 
ATOM     33  H   LIG d   1       2.250  -2.626 -12.354  0.00  0.00     0.062 H 
ATOM     34  C   LIG d   1       3.163  -1.210 -15.276  0.00  0.00    -0.062 A 
ATOM     35  H   LIG d   1       1.544  -2.487 -14.709  0.00  0.00     0.062 H 
ATOM     36  C   LIG d   1       4.294  -0.539 -14.853  0.00  0.00    -0.061 A 
ATOM     37  H   LIG d   1       2.853  -1.149 -16.309  0.00  0.00     0.062 H 
ATOM     38  C   LIG d   1       4.687  -0.612 -13.530  0.00  0.00    -0.055 A 
ATOM     39  H   LIG d   1       4.868   0.048 -15.555  0.00  0.00     0.062 H 
ATOM     40  H   LIG d   1       5.568  -0.083 -13.197  0.00  0.00     0.062 H 
ENDBRANCH   8  30
BRANCH   1  41
ATOM     41  C   LIG d   1       2.631   1.591  -8.938  0.00  0.00    -0.033 C 
ATOM     42  H   LIG d   1       2.441   1.374  -9.989  0.00  0.00     0.028 H 
ATOM     43  H   LIG d   1       1.696   1.862  -8.448  0.00  0.00     0.028 H 
ATOM     44  H   LIG d   1       3.336   2.419  -8.860  0.00  0.00     0.028 H 
ENDBRANCH   1  41
TORSDOF 2
ENDMDL
MODEL 4
REMARK VINA RESULT:      -6.8      8.574     10.228
REMARK  2 active torsions:
REMARK  status: ('A' for Active; 'I' for Inactive)
REMARK    1  A    between atoms: C_1  and  C_2 
REMARK    2  A    between atoms: C_9  and  C_13 
ROOT
ATOM      1  C   LIG d   1       9.658   6.500  -4.202  0.00  0.00     0.034 A 
ATOM      2  C   LIG d   1      10.003   7.149  -3.026  0.00  0.00     0.146 A 
ATOM      3  C   LIG d   1      10.318   6.387  -1.891  0.00  0.00     0.026 A 
ATOM      4  C   LIG d   1      10.284   4.996  -1.955  0.00  0.00    -0.044 A 
ATOM      5  C   LIG d   1       9.939   4.363  -3.133  0.00  0.00    -0.004 A 
ATOM      6  C   LIG d   1       9.624   5.113  -4.258  0.00  0.00     0.131 A 
ATOM      7  O   LIG d   1       9.276   4.526  -5.432  0.00  0.00    -0.484 OA
ATOM      8  C   LIG d   1       9.594   3.145  -5.609  0.00  0.00     0.126 C 
ATOM      9  H   LIG d   1      10.672   3.027  -5.716  0.00  0.00     0.078 H 
ATOM     10  C   LIG d   1       9.112   2.375  -4.372  0.00  0.00    -0.007 C 
ATOM     11  C   LIG d   1       9.919   2.856  -3.163  0.00  0.00    -0.021 C 
ATOM     12  C   LIG d   1      10.683   7.078  -0.641  0.00  0.00    -0.000 A 
ATOM     13  C   LIG d   1      11.005   6.382   0.519  0.00  0.00    -0.053 A 
ATOM     14  C   LIG d   1      11.338   7.080   1.662  0.00  0.00    -0.061 A 
ATOM     15  C   LIG d   1      11.355   8.467   1.663  0.00  0.00    -0.061 A 
ATOM     16  C   LIG d   1      11.038   9.175   0.523  0.00  0.00    -0.047 A 
ATOM     17  C   LIG d   1      10.699   8.488  -0.641  0.00  0.00     0.067 A 
ATOM     18  C   LIG d   1      10.354   9.193  -1.883  0.00  0.00     0.345 A 
ATOM     19  O   LIG d   1      10.360  10.409  -1.911  0.00  0.00    -0.244 OA
ATOM     20  O   LIG d   1      10.030   8.501  -2.987  0.00  0.00    -0.421 OA
ATOM     21  H   LIG d   1      10.527   4.411  -1.081  0.00  0.00     0.063 H 
ATOM     22  H   LIG d   1       9.270   1.307  -4.519  0.00  0.00     0.031 H 
ATOM     23  H   LIG d   1       8.052   2.571  -4.207  0.00  0.00     0.031 H 
ATOM     24  H   LIG d   1       9.459   2.481  -2.248  0.00  0.00     0.032 H 
ATOM     25  H   LIG d   1      10.939   2.480  -3.236  0.00  0.00     0.032 H 
ATOM     26  H   LIG d   1      10.995   5.301   0.525  0.00  0.00     0.062 H 
ATOM     27  H   LIG d   1      11.589   6.541   2.564  0.00  0.00     0.062 H 
ATOM     28  H   LIG d   1      11.617   8.997   2.567  0.00  0.00     0.062 H 
ATOM     29  H   LIG d   1      11.052  10.255   0.533  0.00  0.00     0.063 H 
ENDROOT
BRANCH   8  30
ATOM     30  C   LIG d   1       8.900   2.617  -6.838  0.00  0.00    -0.007 A 
ATOM     31  C   LIG d   1       9.163   3.175  -8.075  0.00  0.00    -0.055 A 
ATOM     32  C   LIG d   1       8.526   2.690  -9.201  0.00  0.00    -0.061 A 
ATOM     33  H   LIG d   1       9.866   3.990  -8.160  0.00  0.00     0.062 H 
ATOM     34  C   LIG d   1       7.626   1.645  -9.091  0.00  0.00    -0.062 A 
ATOM     35  H   LIG d   1       8.731   3.126 -10.168  0.00  0.00     0.062 H 
ATOM     36  C   LIG d   1       7.363   1.088  -7.854  0.00  0.00    -0.061 A 
ATOM     37  H   LIG d   1       7.129   1.266  -9.972  0.00  0.00     0.062 H 
ATOM     38  C   LIG d   1       8.004   1.569  -6.728  0.00  0.00    -0.055 A 
ATOM     39  H   LIG d   1       6.660   0.272  -7.768  0.00  0.00     0.062 H 
ATOM     40  H   LIG d   1       7.803   1.130  -5.763  0.00  0.00     0.062 H 
ENDBRANCH   8  30
BRANCH   1  41
ATOM     41  C   LIG d   1       9.318   7.307  -5.428  0.00  0.00    -0.033 C 
ATOM     42  H   LIG d   1       9.565   6.733  -6.321  0.00  0.00     0.028 H 
ATOM     43  H   LIG d   1       8.253   7.538  -5.428  0.00  0.00     0.028 H 
ATOM     44  H   LIG d   1       9.891   8.234  -5.423  0.00  0.00     0.028 H 
ENDBRANCH   1  41
TORSDOF 2
ENDMDL
MODEL 5
REMARK VINA RESULT:      -6.7      6.319      8.015
REMARK  2 active torsions:
REMARK  status: ('A' for Active; 'I' for Inactive)
REMARK    1  A    between atoms: C_1  and  C_2 
REMARK    2  A    between atoms: C_9  and  C_13 
ROOT
ATOM      1  C   LIG d   1       9.417   0.331  -5.367  0.00  0.00     0.034 A 
ATOM      2  C   LIG d   1       8.308  -0.161  -4.694  0.00  0.00     0.146 A 
ATOM      3  C   LIG d   1       7.489   0.729  -3.984  0.00  0.00     0.026 A 
ATOM      4  C   LIG d   1       7.793   2.088  -3.961  0.00  0.00    -0.044 A 
ATOM      5  C   LIG d   1       8.900   2.564  -4.636  0.00  0.00    -0.004 A 
ATOM      6  C   LIG d   1       9.715   1.687  -5.338  0.00  0.00     0.131 A 
ATOM      7  O   LIG d   1      10.814   2.118  -6.009  0.00  0.00    -0.484 OA
ATOM      8  C   LIG d   1      10.918   3.513  -6.296  0.00  0.00     0.126 C 
ATOM      9  H   LIG d   1      10.184   3.788  -7.054  0.00  0.00     0.078 H 
ATOM     10  C   LIG d   1      10.643   4.294  -5.005  0.00  0.00    -0.007 C 
ATOM     11  C   LIG d   1       9.191   4.043  -4.592  0.00  0.00    -0.021 C 
ATOM     12  C   LIG d   1       6.311   0.205  -3.268  0.00  0.00    -0.000 A 
ATOM     13  C   LIG d   1       5.460   1.032  -2.545  0.00  0.00    -0.053 A 
ATOM     14  C   LIG d   1       4.373   0.487  -1.892  0.00  0.00    -0.061 A 
ATOM     15  C   LIG d   1       4.123  -0.875  -1.952  0.00  0.00    -0.061 A 
ATOM     16  C   LIG d   1       4.956  -1.713  -2.663  0.00  0.00    -0.047 A 
ATOM     17  C   LIG d   1       6.059  -1.182  -3.329  0.00  0.00     0.067 A 
ATOM     18  C   LIG d   1       6.978  -2.028  -4.103  0.00  0.00     0.345 A 
ATOM     19  O   LIG d   1       6.783  -3.226  -4.172  0.00  0.00    -0.244 OA
ATOM     20  O   LIG d   1       8.033  -1.485  -4.731  0.00  0.00    -0.421 OA
ATOM     21  H   LIG d   1       7.161   2.772  -3.414  0.00  0.00     0.063 H 
ATOM     22  H   LIG d   1      10.797   5.359  -5.179  0.00  0.00     0.031 H 
ATOM     23  H   LIG d   1      11.314   3.950  -4.217  0.00  0.00     0.031 H 
ATOM     24  H   LIG d   1       9.033   4.413  -3.579  0.00  0.00     0.032 H 
ATOM     25  H   LIG d   1       8.524   4.566  -5.276  0.00  0.00     0.032 H 
ATOM     26  H   LIG d   1       5.648   2.095  -2.494  0.00  0.00     0.062 H 
ATOM     27  H   LIG d   1       3.710   1.129  -1.330  0.00  0.00     0.062 H 
ATOM     28  H   LIG d   1       3.268  -1.285  -1.435  0.00  0.00     0.062 H 
ATOM     29  H   LIG d   1       4.754  -2.773  -2.704  0.00  0.00     0.063 H 
ENDROOT
BRANCH   8  30
ATOM     30  C   LIG d   1      12.305   3.827  -6.794  0.00  0.00    -0.007 A 
ATOM     31  C   LIG d   1      12.532   4.976  -7.530  0.00  0.00    -0.055 A 
ATOM     32  C   LIG d   1      13.805   5.264  -7.986  0.00  0.00    -0.061 A 
ATOM     33  H   LIG d   1      11.715   5.648  -7.747  0.00  0.00     0.062 H 
ATOM     34  C   LIG d   1      14.850   4.403  -7.707  0.00  0.00    -0.062 A 
ATOM     35  H   LIG d   1      13.982   6.161  -8.561  0.00  0.00     0.062 H 
ATOM     36  C   LIG d   1      14.623   3.256  -6.972  0.00  0.00    -0.061 A 
ATOM     37  H   LIG d   1      15.845   4.629  -8.063  0.00  0.00     0.062 H 
ATOM     38  C   LIG d   1      13.352   2.970  -6.510  0.00  0.00    -0.055 A 
ATOM     39  H   LIG d   1      15.440   2.583  -6.754  0.00  0.00     0.062 H 
ATOM     40  H   LIG d   1      13.175   2.076  -5.932  0.00  0.00     0.062 H 
ENDBRANCH   8  30
BRANCH   1  41
ATOM     41  C   LIG d   1      10.305  -0.614  -6.134  0.00  0.00    -0.033 C 
ATOM     42  H   LIG d   1      11.270  -0.140  -6.314  0.00  0.00     0.028 H 
ATOM     43  H   LIG d   1      10.451  -1.527  -5.557  0.00  0.00     0.028 H 
ATOM     44  H   LIG d   1       9.837  -0.858  -7.088  0.00  0.00     0.028 H 
ENDBRANCH   1  41
TORSDOF 2
ENDMDL
MODEL 6
REMARK VINA RESULT:      -6.6      9.604     13.323
REMARK  2 active torsions:
REMARK  status: ('A' for Active; 'I' for Inactive)
REMARK    1  A    between atoms: C_1  and  C_2 
REMARK    2  A    between atoms: C_9  and  C_13 
ROOT
ATOM      1  C   LIG d   1      10.245   8.025  -5.097  0.00  0.00     0.034 A 
ATOM      2  C   LIG d   1      10.070   7.643  -6.419  0.00  0.00     0.146 A 
ATOM      3  C   LIG d   1       9.833   6.292  -6.714  0.00  0.00     0.026 A 
ATOM      4  C   LIG d   1       9.776   5.354  -5.686  0.00  0.00    -0.044 A 
ATOM      5  C   LIG d   1       9.952   5.748  -4.375  0.00  0.00    -0.004 A 
ATOM      6  C   LIG d   1      10.189   7.083  -4.077  0.00  0.00     0.131 A 
ATOM      7  O   LIG d   1      10.372   7.507  -2.800  0.00  0.00    -0.484 OA
ATOM      8  C   LIG d   1       9.954   6.644  -1.743  0.00  0.00     0.126 C 
ATOM      9  H   LIG d   1       8.865   6.600  -1.713  0.00  0.00     0.078 H 
ATOM     10  C   LIG d   1      10.519   5.243  -2.010  0.00  0.00    -0.007 C 
ATOM     11  C   LIG d   1       9.878   4.703  -3.291  0.00  0.00    -0.021 C 
ATOM     12  C   LIG d   1       9.648   5.886  -8.120  0.00  0.00    -0.000 A 
ATOM     13  C   LIG d   1       9.412   4.565  -8.481  0.00  0.00    -0.053 A 
ATOM     14  C   LIG d   1       9.248   4.241  -9.812  0.00  0.00    -0.061 A 
ATOM     15  C   LIG d   1       9.315   5.221 -10.791  0.00  0.00    -0.061 A 
ATOM     16  C   LIG d   1       9.550   6.538 -10.454  0.00  0.00    -0.047 A 
ATOM     17  C   LIG d   1       9.719   6.885  -9.114  0.00  0.00     0.067 A 
ATOM     18  C   LIG d   1       9.969   8.272  -8.699  0.00  0.00     0.345 A 
ATOM     19  O   LIG d   1      10.033   9.151  -9.536  0.00  0.00    -0.244 OA
ATOM     20  O   LIG d   1      10.129   8.571  -7.400  0.00  0.00    -0.421 OA
ATOM     21  H   LIG d   1       9.594   4.314  -5.916  0.00  0.00     0.063 H 
ATOM     22  H   LIG d   1      10.281   4.585  -1.174  0.00  0.00     0.031 H 
ATOM     23  H   LIG d   1      11.600   5.301  -2.137  0.00  0.00     0.031 H 
ATOM     24  H   LIG d   1      10.410   3.808  -3.613  0.00  0.00     0.032 H 
ATOM     25  H   LIG d   1       8.835   4.454  -3.097  0.00  0.00     0.032 H 
ATOM     26  H   LIG d   1       9.357   3.796  -7.724  0.00  0.00     0.062 H 
ATOM     27  H   LIG d   1       9.064   3.215 -10.094  0.00  0.00     0.062 H 
ATOM     28  H   LIG d   1       9.185   4.951 -11.828  0.00  0.00     0.062 H 
ATOM     29  H   LIG d   1       9.602   7.295 -11.222  0.00  0.00     0.063 H 
ENDROOT
BRANCH   8  30
ATOM     30  C   LIG d   1      10.478   7.161  -0.427  0.00  0.00    -0.007 A 
ATOM     31  C   LIG d   1      10.686   8.516  -0.250  0.00  0.00    -0.055 A 
ATOM     32  C   LIG d   1      11.166   8.988   0.957  0.00  0.00    -0.061 A 
ATOM     33  H   LIG d   1      10.473   9.204  -1.054  0.00  0.00     0.062 H 
ATOM     34  C   LIG d   1      11.437   8.106   1.986  0.00  0.00    -0.062 A 
ATOM     35  H   LIG d   1      11.329  10.047   1.096  0.00  0.00     0.062 H 
ATOM     36  C   LIG d   1      11.229   6.752   1.808  0.00  0.00    -0.061 A 
ATOM     37  H   LIG d   1      11.812   8.476   2.930  0.00  0.00     0.062 H 
ATOM     38  C   LIG d   1      10.744   6.279   0.604  0.00  0.00    -0.055 A 
ATOM     39  H   LIG d   1      11.441   6.062   2.613  0.00  0.00     0.062 H 
ATOM     40  H   LIG d   1      10.576   5.221   0.466  0.00  0.00     0.062 H 
ENDBRANCH   8  30
BRANCH   1  41
ATOM     41  C   LIG d   1      10.499   9.472  -4.765  0.00  0.00    -0.033 C 
ATOM     42  H   LIG d   1      10.674  10.030  -5.686  0.00  0.00     0.028 H 
ATOM     43  H   LIG d   1       9.633   9.885  -4.249  0.00  0.00     0.028 H 
ATOM     44  H   LIG d   1      11.376   9.549  -4.123  0.00  0.00     0.028 H 
ENDBRANCH   1  41
TORSDOF 2
ENDMDL
MODEL 7
REMARK VINA RESULT:      -6.6      8.669     13.498
REMARK  2 active torsions:
REMARK  status: ('A' for Active; 'I' for Inactive)
REMARK    1  A    between atoms: C_1  and  C_2 
REMARK    2  A    between atoms: C_9  and  C_13 
ROOT
ATOM      1  C   LIG d   1       7.145 -10.045  -2.009  0.00  0.00     0.034 A 
ATOM      2  C   LIG d   1       6.524  -9.656  -3.186  0.00  0.00     0.146 A 
ATOM      3  C   LIG d   1       7.165  -8.731  -4.024  0.00  0.00     0.026 A 
ATOM      4  C   LIG d   1       8.411  -8.217  -3.670  0.00  0.00    -0.044 A 
ATOM      5  C   LIG d   1       9.018  -8.615  -2.494  0.00  0.00    -0.004 A 
ATOM      6  C   LIG d   1       8.386  -9.528  -1.661  0.00  0.00     0.131 A 
ATOM      7  O   LIG d   1       8.949  -9.937  -0.496  0.00  0.00    -0.484 OA
ATOM      8  C   LIG d   1      10.348  -9.713  -0.314  0.00  0.00     0.126 C 
ATOM      9  H   LIG d   1      10.915 -10.370  -0.974  0.00  0.00     0.078 H 
ATOM     10  C   LIG d   1      10.652  -8.250  -0.661  0.00  0.00    -0.007 C 
ATOM     11  C   LIG d   1      10.368  -8.039  -2.149  0.00  0.00    -0.021 C 
ATOM     12  C   LIG d   1       6.504  -8.316  -5.275  0.00  0.00    -0.000 A 
ATOM     13  C   LIG d   1       7.084  -7.403  -6.148  0.00  0.00    -0.053 A 
ATOM     14  C   LIG d   1       6.419  -7.049  -7.304  0.00  0.00    -0.061 A 
ATOM     15  C   LIG d   1       5.180  -7.596  -7.602  0.00  0.00    -0.061 A 
ATOM     16  C   LIG d   1       4.587  -8.502  -6.748  0.00  0.00    -0.047 A 
ATOM     17  C   LIG d   1       5.243  -8.872  -5.576  0.00  0.00     0.067 A 
ATOM     18  C   LIG d   1       4.658  -9.835  -4.632  0.00  0.00     0.345 A 
ATOM     19  O   LIG d   1       3.572 -10.329  -4.868  0.00  0.00    -0.244 OA
ATOM     20  O   LIG d   1       5.315 -10.168  -3.510  0.00  0.00    -0.421 OA
ATOM     21  H   LIG d   1       8.903  -7.506  -4.316  0.00  0.00     0.063 H 
ATOM     22  H   LIG d   1      11.700  -8.032  -0.451  0.00  0.00     0.031 H 
ATOM     23  H   LIG d   1      10.015  -7.592  -0.069  0.00  0.00     0.031 H 
ATOM     24  H   LIG d   1      10.376  -6.973  -2.373  0.00  0.00     0.032 H 
ATOM     25  H   LIG d   1      11.137  -8.538  -2.739  0.00  0.00     0.032 H 
ATOM     26  H   LIG d   1       8.050  -6.974  -5.923  0.00  0.00     0.062 H 
ATOM     27  H   LIG d   1       6.869  -6.340  -7.984  0.00  0.00     0.062 H 
ATOM     28  H   LIG d   1       4.673  -7.308  -8.511  0.00  0.00     0.062 H 
ATOM     29  H   LIG d   1       3.622  -8.922  -6.988  0.00  0.00     0.063 H 
ENDROOT
BRANCH   8  30
ATOM     30  C   LIG d   1      10.725  -9.985   1.120  0.00  0.00    -0.007 A 
ATOM     31  C   LIG d   1      11.088  -8.940   1.949  0.00  0.00    -0.055 A 
ATOM     32  C   LIG d   1      11.433  -9.190   3.264  0.00  0.00    -0.061 A 
ATOM     33  H   LIG d   1      11.102  -7.929   1.570  0.00  0.00     0.062 H 
ATOM     34  C   LIG d   1      11.415 -10.485   3.749  0.00  0.00    -0.062 A 
ATOM     35  H   LIG d   1      11.717  -8.374   3.912  0.00  0.00     0.062 H 
ATOM     36  C   LIG d   1      11.052 -11.528   2.920  0.00  0.00    -0.061 A 
ATOM     37  H   LIG d   1      11.684 -10.679   4.777  0.00  0.00     0.062 H 
ATOM     38  C   LIG d   1      10.701 -11.278   1.607  0.00  0.00    -0.055 A 
ATOM     39  H   LIG d   1      11.037 -12.540   3.299  0.00  0.00     0.062 H 
ATOM     40  H   LIG d   1      10.412 -12.093   0.960  0.00  0.00     0.062 H 
ENDBRANCH   8  30
BRANCH   1  41
ATOM     41  C   LIG d   1       6.467 -11.038  -1.100  0.00  0.00    -0.033 C 
ATOM     42  H   LIG d   1       5.390 -11.005  -1.266  0.00  0.00     0.028 H 
ATOM     43  H   LIG d   1       6.837 -12.040  -1.316  0.00  0.00     0.028 H 
ATOM     44  H   LIG d   1       6.683 -10.786  -0.062  0.00  0.00     0.028 H 
ENDBRANCH   1  41
TORSDOF 2
ENDMDL
MODEL 8
REMARK VINA RESULT:      -6.4      8.449      8.964
REMARK  2 active torsions:
REMARK  status: ('A' for Active; 'I' for Inactive)
REMARK    1  A    between atoms: C_1  and  C_2 
REMARK    2  A    between atoms: C_9  and  C_13 
ROOT
ATOM      1  C   LIG d   1       9.982   4.612  -6.644  0.00  0.00     0.034 A 
ATOM      2  C   LIG d   1      10.077   4.900  -5.291  0.00  0.00     0.146 A 
ATOM      3  C   LIG d   1       9.934   6.228  -4.863  0.00  0.00     0.026 A 
ATOM      4  C   LIG d   1       9.699   7.238  -5.793  0.00  0.00    -0.044 A 
ATOM      5  C   LIG d   1       9.606   6.937  -7.138  0.00  0.00    -0.004 A 
ATOM      6  C   LIG d   1       9.749   5.624  -7.566  0.00  0.00     0.131 A 
ATOM      7  O   LIG d   1       9.669   5.291  -8.880  0.00  0.00    -0.484 OA
ATOM      8  C   LIG d   1       9.073   6.231  -9.773  0.00  0.00     0.126 C 
ATOM      9  H   LIG d   1       8.000   6.287  -9.585  0.00  0.00     0.078 H 
ATOM     10  C   LIG d   1       9.711   7.604  -9.527  0.00  0.00    -0.007 C 
ATOM     11  C   LIG d   1       9.346   8.057  -8.112  0.00  0.00    -0.021 C 
ATOM     12  C   LIG d   1      10.037   6.535  -3.424  0.00  0.00    -0.000 A 
ATOM     13  C   LIG d   1       9.906   7.829  -2.935  0.00  0.00    -0.053 A 
ATOM     14  C   LIG d   1      10.013   8.058  -1.578  0.00  0.00    -0.061 A 
ATOM     15  C   LIG d   1      10.248   7.010  -0.700  0.00  0.00    -0.061 A 
ATOM     16  C   LIG d   1      10.382   5.719  -1.167  0.00  0.00    -0.047 A 
ATOM     17  C   LIG d   1      10.277   5.467  -2.533  0.00  0.00     0.067 A 
ATOM     18  C   LIG d   1      10.409   4.111  -3.083  0.00  0.00     0.345 A 
ATOM     19  O   LIG d   1      10.616   3.173  -2.337  0.00  0.00    -0.244 OA
ATOM     20  O   LIG d   1      10.305   3.904  -4.406  0.00  0.00    -0.421 OA
ATOM     21  H   LIG d   1       9.590   8.260  -5.462  0.00  0.00     0.063 H 
ATOM     22  H   LIG d   1       9.330   8.323 -10.254  0.00  0.00     0.031 H 
ATOM     23  H   LIG d   1      10.795   7.528  -9.620  0.00  0.00     0.031 H 
ATOM     24  H   LIG d   1       9.951   8.922  -7.841  0.00  0.00     0.032 H 
ATOM     25  H   LIG d   1       8.291   8.329  -8.080  0.00  0.00     0.032 H 
ATOM     26  H   LIG d   1       9.722   8.651  -3.612  0.00  0.00     0.062 H 
ATOM     27  H   LIG d   1       9.912   9.064  -1.196  0.00  0.00     0.062 H 
ATOM     28  H   LIG d   1      10.329   7.207   0.358  0.00  0.00     0.062 H 
ATOM     29  H   LIG d   1      10.565   4.909  -0.477  0.00  0.00     0.063 H 
ENDROOT
BRANCH   8  30
ATOM     30  C   LIG d   1       9.317   5.805 -11.198  0.00  0.00    -0.007 A 
ATOM     31  C   LIG d   1      10.037   4.655 -11.462  0.00  0.00    -0.055 A 
ATOM     32  C   LIG d   1      10.260   4.265 -12.770  0.00  0.00    -0.061 A 
ATOM     33  H   LIG d   1      10.424   4.061 -10.648  0.00  0.00     0.062 H 
ATOM     34  C   LIG d   1       9.763   5.025 -13.812  0.00  0.00    -0.062 A 
ATOM     35  H   LIG d   1      10.823   3.366 -12.976  0.00  0.00     0.062 H 
ATOM     36  C   LIG d   1       9.044   6.174 -13.547  0.00  0.00    -0.061 A 
ATOM     37  H   LIG d   1       9.938   4.719 -14.833  0.00  0.00     0.062 H 
ATOM     38  C   LIG d   1       8.815   6.562 -12.241  0.00  0.00    -0.055 A 
ATOM     39  H   LIG d   1       8.656   6.768 -14.362  0.00  0.00     0.062 H 
ATOM     40  H   LIG d   1       8.249   7.457 -12.033  0.00  0.00     0.062 H 
ENDBRANCH   8  30
BRANCH   1  41
ATOM     41  C   LIG d   1      10.133   3.189  -7.117  0.00  0.00    -0.033 C 
ATOM     42  H   LIG d   1      10.652   3.179  -8.076  0.00  0.00     0.028 H 
ATOM     43  H   LIG d   1      10.708   2.622  -6.386  0.00  0.00     0.028 H 
ATOM     44  H   LIG d   1       9.147   2.739  -7.233  0.00  0.00     0.028 H 
ENDBRANCH   1  41
TORSDOF 2
ENDMDL
MODEL 9
REMARK VINA RESULT:      -6.4     10.603     12.052
REMARK  2 active torsions:
REMARK  status: ('A' for Active; 'I' for Inactive)
REMARK    1  A    between atoms: C_1  and  C_2 
REMARK    2  A    between atoms: C_9  and  C_13 
ROOT
ATOM      1  C   LIG d   1      10.455   6.811  -2.592  0.00  0.00     0.034 A 
ATOM      2  C   LIG d   1      10.798   7.397  -1.383  0.00  0.00     0.146 A 
ATOM      3  C   LIG d   1      11.059   8.774  -1.340  0.00  0.00     0.026 A 
ATOM      4  C   LIG d   1      10.971   9.537  -2.503  0.00  0.00    -0.044 A 
ATOM      5  C   LIG d   1      10.627   8.941  -3.700  0.00  0.00    -0.004 A 
ATOM      6  C   LIG d   1      10.371   7.577  -3.748  0.00  0.00     0.131 A 
ATOM      7  O   LIG d   1      10.036   6.955  -4.908  0.00  0.00    -0.484 OA
ATOM      8  C   LIG d   1       9.588   7.765  -5.995  0.00  0.00     0.126 C 
ATOM      9  H   LIG d   1       8.601   8.169  -5.772  0.00  0.00     0.078 H 
ATOM     10  C   LIG d   1      10.585   8.917  -6.183  0.00  0.00    -0.007 C 
ATOM     11  C   LIG d   1      10.538   9.801  -4.935  0.00  0.00    -0.021 C 
ATOM     12  C   LIG d   1      11.425   9.396  -0.054  0.00  0.00    -0.000 A 
ATOM     13  C   LIG d   1      11.697  10.755   0.057  0.00  0.00    -0.053 A 
ATOM     14  C   LIG d   1      12.036  11.283   1.286  0.00  0.00    -0.061 A 
ATOM     15  C   LIG d   1      12.108  10.472   2.409  0.00  0.00    -0.061 A 
ATOM     16  C   LIG d   1      11.842   9.122   2.319  0.00  0.00    -0.047 A 
ATOM     17  C   LIG d   1      11.498   8.569   1.087  0.00  0.00     0.067 A 
ATOM     18  C   LIG d   1      11.204   7.138   0.935  0.00  0.00     0.345 A 
ATOM     19  O   LIG d   1      11.259   6.403   1.902  0.00  0.00    -0.244 OA
ATOM     20  O   LIG d   1      10.877   6.637  -0.267  0.00  0.00    -0.421 OA
ATOM     21  H   LIG d   1      11.172  10.597  -2.468  0.00  0.00     0.063 H 
ATOM     22  H   LIG d   1      10.309   9.503  -7.060  0.00  0.00     0.031 H 
ATOM     23  H   LIG d   1      11.590   8.515  -6.311  0.00  0.00     0.031 H 
ATOM     24  H   LIG d   1      11.375  10.499  -4.953  0.00  0.00     0.032 H 
ATOM     25  H   LIG d   1       9.602  10.359  -4.922  0.00  0.00     0.032 H 
ATOM     26  H   LIG d   1      11.642  11.393  -0.813  0.00  0.00     0.062 H 
ATOM     27  H   LIG d   1      12.248  12.339   1.374  0.00  0.00     0.062 H 
ATOM     28  H   LIG d   1      12.375  10.902   3.362  0.00  0.00     0.062 H 
ATOM     29  H   LIG d   1      11.901   8.498   3.198  0.00  0.00     0.063 H 
ENDROOT
BRANCH   8  30
ATOM     30  C   LIG d   1       9.525   6.938  -7.254  0.00  0.00    -0.007 A 
ATOM     31  C   LIG d   1       9.706   5.569  -7.191  0.00  0.00    -0.055 A 
ATOM     32  C   LIG d   1       9.647   4.811  -8.345  0.00  0.00    -0.061 A 
ATOM     33  H   LIG d   1       9.892   5.092  -6.241  0.00  0.00     0.062 H 
ATOM     34  C   LIG d   1       9.409   5.422  -9.562  0.00  0.00    -0.062 A 
ATOM     35  H   LIG d   1       9.789   3.741  -8.297  0.00  0.00     0.062 H 
ATOM     36  C   LIG d   1       9.229   6.791  -9.625  0.00  0.00    -0.061 A 
ATOM     37  H   LIG d   1       9.363   4.829 -10.464  0.00  0.00     0.062 H 
ATOM     38  C   LIG d   1       9.281   7.548  -8.470  0.00  0.00    -0.055 A 
ATOM     39  H   LIG d   1       9.042   7.269 -10.576  0.00  0.00     0.062 H 
ATOM     40  H   LIG d   1       9.135   8.617  -8.517  0.00  0.00     0.062 H 
ENDBRANCH   8  30
BRANCH   1  41
ATOM     41  C   LIG d   1      10.172   5.333  -2.653  0.00  0.00    -0.033 C 
ATOM     42  H   LIG d   1       9.277   5.158  -3.251  0.00  0.00     0.028 H 
ATOM     43  H   LIG d   1      11.018   4.818  -3.107  0.00  0.00     0.028 H 
ATOM     44  H   LIG d   1      10.014   4.952  -1.644  0.00  0.00     0.028 H 
ENDBRANCH   1  41
TORSDOF 2
ENDMDL
MODEL 10
REMARK VINA RESULT:      -6.3     10.003     12.495
REMARK  2 active torsions:
REMARK  status: ('A' for Active; 'I' for Inactive)
REMARK    1  A    between atoms: C_1  and  C_2 
REMARK    2  A    between atoms: C_9  and  C_13 
ROOT
ATOM      1  C   LIG d   1      10.978   6.229  -0.569  0.00  0.00     0.034 A 
ATOM      2  C   LIG d   1      11.090   7.518  -0.070  0.00  0.00     0.146 A 
ATOM      3  C   LIG d   1      10.637   8.594  -0.848  0.00  0.00     0.026 A 
ATOM      4  C   LIG d   1      10.082   8.360  -2.104  0.00  0.00    -0.044 A 
ATOM      5  C   LIG d   1       9.976   7.071  -2.588  0.00  0.00    -0.004 A 
ATOM      6  C   LIG d   1      10.425   6.004  -1.823  0.00  0.00     0.131 A 
ATOM      7  O   LIG d   1      10.342   4.723  -2.268  0.00  0.00    -0.484 OA
ATOM      8  C   LIG d   1       9.460   4.450  -3.357  0.00  0.00     0.126 C 
ATOM      9  H   LIG d   1       8.426   4.541  -3.024  0.00  0.00     0.078 H 
ATOM     10  C   LIG d   1       9.735   5.469  -4.470  0.00  0.00    -0.007 C 
ATOM     11  C   LIG d   1       9.365   6.860  -3.950  0.00  0.00    -0.021 C 
ATOM     12  C   LIG d   1      10.758   9.965  -0.317  0.00  0.00    -0.000 A 
ATOM     13  C   LIG d   1      10.329  11.074  -1.038  0.00  0.00    -0.053 A 
ATOM     14  C   LIG d   1      10.468  12.335  -0.493  0.00  0.00    -0.061 A 
ATOM     15  C   LIG d   1      11.030  12.503   0.764  0.00  0.00    -0.061 A 
ATOM     16  C   LIG d   1      11.461  11.415   1.494  0.00  0.00    -0.047 A 
ATOM     17  C   LIG d   1      11.330  10.134   0.961  0.00  0.00     0.067 A 
ATOM     18  C   LIG d   1      11.771   8.941   1.696  0.00  0.00     0.345 A 
ATOM     19  O   LIG d   1      12.267   9.059   2.800  0.00  0.00    -0.244 OA
ATOM     20  O   LIG d   1      11.631   7.721   1.152  0.00  0.00    -0.421 OA
ATOM     21  H   LIG d   1       9.734   9.190  -2.701  0.00  0.00     0.063 H 
ATOM     22  H   LIG d   1       9.130   5.230  -5.345  0.00  0.00     0.031 H 
ATOM     23  H   LIG d   1      10.792   5.446  -4.737  0.00  0.00     0.031 H 
ATOM     24  H   LIG d   1       9.742   7.617  -4.638  0.00  0.00     0.032 H 
ATOM     25  H   LIG d   1       8.281   6.944  -3.879  0.00  0.00     0.032 H 
ATOM     26  H   LIG d   1       9.891  10.950  -2.017  0.00  0.00     0.062 H 
ATOM     27  H   LIG d   1      10.136  13.198  -1.051  0.00  0.00     0.062 H 
ATOM     28  H   LIG d   1      11.131  13.497   1.176  0.00  0.00     0.062 H 
ATOM     29  H   LIG d   1      11.897  11.556   2.471  0.00  0.00     0.063 H 
ENDROOT
BRANCH   8  30
ATOM     30  C   LIG d   1       9.706   3.055  -3.873  0.00  0.00    -0.007 A 
ATOM     31  C   LIG d   1      10.989   2.542  -3.895  0.00  0.00    -0.055 A 
ATOM     32  C   LIG d   1      11.213   1.263  -4.368  0.00  0.00    -0.061 A 
ATOM     33  H   LIG d   1      11.816   3.140  -3.543  0.00  0.00     0.062 H 
ATOM     34  C   LIG d   1      10.154   0.497  -4.819  0.00  0.00    -0.062 A 
ATOM     35  H   LIG d   1      12.216   0.862  -4.386  0.00  0.00     0.062 H 
ATOM     36  C   LIG d   1       8.872   1.011  -4.797  0.00  0.00    -0.061 A 
ATOM     37  H   LIG d   1      10.330  -0.503  -5.188  0.00  0.00     0.062 H 
ATOM     38  C   LIG d   1       8.646   2.287  -4.318  0.00  0.00    -0.055 A 
ATOM     39  H   LIG d   1       8.044   0.412  -5.149  0.00  0.00     0.062 H 
ATOM     40  H   LIG d   1       7.643   2.687  -4.296  0.00  0.00     0.062 H 
ENDBRANCH   8  30
BRANCH   1  41
ATOM     41  C   LIG d   1      11.460   5.064   0.256  0.00  0.00    -0.033 C 
ATOM     42  H   LIG d   1      11.577   4.189  -0.384  0.00  0.00     0.028 H 
ATOM     43  H   LIG d   1      12.419   5.312   0.711  0.00  0.00     0.028 H 
ATOM     44  H   LIG d   1      10.732   4.848   1.038  0.00  0.00     0.028 H 
ENDBRANCH   1  41
TORSDOF 2
ENDMDL
