MODEL 1
REMARK VINA RESULT:      -5.2      0.000      0.000
REMARK  5 active torsions:
REMARK  status: ('A' for Active; 'I' for Inactive)
REMARK    1  A    between atoms: C_1  and  C_2 
REMARK    2  A    between atoms: C_2  and  C_4 
REMARK    3  A    between atoms: C_6  and  N_11 
REMARK    4  A    between atoms: C_9  and  O_10 
REMARK       I    between atoms: N_11  and  C_12 
REMARK    5  A    between atoms: C_12  and  C_14 
ROOT
ATOM      1  C   LIG d   1       5.340  -0.031  -3.921  0.00  0.00     0.060 A 
ATOM      2  C   LIG d   1       4.759  -0.458  -5.121  0.00  0.00    -0.026 A 
ATOM      3  C   LIG d   1       3.451  -0.114  -5.412  0.00  0.00     0.034 A 
ATOM      4  C   LIG d   1       2.712   0.648  -4.512  0.00  0.00    -0.037 A 
ATOM      5  C   LIG d   1       3.278   1.078  -3.329  0.00  0.00    -0.018 A 
ATOM      6  C   LIG d   1       4.589   0.743  -3.022  0.00  0.00     0.127 A 
ATOM      7  H   LIG d   1       5.330  -1.053  -5.818  0.00  0.00     0.064 H 
ATOM      8  H   LIG d   1       1.689   0.909  -4.743  0.00  0.00     0.064 H 
ATOM      9  H   LIG d   1       2.698   1.673  -2.640  0.00  0.00     0.066 H 
ENDROOT
BRANCH   3  10
ATOM     10  N   LIG d   1       2.867  -0.541  -6.611  0.00  0.00    -0.286 N 
ATOM     11  C   LIG d   1       2.909   0.252  -7.700  0.00  0.00     0.214 C 
ATOM     12  O   LIG d   1       3.532   1.292  -7.670  0.00  0.00    -0.276 OA
ATOM     13  H   LIG d   1       2.434  -1.408  -6.660  0.00  0.00     0.155 HD
BRANCH  11  14
ATOM     14  C   LIG d   1       2.180  -0.152  -8.956  0.00  0.00     0.013 C 
ATOM     15  H   LIG d   1       1.596  -1.052  -8.763  0.00  0.00     0.032 H 
ATOM     16  H   LIG d   1       1.515   0.653  -9.266  0.00  0.00     0.032 H 
ATOM     17  H   LIG d   1       2.903  -0.351  -9.748  0.00  0.00     0.032 H 
ENDBRANCH  11  14
ENDBRANCH   3  10
BRANCH   1  18
ATOM     18  C   LIG d   1       6.729  -0.389  -3.605  0.00  0.00     0.164 C 
ATOM     19  O   LIG d   1       7.579   0.473  -3.548  0.00  0.00    -0.292 OA
BRANCH  18  20
ATOM     20  C   LIG d   1       7.096  -1.828  -3.350  0.00  0.00    -0.001 C 
ATOM     21  H   LIG d   1       7.747  -2.134  -4.044  0.00  0.00     0.031 H 
ATOM     22  H   LIG d   1       7.548  -1.918  -2.362  0.00  0.00     0.031 H 
ATOM     23  H   LIG d   1       6.198  -2.445  -3.397  0.00  0.00     0.031 H 
ENDBRANCH  18  20
ENDBRANCH   1  18
BRANCH   6  24
ATOM     24  O   LIG d   1       5.142   1.162  -1.857  0.00  0.00    -0.506 OA
ATOM     25  H   LIG d   1       4.607   0.967  -1.075  0.00  0.00     0.292 HD
ENDBRANCH   6  24
TORSDOF 5
ENDMDL
MODEL 2
REMARK VINA RESULT:      -5.0      2.176      2.258
REMARK  5 active torsions:
REMARK  status: ('A' for Active; 'I' for Inactive)
REMARK    1  A    between atoms: C_1  and  C_2 
REMARK    2  A    between atoms: C_2  and  C_4 
REMARK    3  A    between atoms: C_6  and  N_11 
REMARK    4  A    between atoms: C_9  and  O_10 
REMARK       I    between atoms: N_11  and  C_12 
REMARK    5  A    between atoms: C_12  and  C_14 
ROOT
ATOM      1  C   LIG d   1       4.531  -1.658  -4.401  0.00  0.00     0.060 A 
ATOM      2  C   LIG d   1       4.404  -0.778  -5.483  0.00  0.00    -0.026 A 
ATOM      3  C   LIG d   1       3.336   0.099  -5.534  0.00  0.00     0.034 A 
ATOM      4  C   LIG d   1       2.386   0.104  -4.518  0.00  0.00    -0.037 A 
ATOM      5  C   LIG d   1       2.505  -0.756  -3.445  0.00  0.00    -0.018 A 
ATOM      6  C   LIG d   1       3.571  -1.642  -3.377  0.00  0.00     0.127 A 
ATOM      7  H   LIG d   1       5.139  -0.784  -6.275  0.00  0.00     0.064 H 
ATOM      8  H   LIG d   1       1.551   0.788  -4.566  0.00  0.00     0.064 H 
ATOM      9  H   LIG d   1       1.765  -0.741  -2.658  0.00  0.00     0.066 H 
ENDROOT
BRANCH   3  10
ATOM     10  N   LIG d   1       3.207   0.979  -6.616  0.00  0.00    -0.286 N 
ATOM     11  C   LIG d   1       2.821   0.514  -7.821  0.00  0.00     0.214 C 
ATOM     12  O   LIG d   1       2.493  -0.647  -7.946  0.00  0.00    -0.276 OA
ATOM     13  H   LIG d   1       3.396   1.924  -6.500  0.00  0.00     0.155 HD
BRANCH  11  14
ATOM     14  C   LIG d   1       2.796   1.436  -9.013  0.00  0.00     0.013 C 
ATOM     15  H   LIG d   1       3.618   2.148  -8.938  0.00  0.00     0.032 H 
ATOM     16  H   LIG d   1       2.903   0.852  -9.927  0.00  0.00     0.032 H 
ATOM     17  H   LIG d   1       1.849   1.976  -9.035  0.00  0.00     0.032 H 
ENDBRANCH  11  14
ENDBRANCH   3  10
BRANCH   1  18
ATOM     18  C   LIG d   1       5.663  -2.591  -4.337  0.00  0.00     0.164 C 
ATOM     19  O   LIG d   1       5.519  -3.743  -4.687  0.00  0.00    -0.292 OA
BRANCH  18  20
ATOM     20  C   LIG d   1       7.003  -2.117  -3.836  0.00  0.00    -0.001 C 
ATOM     21  H   LIG d   1       7.447  -2.853  -3.325  0.00  0.00     0.031 H 
ATOM     22  H   LIG d   1       7.627  -1.833  -4.683  0.00  0.00     0.031 H 
ATOM     23  H   LIG d   1       6.861  -1.256  -3.183  0.00  0.00     0.031 H 
ENDBRANCH  18  20
ENDBRANCH   1  18
BRANCH   6  24
ATOM     24  O   LIG d   1       3.684  -2.489  -2.325  0.00  0.00    -0.506 OA
ATOM     25  H   LIG d   1       3.997  -2.068  -1.512  0.00  0.00     0.292 HD
ENDBRANCH   6  24
TORSDOF 5
ENDMDL
MODEL 3
REMARK VINA RESULT:      -4.7      2.686      5.001
REMARK  5 active torsions:
REMARK  status: ('A' for Active; 'I' for Inactive)
REMARK    1  A    between atoms: C_1  and  C_2 
REMARK    2  A    between atoms: C_2  and  C_4 
REMARK    3  A    between atoms: C_6  and  N_11 
REMARK    4  A    between atoms: C_9  and  O_10 
REMARK       I    between atoms: N_11  and  C_12 
REMARK    5  A    between atoms: C_12  and  C_14 
ROOT
ATOM      1  C   LIG d   1       4.106  -0.722  -4.912  0.00  0.00     0.060 A 
ATOM      2  C   LIG d   1       5.458  -1.048  -4.754  0.00  0.00    -0.026 A 
ATOM      3  C   LIG d   1       5.901  -1.577  -3.556  0.00  0.00     0.034 A 
ATOM      4  C   LIG d   1       5.009  -1.780  -2.508  0.00  0.00    -0.037 A 
ATOM      5  C   LIG d   1       3.673  -1.467  -2.656  0.00  0.00    -0.018 A 
ATOM      6  C   LIG d   1       3.211  -0.935  -3.852  0.00  0.00     0.127 A 
ATOM      7  H   LIG d   1       6.153  -0.886  -5.565  0.00  0.00     0.064 H 
ATOM      8  H   LIG d   1       5.363  -2.190  -1.572  0.00  0.00     0.064 H 
ATOM      9  H   LIG d   1       2.987  -1.633  -1.839  0.00  0.00     0.066 H 
ENDROOT
BRANCH   3  10
ATOM     10  N   LIG d   1       7.254  -1.904  -3.395  0.00  0.00    -0.286 N 
ATOM     11  C   LIG d   1       7.729  -3.069  -3.880  0.00  0.00     0.214 C 
ATOM     12  O   LIG d   1       7.008  -3.790  -4.537  0.00  0.00    -0.276 OA
ATOM     13  H   LIG d   1       7.851  -1.292  -2.935  0.00  0.00     0.155 HD
BRANCH  11  14
ATOM     14  C   LIG d   1       9.153  -3.475  -3.605  0.00  0.00     0.013 C 
ATOM     15  H   LIG d   1       9.279  -4.534  -3.832  0.00  0.00     0.032 H 
ATOM     16  H   LIG d   1       9.826  -2.888  -4.229  0.00  0.00     0.032 H 
ATOM     17  H   LIG d   1       9.385  -3.299  -2.555  0.00  0.00     0.032 H 
ENDBRANCH  11  14
ENDBRANCH   3  10
BRANCH   1  18
ATOM     18  C   LIG d   1       3.625  -0.160  -6.181  0.00  0.00     0.164 C 
ATOM     19  O   LIG d   1       3.069   0.917  -6.195  0.00  0.00    -0.292 OA
BRANCH  18  20
ATOM     20  C   LIG d   1       3.823  -0.924  -7.466  0.00  0.00    -0.001 C 
ATOM     21  H   LIG d   1       3.978  -0.280  -8.215  0.00  0.00     0.031 H 
ATOM     22  H   LIG d   1       4.687  -1.581  -7.367  0.00  0.00     0.031 H 
ATOM     23  H   LIG d   1       2.934  -1.518  -7.675  0.00  0.00     0.031 H 
ENDBRANCH  18  20
ENDBRANCH   1  18
BRANCH   6  24
ATOM     24  O   LIG d   1       1.899  -0.623  -3.995  0.00  0.00    -0.506 OA
ATOM     25  H   LIG d   1       1.467  -0.353  -3.172  0.00  0.00     0.292 HD
ENDBRANCH   6  24
TORSDOF 5
ENDMDL
MODEL 4
REMARK VINA RESULT:      -4.7      1.307      2.688
REMARK  5 active torsions:
REMARK  status: ('A' for Active; 'I' for Inactive)
REMARK    1  A    between atoms: C_1  and  C_2 
REMARK    2  A    between atoms: C_2  and  C_4 
REMARK    3  A    between atoms: C_6  and  N_11 
REMARK    4  A    between atoms: C_9  and  O_10 
REMARK       I    between atoms: N_11  and  C_12 
REMARK    5  A    between atoms: C_12  and  C_14 
ROOT
ATOM      1  C   LIG d   1       4.978  -0.732  -3.763  0.00  0.00     0.060 A 
ATOM      2  C   LIG d   1       4.042  -0.830  -4.799  0.00  0.00    -0.026 A 
ATOM      3  C   LIG d   1       4.467  -1.093  -6.088  0.00  0.00     0.034 A 
ATOM      4  C   LIG d   1       5.824  -1.253  -6.358  0.00  0.00    -0.037 A 
ATOM      5  C   LIG d   1       6.754  -1.163  -5.342  0.00  0.00    -0.018 A 
ATOM      6  C   LIG d   1       6.344  -0.901  -4.043  0.00  0.00     0.127 A 
ATOM      7  H   LIG d   1       2.989  -0.702  -4.592  0.00  0.00     0.064 H 
ATOM      8  H   LIG d   1       6.150  -1.454  -7.368  0.00  0.00     0.064 H 
ATOM      9  H   LIG d   1       7.803  -1.294  -5.560  0.00  0.00     0.066 H 
ENDROOT
BRANCH   3  10
ATOM     10  N   LIG d   1       3.532  -1.192  -7.126  0.00  0.00    -0.286 N 
ATOM     11  C   LIG d   1       3.188  -0.094  -7.829  0.00  0.00     0.214 C 
ATOM     12  O   LIG d   1       3.756   0.959  -7.627  0.00  0.00    -0.276 OA
ATOM     13  H   LIG d   1       3.131  -2.049  -7.340  0.00  0.00     0.155 HD
BRANCH  11  14
ATOM     14  C   LIG d   1       2.096  -0.173  -8.865  0.00  0.00     0.013 C 
ATOM     15  H   LIG d   1       1.159  -0.454  -8.383  0.00  0.00     0.032 H 
ATOM     16  H   LIG d   1       1.980   0.797  -9.347  0.00  0.00     0.032 H 
ATOM     17  H   LIG d   1       2.359  -0.922  -9.613  0.00  0.00     0.032 H 
ENDBRANCH  11  14
ENDBRANCH   3  10
BRANCH   1  18
ATOM     18  C   LIG d   1       4.535  -0.454  -2.391  0.00  0.00     0.164 C 
ATOM     19  O   LIG d   1       4.442  -1.360  -1.589  0.00  0.00    -0.292 OA
BRANCH  18  20
ATOM     20  C   LIG d   1       4.198   0.955  -1.979  0.00  0.00    -0.001 C 
ATOM     21  H   LIG d   1       3.806   0.949  -1.058  0.00  0.00     0.031 H 
ATOM     22  H   LIG d   1       5.103   1.562  -1.984  0.00  0.00     0.031 H 
ATOM     23  H   LIG d   1       3.474   1.374  -2.678  0.00  0.00     0.031 H 
ENDBRANCH  18  20
ENDBRANCH   1  18
BRANCH   6  24
ATOM     24  O   LIG d   1       7.259  -0.807  -3.047  0.00  0.00    -0.506 OA
ATOM     25  H   LIG d   1       7.848  -0.043  -3.125  0.00  0.00     0.292 HD
ENDBRANCH   6  24
TORSDOF 5
ENDMDL
MODEL 5
REMARK VINA RESULT:      -4.7      2.839      5.048
REMARK  5 active torsions:
REMARK  status: ('A' for Active; 'I' for Inactive)
REMARK    1  A    between atoms: C_1  and  C_2 
REMARK    2  A    between atoms: C_2  and  C_4 
REMARK    3  A    between atoms: C_6  and  N_11 
REMARK    4  A    between atoms: C_9  and  O_10 
REMARK       I    between atoms: N_11  and  C_12 
REMARK    5  A    between atoms: C_12  and  C_14 
ROOT
ATOM      1  C   LIG d   1       4.461  -0.741  -3.869  0.00  0.00     0.060 A 
ATOM      2  C   LIG d   1       5.421   0.226  -3.548  0.00  0.00    -0.026 A 
ATOM      3  C   LIG d   1       6.765  -0.099  -3.592  0.00  0.00     0.034 A 
ATOM      4  C   LIG d   1       7.162  -1.385  -3.949  0.00  0.00    -0.037 A 
ATOM      5  C   LIG d   1       6.223  -2.343  -4.272  0.00  0.00    -0.018 A 
ATOM      6  C   LIG d   1       4.871  -2.033  -4.234  0.00  0.00     0.127 A 
ATOM      7  H   LIG d   1       5.114   1.222  -3.267  0.00  0.00     0.064 H 
ATOM      8  H   LIG d   1       8.214  -1.633  -3.977  0.00  0.00     0.064 H 
ATOM      9  H   LIG d   1       6.541  -3.336  -4.552  0.00  0.00     0.066 H 
ENDROOT
BRANCH   3  10
ATOM     10  N   LIG d   1       7.728   0.866  -3.271  0.00  0.00    -0.286 N 
ATOM     11  C   LIG d   1       8.113   1.768  -4.196  0.00  0.00     0.214 C 
ATOM     12  O   LIG d   1       7.559   1.805  -5.274  0.00  0.00    -0.276 OA
ATOM     13  H   LIG d   1       8.117   0.887  -2.382  0.00  0.00     0.155 HD
BRANCH  11  14
ATOM     14  C   LIG d   1       9.232   2.730  -3.891  0.00  0.00     0.013 C 
ATOM     15  H   LIG d   1       9.202   2.998  -2.834  0.00  0.00     0.032 H 
ATOM     16  H   LIG d   1      10.188   2.261  -4.120  0.00  0.00     0.032 H 
ATOM     17  H   LIG d   1       9.113   3.629  -4.497  0.00  0.00     0.032 H 
ENDBRANCH  11  14
ENDBRANCH   3  10
BRANCH   1  18
ATOM     18  C   LIG d   1       3.032  -0.404  -3.827  0.00  0.00     0.164 C 
ATOM     19  O   LIG d   1       2.322  -0.884  -2.969  0.00  0.00    -0.292 OA
BRANCH  18  20
ATOM     20  C   LIG d   1       2.449   0.537  -4.850  0.00  0.00    -0.001 C 
ATOM     21  H   LIG d   1       1.502   0.747  -4.607  0.00  0.00     0.031 H 
ATOM     22  H   LIG d   1       3.033   1.457  -4.871  0.00  0.00     0.031 H 
ATOM     23  H   LIG d   1       2.476   0.066  -5.833  0.00  0.00     0.031 H 
ENDBRANCH  18  20
ENDBRANCH   1  18
BRANCH   6  24
ATOM     24  O   LIG d   1       3.949  -2.977  -4.547  0.00  0.00    -0.506 OA
ATOM     25  H   LIG d   1       3.745  -3.030  -5.492  0.00  0.00     0.292 HD
ENDBRANCH   6  24
TORSDOF 5
ENDMDL
MODEL 6
REMARK VINA RESULT:      -4.6      2.510      3.364
REMARK  5 active torsions:
REMARK  status: ('A' for Active; 'I' for Inactive)
REMARK    1  A    between atoms: C_1  and  C_2 
REMARK    2  A    between atoms: C_2  and  C_4 
REMARK    3  A    between atoms: C_6  and  N_11 
REMARK    4  A    between atoms: C_9  and  O_10 
REMARK       I    between atoms: N_11  and  C_12 
REMARK    5  A    between atoms: C_12  and  C_14 
ROOT
ATOM      1  C   LIG d   1       4.241  -1.654  -4.299  0.00  0.00     0.060 A 
ATOM      2  C   LIG d   1       4.091  -0.478  -5.043  0.00  0.00    -0.026 A 
ATOM      3  C   LIG d   1       4.305  -0.496  -6.409  0.00  0.00     0.034 A 
ATOM      4  C   LIG d   1       4.673  -1.678  -7.044  0.00  0.00    -0.037 A 
ATOM      5  C   LIG d   1       4.817  -2.845  -6.320  0.00  0.00    -0.018 A 
ATOM      6  C   LIG d   1       4.607  -2.844  -4.949  0.00  0.00     0.127 A 
ATOM      7  H   LIG d   1       3.810   0.442  -4.551  0.00  0.00     0.064 H 
ATOM      8  H   LIG d   1       4.842  -1.685  -8.111  0.00  0.00     0.064 H 
ATOM      9  H   LIG d   1       5.098  -3.758  -6.822  0.00  0.00     0.066 H 
ENDROOT
BRANCH   3  10
ATOM     10  N   LIG d   1       4.156   0.681  -7.154  0.00  0.00    -0.286 N 
ATOM     11  C   LIG d   1       3.102   0.825  -7.983  0.00  0.00     0.214 C 
ATOM     12  O   LIG d   1       2.234  -0.021  -8.013  0.00  0.00    -0.276 OA
ATOM     13  H   LIG d   1       4.811   1.393  -7.075  0.00  0.00     0.155 HD
BRANCH  11  14
ATOM     14  C   LIG d   1       3.004   2.037  -8.873  0.00  0.00     0.013 C 
ATOM     15  H   LIG d   1       2.113   1.959  -9.496  0.00  0.00     0.032 H 
ATOM     16  H   LIG d   1       2.940   2.935  -8.260  0.00  0.00     0.032 H 
ATOM     17  H   LIG d   1       3.888   2.093  -9.509  0.00  0.00     0.032 H 
ENDBRANCH  11  14
ENDBRANCH   3  10
BRANCH   1  18
ATOM     18  C   LIG d   1       4.015  -1.645  -2.848  0.00  0.00     0.164 C 
ATOM     19  O   LIG d   1       3.479  -2.592  -2.313  0.00  0.00    -0.292 OA
BRANCH  18  20
ATOM     20  C   LIG d   1       4.450  -0.459  -2.026  0.00  0.00    -0.001 C 
ATOM     21  H   LIG d   1       5.403  -0.240  -2.235  0.00  0.00     0.031 H 
ATOM     22  H   LIG d   1       3.820   0.397  -2.263  0.00  0.00     0.031 H 
ATOM     23  H   LIG d   1       4.356  -0.699  -0.967  0.00  0.00     0.031 H 
ENDBRANCH  18  20
ENDBRANCH   1  18
BRANCH   6  24
ATOM     24  O   LIG d   1       4.754  -3.990  -4.238  0.00  0.00    -0.506 OA
ATOM     25  H   LIG d   1       5.223  -4.690  -4.714  0.00  0.00     0.292 HD
ENDBRANCH   6  24
TORSDOF 5
ENDMDL
MODEL 7
REMARK VINA RESULT:      -4.6      2.806      5.164
REMARK  5 active torsions:
REMARK  status: ('A' for Active; 'I' for Inactive)
REMARK    1  A    between atoms: C_1  and  C_2 
REMARK    2  A    between atoms: C_2  and  C_4 
REMARK    3  A    between atoms: C_6  and  N_11 
REMARK    4  A    between atoms: C_9  and  O_10 
REMARK       I    between atoms: N_11  and  C_12 
REMARK    5  A    between atoms: C_12  and  C_14 
ROOT
ATOM      1  C   LIG d   1       4.858   0.953  -8.732  0.00  0.00     0.060 A 
ATOM      2  C   LIG d   1       4.661   0.401  -7.461  0.00  0.00    -0.026 A 
ATOM      3  C   LIG d   1       3.430  -0.135  -7.128  0.00  0.00     0.034 A 
ATOM      4  C   LIG d   1       2.388  -0.120  -8.050  0.00  0.00    -0.037 A 
ATOM      5  C   LIG d   1       2.575   0.418  -9.308  0.00  0.00    -0.018 A 
ATOM      6  C   LIG d   1       3.804   0.959  -9.658  0.00  0.00     0.127 A 
ATOM      7  H   LIG d   1       5.467   0.393  -6.743  0.00  0.00     0.064 H 
ATOM      8  H   LIG d   1       1.428  -0.536  -7.782  0.00  0.00     0.064 H 
ATOM      9  H   LIG d   1       1.762   0.420 -10.018  0.00  0.00     0.066 H 
ENDROOT
BRANCH   3  10
ATOM     10  N   LIG d   1       3.231  -0.688  -5.856  0.00  0.00    -0.286 N 
ATOM     11  C   LIG d   1       2.855   0.101  -4.830  0.00  0.00     0.214 C 
ATOM     12  O   LIG d   1       2.599   1.271  -5.026  0.00  0.00    -0.276 OA
ATOM     13  H   LIG d   1       3.362  -1.638  -5.713  0.00  0.00     0.155 HD
BRANCH  11  14
ATOM     14  C   LIG d   1       2.756  -0.468  -3.438  0.00  0.00     0.013 C 
ATOM     15  H   LIG d   1       1.822  -1.020  -3.338  0.00  0.00     0.032 H 
ATOM     16  H   LIG d   1       3.596  -1.138  -3.258  0.00  0.00     0.032 H 
ATOM     17  H   LIG d   1       2.777   0.345  -2.711  0.00  0.00     0.032 H 
ENDBRANCH  11  14
ENDBRANCH   3  10
BRANCH   1  18
ATOM     18  C   LIG d   1       6.162   1.523  -9.095  0.00  0.00     0.164 C 
ATOM     19  O   LIG d   1       6.264   2.711  -9.317  0.00  0.00    -0.292 OA
BRANCH  18  20
ATOM     20  C   LIG d   1       7.373   0.632  -9.193  0.00  0.00    -0.001 C 
ATOM     21  H   LIG d   1       7.759   0.693 -10.114  0.00  0.00     0.031 H 
ATOM     22  H   LIG d   1       8.118   0.951  -8.464  0.00  0.00     0.031 H 
ATOM     23  H   LIG d   1       7.082  -0.398  -8.988  0.00  0.00     0.031 H 
ENDBRANCH  18  20
ENDBRANCH   1  18
BRANCH   6  24
ATOM     24  O   LIG d   1       3.984   1.492 -10.892  0.00  0.00    -0.506 OA
ATOM     25  H   LIG d   1       4.636   1.023 -11.432  0.00  0.00     0.292 HD
ENDBRANCH   6  24
TORSDOF 5
ENDMDL
MODEL 8
REMARK VINA RESULT:      -4.5      3.800      6.133
REMARK  5 active torsions:
REMARK  status: ('A' for Active; 'I' for Inactive)
REMARK    1  A    between atoms: C_1  and  C_2 
REMARK    2  A    between atoms: C_2  and  C_4 
REMARK    3  A    between atoms: C_6  and  N_11 
REMARK    4  A    between atoms: C_9  and  O_10 
REMARK       I    between atoms: N_11  and  C_12 
REMARK    5  A    between atoms: C_12  and  C_14 
ROOT
ATOM      1  C   LIG d   1       5.776  -1.747  -3.315  0.00  0.00     0.060 A 
ATOM      2  C   LIG d   1       7.172  -1.844  -3.333  0.00  0.00    -0.026 A 
ATOM      3  C   LIG d   1       7.786  -2.795  -4.127  0.00  0.00     0.034 A 
ATOM      4  C   LIG d   1       7.018  -3.660  -4.902  0.00  0.00    -0.037 A 
ATOM      5  C   LIG d   1       5.641  -3.568  -4.896  0.00  0.00    -0.018 A 
ATOM      6  C   LIG d   1       5.010  -2.619  -4.105  0.00  0.00     0.127 A 
ATOM      7  H   LIG d   1       7.769  -1.177  -2.728  0.00  0.00     0.064 H 
ATOM      8  H   LIG d   1       7.504  -4.404  -5.517  0.00  0.00     0.064 H 
ATOM      9  H   LIG d   1       5.054  -4.240  -5.505  0.00  0.00     0.066 H 
ENDROOT
BRANCH   3  10
ATOM     10  N   LIG d   1       9.183  -2.894  -4.145  0.00  0.00    -0.286 N 
ATOM     11  C   LIG d   1       9.802  -3.833  -3.402  0.00  0.00     0.214 C 
ATOM     12  O   LIG d   1       9.148  -4.653  -2.792  0.00  0.00    -0.276 OA
ATOM     13  H   LIG d   1       9.706  -2.287  -4.692  0.00  0.00     0.155 HD
BRANCH  11  14
ATOM     14  C   LIG d   1      11.307  -3.865  -3.327  0.00  0.00     0.013 C 
ATOM     15  H   LIG d   1      11.716  -4.040  -4.322  0.00  0.00     0.032 H 
ATOM     16  H   LIG d   1      11.672  -2.912  -2.946  0.00  0.00     0.032 H 
ATOM     17  H   LIG d   1      11.620  -4.668  -2.659  0.00  0.00     0.032 H 
ENDBRANCH  11  14
ENDBRANCH   3  10
BRANCH   1  18
ATOM     18  C   LIG d   1       5.116  -0.739  -2.476  0.00  0.00     0.164 C 
ATOM     19  O   LIG d   1       4.321  -1.083  -1.628  0.00  0.00    -0.292 OA
BRANCH  18  20
ATOM     20  C   LIG d   1       5.427   0.723  -2.670  0.00  0.00    -0.001 C 
ATOM     21  H   LIG d   1       4.782   1.274  -2.141  0.00  0.00     0.031 H 
ATOM     22  H   LIG d   1       6.442   0.926  -2.331  0.00  0.00     0.031 H 
ATOM     23  H   LIG d   1       5.339   0.975  -3.727  0.00  0.00     0.031 H 
ENDBRANCH  18  20
ENDBRANCH   1  18
BRANCH   6  24
ATOM     24  O   LIG d   1       3.656  -2.534  -4.096  0.00  0.00    -0.506 OA
ATOM     25  H   LIG d   1       3.317  -1.696  -3.751  0.00  0.00     0.292 HD
ENDBRANCH   6  24
TORSDOF 5
ENDMDL
MODEL 9
REMARK VINA RESULT:      -4.5      3.506      4.816
REMARK  5 active torsions:
REMARK  status: ('A' for Active; 'I' for Inactive)
REMARK    1  A    between atoms: C_1  and  C_2 
REMARK    2  A    between atoms: C_2  and  C_4 
REMARK    3  A    between atoms: C_6  and  N_11 
REMARK    4  A    between atoms: C_9  and  O_10 
REMARK       I    between atoms: N_11  and  C_12 
REMARK    5  A    between atoms: C_12  and  C_14 
ROOT
ATOM      1  C   LIG d   1       4.258  -1.106  -6.076  0.00  0.00     0.060 A 
ATOM      2  C   LIG d   1       4.753  -2.403  -6.252  0.00  0.00    -0.026 A 
ATOM      3  C   LIG d   1       4.918  -3.230  -5.156  0.00  0.00     0.034 A 
ATOM      4  C   LIG d   1       4.600  -2.773  -3.880  0.00  0.00    -0.037 A 
ATOM      5  C   LIG d   1       4.107  -1.497  -3.698  0.00  0.00    -0.018 A 
ATOM      6  C   LIG d   1       3.934  -0.655  -4.787  0.00  0.00     0.127 A 
ATOM      7  H   LIG d   1       5.004  -2.758  -7.240  0.00  0.00     0.064 H 
ATOM      8  H   LIG d   1       4.736  -3.422  -3.027  0.00  0.00     0.064 H 
ATOM      9  H   LIG d   1       3.858  -1.153  -2.705  0.00  0.00     0.066 H 
ENDROOT
BRANCH   3  10
ATOM     10  N   LIG d   1       5.414  -4.529  -5.329  0.00  0.00    -0.286 N 
ATOM     11  C   LIG d   1       4.575  -5.532  -5.659  0.00  0.00     0.214 C 
ATOM     12  O   LIG d   1       3.410  -5.294  -5.898  0.00  0.00    -0.276 OA
ATOM     13  H   LIG d   1       6.360  -4.708  -5.213  0.00  0.00     0.155 HD
BRANCH  11  14
ATOM     14  C   LIG d   1       5.085  -6.948  -5.730  0.00  0.00     0.013 C 
ATOM     15  H   LIG d   1       5.617  -7.189  -4.809  0.00  0.00     0.032 H 
ATOM     16  H   LIG d   1       4.245  -7.631  -5.853  0.00  0.00     0.032 H 
ATOM     17  H   LIG d   1       5.762  -7.048  -6.578  0.00  0.00     0.032 H 
ENDBRANCH  11  14
ENDBRANCH   3  10
BRANCH   1  18
ATOM     18  C   LIG d   1       4.077  -0.221  -7.234  0.00  0.00     0.164 C 
ATOM     19  O   LIG d   1       4.873   0.669  -7.447  0.00  0.00    -0.292 OA
BRANCH  18  20
ATOM     20  C   LIG d   1       2.903  -0.420  -8.157  0.00  0.00    -0.001 C 
ATOM     21  H   LIG d   1       3.231  -0.718  -9.054  0.00  0.00     0.031 H 
ATOM     22  H   LIG d   1       2.239  -1.178  -7.742  0.00  0.00     0.031 H 
ATOM     23  H   LIG d   1       2.361   0.520  -8.263  0.00  0.00     0.031 H 
ENDBRANCH  18  20
ENDBRANCH   1  18
BRANCH   6  24
ATOM     24  O   LIG d   1       3.454   0.600  -4.605  0.00  0.00    -0.506 OA
ATOM     25  H   LIG d   1       2.567   0.739  -4.967  0.00  0.00     0.292 HD
ENDBRANCH   6  24
TORSDOF 5
ENDMDL
MODEL 10
REMARK VINA RESULT:      -4.4      4.093      6.418
REMARK  5 active torsions:
REMARK  status: ('A' for Active; 'I' for Inactive)
REMARK    1  A    between atoms: C_1  and  C_2 
REMARK    2  A    between atoms: C_2  and  C_4 
REMARK    3  A    between atoms: C_6  and  N_11 
REMARK    4  A    between atoms: C_9  and  O_10 
REMARK       I    between atoms: N_11  and  C_12 
REMARK    5  A    between atoms: C_12  and  C_14 
ROOT
ATOM      1  C   LIG d   1       2.825   0.468  -9.370  0.00  0.00     0.060 A 
ATOM      2  C   LIG d   1       1.819  -0.491  -9.543  0.00  0.00    -0.026 A 
ATOM      3  C   LIG d   1       1.707  -1.160 -10.748  0.00  0.00     0.034 A 
ATOM      4  C   LIG d   1       2.586  -0.878 -11.789  0.00  0.00    -0.037 A 
ATOM      5  C   LIG d   1       3.583   0.062 -11.627  0.00  0.00    -0.018 A 
ATOM      6  C   LIG d   1       3.711   0.742 -10.424  0.00  0.00     0.127 A 
ATOM      7  H   LIG d   1       1.133  -0.708  -8.737  0.00  0.00     0.064 H 
ATOM      8  H   LIG d   1       2.489  -1.401 -12.730  0.00  0.00     0.064 H 
ATOM      9  H   LIG d   1       4.264   0.270 -12.439  0.00  0.00     0.066 H 
ENDROOT
BRANCH   3  10
ATOM     10  N   LIG d   1       0.700  -2.119 -10.922  0.00  0.00    -0.286 N 
ATOM     11  C   LIG d   1       0.928  -3.404 -10.582  0.00  0.00     0.214 C 
ATOM     12  O   LIG d   1       1.968  -3.712 -10.038  0.00  0.00    -0.276 OA
ATOM     13  H   LIG d   1      -0.160  -1.860 -11.287  0.00  0.00     0.155 HD
BRANCH  11  14
ATOM     14  C   LIG d   1      -0.108  -4.457 -10.879  0.00  0.00     0.013 C 
ATOM     15  H   LIG d   1      -0.962  -3.996 -11.375  0.00  0.00     0.032 H 
ATOM     16  H   LIG d   1       0.323  -5.218 -11.529  0.00  0.00     0.032 H 
ATOM     17  H   LIG d   1      -0.434  -4.918  -9.946  0.00  0.00     0.032 H 
ENDBRANCH  11  14
ENDBRANCH   3  10
BRANCH   1  18
ATOM     18  C   LIG d   1       2.953   1.182  -8.094  0.00  0.00     0.164 C 
ATOM     19  O   LIG d   1       2.998   2.394  -8.079  0.00  0.00    -0.292 OA
BRANCH  18  20
ATOM     20  C   LIG d   1       3.030   0.409  -6.802  0.00  0.00    -0.001 C 
ATOM     21  H   LIG d   1       3.988   0.238  -6.573  0.00  0.00     0.031 H 
ATOM     22  H   LIG d   1       2.563   0.987  -6.005  0.00  0.00     0.031 H 
ATOM     23  H   LIG d   1       2.508  -0.541  -6.917  0.00  0.00     0.031 H 
ENDBRANCH  18  20
ENDBRANCH   1  18
BRANCH   6  24
ATOM     24  O   LIG d   1       4.689   1.668 -10.268  0.00  0.00    -0.506 OA
ATOM     25  H   LIG d   1       4.742   2.037  -9.375  0.00  0.00     0.292 HD
ENDBRANCH   6  24
TORSDOF 5
ENDMDL
