MODEL 1
REMARK VINA RESULT:      -7.6      0.000      0.000
REMARK  7 active torsions:
REMARK  status: ('A' for Active; 'I' for Inactive)
REMARK    1  A    between atoms: C_1  and  N_2 
REMARK       I    between atoms: N_5  and  C_8 
REMARK    2  A    between atoms: C_8  and  C_10 
REMARK    3  A    between atoms: C_10  and  C_11 
REMARK    4  A    between atoms: C_11  and  C_12 
REMARK    5  A    between atoms: C_22  and  N_25 
REMARK    6  A    between atoms: N_25  and  C_26 
REMARK    7  A    between atoms: C_26  and  C_27 
ROOT
ATOM      1  C   LIG d   1      10.397   4.936  -3.907  0.00  0.00    -0.004 C 
ATOM      2  H   LIG d   1      11.409   4.552  -4.038  0.00  0.00     0.087 H 
ATOM      3  C   LIG d   1      10.262   6.298  -4.604  0.00  0.00     0.055 C 
ATOM      4  N   LIG d   1      10.095   6.161  -6.046  0.00  0.00    -0.305 N 
ATOM      5  C   LIG d   1       9.880   4.991  -6.680  0.00  0.00     0.262 C 
ATOM      6  O   LIG d   1       9.647   4.969  -7.870  0.00  0.00    -0.270 OA
ATOM      7  C   LIG d   1       9.935   3.723  -5.894  0.00  0.00     0.059 C 
ATOM      8  H   LIG d   1      10.956   3.344  -5.855  0.00  0.00     0.095 H 
ATOM      9  N   LIG d   1       9.443   4.032  -4.525  0.00  0.00     0.248 N 
ATOM     10  C   LIG d   1       9.228   2.733  -3.896  0.00  0.00    -0.015 C 
ATOM     11  C   LIG d   1       8.824   1.774  -5.046  0.00  0.00     0.054 C 
ATOM     12  H   LIG d   1       9.500   0.919  -5.081  0.00  0.00     0.051 H 
ATOM     13  C   LIG d   1       8.972   2.620  -6.356  0.00  0.00     0.019 C 
ATOM     14  H   LIG d   1       9.396   6.819  -4.196  0.00  0.00     0.052 H 
ATOM     15  H   LIG d   1      11.156   6.888  -4.405  0.00  0.00     0.052 H 
ATOM     16  H   LIG d   1      10.142   6.966  -6.586  0.00  0.00     0.149 HD
ATOM     17  H   LIG d   1      10.145   2.387  -3.421  0.00  0.00     0.083 H 
ATOM     18  H   LIG d   1       8.425   2.798  -3.161  0.00  0.00     0.083 H 
ATOM     19  H   LIG d   1       8.013   3.040  -6.658  0.00  0.00     0.034 H 
ATOM     20  H   LIG d   1       9.409   2.032  -7.163  0.00  0.00     0.034 H 
ATOM     21  H   LIG d   1       8.551   4.497  -4.599  0.00  0.00     0.204 HD
ENDROOT
BRANCH   1  22
ATOM     22  C   LIG d   1      10.086   5.082  -2.416  0.00  0.00     0.000 C 
ATOM     23  H   LIG d   1      10.987   4.886  -1.837  0.00  0.00     0.033 H 
ATOM     24  H   LIG d   1       9.311   4.367  -2.136  0.00  0.00     0.033 H 
BRANCH  22  25
ATOM     25  C   LIG d   1       9.595   6.503  -2.134  0.00  0.00     0.029 C 
ATOM     26  H   LIG d   1       8.512   6.497  -2.017  0.00  0.00     0.036 H 
ATOM     27  H   LIG d   1       9.868   7.153  -2.966  0.00  0.00     0.036 H 
BRANCH  25  28
ATOM     28  C   LIG d   1      10.235   7.013  -0.868  0.00  0.00     0.216 C 
ATOM     29  N   LIG d   1      10.774   8.248  -0.835  0.00  0.00    -0.299 N 
ATOM     30  C   LIG d   1      11.404   8.765   0.390  0.00  0.00     0.028 C 
ATOM     31  C   LIG d   1      10.748   9.115  -2.023  0.00  0.00     0.028 C 
ATOM     32  C   LIG d   1      10.808  10.142   0.699  0.00  0.00     0.015 C 
ATOM     33  H   LIG d   1      12.479   8.856   0.238  0.00  0.00     0.048 H 
ATOM     34  H   LIG d   1      11.204   8.085   1.218  0.00  0.00     0.048 H 
ATOM     35  N   LIG d   1      10.942  11.006  -0.480  0.00  0.00    -0.302 N 
ATOM     36  H   LIG d   1      11.339  10.588   1.540  0.00  0.00     0.044 H 
ATOM     37  H   LIG d   1       9.753  10.034   0.952  0.00  0.00     0.044 H 
ATOM     38  C   LIG d   1      10.178  10.478  -1.619  0.00  0.00     0.015 C 
ATOM     39  H   LIG d   1       9.132  10.365  -1.334  0.00  0.00     0.044 H 
ATOM     40  H   LIG d   1      10.255  11.168  -2.460  0.00  0.00     0.044 H 
ATOM     41  H   LIG d   1      11.760   9.240  -2.407  0.00  0.00     0.048 H 
ATOM     42  H   LIG d   1      10.117   8.666  -2.790  0.00  0.00     0.048 H 
ATOM     43  O   LIG d   1      10.265   6.312   0.121  0.00  0.00    -0.276 OA
BRANCH  35  44
ATOM     44  C   LIG d   1      10.541  12.386  -0.172  0.00  0.00    -0.013 C 
ATOM     45  H   LIG d   1      10.704  13.015  -1.047  0.00  0.00     0.039 H 
ATOM     46  H   LIG d   1       9.485  12.405   0.098  0.00  0.00     0.039 H 
ATOM     47  H   LIG d   1      11.137  12.760   0.661  0.00  0.00     0.039 H 
ENDBRANCH  35  44
ENDBRANCH  25  28
ENDBRANCH  22  25
ENDBRANCH   1  22
BRANCH  11  48
ATOM     48  N   LIG d   1       7.438   1.322  -4.872  0.00  0.00    -0.304 N 
ATOM     49  H   LIG d   1       6.822   1.784  -5.524  0.00  0.00     0.123 HD
BRANCH  48  50
ATOM     50  C   LIG d   1       6.988   1.523  -3.489  0.00  0.00     0.022 C 
ATOM     51  H   LIG d   1       7.851   1.536  -2.824  0.00  0.00     0.047 H 
ATOM     52  H   LIG d   1       6.458   2.474  -3.415  0.00  0.00     0.047 H 
BRANCH  50  53
ATOM     53  C   LIG d   1       6.064   0.401  -3.092  0.00  0.00    -0.033 A 
ATOM     54  C   LIG d   1       6.289  -0.879  -3.565  0.00  0.00    -0.055 A 
ATOM     55  C   LIG d   1       5.445  -1.910  -3.198  0.00  0.00    -0.026 A 
ATOM     56  H   LIG d   1       7.126  -1.073  -4.220  0.00  0.00     0.062 H 
ATOM     57  C   LIG d   1       4.369  -1.659  -2.364  0.00  0.00     0.123 A 
ATOM     58  H   LIG d   1       5.622  -2.910  -3.564  0.00  0.00     0.065 H 
ATOM     59  C   LIG d   1       4.142  -0.376  -1.895  0.00  0.00    -0.026 A 
ATOM     60  F   LIG d   1       3.540  -2.665  -2.007  0.00  0.00    -0.205 F 
ATOM     61  C   LIG d   1       4.990   0.653  -2.259  0.00  0.00    -0.055 A 
ATOM     62  H   LIG d   1       3.303  -0.179  -1.244  0.00  0.00     0.065 H 
ATOM     63  H   LIG d   1       4.813   1.653  -1.893  0.00  0.00     0.062 H 
ENDBRANCH  50  53
ENDBRANCH  48  50
ENDBRANCH  11  48
TORSDOF 7
ENDMDL
MODEL 2
REMARK VINA RESULT:      -7.5      7.506     10.423
REMARK  7 active torsions:
REMARK  status: ('A' for Active; 'I' for Inactive)
REMARK    1  A    between atoms: C_1  and  N_2 
REMARK       I    between atoms: N_5  and  C_8 
REMARK    2  A    between atoms: C_8  and  C_10 
REMARK    3  A    between atoms: C_10  and  C_11 
REMARK    4  A    between atoms: C_11  and  C_12 
REMARK    5  A    between atoms: C_22  and  N_25 
REMARK    6  A    between atoms: N_25  and  C_26 
REMARK    7  A    between atoms: C_26  and  C_27 
ROOT
ATOM      1  C   LIG d   1       2.709  -2.052  -9.588  0.00  0.00    -0.004 C 
ATOM      2  H   LIG d   1       3.548  -2.122 -10.281  0.00  0.00     0.087 H 
ATOM      3  C   LIG d   1       1.446  -2.635 -10.237  0.00  0.00     0.055 C 
ATOM      4  N   LIG d   1       1.436  -4.092 -10.204  0.00  0.00    -0.305 N 
ATOM      5  C   LIG d   1       2.316  -4.845  -9.515  0.00  0.00     0.262 C 
ATOM      6  O   LIG d   1       2.181  -6.048  -9.451  0.00  0.00    -0.270 OA
ATOM      7  C   LIG d   1       3.462  -4.172  -8.833  0.00  0.00     0.059 C 
ATOM      8  H   LIG d   1       4.306  -4.074  -9.516  0.00  0.00     0.095 H 
ATOM      9  N   LIG d   1       2.989  -2.832  -8.395  0.00  0.00     0.248 N 
ATOM     10  C   LIG d   1       4.020  -2.343  -7.485  0.00  0.00    -0.015 C 
ATOM     11  C   LIG d   1       4.607  -3.606  -6.804  0.00  0.00     0.054 C 
ATOM     12  H   LIG d   1       5.685  -3.655  -6.962  0.00  0.00     0.051 H 
ATOM     13  C   LIG d   1       3.913  -4.817  -7.514  0.00  0.00     0.019 C 
ATOM     14  H   LIG d   1       0.571  -2.263  -9.703  0.00  0.00     0.052 H 
ATOM     15  H   LIG d   1       1.395  -2.303 -11.274  0.00  0.00     0.052 H 
ATOM     16  H   LIG d   1       0.748  -4.551 -10.712  0.00  0.00     0.149 HD
ATOM     17  H   LIG d   1       4.796  -1.819  -8.041  0.00  0.00     0.083 H 
ATOM     18  H   LIG d   1       3.580  -1.682  -6.738  0.00  0.00     0.083 H 
ATOM     19  H   LIG d   1       3.056  -5.166  -6.938  0.00  0.00     0.034 H 
ATOM     20  H   LIG d   1       4.616  -5.629  -7.697  0.00  0.00     0.034 H 
ATOM     21  H   LIG d   1       2.134  -2.946  -7.870  0.00  0.00     0.204 HD
ENDROOT
BRANCH   1  22
ATOM     22  C   LIG d   1       2.472  -0.588  -9.209  0.00  0.00     0.000 C 
ATOM     23  H   LIG d   1       2.719  -0.442  -8.157  0.00  0.00     0.033 H 
ATOM     24  H   LIG d   1       1.425  -0.336  -9.375  0.00  0.00     0.033 H 
BRANCH  22  25
ATOM     25  C   LIG d   1       3.358   0.311 -10.072  0.00  0.00     0.029 C 
ATOM     26  H   LIG d   1       2.738   1.044 -10.589  0.00  0.00     0.036 H 
ATOM     27  H   LIG d   1       3.890  -0.296 -10.804  0.00  0.00     0.036 H 
BRANCH  25  28
ATOM     28  C   LIG d   1       4.354   1.026  -9.194  0.00  0.00     0.216 C 
ATOM     29  N   LIG d   1       5.640   0.622  -9.167  0.00  0.00    -0.299 N 
ATOM     30  C   LIG d   1       6.628   1.305  -8.317  0.00  0.00     0.028 C 
ATOM     31  C   LIG d   1       6.092  -0.513  -9.985  0.00  0.00     0.028 C 
ATOM     32  C   LIG d   1       7.841   1.668  -9.179  0.00  0.00     0.015 C 
ATOM     33  H   LIG d   1       6.936   0.641  -7.509  0.00  0.00     0.048 H 
ATOM     34  H   LIG d   1       6.189   2.212  -7.902  0.00  0.00     0.048 H 
ATOM     35  N   LIG d   1       8.334   0.463  -9.858  0.00  0.00    -0.302 N 
ATOM     36  H   LIG d   1       8.629   2.076  -8.544  0.00  0.00     0.044 H 
ATOM     37  H   LIG d   1       7.552   2.411  -9.921  0.00  0.00     0.044 H 
ATOM     38  C   LIG d   1       7.327  -0.079 -10.781  0.00  0.00     0.015 C 
ATOM     39  H   LIG d   1       7.044   0.689 -11.501  0.00  0.00     0.044 H 
ATOM     40  H   LIG d   1       7.741  -0.939 -11.307  0.00  0.00     0.044 H 
ATOM     41  H   LIG d   1       6.350  -1.351  -9.338  0.00  0.00     0.048 H 
ATOM     42  H   LIG d   1       5.299  -0.808 -10.672  0.00  0.00     0.048 H 
ATOM     43  O   LIG d   1       3.998   1.964  -8.513  0.00  0.00    -0.276 OA
BRANCH  35  44
ATOM     44  C   LIG d   1       9.598   0.731 -10.557  0.00  0.00    -0.013 C 
ATOM     45  H   LIG d   1       9.589   0.233 -11.527  0.00  0.00     0.039 H 
ATOM     46  H   LIG d   1       9.713   1.805 -10.700  0.00  0.00     0.039 H 
ATOM     47  H   LIG d   1      10.430   0.352  -9.962  0.00  0.00     0.039 H 
ENDBRANCH  35  44
ENDBRANCH  25  28
ENDBRANCH  22  25
ENDBRANCH   1  22
BRANCH  11  48
ATOM     48  N   LIG d   1       4.303  -3.601  -5.367  0.00  0.00    -0.304 N 
ATOM     49  H   LIG d   1       3.570  -2.940  -5.156  0.00  0.00     0.123 HD
BRANCH  48  50
ATOM     50  C   LIG d   1       5.507  -3.322  -4.574  0.00  0.00     0.022 C 
ATOM     51  H   LIG d   1       5.752  -4.194  -3.967  0.00  0.00     0.047 H 
ATOM     52  H   LIG d   1       6.339  -3.099  -5.243  0.00  0.00     0.047 H 
BRANCH  50  53
ATOM     53  C   LIG d   1       5.254  -2.139  -3.675  0.00  0.00    -0.033 A 
ATOM     54  C   LIG d   1       4.195  -2.160  -2.787  0.00  0.00    -0.055 A 
ATOM     55  C   LIG d   1       3.965  -1.078  -1.959  0.00  0.00    -0.026 A 
ATOM     56  H   LIG d   1       3.547  -3.024  -2.740  0.00  0.00     0.062 H 
ATOM     57  C   LIG d   1       4.791   0.031  -2.025  0.00  0.00     0.123 A 
ATOM     58  H   LIG d   1       3.140  -1.095  -1.263  0.00  0.00     0.065 H 
ATOM     59  C   LIG d   1       5.849   0.052  -2.917  0.00  0.00    -0.026 A 
ATOM     60  F   LIG d   1       4.565   1.092  -1.219  0.00  0.00    -0.205 F 
ATOM     61  C   LIG d   1       6.081  -1.033  -3.742  0.00  0.00    -0.055 A 
ATOM     62  H   LIG d   1       6.495   0.917  -2.969  0.00  0.00     0.065 H 
ATOM     63  H   LIG d   1       6.906  -1.016  -4.437  0.00  0.00     0.062 H 
ENDBRANCH  50  53
ENDBRANCH  48  50
ENDBRANCH  11  48
TORSDOF 7
ENDMDL
MODEL 3
REMARK VINA RESULT:      -7.4      3.764      6.517
REMARK  7 active torsions:
REMARK  status: ('A' for Active; 'I' for Inactive)
REMARK    1  A    between atoms: C_1  and  N_2 
REMARK       I    between atoms: N_5  and  C_8 
REMARK    2  A    between atoms: C_8  and  C_10 
REMARK    3  A    between atoms: C_10  and  C_11 
REMARK    4  A    between atoms: C_11  and  C_12 
REMARK    5  A    between atoms: C_22  and  N_25 
REMARK    6  A    between atoms: N_25  and  C_26 
REMARK    7  A    between atoms: C_26  and  C_27 
ROOT
ATOM      1  C   LIG d   1       6.394   0.721  -8.874  0.00  0.00    -0.004 C 
ATOM      2  H   LIG d   1       6.386   0.293  -9.877  0.00  0.00     0.087 H 
ATOM      3  C   LIG d   1       5.985   2.199  -8.933  0.00  0.00     0.055 C 
ATOM      4  N   LIG d   1       4.542   2.363  -9.061  0.00  0.00    -0.305 N 
ATOM      5  C   LIG d   1       3.648   1.361  -8.940  0.00  0.00     0.262 C 
ATOM      6  O   LIG d   1       2.457   1.593  -8.956  0.00  0.00    -0.270 OA
ATOM      7  C   LIG d   1       4.147  -0.038  -8.788  0.00  0.00     0.059 C 
ATOM      8  H   LIG d   1       4.303  -0.494  -9.766  0.00  0.00     0.095 H 
ATOM      9  N   LIG d   1       5.428   0.031  -8.037  0.00  0.00     0.248 N 
ATOM     10  C   LIG d   1       5.718  -1.346  -7.651  0.00  0.00    -0.015 C 
ATOM     11  C   LIG d   1       4.337  -2.025  -7.460  0.00  0.00     0.054 C 
ATOM     12  H   LIG d   1       4.256  -2.905  -8.098  0.00  0.00     0.051 H 
ATOM     13  C   LIG d   1       3.287  -0.951  -7.903  0.00  0.00     0.019 C 
ATOM     14  H   LIG d   1       6.317   2.694  -8.020  0.00  0.00     0.052 H 
ATOM     15  H   LIG d   1       6.472   2.668  -9.787  0.00  0.00     0.052 H 
ATOM     16  H   LIG d   1       4.202   3.253  -9.246  0.00  0.00     0.149 HD
ATOM     17  H   LIG d   1       6.279  -1.848  -8.439  0.00  0.00     0.083 H 
ATOM     18  H   LIG d   1       6.280  -1.366  -6.717  0.00  0.00     0.083 H 
ATOM     19  H   LIG d   1       2.900  -0.407  -7.042  0.00  0.00     0.034 H 
ATOM     20  H   LIG d   1       2.475  -1.399  -8.476  0.00  0.00     0.034 H 
ATOM     21  H   LIG d   1       5.282   0.569  -7.195  0.00  0.00     0.204 HD
ENDROOT
BRANCH   1  22
ATOM     22  C   LIG d   1       7.794   0.592  -8.268  0.00  0.00     0.000 C 
ATOM     23  H   LIG d   1       8.537   0.614  -9.065  0.00  0.00     0.033 H 
ATOM     24  H   LIG d   1       7.869  -0.352  -7.727  0.00  0.00     0.033 H 
BRANCH  22  25
ATOM     25  C   LIG d   1       8.041   1.754  -7.305  0.00  0.00     0.029 C 
ATOM     26  H   LIG d   1       7.087   2.130  -6.936  0.00  0.00     0.036 H 
ATOM     27  H   LIG d   1       8.569   2.552  -7.827  0.00  0.00     0.036 H 
BRANCH  25  28
ATOM     28  C   LIG d   1       8.875   1.276  -6.144  0.00  0.00     0.216 C 
ATOM     29  N   LIG d   1       9.642   2.148  -5.460  0.00  0.00    -0.299 N 
ATOM     30  C   LIG d   1      10.463   1.702  -4.324  0.00  0.00     0.028 C 
ATOM     31  C   LIG d   1       9.679   3.571  -5.830  0.00  0.00     0.028 C 
ATOM     32  C   LIG d   1      10.172   2.612  -3.127  0.00  0.00     0.015 C 
ATOM     33  H   LIG d   1      11.519   1.768  -4.588  0.00  0.00     0.048 H 
ATOM     34  H   LIG d   1      10.210   0.672  -4.071  0.00  0.00     0.048 H 
ATOM     35  N   LIG d   1      10.368   4.013  -3.522  0.00  0.00    -0.302 N 
ATOM     36  H   LIG d   1      10.851   2.367  -2.310  0.00  0.00     0.044 H 
ATOM     37  H   LIG d   1       9.143   2.467  -2.800  0.00  0.00     0.044 H 
ATOM     38  C   LIG d   1       9.420   4.408  -4.574  0.00  0.00     0.015 C 
ATOM     39  H   LIG d   1       8.401   4.237  -4.227  0.00  0.00     0.044 H 
ATOM     40  H   LIG d   1       9.554   5.465  -4.806  0.00  0.00     0.044 H 
ATOM     41  H   LIG d   1      10.660   3.817  -6.238  0.00  0.00     0.048 H 
ATOM     42  H   LIG d   1       8.909   3.776  -6.573  0.00  0.00     0.048 H 
ATOM     43  O   LIG d   1       8.855   0.106  -5.825  0.00  0.00    -0.276 OA
BRANCH  35  44
ATOM     44  C   LIG d   1      10.268   4.907  -2.361  0.00  0.00    -0.013 C 
ATOM     45  H   LIG d   1      11.158   4.797  -1.741  0.00  0.00     0.039 H 
ATOM     46  H   LIG d   1      10.189   5.939  -2.703  0.00  0.00     0.039 H 
ATOM     47  H   LIG d   1       9.384   4.649  -1.777  0.00  0.00     0.039 H 
ENDBRANCH  35  44
ENDBRANCH  25  28
ENDBRANCH  22  25
ENDBRANCH   1  22
BRANCH  11  48
ATOM     48  N   LIG d   1       4.140  -2.396  -6.053  0.00  0.00    -0.304 N 
ATOM     49  H   LIG d   1       3.413  -1.839  -5.630  0.00  0.00     0.123 HD
BRANCH  48  50
ATOM     50  C   LIG d   1       5.395  -2.282  -5.297  0.00  0.00     0.022 C 
ATOM     51  H   LIG d   1       5.690  -3.267  -4.934  0.00  0.00     0.047 H 
ATOM     52  H   LIG d   1       6.175  -1.886  -5.947  0.00  0.00     0.047 H 
BRANCH  50  53
ATOM     53  C   LIG d   1       5.195  -1.354  -4.127  0.00  0.00    -0.033 A 
ATOM     54  C   LIG d   1       5.724  -0.078  -4.159  0.00  0.00    -0.055 A 
ATOM     55  C   LIG d   1       5.538   0.775  -3.088  0.00  0.00    -0.026 A 
ATOM     56  H   LIG d   1       6.282   0.254  -5.023  0.00  0.00     0.062 H 
ATOM     57  C   LIG d   1       4.829   0.348  -1.978  0.00  0.00     0.123 A 
ATOM     58  H   LIG d   1       5.948   1.774  -3.114  0.00  0.00     0.065 H 
ATOM     59  C   LIG d   1       4.303  -0.933  -1.946  0.00  0.00    -0.026 A 
ATOM     60  F   LIG d   1       4.649   1.179  -0.928  0.00  0.00    -0.205 F 
ATOM     61  C   LIG d   1       4.486  -1.783  -3.020  0.00  0.00    -0.055 A 
ATOM     62  H   LIG d   1       3.749  -1.267  -1.081  0.00  0.00     0.065 H 
ATOM     63  H   LIG d   1       4.075  -2.781  -2.994  0.00  0.00     0.062 H 
ENDBRANCH  50  53
ENDBRANCH  48  50
ENDBRANCH  11  48
TORSDOF 7
ENDMDL
MODEL 4
REMARK VINA RESULT:      -7.1      1.756      2.309
REMARK  7 active torsions:
REMARK  status: ('A' for Active; 'I' for Inactive)
REMARK    1  A    between atoms: C_1  and  N_2 
REMARK       I    between atoms: N_5  and  C_8 
REMARK    2  A    between atoms: C_8  and  C_10 
REMARK    3  A    between atoms: C_10  and  C_11 
REMARK    4  A    between atoms: C_11  and  C_12 
REMARK    5  A    between atoms: C_22  and  N_25 
REMARK    6  A    between atoms: N_25  and  C_26 
REMARK    7  A    between atoms: C_26  and  C_27 
ROOT
ATOM      1  C   LIG d   1      10.239   4.949  -6.077  0.00  0.00    -0.004 C 
ATOM      2  H   LIG d   1      11.214   4.495  -6.256  0.00  0.00     0.087 H 
ATOM      3  C   LIG d   1       9.953   6.011  -7.149  0.00  0.00     0.055 C 
ATOM      4  N   LIG d   1       9.520   5.416  -8.407  0.00  0.00    -0.305 N 
ATOM      5  C   LIG d   1       9.207   4.115  -8.567  0.00  0.00     0.262 C 
ATOM      6  O   LIG d   1       8.754   3.715  -9.619  0.00  0.00    -0.270 OA
ATOM      7  C   LIG d   1       9.430   3.174  -7.429  0.00  0.00     0.059 C 
ATOM      8  H   LIG d   1      10.446   2.781  -7.455  0.00  0.00     0.095 H 
ATOM      9  N   LIG d   1       9.201   3.938  -6.175  0.00  0.00     0.248 N 
ATOM     10  C   LIG d   1       9.129   2.929  -5.122  0.00  0.00    -0.015 C 
ATOM     11  C   LIG d   1       8.531   1.667  -5.796  0.00  0.00     0.054 C 
ATOM     12  H   LIG d   1       9.202   0.817  -5.669  0.00  0.00     0.051 H 
ATOM     13  C   LIG d   1       8.415   2.027  -7.315  0.00  0.00     0.019 C 
ATOM     14  H   LIG d   1       9.172   6.678  -6.785  0.00  0.00     0.052 H 
ATOM     15  H   LIG d   1      10.860   6.590  -7.324  0.00  0.00     0.052 H 
ATOM     16  H   LIG d   1       9.450   5.997  -9.182  0.00  0.00     0.149 HD
ATOM     17  H   LIG d   1      10.125   2.715  -4.737  0.00  0.00     0.083 H 
ATOM     18  H   LIG d   1       8.478   3.270  -4.317  0.00  0.00     0.083 H 
ATOM     19  H   LIG d   1       7.410   2.371  -7.558  0.00  0.00     0.034 H 
ATOM     20  H   LIG d   1       8.702   1.188  -7.948  0.00  0.00     0.034 H 
ATOM     21  H   LIG d   1       8.303   4.395  -6.233  0.00  0.00     0.204 HD
ENDROOT
BRANCH   1  22
ATOM     22  C   LIG d   1      10.213   5.590  -4.688  0.00  0.00     0.000 C 
ATOM     23  H   LIG d   1      11.215   5.568  -4.259  0.00  0.00     0.033 H 
ATOM     24  H   LIG d   1       9.530   5.034  -4.045  0.00  0.00     0.033 H 
BRANCH  22  25
ATOM     25  C   LIG d   1       9.738   7.039  -4.805  0.00  0.00     0.029 C 
ATOM     26  H   LIG d   1       8.666   7.056  -4.999  0.00  0.00     0.036 H 
ATOM     27  H   LIG d   1      10.264   7.529  -5.625  0.00  0.00     0.036 H 
BRANCH  25  28
ATOM     28  C   LIG d   1      10.028   7.768  -3.518  0.00  0.00     0.216 C 
ATOM     29  N   LIG d   1      10.181   9.107  -3.521  0.00  0.00    -0.299 N 
ATOM     30  C   LIG d   1      10.465   9.838  -2.276  0.00  0.00     0.028 C 
ATOM     31  C   LIG d   1      10.069   9.877  -4.769  0.00  0.00     0.028 C 
ATOM     32  C   LIG d   1       9.464  10.990  -2.149  0.00  0.00     0.015 C 
ATOM     33  H   LIG d   1      11.480  10.235  -2.308  0.00  0.00     0.048 H 
ATOM     34  H   LIG d   1      10.358   9.165  -1.425  0.00  0.00     0.048 H 
ATOM     35  N   LIG d   1       9.504  11.805  -3.370  0.00  0.00    -0.302 N 
ATOM     36  H   LIG d   1       9.727  11.608  -1.291  0.00  0.00     0.044 H 
ATOM     37  H   LIG d   1       8.460  10.588  -2.014  0.00  0.00     0.044 H 
ATOM     38  C   LIG d   1       9.084  11.028  -4.545  0.00  0.00     0.015 C 
ATOM     39  H   LIG d   1       8.086  10.625  -4.376  0.00  0.00     0.044 H 
ATOM     40  H   LIG d   1       9.073  11.674  -5.423  0.00  0.00     0.044 H 
ATOM     41  H   LIG d   1      11.046  10.278  -5.040  0.00  0.00     0.048 H 
ATOM     42  H   LIG d   1       9.702   9.230  -5.566  0.00  0.00     0.048 H 
ATOM     43  O   LIG d   1      10.124   7.149  -2.479  0.00  0.00    -0.276 OA
BRANCH  35  44
ATOM     44  C   LIG d   1       8.687  13.017  -3.222  0.00  0.00    -0.013 C 
ATOM     45  H   LIG d   1       7.631  12.755  -3.295  0.00  0.00     0.039 H 
ATOM     46  H   LIG d   1       8.882  13.470  -2.250  0.00  0.00     0.039 H 
ATOM     47  H   LIG d   1       8.940  13.726  -4.011  0.00  0.00     0.039 H 
ENDBRANCH  35  44
ENDBRANCH  25  28
ENDBRANCH  22  25
ENDBRANCH   1  22
BRANCH  11  48
ATOM     48  N   LIG d   1       7.210   1.363  -5.231  0.00  0.00    -0.304 N 
ATOM     49  H   LIG d   1       6.519   2.022  -5.553  0.00  0.00     0.123 HD
BRANCH  48  50
ATOM     50  C   LIG d   1       7.260   1.328  -3.763  0.00  0.00     0.022 C 
ATOM     51  H   LIG d   1       8.262   1.045  -3.440  0.00  0.00     0.047 H 
ATOM     52  H   LIG d   1       7.016   2.314  -3.368  0.00  0.00     0.047 H 
BRANCH  50  53
ATOM     53  C   LIG d   1       6.264   0.320  -3.250  0.00  0.00    -0.033 A 
ATOM     54  C   LIG d   1       5.250   0.721  -2.401  0.00  0.00    -0.055 A 
ATOM     55  C   LIG d   1       4.334  -0.201  -1.933  0.00  0.00    -0.026 A 
ATOM     56  H   LIG d   1       5.172   1.758  -2.105  0.00  0.00     0.062 H 
ATOM     57  C   LIG d   1       4.438  -1.530  -2.307  0.00  0.00     0.123 A 
ATOM     58  H   LIG d   1       3.539   0.113  -1.273  0.00  0.00     0.065 H 
ATOM     59  C   LIG d   1       5.457  -1.931  -3.154  0.00  0.00    -0.026 A 
ATOM     60  F   LIG d   1       3.545  -2.434  -1.847  0.00  0.00    -0.205 F 
ATOM     61  C   LIG d   1       6.370  -1.007  -3.625  0.00  0.00    -0.055 A 
ATOM     62  H   LIG d   1       5.539  -2.968  -3.447  0.00  0.00     0.065 H 
ATOM     63  H   LIG d   1       7.164  -1.320  -4.286  0.00  0.00     0.062 H 
ENDBRANCH  50  53
ENDBRANCH  48  50
ENDBRANCH  11  48
TORSDOF 7
ENDMDL
MODEL 5
REMARK VINA RESULT:      -7.1      1.365      1.759
REMARK  7 active torsions:
REMARK  status: ('A' for Active; 'I' for Inactive)
REMARK    1  A    between atoms: C_1  and  N_2 
REMARK       I    between atoms: N_5  and  C_8 
REMARK    2  A    between atoms: C_8  and  C_10 
REMARK    3  A    between atoms: C_10  and  C_11 
REMARK    4  A    between atoms: C_11  and  C_12 
REMARK    5  A    between atoms: C_22  and  N_25 
REMARK    6  A    between atoms: N_25  and  C_26 
REMARK    7  A    between atoms: C_26  and  C_27 
ROOT
ATOM      1  C   LIG d   1      10.140   5.137  -5.151  0.00  0.00    -0.004 C 
ATOM      2  H   LIG d   1      11.170   4.780  -5.188  0.00  0.00     0.087 H 
ATOM      3  C   LIG d   1       9.936   6.252  -6.187  0.00  0.00     0.055 C 
ATOM      4  N   LIG d   1       9.775   5.723  -7.536  0.00  0.00    -0.305 N 
ATOM      5  C   LIG d   1       9.617   4.417  -7.829  0.00  0.00     0.262 C 
ATOM      6  O   LIG d   1       9.383   4.064  -8.965  0.00  0.00    -0.270 OA
ATOM      7  C   LIG d   1       9.736   3.412  -6.730  0.00  0.00     0.059 C 
ATOM      8  H   LIG d   1      10.775   3.107  -6.606  0.00  0.00     0.095 H 
ATOM      9  N   LIG d   1       9.232   4.055  -5.488  0.00  0.00     0.248 N 
ATOM     10  C   LIG d   1       9.083   2.965  -4.529  0.00  0.00    -0.015 C 
ATOM     11  C   LIG d   1       8.726   1.714  -5.372  0.00  0.00     0.054 C 
ATOM     12  H   LIG d   1       9.443   0.914  -5.186  0.00  0.00     0.051 H 
ATOM     13  C   LIG d   1       8.829   2.180  -6.864  0.00  0.00     0.019 C 
ATOM     14  H   LIG d   1       9.046   6.822  -5.922  0.00  0.00     0.052 H 
ATOM     15  H   LIG d   1      10.800   6.916  -6.168  0.00  0.00     0.052 H 
ATOM     16  H   LIG d   1       9.780   6.354  -8.273  0.00  0.00     0.149 HD
ATOM     17  H   LIG d   1      10.016   2.805  -3.993  0.00  0.00     0.083 H 
ATOM     18  H   LIG d   1       8.278   3.188  -3.827  0.00  0.00     0.083 H 
ATOM     19  H   LIG d   1       7.850   2.458  -7.253  0.00  0.00     0.034 H 
ATOM     20  H   LIG d   1       9.294   1.419  -7.489  0.00  0.00     0.034 H 
ATOM     21  H   LIG d   1       8.317   4.440  -5.672  0.00  0.00     0.204 HD
ENDROOT
BRANCH   1  22
ATOM     22  C   LIG d   1       9.824   5.665  -3.750  0.00  0.00     0.000 C 
ATOM     23  H   LIG d   1       9.681   4.825  -3.070  0.00  0.00     0.033 H 
ATOM     24  H   LIG d   1       8.914   6.263  -3.785  0.00  0.00     0.033 H 
BRANCH  22  25
ATOM     25  C   LIG d   1      10.986   6.529  -3.257  0.00  0.00     0.029 C 
ATOM     26  H   LIG d   1      11.673   6.720  -4.082  0.00  0.00     0.036 H 
ATOM     27  H   LIG d   1      11.513   6.009  -2.458  0.00  0.00     0.036 H 
BRANCH  25  28
ATOM     28  C   LIG d   1      10.451   7.839  -2.737  0.00  0.00     0.216 C 
ATOM     29  N   LIG d   1      10.394   8.064  -1.409  0.00  0.00    -0.299 N 
ATOM     30  C   LIG d   1       9.875   9.335  -0.879  0.00  0.00     0.028 C 
ATOM     31  C   LIG d   1      10.850   7.045  -0.451  0.00  0.00     0.028 C 
ATOM     32  C   LIG d   1      10.895   9.900   0.115  0.00  0.00     0.015 C 
ATOM     33  H   LIG d   1       8.926   9.160  -0.373  0.00  0.00     0.048 H 
ATOM     34  H   LIG d   1       9.732  10.041  -1.698  0.00  0.00     0.048 H 
ATOM     35  N   LIG d   1      11.199   8.883   1.129  0.00  0.00    -0.302 N 
ATOM     36  H   LIG d   1      10.479  10.784   0.599  0.00  0.00     0.044 H 
ATOM     37  H   LIG d   1      11.808  10.170  -0.415  0.00  0.00     0.044 H 
ATOM     38  C   LIG d   1      11.830   7.700   0.527  0.00  0.00     0.015 C 
ATOM     39  H   LIG d   1      12.731   8.002  -0.008  0.00  0.00     0.044 H 
ATOM     40  H   LIG d   1      12.092   6.989   1.311  0.00  0.00     0.044 H 
ATOM     41  H   LIG d   1       9.995   6.650   0.098  0.00  0.00     0.048 H 
ATOM     42  H   LIG d   1      11.349   6.238  -0.985  0.00  0.00     0.048 H 
ATOM     43  O   LIG d   1      10.071   8.690  -3.513  0.00  0.00    -0.276 OA
BRANCH  35  44
ATOM     44  C   LIG d   1      12.039   9.440   2.199  0.00  0.00    -0.013 C 
ATOM     45  H   LIG d   1      12.774  10.119   1.766  0.00  0.00     0.039 H 
ATOM     46  H   LIG d   1      11.413   9.984   2.905  0.00  0.00     0.039 H 
ATOM     47  H   LIG d   1      12.554   8.630   2.716  0.00  0.00     0.039 H 
ENDBRANCH  35  44
ENDBRANCH  25  28
ENDBRANCH  22  25
ENDBRANCH   1  22
BRANCH  11  48
ATOM     48  N   LIG d   1       7.364   1.259  -5.062  0.00  0.00    -0.304 N 
ATOM     49  H   LIG d   1       6.685   1.734  -5.638  0.00  0.00     0.123 HD
BRANCH  48  50
ATOM     50  C   LIG d   1       7.061   1.436  -3.636  0.00  0.00     0.022 C 
ATOM     51  H   LIG d   1       7.985   1.384  -3.060  0.00  0.00     0.047 H 
ATOM     52  H   LIG d   1       6.592   2.408  -3.483  0.00  0.00     0.047 H 
BRANCH  50  53
ATOM     53  C   LIG d   1       6.123   0.348  -3.182  0.00  0.00    -0.033 A 
ATOM     54  C   LIG d   1       6.270  -0.938  -3.668  0.00  0.00    -0.055 A 
ATOM     55  C   LIG d   1       5.414  -1.938  -3.249  0.00  0.00    -0.026 A 
ATOM     56  H   LIG d   1       7.058  -1.162  -4.374  0.00  0.00     0.062 H 
ATOM     57  C   LIG d   1       4.402  -1.649  -2.349  0.00  0.00     0.123 A 
ATOM     58  H   LIG d   1       5.531  -2.943  -3.625  0.00  0.00     0.065 H 
ATOM     59  C   LIG d   1       4.253  -0.360  -1.867  0.00  0.00    -0.026 A 
ATOM     60  F   LIG d   1       3.560  -2.625  -1.941  0.00  0.00    -0.205 F 
ATOM     61  C   LIG d   1       5.113   0.638  -2.283  0.00  0.00    -0.055 A 
ATOM     62  H   LIG d   1       3.464  -0.134  -1.165  0.00  0.00     0.065 H 
ATOM     63  H   LIG d   1       4.997   1.643  -1.907  0.00  0.00     0.062 H 
ENDBRANCH  50  53
ENDBRANCH  48  50
ENDBRANCH  11  48
TORSDOF 7
ENDMDL
MODEL 6
REMARK VINA RESULT:      -6.8      2.390      2.871
REMARK  7 active torsions:
REMARK  status: ('A' for Active; 'I' for Inactive)
REMARK    1  A    between atoms: C_1  and  N_2 
REMARK       I    between atoms: N_5  and  C_8 
REMARK    2  A    between atoms: C_8  and  C_10 
REMARK    3  A    between atoms: C_10  and  C_11 
REMARK    4  A    between atoms: C_11  and  C_12 
REMARK    5  A    between atoms: C_22  and  N_25 
REMARK    6  A    between atoms: N_25  and  C_26 
REMARK    7  A    between atoms: C_26  and  C_27 
ROOT
ATOM      1  C   LIG d   1       9.985   5.074  -5.680  0.00  0.00    -0.004 C 
ATOM      2  H   LIG d   1      11.024   5.209  -5.381  0.00  0.00     0.087 H 
ATOM      3  C   LIG d   1       9.794   5.540  -7.130  0.00  0.00     0.055 C 
ATOM      4  N   LIG d   1      10.268   4.550  -8.091  0.00  0.00    -0.305 N 
ATOM      5  C   LIG d   1      10.640   3.295  -7.770  0.00  0.00     0.262 C 
ATOM      6  O   LIG d   1      10.924   2.496  -8.637  0.00  0.00    -0.270 OA
ATOM      7  C   LIG d   1      10.701   2.906  -6.329  0.00  0.00     0.059 C 
ATOM      8  H   LIG d   1      11.678   3.145  -5.912  0.00  0.00     0.095 H 
ATOM      9  N   LIG d   1       9.635   3.665  -5.623  0.00  0.00     0.248 N 
ATOM     10  C   LIG d   1       9.529   3.040  -4.309  0.00  0.00    -0.015 C 
ATOM     11  C   LIG d   1       9.891   1.548  -4.526  0.00  0.00     0.054 C 
ATOM     12  H   LIG d   1      10.721   1.261  -3.879  0.00  0.00     0.051 H 
ATOM     13  C   LIG d   1      10.331   1.447  -6.026  0.00  0.00     0.019 C 
ATOM     14  H   LIG d   1       8.734   5.724  -7.306  0.00  0.00     0.052 H 
ATOM     15  H   LIG d   1      10.343   6.469  -7.279  0.00  0.00     0.052 H 
ATOM     16  H   LIG d   1      10.317   4.813  -9.024  0.00  0.00     0.149 HD
ATOM     17  H   LIG d   1      10.231   3.501  -3.615  0.00  0.00     0.083 H 
ATOM     18  H   LIG d   1       8.511   3.129  -3.929  0.00  0.00     0.083 H 
ATOM     19  H   LIG d   1       9.503   1.116  -6.653  0.00  0.00     0.034 H 
ATOM     20  H   LIG d   1      11.194   0.793  -6.146  0.00  0.00     0.034 H 
ATOM     21  H   LIG d   1       8.761   3.525  -6.109  0.00  0.00     0.204 HD
ENDROOT
BRANCH   1  22
ATOM     22  C   LIG d   1       9.070   5.875  -4.751  0.00  0.00     0.000 C 
ATOM     23  H   LIG d   1       8.617   5.204  -4.021  0.00  0.00     0.033 H 
ATOM     24  H   LIG d   1       8.287   6.355  -5.339  0.00  0.00     0.033 H 
BRANCH  22  25
ATOM     25  C   LIG d   1       9.890   6.942  -4.025  0.00  0.00     0.029 C 
ATOM     26  H   LIG d   1       9.396   7.909  -4.122  0.00  0.00     0.036 H 
ATOM     27  H   LIG d   1      10.886   6.997  -4.465  0.00  0.00     0.036 H 
BRANCH  25  28
ATOM     28  C   LIG d   1      10.004   6.581  -2.566  0.00  0.00     0.216 C 
ATOM     29  N   LIG d   1      11.102   5.942  -2.114  0.00  0.00    -0.299 N 
ATOM     30  C   LIG d   1      11.233   5.580  -0.694  0.00  0.00     0.028 C 
ATOM     31  C   LIG d   1      12.199   5.588  -3.027  0.00  0.00     0.028 C 
ATOM     32  C   LIG d   1      12.586   6.088  -0.186  0.00  0.00     0.015 C 
ATOM     33  H   LIG d   1      11.183   4.496  -0.587  0.00  0.00     0.048 H 
ATOM     34  H   LIG d   1      10.430   6.044  -0.122  0.00  0.00     0.048 H 
ATOM     35  N   LIG d   1      13.654   5.581  -1.057  0.00  0.00    -0.302 N 
ATOM     36  H   LIG d   1      12.749   5.734   0.832  0.00  0.00     0.044 H 
ATOM     37  H   LIG d   1      12.594   7.177  -0.197  0.00  0.00     0.044 H 
ATOM     38  C   LIG d   1      13.514   6.095  -2.427  0.00  0.00     0.015 C 
ATOM     39  H   LIG d   1      13.509   7.184  -2.407  0.00  0.00     0.044 H 
ATOM     40  H   LIG d   1      14.349   5.744  -3.034  0.00  0.00     0.044 H 
ATOM     41  H   LIG d   1      12.243   4.505  -3.143  0.00  0.00     0.048 H 
ATOM     42  H   LIG d   1      12.033   6.056  -3.996  0.00  0.00     0.048 H 
ATOM     43  O   LIG d   1       9.109   6.866  -1.799  0.00  0.00    -0.276 OA
BRANCH  35  44
ATOM     44  C   LIG d   1      14.979   5.900  -0.508  0.00  0.00    -0.013 C 
ATOM     45  H   LIG d   1      15.747   5.631  -1.234  0.00  0.00     0.039 H 
ATOM     46  H   LIG d   1      15.037   6.968  -0.297  0.00  0.00     0.039 H 
ATOM     47  H   LIG d   1      15.136   5.338   0.412  0.00  0.00     0.039 H 
ENDBRANCH  35  44
ENDBRANCH  25  28
ENDBRANCH  22  25
ENDBRANCH   1  22
BRANCH  11  48
ATOM     48  N   LIG d   1       8.724   0.696  -4.268  0.00  0.00    -0.304 N 
ATOM     49  H   LIG d   1       8.465   0.177  -5.094  0.00  0.00     0.123 HD
BRANCH  48  50
ATOM     50  C   LIG d   1       7.594   1.488  -3.767  0.00  0.00     0.022 C 
ATOM     51  H   LIG d   1       7.932   2.130  -2.954  0.00  0.00     0.047 H 
ATOM     52  H   LIG d   1       7.196   2.103  -4.574  0.00  0.00     0.047 H 
BRANCH  50  53
ATOM     53  C   LIG d   1       6.516   0.563  -3.261  0.00  0.00    -0.033 A 
ATOM     54  C   LIG d   1       6.621  -0.799  -3.469  0.00  0.00    -0.055 A 
ATOM     55  C   LIG d   1       5.636  -1.648  -3.002  0.00  0.00    -0.026 A 
ATOM     56  H   LIG d   1       7.475  -1.201  -3.996  0.00  0.00     0.062 H 
ATOM     57  C   LIG d   1       4.539  -1.133  -2.332  0.00  0.00     0.123 A 
ATOM     58  H   LIG d   1       5.719  -2.713  -3.162  0.00  0.00     0.065 H 
ATOM     59  C   LIG d   1       4.434   0.233  -2.128  0.00  0.00    -0.026 A 
ATOM     60  F   LIG d   1       3.573  -1.961  -1.879  0.00  0.00    -0.205 F 
ATOM     61  C   LIG d   1       5.422   1.080  -2.592  0.00  0.00    -0.055 A 
ATOM     62  H   LIG d   1       3.579   0.636  -1.606  0.00  0.00     0.065 H 
ATOM     63  H   LIG d   1       5.340   2.145  -2.432  0.00  0.00     0.062 H 
ENDBRANCH  50  53
ENDBRANCH  48  50
ENDBRANCH  11  48
TORSDOF 7
ENDMDL
MODEL 7
REMARK VINA RESULT:      -6.7      8.367     13.949
REMARK  7 active torsions:
REMARK  status: ('A' for Active; 'I' for Inactive)
REMARK    1  A    between atoms: C_1  and  N_2 
REMARK       I    between atoms: N_5  and  C_8 
REMARK    2  A    between atoms: C_8  and  C_10 
REMARK    3  A    between atoms: C_10  and  C_11 
REMARK    4  A    between atoms: C_11  and  C_12 
REMARK    5  A    between atoms: C_22  and  N_25 
REMARK    6  A    between atoms: N_25  and  C_26 
REMARK    7  A    between atoms: C_26  and  C_27 
ROOT
ATOM      1  C   LIG d   1       3.025  -1.676 -10.492  0.00  0.00    -0.004 C 
ATOM      2  H   LIG d   1       3.534  -0.875 -11.028  0.00  0.00     0.087 H 
ATOM      3  C   LIG d   1       3.750  -3.008 -10.732  0.00  0.00     0.055 C 
ATOM      4  N   LIG d   1       4.951  -3.133  -9.915  0.00  0.00    -0.305 N 
ATOM      5  C   LIG d   1       5.287  -2.288  -8.921  0.00  0.00     0.262 C 
ATOM      6  O   LIG d   1       6.247  -2.517  -8.216  0.00  0.00    -0.270 OA
ATOM      7  C   LIG d   1       4.458  -1.065  -8.701  0.00  0.00     0.059 C 
ATOM      8  H   LIG d   1       4.821  -0.245  -9.321  0.00  0.00     0.095 H 
ATOM      9  N   LIG d   1       3.058  -1.411  -9.064  0.00  0.00     0.248 N 
ATOM     10  C   LIG d   1       2.250  -0.308  -8.555  0.00  0.00    -0.015 C 
ATOM     11  C   LIG d   1       2.991   0.205  -7.293  0.00  0.00     0.054 C 
ATOM     12  H   LIG d   1       3.214   1.267  -7.390  0.00  0.00     0.051 H 
ATOM     13  C   LIG d   1       4.325  -0.614  -7.240  0.00  0.00     0.019 C 
ATOM     14  H   LIG d   1       3.072  -3.827 -10.493  0.00  0.00     0.052 H 
ATOM     15  H   LIG d   1       4.028  -3.075 -11.784  0.00  0.00     0.052 H 
ATOM     16  H   LIG d   1       5.548  -3.876 -10.099  0.00  0.00     0.149 HD
ATOM     17  H   LIG d   1       2.181   0.484  -9.300  0.00  0.00     0.083 H 
ATOM     18  H   LIG d   1       1.253  -0.662  -8.289  0.00  0.00     0.083 H 
ATOM     19  H   LIG d   1       4.230  -1.471  -6.574  0.00  0.00     0.034 H 
ATOM     20  H   LIG d   1       5.167   0.014  -6.947  0.00  0.00     0.034 H 
ATOM     21  H   LIG d   1       2.793  -2.249  -8.569  0.00  0.00     0.204 HD
ENDROOT
BRANCH   1  22
ATOM     22  C   LIG d   1       1.575  -1.779 -10.968  0.00  0.00     0.000 C 
ATOM     23  H   LIG d   1       1.539  -1.660 -12.051  0.00  0.00     0.033 H 
ATOM     24  H   LIG d   1       0.981  -0.995 -10.497  0.00  0.00     0.033 H 
BRANCH  22  25
ATOM     25  C   LIG d   1       1.009  -3.147 -10.585  0.00  0.00     0.029 C 
ATOM     26  H   LIG d   1       0.355  -3.042  -9.719  0.00  0.00     0.036 H 
ATOM     27  H   LIG d   1       1.828  -3.825 -10.342  0.00  0.00     0.036 H 
BRANCH  25  28
ATOM     28  C   LIG d   1       0.222  -3.707 -11.743  0.00  0.00     0.216 C 
ATOM     29  N   LIG d   1      -0.512  -4.827 -11.581  0.00  0.00    -0.299 N 
ATOM     30  C   LIG d   1      -1.287  -5.390 -12.697  0.00  0.00     0.028 C 
ATOM     31  C   LIG d   1      -0.559  -5.517 -10.283  0.00  0.00     0.028 C 
ATOM     32  C   LIG d   1      -2.725  -5.620 -12.224  0.00  0.00     0.015 C 
ATOM     33  H   LIG d   1      -0.846  -6.338 -13.007  0.00  0.00     0.048 H 
ATOM     34  H   LIG d   1      -1.284  -4.691 -13.534  0.00  0.00     0.048 H 
ATOM     35  N   LIG d   1      -2.711  -6.437 -11.003  0.00  0.00    -0.302 N 
ATOM     36  H   LIG d   1      -3.286  -6.138 -13.002  0.00  0.00     0.044 H 
ATOM     37  H   LIG d   1      -3.197  -4.660 -12.013  0.00  0.00     0.044 H 
ATOM     38  C   LIG d   1      -2.026  -5.742  -9.904  0.00  0.00     0.015 C 
ATOM     39  H   LIG d   1      -2.508  -4.781  -9.726  0.00  0.00     0.044 H 
ATOM     40  H   LIG d   1      -2.079  -6.350  -9.001  0.00  0.00     0.044 H 
ATOM     41  H   LIG d   1      -0.049  -6.477 -10.360  0.00  0.00     0.048 H 
ATOM     42  H   LIG d   1      -0.075  -4.902  -9.524  0.00  0.00     0.048 H 
ATOM     43  O   LIG d   1       0.249  -3.151 -12.820  0.00  0.00    -0.276 OA
BRANCH  35  44
ATOM     44  C   LIG d   1      -4.073  -6.826 -10.613  0.00  0.00    -0.013 C 
ATOM     45  H   LIG d   1      -4.760  -6.612 -11.432  0.00  0.00     0.039 H 
ATOM     46  H   LIG d   1      -4.096  -7.892 -10.388  0.00  0.00     0.039 H 
ATOM     47  H   LIG d   1      -4.373  -6.261  -9.730  0.00  0.00     0.039 H 
ENDBRANCH  35  44
ENDBRANCH  25  28
ENDBRANCH  22  25
ENDBRANCH   1  22
BRANCH  11  48
ATOM     48  N   LIG d   1       2.183  -0.039  -6.091  0.00  0.00    -0.304 N 
ATOM     49  H   LIG d   1       1.198  -0.043  -6.312  0.00  0.00     0.123 HD
BRANCH  48  50
ATOM     50  C   LIG d   1       2.484   0.946  -5.045  0.00  0.00     0.022 C 
ATOM     51  H   LIG d   1       3.156   1.706  -5.444  0.00  0.00     0.047 H 
ATOM     52  H   LIG d   1       1.559   1.418  -4.713  0.00  0.00     0.047 H 
BRANCH  50  53
ATOM     53  C   LIG d   1       3.143   0.256  -3.878  0.00  0.00    -0.033 A 
ATOM     54  C   LIG d   1       3.849   0.994  -2.948  0.00  0.00    -0.055 A 
ATOM     55  C   LIG d   1       4.450   0.364  -1.876  0.00  0.00    -0.026 A 
ATOM     56  H   LIG d   1       3.929   2.067  -3.058  0.00  0.00     0.062 H 
ATOM     57  C   LIG d   1       4.353  -1.011  -1.739  0.00  0.00     0.123 A 
ATOM     58  H   LIG d   1       4.999   0.940  -1.146  0.00  0.00     0.065 H 
ATOM     59  C   LIG d   1       3.649  -1.750  -2.674  0.00  0.00    -0.026 A 
ATOM     60  F   LIG d   1       4.944  -1.630  -0.693  0.00  0.00    -0.205 F 
ATOM     61  C   LIG d   1       3.044  -1.117  -3.743  0.00  0.00    -0.055 A 
ATOM     62  H   LIG d   1       3.572  -2.822  -2.569  0.00  0.00     0.065 H 
ATOM     63  H   LIG d   1       2.495  -1.693  -4.473  0.00  0.00     0.062 H 
ENDBRANCH  50  53
ENDBRANCH  48  50
ENDBRANCH  11  48
TORSDOF 7
ENDMDL
MODEL 8
REMARK VINA RESULT:      -6.5      1.925      2.379
REMARK  7 active torsions:
REMARK  status: ('A' for Active; 'I' for Inactive)
REMARK    1  A    between atoms: C_1  and  N_2 
REMARK       I    between atoms: N_5  and  C_8 
REMARK    2  A    between atoms: C_8  and  C_10 
REMARK    3  A    between atoms: C_10  and  C_11 
REMARK    4  A    between atoms: C_11  and  C_12 
REMARK    5  A    between atoms: C_22  and  N_25 
REMARK    6  A    between atoms: N_25  and  C_26 
REMARK    7  A    between atoms: C_26  and  C_27 
ROOT
ATOM      1  C   LIG d   1      10.898   5.410  -3.905  0.00  0.00    -0.004 C 
ATOM      2  H   LIG d   1      11.470   5.412  -2.977  0.00  0.00     0.087 H 
ATOM      3  C   LIG d   1      11.774   5.918  -5.059  0.00  0.00     0.055 C 
ATOM      4  N   LIG d   1      12.690   4.892  -5.544  0.00  0.00    -0.305 N 
ATOM      5  C   LIG d   1      12.646   3.596  -5.176  0.00  0.00     0.262 C 
ATOM      6  O   LIG d   1      13.374   2.781  -5.701  0.00  0.00    -0.270 OA
ATOM      7  C   LIG d   1      11.687   3.181  -4.109  0.00  0.00     0.059 C 
ATOM      8  H   LIG d   1      12.142   3.292  -3.125  0.00  0.00     0.095 H 
ATOM      9  N   LIG d   1      10.490   4.054  -4.229  0.00  0.00     0.248 N 
ATOM     10  C   LIG d   1       9.475   3.428  -3.388  0.00  0.00    -0.015 C 
ATOM     11  C   LIG d   1       9.768   1.906  -3.446  0.00  0.00     0.054 C 
ATOM     12  H   LIG d   1       9.916   1.510  -2.442  0.00  0.00     0.051 H 
ATOM     13  C   LIG d   1      11.094   1.773  -4.269  0.00  0.00     0.019 C 
ATOM     14  H   LIG d   1      11.130   6.233  -5.880  0.00  0.00     0.052 H 
ATOM     15  H   LIG d   1      12.353   6.775  -4.714  0.00  0.00     0.052 H 
ATOM     16  H   LIG d   1      13.377   5.160  -6.175  0.00  0.00     0.149 HD
ATOM     17  H   LIG d   1       9.559   3.789  -2.364  0.00  0.00     0.083 H 
ATOM     18  H   LIG d   1       8.479   3.635  -3.780  0.00  0.00     0.083 H 
ATOM     19  H   LIG d   1      10.882   1.556  -5.316  0.00  0.00     0.034 H 
ATOM     20  H   LIG d   1      11.755   1.020  -3.842  0.00  0.00     0.034 H 
ATOM     21  H   LIG d   1      10.165   4.030  -5.184  0.00  0.00     0.204 HD
ENDROOT
BRANCH   1  22
ATOM     22  C   LIG d   1       9.665   6.304  -3.756  0.00  0.00     0.000 C 
ATOM     23  H   LIG d   1       8.780   5.681  -3.628  0.00  0.00     0.033 H 
ATOM     24  H   LIG d   1       9.551   6.917  -4.650  0.00  0.00     0.033 H 
BRANCH  22  25
ATOM     25  C   LIG d   1       9.836   7.208  -2.534  0.00  0.00     0.029 C 
ATOM     26  H   LIG d   1      10.732   6.914  -1.986  0.00  0.00     0.036 H 
ATOM     27  H   LIG d   1       8.965   7.111  -1.885  0.00  0.00     0.036 H 
BRANCH  25  28
ATOM     28  C   LIG d   1       9.970   8.640  -2.984  0.00  0.00     0.216 C 
ATOM     29  N   LIG d   1       9.740   9.645  -2.115  0.00  0.00    -0.299 N 
ATOM     30  C   LIG d   1       9.865  11.049  -2.533  0.00  0.00     0.028 C 
ATOM     31  C   LIG d   1       9.357   9.365  -0.723  0.00  0.00     0.028 C 
ATOM     32  C   LIG d   1      10.770  11.776  -1.534  0.00  0.00     0.015 C 
ATOM     33  H   LIG d   1       8.880  11.517  -2.544  0.00  0.00     0.048 H 
ATOM     34  H   LIG d   1      10.306  11.097  -3.529  0.00  0.00     0.048 H 
ATOM     35  N   LIG d   1      10.252  11.577  -0.175  0.00  0.00    -0.302 N 
ATOM     36  H   LIG d   1      10.786  12.841  -1.765  0.00  0.00     0.044 H 
ATOM     37  H   LIG d   1      11.781  11.375  -1.600  0.00  0.00     0.044 H 
ATOM     38  C   LIG d   1      10.282  10.158   0.206  0.00  0.00     0.015 C 
ATOM     39  H   LIG d   1      11.300   9.779   0.115  0.00  0.00     0.044 H 
ATOM     40  H   LIG d   1       9.943  10.050   1.236  0.00  0.00     0.044 H 
ATOM     41  H   LIG d   1       8.324   9.671  -0.559  0.00  0.00     0.048 H 
ATOM     42  H   LIG d   1       9.462   8.299  -0.522  0.00  0.00     0.048 H 
ATOM     43  O   LIG d   1      10.285   8.889  -4.129  0.00  0.00    -0.276 OA
BRANCH  35  44
ATOM     44  C   LIG d   1      10.989  12.398   0.796  0.00  0.00    -0.013 C 
ATOM     45  H   LIG d   1      11.000  11.894   1.763  0.00  0.00     0.039 H 
ATOM     46  H   LIG d   1      12.012  12.540   0.449  0.00  0.00     0.039 H 
ATOM     47  H   LIG d   1      10.501  13.367   0.897  0.00  0.00     0.039 H 
ENDBRANCH  35  44
ENDBRANCH  25  28
ENDBRANCH  22  25
ENDBRANCH   1  22
BRANCH  11  48
ATOM     48  N   LIG d   1       8.668   1.199  -4.115  0.00  0.00    -0.304 N 
ATOM     49  H   LIG d   1       8.809   1.174  -5.114  0.00  0.00     0.123 HD
BRANCH  48  50
ATOM     50  C   LIG d   1       7.372   1.805  -3.783  0.00  0.00     0.022 C 
ATOM     51  H   LIG d   1       7.516   2.578  -3.027  0.00  0.00     0.047 H 
ATOM     52  H   LIG d   1       6.939   2.250  -4.678  0.00  0.00     0.047 H 
BRANCH  50  53
ATOM     53  C   LIG d   1       6.444   0.746  -3.247  0.00  0.00    -0.033 A 
ATOM     54  C   LIG d   1       5.346   1.108  -2.490  0.00  0.00    -0.055 A 
ATOM     55  C   LIG d   1       4.491   0.138  -2.002  0.00  0.00    -0.026 A 
ATOM     56  H   LIG d   1       5.154   2.151  -2.282  0.00  0.00     0.062 H 
ATOM     57  C   LIG d   1       4.741  -1.199  -2.264  0.00  0.00     0.123 A 
ATOM     58  H   LIG d   1       3.631   0.421  -1.414  0.00  0.00     0.065 H 
ATOM     59  C   LIG d   1       5.844  -1.560  -3.019  0.00  0.00    -0.026 A 
ATOM     60  F   LIG d   1       3.909  -2.149  -1.784  0.00  0.00    -0.205 F 
ATOM     61  C   LIG d   1       6.695  -0.588  -3.510  0.00  0.00    -0.055 A 
ATOM     62  H   LIG d   1       6.040  -2.602  -3.224  0.00  0.00     0.065 H 
ATOM     63  H   LIG d   1       7.554  -0.871  -4.099  0.00  0.00     0.062 H 
ENDBRANCH  50  53
ENDBRANCH  48  50
ENDBRANCH  11  48
TORSDOF 7
ENDMDL
MODEL 9
REMARK VINA RESULT:      -6.4      2.272      3.466
REMARK  7 active torsions:
REMARK  status: ('A' for Active; 'I' for Inactive)
REMARK    1  A    between atoms: C_1  and  N_2 
REMARK       I    between atoms: N_5  and  C_8 
REMARK    2  A    between atoms: C_8  and  C_10 
REMARK    3  A    between atoms: C_10  and  C_11 
REMARK    4  A    between atoms: C_11  and  C_12 
REMARK    5  A    between atoms: C_22  and  N_25 
REMARK    6  A    between atoms: N_25  and  C_26 
REMARK    7  A    between atoms: C_26  and  C_27 
ROOT
ATOM      1  C   LIG d   1       9.211   2.442  -5.904  0.00  0.00    -0.004 C 
ATOM      2  H   LIG d   1      10.006   1.729  -6.124  0.00  0.00     0.087 H 
ATOM      3  C   LIG d   1       9.609   3.838  -6.405  0.00  0.00     0.055 C 
ATOM      4  N   LIG d   1       9.424   3.976  -7.844  0.00  0.00    -0.305 N 
ATOM      5  C   LIG d   1       8.794   3.073  -8.622  0.00  0.00     0.262 C 
ATOM      6  O   LIG d   1       8.587   3.308  -9.794  0.00  0.00    -0.270 OA
ATOM      7  C   LIG d   1       8.356   1.780  -8.017  0.00  0.00     0.059 C 
ATOM      8  H   LIG d   1       9.159   1.045  -8.070  0.00  0.00     0.095 H 
ATOM      9  N   LIG d   1       7.997   2.056  -6.601  0.00  0.00     0.248 N 
ATOM     10  C   LIG d   1       7.299   0.858  -6.145  0.00  0.00    -0.015 C 
ATOM     11  C   LIG d   1       6.582   0.291  -7.398  0.00  0.00     0.054 C 
ATOM     12  H   LIG d   1       6.887  -0.741  -7.574  0.00  0.00     0.051 H 
ATOM     13  C   LIG d   1       7.056   1.194  -8.586  0.00  0.00     0.019 C 
ATOM     14  H   LIG d   1       8.997   4.583  -5.896  0.00  0.00     0.052 H 
ATOM     15  H   LIG d   1      10.656   4.016  -6.163  0.00  0.00     0.052 H 
ATOM     16  H   LIG d   1       9.778   4.773  -8.271  0.00  0.00     0.149 HD
ATOM     17  H   LIG d   1       8.012   0.131  -5.758  0.00  0.00     0.083 H 
ATOM     18  H   LIG d   1       6.569   1.115  -5.378  0.00  0.00     0.083 H 
ATOM     19  H   LIG d   1       6.331   1.981  -8.790  0.00  0.00     0.034 H 
ATOM     20  H   LIG d   1       7.253   0.605  -9.482  0.00  0.00     0.034 H 
ATOM     21  H   LIG d   1       7.346   2.827  -6.576  0.00  0.00     0.204 HD
ENDROOT
BRANCH   1  22
ATOM     22  C   LIG d   1       8.955   2.483  -4.396  0.00  0.00     0.000 C 
ATOM     23  H   LIG d   1       9.608   1.767  -3.898  0.00  0.00     0.033 H 
ATOM     24  H   LIG d   1       7.915   2.225  -4.197  0.00  0.00     0.033 H 
BRANCH  22  25
ATOM     25  C   LIG d   1       9.242   3.890  -3.869  0.00  0.00     0.029 C 
ATOM     26  H   LIG d   1       8.344   4.293  -3.402  0.00  0.00     0.036 H 
ATOM     27  H   LIG d   1       9.543   4.533  -4.695  0.00  0.00     0.036 H 
BRANCH  25  28
ATOM     28  C   LIG d   1      10.353   3.827  -2.851  0.00  0.00     0.216 C 
ATOM     29  N   LIG d   1      10.850   4.965  -2.326  0.00  0.00    -0.299 N 
ATOM     30  C   LIG d   1      11.934   4.927  -1.332  0.00  0.00     0.028 C 
ATOM     31  C   LIG d   1      10.324   6.277  -2.731  0.00  0.00     0.028 C 
ATOM     32  C   LIG d   1      11.517   5.774  -0.125  0.00  0.00     0.015 C 
ATOM     33  H   LIG d   1      12.846   5.334  -1.769  0.00  0.00     0.048 H 
ATOM     34  H   LIG d   1      12.104   3.898  -1.015  0.00  0.00     0.048 H 
ATOM     35  N   LIG d   1      11.140   7.118  -0.582  0.00  0.00    -0.302 N 
ATOM     36  H   LIG d   1      12.351   5.848   0.573  0.00  0.00     0.044 H 
ATOM     37  H   LIG d   1      10.667   5.307   0.371  0.00  0.00     0.044 H 
ATOM     38  C   LIG d   1       9.970   7.071  -1.470  0.00  0.00     0.015 C 
ATOM     39  H   LIG d   1       9.142   6.586  -0.955  0.00  0.00     0.044 H 
ATOM     40  H   LIG d   1       9.684   8.086  -1.747  0.00  0.00     0.044 H 
ATOM     41  H   LIG d   1      11.081   6.814  -3.302  0.00  0.00     0.048 H 
ATOM     42  H   LIG d   1       9.431   6.140  -3.341  0.00  0.00     0.048 H 
ATOM     43  O   LIG d   1      10.799   2.754  -2.505  0.00  0.00    -0.276 OA
BRANCH  35  44
ATOM     44  C   LIG d   1      10.900   8.013   0.558  0.00  0.00    -0.013 C 
ATOM     45  H   LIG d   1      11.139   7.493   1.486  0.00  0.00     0.039 H 
ATOM     46  H   LIG d   1      11.530   8.897   0.465  0.00  0.00     0.039 H 
ATOM     47  H   LIG d   1       9.852   8.314   0.570  0.00  0.00     0.039 H 
ENDBRANCH  35  44
ENDBRANCH  25  28
ENDBRANCH  22  25
ENDBRANCH   1  22
BRANCH  11  48
ATOM     48  N   LIG d   1       5.125   0.371  -7.233  0.00  0.00    -0.304 N 
ATOM     49  H   LIG d   1       4.882   0.923  -6.424  0.00  0.00     0.123 HD
BRANCH  48  50
ATOM     50  C   LIG d   1       4.529  -0.969  -7.153  0.00  0.00     0.022 C 
ATOM     51  H   LIG d   1       3.569  -0.971  -7.668  0.00  0.00     0.047 H 
ATOM     52  H   LIG d   1       5.196  -1.691  -7.625  0.00  0.00     0.047 H 
BRANCH  50  53
ATOM     53  C   LIG d   1       4.324  -1.343  -5.707  0.00  0.00    -0.033 A 
ATOM     54  C   LIG d   1       3.664  -0.477  -4.857  0.00  0.00    -0.055 A 
ATOM     55  C   LIG d   1       3.471  -0.821  -3.533  0.00  0.00    -0.026 A 
ATOM     56  H   LIG d   1       3.295   0.469  -5.228  0.00  0.00     0.062 H 
ATOM     57  C   LIG d   1       3.949  -2.030  -3.055  0.00  0.00     0.123 A 
ATOM     58  H   LIG d   1       2.952  -0.146  -2.868  0.00  0.00     0.065 H 
ATOM     59  C   LIG d   1       4.614  -2.895  -3.908  0.00  0.00    -0.026 A 
ATOM     60  F   LIG d   1       3.765  -2.366  -1.759  0.00  0.00    -0.205 F 
ATOM     61  C   LIG d   1       4.802  -2.551  -5.233  0.00  0.00    -0.055 A 
ATOM     62  H   LIG d   1       4.987  -3.838  -3.537  0.00  0.00     0.065 H 
ATOM     63  H   LIG d   1       5.320  -3.226  -5.898  0.00  0.00     0.062 H 
ENDBRANCH  50  53
ENDBRANCH  48  50
ENDBRANCH  11  48
TORSDOF 7
ENDMDL
