MODEL 1
REMARK VINA RESULT:      -6.2      0.000      0.000
REMARK  10 active torsions:
REMARK  status: ('A' for Active; 'I' for Inactive)
REMARK    1  A    between atoms: C_1  and  C_2 
REMARK    2  A    between atoms: C_2  and  O_3 
REMARK    3  A    between atoms: O_3  and  C_4 
REMARK    4  A    between atoms: C_12  and  C_13 
REMARK    5  A    between atoms: C_18  and  O_19 
REMARK    6  A    between atoms: O_19  and  C_20 
REMARK    7  A    between atoms: C_20  and  C_22 
REMARK    8  A    between atoms: C_20  and  C_23 
REMARK    9  A    between atoms: C_23  and  O_25 
REMARK   10  A    between atoms: O_25  and  C_26 
ROOT
ATOM      1  C   LIG d   1       5.398  -1.080  -3.855  0.00  0.00     0.020 A 
ATOM      2  C   LIG d   1       5.161  -1.238  -2.483  0.00  0.00    -0.051 A 
ATOM      3  C   LIG d   1       4.093  -0.597  -1.893  0.00  0.00    -0.061 A 
ATOM      4  C   LIG d   1       3.252   0.203  -2.650  0.00  0.00    -0.058 A 
ATOM      5  C   LIG d   1       3.473   0.368  -4.005  0.00  0.00    -0.019 A 
ATOM      6  C   LIG d   1       4.542  -0.268  -4.617  0.00  0.00     0.129 A 
ATOM      7  H   LIG d   1       5.813  -1.860  -1.889  0.00  0.00     0.062 H 
ATOM      8  H   LIG d   1       3.911  -0.719  -0.836  0.00  0.00     0.062 H 
ATOM      9  H   LIG d   1       2.419   0.701  -2.179  0.00  0.00     0.062 H 
ATOM     10  H   LIG d   1       2.810   0.990  -4.587  0.00  0.00     0.065 H 
ENDROOT
BRANCH   1  11
ATOM     11  C   LIG d   1       6.532  -1.760  -4.491  0.00  0.00    -0.005 C 
ATOM     12  C   LIG d   1       6.411  -3.053  -4.890  0.00  0.00     0.176 A 
ATOM     13  O   LIG d   1       5.277  -3.794  -4.871  0.00  0.00    -0.451 OA
ATOM     14  C   LIG d   1       7.485  -3.901  -5.425  0.00  0.00     0.232 A 
ATOM     15  C   LIG d   1       5.487  -5.045  -5.333  0.00  0.00     0.143 A 
ATOM     16  C   LIG d   1       6.835  -5.196  -5.695  0.00  0.00     0.068 A 
ATOM     17  C   LIG d   1       4.625  -6.123  -5.490  0.00  0.00     0.023 A 
ATOM     18  C   LIG d   1       7.300  -6.410  -6.204  0.00  0.00    -0.044 A 
ATOM     19  C   LIG d   1       6.440  -7.460  -6.351  0.00  0.00    -0.019 A 
ATOM     20  H   LIG d   1       8.339  -6.517  -6.482  0.00  0.00     0.063 H 
ATOM     21  C   LIG d   1       5.100  -7.322  -5.995  0.00  0.00     0.124 A 
ATOM     22  H   LIG d   1       6.798  -8.399  -6.745  0.00  0.00     0.065 H 
ATOM     23  H   LIG d   1       3.585  -6.028  -5.216  0.00  0.00     0.069 H 
ATOM     24  O   LIG d   1       8.654  -3.600  -5.604  0.00  0.00    -0.283 OA
ATOM     25  H   LIG d   1       7.462  -1.234  -4.641  0.00  0.00     0.066 H 
BRANCH  21  26
ATOM     26  O   LIG d   1       4.253  -8.372  -6.146  0.00  0.00    -0.492 OA
BRANCH  26  27
ATOM     27  C   LIG d   1       4.672  -9.627  -5.606  0.00  0.00     0.087 C 
ATOM     28  H   LIG d   1       4.120 -10.432  -6.090  0.00  0.00     0.069 H 
ATOM     29  H   LIG d   1       5.740  -9.760  -5.782  0.00  0.00     0.069 H 
BRANCH  27  30
ATOM     30  C   LIG d   1       4.397  -9.652  -4.101  0.00  0.00    -0.031 C 
ATOM     31  H   LIG d   1       3.563 -10.323  -3.896  0.00  0.00     0.026 H 
ATOM     32  H   LIG d   1       5.284 -10.003  -3.575  0.00  0.00     0.026 H 
ATOM     33  H   LIG d   1       4.147  -8.647  -3.761  0.00  0.00     0.026 H 
ENDBRANCH  27  30
ENDBRANCH  26  27
ENDBRANCH  21  26
ENDBRANCH   1  11
BRANCH   6  34
ATOM     34  O   LIG d   1       4.760  -0.107  -5.947  0.00  0.00    -0.477 OA
BRANCH  34  35
ATOM     35  C   LIG d   1       3.936  -0.865  -6.836  0.00  0.00     0.193 C 
ATOM     36  H   LIG d   1       3.340  -1.574  -6.262  0.00  0.00     0.085 H 
BRANCH  35  37
ATOM     37  C   LIG d   1       4.820  -1.624  -7.827  0.00  0.00    -0.017 C 
ATOM     38  H   LIG d   1       5.107  -0.959  -8.642  0.00  0.00     0.027 H 
ATOM     39  H   LIG d   1       5.714  -1.982  -7.317  0.00  0.00     0.027 H 
ATOM     40  H   LIG d   1       4.267  -2.473  -8.230  0.00  0.00     0.027 H 
ENDBRANCH  35  37
BRANCH  35  41
ATOM     41  C   LIG d   1       3.021   0.066  -7.589  0.00  0.00     0.348 C 
ATOM     42  O   LIG d   1       2.150  -0.385  -8.295  0.00  0.00    -0.247 OA
BRANCH  41  43
ATOM     43  O   LIG d   1       3.172   1.394  -7.473  0.00  0.00    -0.465 OA
BRANCH  43  44
ATOM     44  C   LIG d   1       3.135   2.171  -8.699  0.00  0.00     0.082 C 
ATOM     45  H   LIG d   1       2.340   2.915  -8.635  0.00  0.00     0.066 H 
ATOM     46  H   LIG d   1       4.092   2.673  -8.839  0.00  0.00     0.066 H 
ATOM     47  H   LIG d   1       2.945   1.509  -9.544  0.00  0.00     0.066 H 
ENDBRANCH  43  44
ENDBRANCH  41  43
ENDBRANCH  35  41
ENDBRANCH  34  35
ENDBRANCH   6  34
TORSDOF 10
ENDMDL
MODEL 2
REMARK VINA RESULT:      -6.0      3.947      6.966
REMARK  10 active torsions:
REMARK  status: ('A' for Active; 'I' for Inactive)
REMARK    1  A    between atoms: C_1  and  C_2 
REMARK    2  A    between atoms: C_2  and  O_3 
REMARK    3  A    between atoms: O_3  and  C_4 
REMARK    4  A    between atoms: C_12  and  C_13 
REMARK    5  A    between atoms: C_18  and  O_19 
REMARK    6  A    between atoms: O_19  and  C_20 
REMARK    7  A    between atoms: C_20  and  C_22 
REMARK    8  A    between atoms: C_20  and  C_23 
REMARK    9  A    between atoms: C_23  and  O_25 
REMARK   10  A    between atoms: O_25  and  C_26 
ROOT
ATOM      1  C   LIG d   1       5.061  -1.097  -4.457  0.00  0.00     0.020 A 
ATOM      2  C   LIG d   1       4.896  -1.660  -3.184  0.00  0.00    -0.051 A 
ATOM      3  C   LIG d   1       3.724  -1.455  -2.490  0.00  0.00    -0.061 A 
ATOM      4  C   LIG d   1       2.707  -0.694  -3.044  0.00  0.00    -0.058 A 
ATOM      5  C   LIG d   1       2.855  -0.132  -4.299  0.00  0.00    -0.019 A 
ATOM      6  C   LIG d   1       4.026  -0.327  -5.013  0.00  0.00     0.129 A 
ATOM      7  H   LIG d   1       5.686  -2.254  -2.749  0.00  0.00     0.062 H 
ATOM      8  H   LIG d   1       3.597  -1.889  -1.509  0.00  0.00     0.062 H 
ATOM      9  H   LIG d   1       1.792  -0.539  -2.493  0.00  0.00     0.062 H 
ATOM     10  H   LIG d   1       2.055   0.455  -4.724  0.00  0.00     0.065 H 
ENDROOT
BRANCH   1  11
ATOM     11  C   LIG d   1       6.306  -1.313  -5.203  0.00  0.00    -0.005 C 
ATOM     12  C   LIG d   1       7.349  -0.457  -5.046  0.00  0.00     0.176 A 
ATOM     13  O   LIG d   1       7.422   0.559  -4.153  0.00  0.00    -0.451 OA
ATOM     14  C   LIG d   1       8.605  -0.468  -5.809  0.00  0.00     0.232 A 
ATOM     15  C   LIG d   1       8.593   1.227  -4.247  0.00  0.00     0.143 A 
ATOM     16  C   LIG d   1       9.385   0.653  -5.255  0.00  0.00     0.068 A 
ATOM     17  C   LIG d   1       9.089   2.316  -3.541  0.00  0.00     0.023 A 
ATOM     18  C   LIG d   1      10.649   1.171  -5.543  0.00  0.00    -0.044 A 
ATOM     19  C   LIG d   1      11.121   2.243  -4.840  0.00  0.00    -0.019 A 
ATOM     20  H   LIG d   1      11.252   0.724  -6.319  0.00  0.00     0.063 H 
ATOM     21  C   LIG d   1      10.344   2.819  -3.838  0.00  0.00     0.124 A 
ATOM     22  H   LIG d   1      12.098   2.644  -5.062  0.00  0.00     0.065 H 
ATOM     23  H   LIG d   1       8.495   2.771  -2.763  0.00  0.00     0.069 H 
ATOM     24  O   LIG d   1       8.928  -1.234  -6.701  0.00  0.00    -0.283 OA
ATOM     25  H   LIG d   1       6.392  -2.150  -5.879  0.00  0.00     0.066 H 
BRANCH  21  26
ATOM     26  O   LIG d   1      10.823   3.884  -3.145  0.00  0.00    -0.492 OA
BRANCH  26  27
ATOM     27  C   LIG d   1       9.900   4.933  -2.847  0.00  0.00     0.087 C 
ATOM     28  H   LIG d   1       9.896   5.655  -3.664  0.00  0.00     0.069 H 
ATOM     29  H   LIG d   1       8.901   4.515  -2.726  0.00  0.00     0.069 H 
BRANCH  27  30
ATOM     30  C   LIG d   1      10.322   5.630  -1.552  0.00  0.00    -0.031 C 
ATOM     31  H   LIG d   1      11.226   6.212  -1.731  0.00  0.00     0.026 H 
ATOM     32  H   LIG d   1       9.524   6.291  -1.218  0.00  0.00     0.026 H 
ATOM     33  H   LIG d   1      10.519   4.882  -0.784  0.00  0.00     0.026 H 
ENDBRANCH  27  30
ENDBRANCH  26  27
ENDBRANCH  21  26
ENDBRANCH   1  11
BRANCH   6  34
ATOM     34  O   LIG d   1       4.173   0.223  -6.245  0.00  0.00    -0.477 OA
BRANCH  34  35
ATOM     35  C   LIG d   1       3.189  -0.111  -7.226  0.00  0.00     0.193 C 
ATOM     36  H   LIG d   1       2.238  -0.311  -6.733  0.00  0.00     0.085 H 
BRANCH  35  37
ATOM     37  C   LIG d   1       3.637  -1.355  -7.996  0.00  0.00    -0.017 C 
ATOM     38  H   LIG d   1       3.189  -2.241  -7.545  0.00  0.00     0.027 H 
ATOM     39  H   LIG d   1       3.319  -1.273  -9.035  0.00  0.00     0.027 H 
ATOM     40  H   LIG d   1       4.723  -1.436  -7.954  0.00  0.00     0.027 H 
ENDBRANCH  35  37
BRANCH  35  41
ATOM     41  C   LIG d   1       3.025   1.041  -8.184  0.00  0.00     0.348 C 
ATOM     42  O   LIG d   1       2.939   2.170  -7.762  0.00  0.00    -0.247 OA
BRANCH  41  43
ATOM     43  O   LIG d   1       2.975   0.813  -9.505  0.00  0.00    -0.465 OA
BRANCH  43  44
ATOM     44  C   LIG d   1       3.749   1.698 -10.357  0.00  0.00     0.082 C 
ATOM     45  H   LIG d   1       4.039   2.585  -9.793  0.00  0.00     0.066 H 
ATOM     46  H   LIG d   1       4.643   1.179 -10.703  0.00  0.00     0.066 H 
ATOM     47  H   LIG d   1       3.147   1.995 -11.215  0.00  0.00     0.066 H 
ENDBRANCH  43  44
ENDBRANCH  41  43
ENDBRANCH  35  41
ENDBRANCH  34  35
ENDBRANCH   6  34
TORSDOF 10
ENDMDL
MODEL 3
REMARK VINA RESULT:      -6.0      3.580      5.753
REMARK  10 active torsions:
REMARK  status: ('A' for Active; 'I' for Inactive)
REMARK    1  A    between atoms: C_1  and  C_2 
REMARK    2  A    between atoms: C_2  and  O_3 
REMARK    3  A    between atoms: O_3  and  C_4 
REMARK    4  A    between atoms: C_12  and  C_13 
REMARK    5  A    between atoms: C_18  and  O_19 
REMARK    6  A    between atoms: O_19  and  C_20 
REMARK    7  A    between atoms: C_20  and  C_22 
REMARK    8  A    between atoms: C_20  and  C_23 
REMARK    9  A    between atoms: C_23  and  O_25 
REMARK   10  A    between atoms: O_25  and  C_26 
ROOT
ATOM      1  C   LIG d   1       3.685  -0.025  -4.247  0.00  0.00     0.020 A 
ATOM      2  C   LIG d   1       2.748  -0.815  -3.570  0.00  0.00    -0.051 A 
ATOM      3  C   LIG d   1       3.153  -1.616  -2.524  0.00  0.00    -0.061 A 
ATOM      4  C   LIG d   1       4.484  -1.643  -2.139  0.00  0.00    -0.058 A 
ATOM      5  C   LIG d   1       5.421  -0.869  -2.797  0.00  0.00    -0.019 A 
ATOM      6  C   LIG d   1       5.033  -0.057  -3.852  0.00  0.00     0.129 A 
ATOM      7  H   LIG d   1       1.710  -0.798  -3.866  0.00  0.00     0.062 H 
ATOM      8  H   LIG d   1       2.430  -2.225  -2.002  0.00  0.00     0.062 H 
ATOM      9  H   LIG d   1       4.792  -2.273  -1.318  0.00  0.00     0.062 H 
ATOM     10  H   LIG d   1       6.454  -0.893  -2.487  0.00  0.00     0.065 H 
ENDROOT
BRANCH   1  11
ATOM     11  C   LIG d   1       3.262   0.831  -5.361  0.00  0.00    -0.005 C 
ATOM     12  C   LIG d   1       3.193   0.324  -6.619  0.00  0.00     0.176 A 
ATOM     13  O   LIG d   1       3.371  -0.971  -6.971  0.00  0.00    -0.451 OA
ATOM     14  C   LIG d   1       2.908   1.081  -7.846  0.00  0.00     0.232 A 
ATOM     15  C   LIG d   1       3.238  -1.153  -8.302  0.00  0.00     0.143 A 
ATOM     16  C   LIG d   1       2.953   0.074  -8.921  0.00  0.00     0.068 A 
ATOM     17  C   LIG d   1       3.334  -2.295  -9.088  0.00  0.00     0.023 A 
ATOM     18  C   LIG d   1       2.771   0.145 -10.303  0.00  0.00    -0.044 A 
ATOM     19  C   LIG d   1       2.870  -0.987 -11.061  0.00  0.00    -0.019 A 
ATOM     20  H   LIG d   1       2.551   1.093 -10.772  0.00  0.00     0.063 H 
ATOM     21  C   LIG d   1       3.152  -2.211 -10.457  0.00  0.00     0.124 A 
ATOM     22  H   LIG d   1       2.730  -0.934 -12.130  0.00  0.00     0.065 H 
ATOM     23  H   LIG d   1       3.554  -3.249  -8.630  0.00  0.00     0.069 H 
ATOM     24  O   LIG d   1       2.685   2.276  -7.951  0.00  0.00    -0.283 OA
ATOM     25  H   LIG d   1       3.006   1.864  -5.180  0.00  0.00     0.066 H 
BRANCH  21  26
ATOM     26  O   LIG d   1       3.248  -3.330 -11.220  0.00  0.00    -0.492 OA
BRANCH  26  27
ATOM     27  C   LIG d   1       2.108  -3.679 -12.008  0.00  0.00     0.087 C 
ATOM     28  H   LIG d   1       1.742  -2.794 -12.529  0.00  0.00     0.069 H 
ATOM     29  H   LIG d   1       2.388  -4.440 -12.736  0.00  0.00     0.069 H 
BRANCH  27  30
ATOM     30  C   LIG d   1       1.007  -4.226 -11.097  0.00  0.00    -0.031 C 
ATOM     31  H   LIG d   1       1.386  -4.306 -10.078  0.00  0.00     0.026 H 
ATOM     32  H   LIG d   1       0.152  -3.552 -11.115  0.00  0.00     0.026 H 
ATOM     33  H   LIG d   1       0.700  -5.211 -11.448  0.00  0.00     0.026 H 
ENDBRANCH  27  30
ENDBRANCH  26  27
ENDBRANCH  21  26
ENDBRANCH   1  11
BRANCH   6  34
ATOM     34  O   LIG d   1       5.951   0.704  -4.499  0.00  0.00    -0.477 OA
BRANCH  34  35
ATOM     35  C   LIG d   1       7.011   0.015  -5.167  0.00  0.00     0.193 C 
ATOM     36  H   LIG d   1       7.048  -1.017  -4.818  0.00  0.00     0.085 H 
BRANCH  35  37
ATOM     37  C   LIG d   1       8.341   0.706  -4.861  0.00  0.00    -0.017 C 
ATOM     38  H   LIG d   1       9.153  -0.018  -4.942  0.00  0.00     0.027 H 
ATOM     39  H   LIG d   1       8.502   1.514  -5.574  0.00  0.00     0.027 H 
ATOM     40  H   LIG d   1       8.316   1.111  -3.850  0.00  0.00     0.027 H 
ENDBRANCH  35  37
BRANCH  35  41
ATOM     41  C   LIG d   1       6.764   0.033  -6.653  0.00  0.00     0.348 C 
ATOM     42  O   LIG d   1       6.592   1.085  -7.223  0.00  0.00    -0.247 OA
BRANCH  41  43
ATOM     43  O   LIG d   1       6.737  -1.117  -7.344  0.00  0.00    -0.465 OA
BRANCH  43  44
ATOM     44  C   LIG d   1       6.569  -2.340  -6.580  0.00  0.00     0.082 C 
ATOM     45  H   LIG d   1       5.545  -2.697  -6.686  0.00  0.00     0.066 H 
ATOM     46  H   LIG d   1       7.259  -3.097  -6.954  0.00  0.00     0.066 H 
ATOM     47  H   LIG d   1       6.779  -2.144  -5.529  0.00  0.00     0.066 H 
ENDBRANCH  43  44
ENDBRANCH  41  43
ENDBRANCH  35  41
ENDBRANCH  34  35
ENDBRANCH   6  34
TORSDOF 10
ENDMDL
MODEL 4
REMARK VINA RESULT:      -5.9      2.262      4.004
REMARK  10 active torsions:
REMARK  status: ('A' for Active; 'I' for Inactive)
REMARK    1  A    between atoms: C_1  and  C_2 
REMARK    2  A    between atoms: C_2  and  O_3 
REMARK    3  A    between atoms: O_3  and  C_4 
REMARK    4  A    between atoms: C_12  and  C_13 
REMARK    5  A    between atoms: C_18  and  O_19 
REMARK    6  A    between atoms: O_19  and  C_20 
REMARK    7  A    between atoms: C_20  and  C_22 
REMARK    8  A    between atoms: C_20  and  C_23 
REMARK    9  A    between atoms: C_23  and  O_25 
REMARK   10  A    between atoms: O_25  and  C_26 
ROOT
ATOM      1  C   LIG d   1       3.935  -1.095  -3.302  0.00  0.00     0.020 A 
ATOM      2  C   LIG d   1       4.460  -0.778  -2.042  0.00  0.00    -0.051 A 
ATOM      3  C   LIG d   1       4.416   0.522  -1.588  0.00  0.00    -0.061 A 
ATOM      4  C   LIG d   1       3.856   1.519  -2.371  0.00  0.00    -0.058 A 
ATOM      5  C   LIG d   1       3.334   1.221  -3.616  0.00  0.00    -0.019 A 
ATOM      6  C   LIG d   1       3.368  -0.080  -4.091  0.00  0.00     0.129 A 
ATOM      7  H   LIG d   1       4.897  -1.551  -1.428  0.00  0.00     0.062 H 
ATOM      8  H   LIG d   1       4.821   0.766  -0.617  0.00  0.00     0.062 H 
ATOM      9  H   LIG d   1       3.826   2.534  -2.008  0.00  0.00     0.062 H 
ATOM     10  H   LIG d   1       2.895   2.003  -4.217  0.00  0.00     0.065 H 
ENDROOT
BRANCH   1  11
ATOM     11  C   LIG d   1       3.975  -2.477  -3.792  0.00  0.00    -0.005 C 
ATOM     12  C   LIG d   1       5.144  -3.004  -4.242  0.00  0.00     0.176 A 
ATOM     13  O   LIG d   1       6.361  -2.414  -4.186  0.00  0.00    -0.451 OA
ATOM     14  C   LIG d   1       5.317  -4.320  -4.873  0.00  0.00     0.232 A 
ATOM     15  C   LIG d   1       7.324  -3.198  -4.718  0.00  0.00     0.143 A 
ATOM     16  C   LIG d   1       6.758  -4.400  -5.172  0.00  0.00     0.068 A 
ATOM     17  C   LIG d   1       8.691  -3.000  -4.869  0.00  0.00     0.023 A 
ATOM     18  C   LIG d   1       7.557  -5.379  -5.765  0.00  0.00    -0.044 A 
ATOM     19  C   LIG d   1       8.899  -5.168  -5.906  0.00  0.00    -0.019 A 
ATOM     20  H   LIG d   1       7.115  -6.302  -6.110  0.00  0.00     0.063 H 
ATOM     21  C   LIG d   1       9.471  -3.980  -5.459  0.00  0.00     0.124 A 
ATOM     22  H   LIG d   1       9.518  -5.925  -6.364  0.00  0.00     0.065 H 
ATOM     23  H   LIG d   1       9.145  -2.081  -4.527  0.00  0.00     0.069 H 
ATOM     24  O   LIG d   1       4.460  -5.157  -5.099  0.00  0.00    -0.283 OA
ATOM     25  H   LIG d   1       3.077  -3.075  -3.797  0.00  0.00     0.066 H 
BRANCH  21  26
ATOM     26  O   LIG d   1      10.807  -3.780  -5.604  0.00  0.00    -0.492 OA
BRANCH  26  27
ATOM     27  C   LIG d   1      11.468  -3.040  -4.575  0.00  0.00     0.087 C 
ATOM     28  H   LIG d   1      12.302  -2.486  -5.007  0.00  0.00     0.069 H 
ATOM     29  H   LIG d   1      10.765  -2.343  -4.120  0.00  0.00     0.069 H 
BRANCH  27  30
ATOM     30  C   LIG d   1      11.993  -4.005  -3.510  0.00  0.00    -0.031 C 
ATOM     31  H   LIG d   1      11.223  -4.164  -2.755  0.00  0.00     0.026 H 
ATOM     32  H   LIG d   1      12.249  -4.956  -3.976  0.00  0.00     0.026 H 
ATOM     33  H   LIG d   1      12.880  -3.580  -3.040  0.00  0.00     0.026 H 
ENDBRANCH  27  30
ENDBRANCH  26  27
ENDBRANCH  21  26
ENDBRANCH   1  11
BRANCH   6  34
ATOM     34  O   LIG d   1       2.855  -0.374  -5.313  0.00  0.00    -0.477 OA
BRANCH  34  35
ATOM     35  C   LIG d   1       3.472   0.249  -6.442  0.00  0.00     0.193 C 
ATOM     36  H   LIG d   1       3.594   1.314  -6.247  0.00  0.00     0.085 H 
BRANCH  35  37
ATOM     37  C   LIG d   1       2.591   0.053  -7.677  0.00  0.00    -0.017 C 
ATOM     38  H   LIG d   1       1.560   0.310  -7.432  0.00  0.00     0.027 H 
ATOM     39  H   LIG d   1       2.945   0.698  -8.482  0.00  0.00     0.027 H 
ATOM     40  H   LIG d   1       2.640  -0.987  -7.997  0.00  0.00     0.027 H 
ENDBRANCH  35  37
BRANCH  35  41
ATOM     41  C   LIG d   1       4.823  -0.375  -6.684  0.00  0.00     0.348 C 
ATOM     42  O   LIG d   1       4.910  -1.399  -7.321  0.00  0.00    -0.247 OA
BRANCH  41  43
ATOM     43  O   LIG d   1       5.928   0.207  -6.193  0.00  0.00    -0.465 OA
BRANCH  43  44
ATOM     44  C   LIG d   1       7.150   0.055  -6.963  0.00  0.00     0.082 C 
ATOM     45  H   LIG d   1       7.576   1.038  -7.165  0.00  0.00     0.066 H 
ATOM     46  H   LIG d   1       7.864  -0.542  -6.396  0.00  0.00     0.066 H 
ATOM     47  H   LIG d   1       6.926  -0.444  -7.905  0.00  0.00     0.066 H 
ENDBRANCH  43  44
ENDBRANCH  41  43
ENDBRANCH  35  41
ENDBRANCH  34  35
ENDBRANCH   6  34
TORSDOF 10
ENDMDL
MODEL 5
REMARK VINA RESULT:      -5.7      1.416      3.624
REMARK  10 active torsions:
REMARK  status: ('A' for Active; 'I' for Inactive)
REMARK    1  A    between atoms: C_1  and  C_2 
REMARK    2  A    between atoms: C_2  and  O_3 
REMARK    3  A    between atoms: O_3  and  C_4 
REMARK    4  A    between atoms: C_12  and  C_13 
REMARK    5  A    between atoms: C_18  and  O_19 
REMARK    6  A    between atoms: O_19  and  C_20 
REMARK    7  A    between atoms: C_20  and  C_22 
REMARK    8  A    between atoms: C_20  and  C_23 
REMARK    9  A    between atoms: C_23  and  O_25 
REMARK   10  A    between atoms: O_25  and  C_26 
ROOT
ATOM      1  C   LIG d   1       4.740  -1.261  -7.479  0.00  0.00     0.020 A 
ATOM      2  C   LIG d   1       4.206  -1.502  -8.752  0.00  0.00    -0.051 A 
ATOM      3  C   LIG d   1       3.032  -0.889  -9.130  0.00  0.00    -0.061 A 
ATOM      4  C   LIG d   1       2.376  -0.034  -8.258  0.00  0.00    -0.058 A 
ATOM      5  C   LIG d   1       2.892   0.214  -7.000  0.00  0.00    -0.019 A 
ATOM      6  C   LIG d   1       4.072  -0.393  -6.600  0.00  0.00     0.129 A 
ATOM      7  H   LIG d   1       4.712  -2.168  -9.434  0.00  0.00     0.062 H 
ATOM      8  H   LIG d   1       2.619  -1.076 -10.110  0.00  0.00     0.062 H 
ATOM      9  H   LIG d   1       1.457   0.442  -8.563  0.00  0.00     0.062 H 
ATOM     10  H   LIG d   1       2.377   0.886  -6.329  0.00  0.00     0.065 H 
ENDROOT
BRANCH   1  11
ATOM     11  C   LIG d   1       5.991  -1.909  -7.069  0.00  0.00    -0.005 C 
ATOM     12  C   LIG d   1       5.984  -3.207  -6.670  0.00  0.00     0.176 A 
ATOM     13  O   LIG d   1       4.926  -4.052  -6.712  0.00  0.00    -0.451 OA
ATOM     14  C   LIG d   1       7.124  -3.953  -6.117  0.00  0.00     0.232 A 
ATOM     15  C   LIG d   1       5.243  -5.278  -6.242  0.00  0.00     0.143 A 
ATOM     16  C   LIG d   1       6.590  -5.300  -5.848  0.00  0.00     0.068 A 
ATOM     17  C   LIG d   1       4.483  -6.433  -6.104  0.00  0.00     0.023 A 
ATOM     18  C   LIG d   1       7.156  -6.464  -5.325  0.00  0.00    -0.044 A 
ATOM     19  C   LIG d   1       6.395  -7.591  -5.195  0.00  0.00    -0.019 A 
ATOM     20  H   LIG d   1       8.193  -6.473  -5.025  0.00  0.00     0.063 H 
ATOM     21  C   LIG d   1       5.058  -7.580  -5.583  0.00  0.00     0.124 A 
ATOM     22  H   LIG d   1       6.832  -8.492  -4.791  0.00  0.00     0.065 H 
ATOM     23  H   LIG d   1       3.445  -6.436  -6.400  0.00  0.00     0.069 H 
ATOM     24  O   LIG d   1       8.257  -3.546  -5.924  0.00  0.00    -0.283 OA
ATOM     25  H   LIG d   1       6.916  -1.354  -7.083  0.00  0.00     0.066 H 
BRANCH  21  26
ATOM     26  O   LIG d   1       4.311  -8.706  -5.450  0.00  0.00    -0.492 OA
BRANCH  26  27
ATOM     27  C   LIG d   1       4.813  -9.720  -4.577  0.00  0.00     0.087 C 
ATOM     28  H   LIG d   1       4.929 -10.651  -5.131  0.00  0.00     0.069 H 
ATOM     29  H   LIG d   1       5.780  -9.410  -4.179  0.00  0.00     0.069 H 
BRANCH  27  30
ATOM     30  C   LIG d   1       3.830  -9.931  -3.423  0.00  0.00    -0.031 C 
ATOM     31  H   LIG d   1       2.811  -9.802  -3.787  0.00  0.00     0.026 H 
ATOM     32  H   LIG d   1       3.950 -10.937  -3.024  0.00  0.00     0.026 H 
ATOM     33  H   LIG d   1       4.030  -9.202  -2.638  0.00  0.00     0.026 H 
ENDBRANCH  27  30
ENDBRANCH  26  27
ENDBRANCH  21  26
ENDBRANCH   1  11
BRANCH   6  34
ATOM     34  O   LIG d   1       4.579  -0.150  -5.365  0.00  0.00    -0.477 OA
BRANCH  34  35
ATOM     35  C   LIG d   1       3.785  -0.553  -4.247  0.00  0.00     0.193 C 
ATOM     36  H   LIG d   1       2.797  -0.854  -4.593  0.00  0.00     0.085 H 
BRANCH  35  37
ATOM     37  C   LIG d   1       3.649   0.617  -3.270  0.00  0.00    -0.017 C 
ATOM     38  H   LIG d   1       2.906   0.371  -2.510  0.00  0.00     0.027 H 
ATOM     39  H   LIG d   1       4.611   0.804  -2.792  0.00  0.00     0.027 H 
ATOM     40  H   LIG d   1       3.333   1.508  -3.812  0.00  0.00     0.027 H 
ENDBRANCH  35  37
BRANCH  35  41
ATOM     41  C   LIG d   1       4.448  -1.714  -3.552  0.00  0.00     0.348 C 
ATOM     42  O   LIG d   1       4.057  -2.840  -3.751  0.00  0.00    -0.247 OA
BRANCH  41  43
ATOM     43  O   LIG d   1       5.474  -1.498  -2.715  0.00  0.00    -0.465 OA
BRANCH  43  44
ATOM     44  C   LIG d   1       6.812  -1.631  -3.262  0.00  0.00     0.082 C 
ATOM     45  H   LIG d   1       6.816  -2.405  -4.029  0.00  0.00     0.066 H 
ATOM     46  H   LIG d   1       7.119  -0.682  -3.702  0.00  0.00     0.066 H 
ATOM     47  H   LIG d   1       7.505  -1.904  -2.467  0.00  0.00     0.066 H 
ENDBRANCH  43  44
ENDBRANCH  41  43
ENDBRANCH  35  41
ENDBRANCH  34  35
ENDBRANCH   6  34
TORSDOF 10
ENDMDL
MODEL 6
REMARK VINA RESULT:      -5.5      2.375      6.127
REMARK  10 active torsions:
REMARK  status: ('A' for Active; 'I' for Inactive)
REMARK    1  A    between atoms: C_1  and  C_2 
REMARK    2  A    between atoms: C_2  and  O_3 
REMARK    3  A    between atoms: O_3  and  C_4 
REMARK    4  A    between atoms: C_12  and  C_13 
REMARK    5  A    between atoms: C_18  and  O_19 
REMARK    6  A    between atoms: O_19  and  C_20 
REMARK    7  A    between atoms: C_20  and  C_22 
REMARK    8  A    between atoms: C_20  and  C_23 
REMARK    9  A    between atoms: C_23  and  O_25 
REMARK   10  A    between atoms: O_25  and  C_26 
ROOT
ATOM      1  C   LIG d   1       5.219  -0.915  -4.411  0.00  0.00     0.020 A 
ATOM      2  C   LIG d   1       5.087   0.013  -3.370  0.00  0.00    -0.051 A 
ATOM      3  C   LIG d   1       4.451  -0.351  -2.203  0.00  0.00    -0.061 A 
ATOM      4  C   LIG d   1       3.941  -1.631  -2.054  0.00  0.00    -0.058 A 
ATOM      5  C   LIG d   1       4.064  -2.558  -3.072  0.00  0.00    -0.019 A 
ATOM      6  C   LIG d   1       4.700  -2.211  -4.254  0.00  0.00     0.129 A 
ATOM      7  H   LIG d   1       5.482   1.011  -3.481  0.00  0.00     0.062 H 
ATOM      8  H   LIG d   1       4.348   0.364  -1.401  0.00  0.00     0.062 H 
ATOM      9  H   LIG d   1       3.444  -1.907  -1.137  0.00  0.00     0.062 H 
ATOM     10  H   LIG d   1       3.668  -3.554  -2.945  0.00  0.00     0.065 H 
ENDROOT
BRANCH   1  11
ATOM     11  C   LIG d   1       5.896  -0.536  -5.657  0.00  0.00    -0.005 C 
ATOM     12  C   LIG d   1       5.203  -0.504  -6.824  0.00  0.00     0.176 A 
ATOM     13  O   LIG d   1       3.868  -0.682  -6.967  0.00  0.00    -0.451 OA
ATOM     14  C   LIG d   1       5.764  -0.266  -8.161  0.00  0.00     0.232 A 
ATOM     15  C   LIG d   1       3.484  -0.591  -8.259  0.00  0.00     0.143 A 
ATOM     16  C   LIG d   1       4.603  -0.338  -9.068  0.00  0.00     0.068 A 
ATOM     17  C   LIG d   1       2.235  -0.703  -8.856  0.00  0.00     0.023 A 
ATOM     18  C   LIG d   1       4.462  -0.202 -10.449  0.00  0.00    -0.044 A 
ATOM     19  C   LIG d   1       3.227  -0.316 -11.021  0.00  0.00    -0.019 A 
ATOM     20  H   LIG d   1       5.328  -0.006 -11.065  0.00  0.00     0.063 H 
ATOM     21  C   LIG d   1       2.109  -0.567 -10.228  0.00  0.00     0.124 A 
ATOM     22  H   LIG d   1       3.116  -0.211 -12.090  0.00  0.00     0.065 H 
ATOM     23  H   LIG d   1       1.362  -0.899  -8.251  0.00  0.00     0.069 H 
ATOM     24  O   LIG d   1       6.929  -0.058  -8.455  0.00  0.00    -0.283 OA
ATOM     25  H   LIG d   1       6.945  -0.284  -5.645  0.00  0.00     0.066 H 
BRANCH  21  26
ATOM     26  O   LIG d   1       0.886  -0.678 -10.807  0.00  0.00    -0.492 OA
BRANCH  26  27
ATOM     27  C   LIG d   1       0.822  -1.349 -12.067  0.00  0.00     0.087 C 
ATOM     28  H   LIG d   1      -0.052  -1.002 -12.618  0.00  0.00     0.069 H 
ATOM     29  H   LIG d   1       1.724  -1.132 -12.641  0.00  0.00     0.069 H 
BRANCH  27  30
ATOM     30  C   LIG d   1       0.715  -2.858 -11.836  0.00  0.00    -0.031 C 
ATOM     31  H   LIG d   1       0.299  -3.044 -10.846  0.00  0.00     0.026 H 
ATOM     32  H   LIG d   1       0.066  -3.296 -12.593  0.00  0.00     0.026 H 
ATOM     33  H   LIG d   1       1.706  -3.307 -11.903  0.00  0.00     0.026 H 
ENDBRANCH  27  30
ENDBRANCH  26  27
ENDBRANCH  21  26
ENDBRANCH   1  11
BRANCH   6  34
ATOM     34  O   LIG d   1       4.822  -3.120  -5.255  0.00  0.00    -0.477 OA
BRANCH  34  35
ATOM     35  C   LIG d   1       5.349  -4.402  -4.906  0.00  0.00     0.193 C 
ATOM     36  H   LIG d   1       5.364  -4.505  -3.822  0.00  0.00     0.085 H 
BRANCH  35  37
ATOM     37  C   LIG d   1       6.772  -4.535  -5.452  0.00  0.00    -0.017 C 
ATOM     38  H   LIG d   1       6.928  -3.799  -6.241  0.00  0.00     0.027 H 
ATOM     39  H   LIG d   1       7.487  -4.363  -4.647  0.00  0.00     0.027 H 
ATOM     40  H   LIG d   1       6.914  -5.536  -5.857  0.00  0.00     0.027 H 
ENDBRANCH  35  37
BRANCH  35  41
ATOM     41  C   LIG d   1       4.480  -5.481  -5.500  0.00  0.00     0.348 C 
ATOM     42  O   LIG d   1       4.732  -6.644  -5.289  0.00  0.00    -0.247 OA
BRANCH  41  43
ATOM     43  O   LIG d   1       3.426  -5.150  -6.262  0.00  0.00    -0.465 OA
BRANCH  43  44
ATOM     44  C   LIG d   1       3.601  -5.232  -7.701  0.00  0.00     0.082 C 
ATOM     45  H   LIG d   1       3.790  -6.267  -7.986  0.00  0.00     0.066 H 
ATOM     46  H   LIG d   1       2.697  -4.877  -8.196  0.00  0.00     0.066 H 
ATOM     47  H   LIG d   1       4.446  -4.613  -8.000  0.00  0.00     0.066 H 
ENDBRANCH  43  44
ENDBRANCH  41  43
ENDBRANCH  35  41
ENDBRANCH  34  35
ENDBRANCH   6  34
TORSDOF 10
ENDMDL
MODEL 7
REMARK VINA RESULT:      -5.4      2.824      5.462
REMARK  10 active torsions:
REMARK  status: ('A' for Active; 'I' for Inactive)
REMARK    1  A    between atoms: C_1  and  C_2 
REMARK    2  A    between atoms: C_2  and  O_3 
REMARK    3  A    between atoms: O_3  and  C_4 
REMARK    4  A    between atoms: C_12  and  C_13 
REMARK    5  A    between atoms: C_18  and  O_19 
REMARK    6  A    between atoms: O_19  and  C_20 
REMARK    7  A    between atoms: C_20  and  C_22 
REMARK    8  A    between atoms: C_20  and  C_23 
REMARK    9  A    between atoms: C_23  and  O_25 
REMARK   10  A    between atoms: O_25  and  C_26 
ROOT
ATOM      1  C   LIG d   1       5.124  -1.281  -3.430  0.00  0.00     0.020 A 
ATOM      2  C   LIG d   1       3.964  -1.149  -2.655  0.00  0.00    -0.051 A 
ATOM      3  C   LIG d   1       3.746   0.006  -1.937  0.00  0.00    -0.061 A 
ATOM      4  C   LIG d   1       4.668   1.040  -1.977  0.00  0.00    -0.058 A 
ATOM      5  C   LIG d   1       5.817   0.925  -2.737  0.00  0.00    -0.019 A 
ATOM      6  C   LIG d   1       6.055  -0.229  -3.467  0.00  0.00     0.129 A 
ATOM      7  H   LIG d   1       3.243  -1.952  -2.621  0.00  0.00     0.062 H 
ATOM      8  H   LIG d   1       2.852   0.107  -1.339  0.00  0.00     0.062 H 
ATOM      9  H   LIG d   1       4.489   1.941  -1.411  0.00  0.00     0.062 H 
ATOM     10  H   LIG d   1       6.527   1.738  -2.767  0.00  0.00     0.065 H 
ENDROOT
BRANCH   1  11
ATOM     11  C   LIG d   1       5.364  -2.507  -4.199  0.00  0.00    -0.005 C 
ATOM     12  C   LIG d   1       4.892  -2.615  -5.468  0.00  0.00     0.176 A 
ATOM     13  O   LIG d   1       4.293  -1.635  -6.186  0.00  0.00    -0.451 OA
ATOM     14  C   LIG d   1       4.944  -3.816  -6.315  0.00  0.00     0.232 A 
ATOM     15  C   LIG d   1       3.937  -2.060  -7.417  0.00  0.00     0.143 A 
ATOM     16  C   LIG d   1       4.303  -3.406  -7.577  0.00  0.00     0.068 A 
ATOM     17  C   LIG d   1       3.310  -1.405  -8.469  0.00  0.00     0.023 A 
ATOM     18  C   LIG d   1       4.039  -4.074  -8.774  0.00  0.00    -0.044 A 
ATOM     19  C   LIG d   1       3.421  -3.416  -9.798  0.00  0.00    -0.019 A 
ATOM     20  H   LIG d   1       4.324  -5.110  -8.890  0.00  0.00     0.063 H 
ATOM     21  C   LIG d   1       3.054  -2.080  -9.651  0.00  0.00     0.124 A 
ATOM     22  H   LIG d   1       3.216  -3.932 -10.724  0.00  0.00     0.065 H 
ATOM     23  H   LIG d   1       3.020  -0.370  -8.366  0.00  0.00     0.069 H 
ATOM     24  O   LIG d   1       5.411  -4.906  -6.034  0.00  0.00    -0.283 OA
ATOM     25  H   LIG d   1       5.913  -3.323  -3.756  0.00  0.00     0.066 H 
BRANCH  21  26
ATOM     26  O   LIG d   1       2.440  -1.435 -10.676  0.00  0.00    -0.492 OA
BRANCH  26  27
ATOM     27  C   LIG d   1       2.843  -0.088 -10.929  0.00  0.00     0.087 C 
ATOM     28  H   LIG d   1       1.995   0.477 -11.316  0.00  0.00     0.069 H 
ATOM     29  H   LIG d   1       3.191   0.368 -10.003  0.00  0.00     0.069 H 
BRANCH  27  30
ATOM     30  C   LIG d   1       3.975  -0.079 -11.959  0.00  0.00    -0.031 C 
ATOM     31  H   LIG d   1       4.934  -0.118 -11.443  0.00  0.00     0.026 H 
ATOM     32  H   LIG d   1       3.877  -0.945 -12.612  0.00  0.00     0.026 H 
ATOM     33  H   LIG d   1       3.919   0.833 -12.553  0.00  0.00     0.026 H 
ENDBRANCH  27  30
ENDBRANCH  26  27
ENDBRANCH  21  26
ENDBRANCH   1  11
BRANCH   6  34
ATOM     34  O   LIG d   1       7.182  -0.343  -4.214  0.00  0.00    -0.477 OA
BRANCH  34  35
ATOM     35  C   LIG d   1       7.285   0.496  -5.367  0.00  0.00     0.193 C 
ATOM     36  H   LIG d   1       6.357   1.053  -5.493  0.00  0.00     0.085 H 
BRANCH  35  37
ATOM     37  C   LIG d   1       7.536  -0.366  -6.605  0.00  0.00    -0.017 C 
ATOM     38  H   LIG d   1       6.734  -1.098  -6.706  0.00  0.00     0.027 H 
ATOM     39  H   LIG d   1       7.564   0.269  -7.490  0.00  0.00     0.027 H 
ATOM     40  H   LIG d   1       8.489  -0.884  -6.499  0.00  0.00     0.027 H 
ENDBRANCH  35  37
BRANCH  35  41
ATOM     41  C   LIG d   1       8.428   1.462  -5.185  0.00  0.00     0.348 C 
ATOM     42  O   LIG d   1       8.669   2.279  -6.042  0.00  0.00    -0.247 OA
BRANCH  41  43
ATOM     43  O   LIG d   1       9.176   1.414  -4.073  0.00  0.00    -0.465 OA
BRANCH  43  44
ATOM     44  C   LIG d   1       9.494   2.681  -3.437  0.00  0.00     0.082 C 
ATOM     45  H   LIG d   1       8.648   3.361  -3.539  0.00  0.00     0.066 H 
ATOM     46  H   LIG d   1       9.701   2.513  -2.380  0.00  0.00     0.066 H 
ATOM     47  H   LIG d   1      10.370   3.117  -3.915  0.00  0.00     0.066 H 
ENDBRANCH  43  44
ENDBRANCH  41  43
ENDBRANCH  35  41
ENDBRANCH  34  35
ENDBRANCH   6  34
TORSDOF 10
ENDMDL
MODEL 8
REMARK VINA RESULT:      -5.3      3.784      7.112
REMARK  10 active torsions:
REMARK  status: ('A' for Active; 'I' for Inactive)
REMARK    1  A    between atoms: C_1  and  C_2 
REMARK    2  A    between atoms: C_2  and  O_3 
REMARK    3  A    between atoms: O_3  and  C_4 
REMARK    4  A    between atoms: C_12  and  C_13 
REMARK    5  A    between atoms: C_18  and  O_19 
REMARK    6  A    between atoms: O_19  and  C_20 
REMARK    7  A    between atoms: C_20  and  C_22 
REMARK    8  A    between atoms: C_20  and  C_23 
REMARK    9  A    between atoms: C_23  and  O_25 
REMARK   10  A    between atoms: O_25  and  C_26 
ROOT
ATOM      1  C   LIG d   1       5.587   0.105  -2.970  0.00  0.00     0.020 A 
ATOM      2  C   LIG d   1       4.287   0.618  -2.871  0.00  0.00    -0.051 A 
ATOM      3  C   LIG d   1       3.209  -0.241  -2.863  0.00  0.00    -0.061 A 
ATOM      4  C   LIG d   1       3.405  -1.610  -2.954  0.00  0.00    -0.058 A 
ATOM      5  C   LIG d   1       4.682  -2.131  -3.052  0.00  0.00    -0.019 A 
ATOM      6  C   LIG d   1       5.779  -1.284  -3.061  0.00  0.00     0.129 A 
ATOM      7  H   LIG d   1       4.129   1.683  -2.800  0.00  0.00     0.062 H 
ATOM      8  H   LIG d   1       2.207   0.154  -2.787  0.00  0.00     0.062 H 
ATOM      9  H   LIG d   1       2.555  -2.275  -2.947  0.00  0.00     0.062 H 
ATOM     10  H   LIG d   1       4.825  -3.199  -3.117  0.00  0.00     0.065 H 
ENDROOT
BRANCH   1  11
ATOM     11  C   LIG d   1       6.740   1.013  -2.977  0.00  0.00    -0.005 C 
ATOM     12  C   LIG d   1       7.310   1.377  -4.155  0.00  0.00     0.176 A 
ATOM     13  O   LIG d   1       6.850   1.077  -5.393  0.00  0.00    -0.451 OA
ATOM     14  C   LIG d   1       8.535   2.173  -4.317  0.00  0.00     0.232 A 
ATOM     15  C   LIG d   1       7.643   1.586  -6.360  0.00  0.00     0.143 A 
ATOM     16  C   LIG d   1       8.716   2.279  -5.776  0.00  0.00     0.068 A 
ATOM     17  C   LIG d   1       7.556   1.528  -7.745  0.00  0.00     0.023 A 
ATOM     18  C   LIG d   1       9.678   2.898  -6.576  0.00  0.00    -0.044 A 
ATOM     19  C   LIG d   1       9.578   2.830  -7.936  0.00  0.00    -0.019 A 
ATOM     20  H   LIG d   1      10.500   3.430  -6.119  0.00  0.00     0.063 H 
ATOM     21  C   LIG d   1       8.518   2.146  -8.526  0.00  0.00     0.124 A 
ATOM     22  H   LIG d   1      10.322   3.308  -8.556  0.00  0.00     0.065 H 
ATOM     23  H   LIG d   1       6.739   0.999  -8.213  0.00  0.00     0.069 H 
ATOM     24  O   LIG d   1       9.243   2.639  -3.441  0.00  0.00    -0.283 OA
ATOM     25  H   LIG d   1       7.136   1.389  -2.046  0.00  0.00     0.066 H 
BRANCH  21  26
ATOM     26  O   LIG d   1       8.428   2.085  -9.880  0.00  0.00    -0.492 OA
BRANCH  26  27
ATOM     27  C   LIG d   1       9.583   1.632 -10.588  0.00  0.00     0.087 C 
ATOM     28  H   LIG d   1       9.523   1.958 -11.626  0.00  0.00     0.069 H 
ATOM     29  H   LIG d   1      10.479   2.049 -10.127  0.00  0.00     0.069 H 
BRANCH  27  30
ATOM     30  C   LIG d   1       9.647   0.104 -10.535  0.00  0.00    -0.031 C 
ATOM     31  H   LIG d   1      10.605  -0.233 -10.931  0.00  0.00     0.026 H 
ATOM     32  H   LIG d   1       9.543  -0.228  -9.503  0.00  0.00     0.026 H 
ATOM     33  H   LIG d   1       8.839  -0.315 -11.135  0.00  0.00     0.026 H 
ENDBRANCH  27  30
ENDBRANCH  26  27
ENDBRANCH  21  26
ENDBRANCH   1  11
BRANCH   6  34
ATOM     34  O   LIG d   1       7.033  -1.793  -3.157  0.00  0.00    -0.477 OA
BRANCH  34  35
ATOM     35  C   LIG d   1       7.250  -2.798  -4.151  0.00  0.00     0.193 C 
ATOM     36  H   LIG d   1       6.343  -3.389  -4.273  0.00  0.00     0.085 H 
BRANCH  35  37
ATOM     37  C   LIG d   1       8.399  -3.709  -3.712  0.00  0.00    -0.017 C 
ATOM     38  H   LIG d   1       9.028  -3.181  -2.995  0.00  0.00     0.027 H 
ATOM     39  H   LIG d   1       7.993  -4.608  -3.248  0.00  0.00     0.027 H 
ATOM     40  H   LIG d   1       8.995  -3.986  -4.582  0.00  0.00     0.027 H 
ENDBRANCH  35  37
BRANCH  35  41
ATOM     41  C   LIG d   1       7.601  -2.141  -5.461  0.00  0.00     0.348 C 
ATOM     42  O   LIG d   1       8.702  -1.669  -5.623  0.00  0.00    -0.247 OA
BRANCH  41  43
ATOM     43  O   LIG d   1       6.693  -2.082  -6.446  0.00  0.00    -0.465 OA
BRANCH  43  44
ATOM     44  C   LIG d   1       5.716  -3.155  -6.509  0.00  0.00     0.082 C 
ATOM     45  H   LIG d   1       5.679  -3.554  -7.523  0.00  0.00     0.066 H 
ATOM     46  H   LIG d   1       6.004  -3.947  -5.817  0.00  0.00     0.066 H 
ATOM     47  H   LIG d   1       4.735  -2.770  -6.234  0.00  0.00     0.066 H 
ENDBRANCH  43  44
ENDBRANCH  41  43
ENDBRANCH  35  41
ENDBRANCH  34  35
ENDBRANCH   6  34
TORSDOF 10
ENDMDL
MODEL 9
REMARK VINA RESULT:      -5.3     13.074     15.958
REMARK  10 active torsions:
REMARK  status: ('A' for Active; 'I' for Inactive)
REMARK    1  A    between atoms: C_1  and  C_2 
REMARK    2  A    between atoms: C_2  and  O_3 
REMARK    3  A    between atoms: O_3  and  C_4 
REMARK    4  A    between atoms: C_12  and  C_13 
REMARK    5  A    between atoms: C_18  and  O_19 
REMARK    6  A    between atoms: O_19  and  C_20 
REMARK    7  A    between atoms: C_20  and  C_22 
REMARK    8  A    between atoms: C_20  and  C_23 
REMARK    9  A    between atoms: C_23  and  O_25 
REMARK   10  A    between atoms: O_25  and  C_26 
ROOT
ATOM      1  C   LIG d   1      11.220   8.035   0.533  0.00  0.00     0.020 A 
ATOM      2  C   LIG d   1      11.467   6.663   0.676  0.00  0.00    -0.051 A 
ATOM      3  C   LIG d   1      10.962   5.775  -0.248  0.00  0.00    -0.061 A 
ATOM      4  C   LIG d   1      10.210   6.231  -1.319  0.00  0.00    -0.058 A 
ATOM      5  C   LIG d   1       9.957   7.582  -1.474  0.00  0.00    -0.019 A 
ATOM      6  C   LIG d   1      10.457   8.491  -0.555  0.00  0.00     0.129 A 
ATOM      7  H   LIG d   1      12.053   6.303   1.508  0.00  0.00     0.062 H 
ATOM      8  H   LIG d   1      11.153   4.718  -0.138  0.00  0.00     0.062 H 
ATOM      9  H   LIG d   1       9.818   5.528  -2.038  0.00  0.00     0.062 H 
ATOM     10  H   LIG d   1       9.375   7.928  -2.313  0.00  0.00     0.065 H 
ENDROOT
BRANCH   1  11
ATOM     11  C   LIG d   1      11.756   8.988   1.512  0.00  0.00    -0.005 C 
ATOM     12  C   LIG d   1      11.754   8.677   2.833  0.00  0.00     0.176 A 
ATOM     13  O   LIG d   1      11.401   7.486   3.375  0.00  0.00    -0.451 OA
ATOM     14  C   LIG d   1      12.139   9.568   3.937  0.00  0.00     0.232 A 
ATOM     15  C   LIG d   1      11.507   7.496   4.721  0.00  0.00     0.143 A 
ATOM     16  C   LIG d   1      11.956   8.754   5.152  0.00  0.00     0.068 A 
ATOM     17  C   LIG d   1      11.255   6.512   5.670  0.00  0.00     0.023 A 
ATOM     18  C   LIG d   1      12.145   9.012   6.510  0.00  0.00    -0.044 A 
ATOM     19  C   LIG d   1      11.892   8.034   7.430  0.00  0.00    -0.019 A 
ATOM     20  H   LIG d   1      12.492   9.982   6.834  0.00  0.00     0.063 H 
ATOM     21  C   LIG d   1      11.446   6.782   7.014  0.00  0.00     0.124 A 
ATOM     22  H   LIG d   1      12.038   8.232   8.481  0.00  0.00     0.065 H 
ATOM     23  H   LIG d   1      10.908   5.538   5.359  0.00  0.00     0.069 H 
ATOM     24  O   LIG d   1      12.522  10.723   3.862  0.00  0.00    -0.283 OA
ATOM     25  H   LIG d   1      12.150   9.937   1.181  0.00  0.00     0.066 H 
BRANCH  21  26
ATOM     26  O   LIG d   1      11.198   5.817   7.936  0.00  0.00    -0.492 OA
BRANCH  26  27
ATOM     27  C   LIG d   1      10.373   6.177   9.047  0.00  0.00     0.087 C 
ATOM     28  H   LIG d   1      10.990   6.266   9.942  0.00  0.00     0.069 H 
ATOM     29  H   LIG d   1       9.886   7.130   8.844  0.00  0.00     0.069 H 
BRANCH  27  30
ATOM     30  C   LIG d   1       9.311   5.096   9.264  0.00  0.00    -0.031 C 
ATOM     31  H   LIG d   1       8.352   5.569   9.473  0.00  0.00     0.026 H 
ATOM     32  H   LIG d   1       9.228   4.484   8.367  0.00  0.00     0.026 H 
ATOM     33  H   LIG d   1       9.599   4.469  10.107  0.00  0.00     0.026 H 
ENDBRANCH  27  30
ENDBRANCH  26  27
ENDBRANCH  21  26
ENDBRANCH   1  11
BRANCH   6  34
ATOM     34  O   LIG d   1      10.210   9.817  -0.705  0.00  0.00    -0.477 OA
BRANCH  34  35
ATOM     35  C   LIG d   1      10.572  10.407  -1.956  0.00  0.00     0.193 C 
ATOM     36  H   LIG d   1      10.393   9.693  -2.759  0.00  0.00     0.085 H 
BRANCH  35  37
ATOM     37  C   LIG d   1      12.054  10.787  -1.930  0.00  0.00    -0.017 C 
ATOM     38  H   LIG d   1      12.476  10.671  -2.929  0.00  0.00     0.027 H 
ATOM     39  H   LIG d   1      12.158  11.823  -1.609  0.00  0.00     0.027 H 
ATOM     40  H   LIG d   1      12.584  10.136  -1.235  0.00  0.00     0.027 H 
ENDBRANCH  35  37
BRANCH  35  41
ATOM     41  C   LIG d   1       9.740  11.642  -2.189  0.00  0.00     0.348 C 
ATOM     42  O   LIG d   1       9.992  12.661  -1.589  0.00  0.00    -0.247 OA
BRANCH  41  43
ATOM     43  O   LIG d   1       8.723  11.611  -3.062  0.00  0.00    -0.465 OA
BRANCH  43  44
ATOM     44  C   LIG d   1       9.033  11.210  -4.423  0.00  0.00     0.082 C 
ATOM     45  H   LIG d   1       9.683  10.335  -4.405  0.00  0.00     0.066 H 
ATOM     46  H   LIG d   1       8.110  10.967  -4.948  0.00  0.00     0.066 H 
ATOM     47  H   LIG d   1       9.539  12.028  -4.936  0.00  0.00     0.066 H 
ENDBRANCH  43  44
ENDBRANCH  41  43
ENDBRANCH  35  41
ENDBRANCH  34  35
ENDBRANCH   6  34
TORSDOF 10
ENDMDL
MODEL 10
REMARK VINA RESULT:      -5.3      4.220      8.025
REMARK  10 active torsions:
REMARK  status: ('A' for Active; 'I' for Inactive)
REMARK    1  A    between atoms: C_1  and  C_2 
REMARK    2  A    between atoms: C_2  and  O_3 
REMARK    3  A    between atoms: O_3  and  C_4 
REMARK    4  A    between atoms: C_12  and  C_13 
REMARK    5  A    between atoms: C_18  and  O_19 
REMARK    6  A    between atoms: O_19  and  C_20 
REMARK    7  A    between atoms: C_20  and  C_22 
REMARK    8  A    between atoms: C_20  and  C_23 
REMARK    9  A    between atoms: C_23  and  O_25 
REMARK   10  A    between atoms: O_25  and  C_26 
ROOT
ATOM      1  C   LIG d   1       5.348  -0.968  -4.290  0.00  0.00     0.020 A 
ATOM      2  C   LIG d   1       5.225  -0.123  -3.180  0.00  0.00    -0.051 A 
ATOM      3  C   LIG d   1       4.551  -0.556  -2.059  0.00  0.00    -0.061 A 
ATOM      4  C   LIG d   1       3.995  -1.825  -2.024  0.00  0.00    -0.058 A 
ATOM      5  C   LIG d   1       4.108  -2.671  -3.111  0.00  0.00    -0.019 A 
ATOM      6  C   LIG d   1       4.782  -2.253  -4.248  0.00  0.00     0.129 A 
ATOM      7  H   LIG d   1       5.657   0.866  -3.203  0.00  0.00     0.062 H 
ATOM      8  H   LIG d   1       4.457   0.096  -1.204  0.00  0.00     0.062 H 
ATOM      9  H   LIG d   1       3.469  -2.156  -1.141  0.00  0.00     0.062 H 
ATOM     10  H   LIG d   1       3.675  -3.659  -3.073  0.00  0.00     0.065 H 
ENDROOT
BRANCH   1  11
ATOM     11  C   LIG d   1       6.065  -0.515  -5.488  0.00  0.00    -0.005 C 
ATOM     12  C   LIG d   1       7.003   0.461  -5.388  0.00  0.00     0.176 A 
ATOM     13  O   LIG d   1       7.460   1.019  -4.241  0.00  0.00    -0.451 OA
ATOM     14  C   LIG d   1       7.712   1.102  -6.505  0.00  0.00     0.232 A 
ATOM     15  C   LIG d   1       8.393   1.965  -4.479  0.00  0.00     0.143 A 
ATOM     16  C   LIG d   1       8.606   2.082  -5.862  0.00  0.00     0.068 A 
ATOM     17  C   LIG d   1       9.119   2.778  -3.617  0.00  0.00     0.023 A 
ATOM     18  C   LIG d   1       9.532   3.001  -6.361  0.00  0.00    -0.044 A 
ATOM     19  C   LIG d   1      10.236   3.792  -5.499  0.00  0.00    -0.019 A 
ATOM     20  H   LIG d   1       9.690   3.084  -7.426  0.00  0.00     0.063 H 
ATOM     21  C   LIG d   1      10.033   3.685  -4.125  0.00  0.00     0.124 A 
ATOM     22  H   LIG d   1      10.952   4.503  -5.884  0.00  0.00     0.065 H 
ATOM     23  H   LIG d   1       8.968   2.703  -2.550  0.00  0.00     0.069 H 
ATOM     24  O   LIG d   1       7.587   0.874  -7.696  0.00  0.00    -0.283 OA
ATOM     25  H   LIG d   1       5.846  -0.957  -6.447  0.00  0.00     0.066 H 
BRANCH  21  26
ATOM     26  O   LIG d   1      10.739   4.476  -3.278  0.00  0.00    -0.492 OA
BRANCH  26  27
ATOM     27  C   LIG d   1      10.747   5.879  -3.555  0.00  0.00     0.087 C 
ATOM     28  H   LIG d   1      11.692   6.308  -3.220  0.00  0.00     0.069 H 
ATOM     29  H   LIG d   1      10.635   6.038  -4.627  0.00  0.00     0.069 H 
BRANCH  27  30
ATOM     30  C   LIG d   1       9.589   6.551  -2.814  0.00  0.00    -0.031 C 
ATOM     31  H   LIG d   1       9.304   5.940  -1.958  0.00  0.00     0.026 H 
ATOM     32  H   LIG d   1       9.901   7.536  -2.471  0.00  0.00     0.026 H 
ATOM     33  H   LIG d   1       8.738   6.653  -3.487  0.00  0.00     0.026 H 
ENDBRANCH  27  30
ENDBRANCH  26  27
ENDBRANCH  21  26
ENDBRANCH   1  11
BRANCH   6  34
ATOM     34  O   LIG d   1       4.894  -3.083  -5.317  0.00  0.00    -0.477 OA
BRANCH  34  35
ATOM     35  C   LIG d   1       5.394  -4.399  -5.067  0.00  0.00     0.193 C 
ATOM     36  H   LIG d   1       5.499  -4.549  -3.993  0.00  0.00     0.085 H 
BRANCH  35  37
ATOM     37  C   LIG d   1       6.757  -4.563  -5.742  0.00  0.00    -0.017 C 
ATOM     38  H   LIG d   1       6.875  -3.800  -6.513  0.00  0.00     0.027 H 
ATOM     39  H   LIG d   1       7.546  -4.454  -4.998  0.00  0.00     0.027 H 
ATOM     40  H   LIG d   1       6.820  -5.551  -6.197  0.00  0.00     0.027 H 
ENDBRANCH  35  37
BRANCH  35  41
ATOM     41  C   LIG d   1       4.431  -5.416  -5.624  0.00  0.00     0.348 C 
ATOM     42  O   LIG d   1       4.531  -6.578  -5.308  0.00  0.00    -0.247 OA
BRANCH  41  43
ATOM     43  O   LIG d   1       3.463  -5.030  -6.470  0.00  0.00    -0.465 OA
BRANCH  43  44
ATOM     44  C   LIG d   1       3.685  -5.276  -7.883  0.00  0.00     0.082 C 
ATOM     45  H   LIG d   1       3.748  -6.350  -8.060  0.00  0.00     0.066 H 
ATOM     46  H   LIG d   1       2.857  -4.860  -8.458  0.00  0.00     0.066 H 
ATOM     47  H   LIG d   1       4.616  -4.802  -8.192  0.00  0.00     0.066 H 
ENDBRANCH  43  44
ENDBRANCH  41  43
ENDBRANCH  35  41
ENDBRANCH  34  35
ENDBRANCH   6  34
TORSDOF 10
ENDMDL
