MODEL 1
REMARK VINA RESULT:      -5.3      0.000      0.000
REMARK  1 active torsions:
REMARK  status: ('A' for Active; 'I' for Inactive)
REMARK    1  A    between atoms: C_3  and  C_7 
ROOT
ATOM      1  C   LIG d   1       4.636  -2.422  -3.551  0.00  0.00     0.005 C 
ATOM      2  H   LIG d   1       4.357  -3.054  -2.709  0.00  0.00     0.090 H 
ATOM      3  C   LIG d   1       6.144  -2.569  -3.842  0.00  0.00    -0.001 C 
ATOM      4  C   LIG d   1       6.181  -3.606  -4.993  0.00  0.00    -0.007 C 
ATOM      5  C   LIG d   1       4.907  -3.232  -5.792  0.00  0.00    -0.033 C 
ATOM      6  N   LIG d   1       3.911  -2.854  -4.761  0.00  0.00     0.233 N 
ATOM      7  H   LIG d   1       6.568  -1.618  -4.166  0.00  0.00     0.033 H 
ATOM      8  H   LIG d   1       6.670  -2.947  -2.965  0.00  0.00     0.033 H 
ATOM      9  H   LIG d   1       7.075  -3.482  -5.603  0.00  0.00     0.032 H 
ATOM     10  H   LIG d   1       6.113  -4.623  -4.606  0.00  0.00     0.032 H 
ATOM     11  H   LIG d   1       5.109  -2.391  -6.455  0.00  0.00     0.081 H 
ATOM     12  H   LIG d   1       4.551  -4.089  -6.364  0.00  0.00     0.081 H 
ATOM     13  H   LIG d   1       3.328  -3.646  -4.543  0.00  0.00     0.202 HD
ATOM     14  H   LIG d   1       3.340  -2.095  -5.103  0.00  0.00     0.202 HD
ENDROOT
BRANCH   1  15
ATOM     15  C   LIG d   1       4.309  -0.984  -3.244  0.00  0.00     0.018 A 
ATOM     16  C   LIG d   1       4.639  -0.437  -2.014  0.00  0.00    -0.050 A 
ATOM     17  C   LIG d   1       4.320   0.892  -1.775  0.00  0.00    -0.043 A 
ATOM     18  H   LIG d   1       5.133  -1.030  -1.259  0.00  0.00     0.062 H 
ATOM     19  C   LIG d   1       3.688   1.621  -2.766  0.00  0.00     0.028 A 
ATOM     20  H   LIG d   1       4.558   1.349  -0.827  0.00  0.00     0.063 H 
ATOM     21  N   LIG d   1       3.390   1.067  -3.925  0.00  0.00    -0.263 NA
ATOM     22  H   LIG d   1       3.437   2.655  -2.588  0.00  0.00     0.083 H 
ATOM     23  C   LIG d   1       3.678  -0.193  -4.186  0.00  0.00     0.036 A 
ATOM     24  H   LIG d   1       3.418  -0.611  -5.147  0.00  0.00     0.083 H 
ENDBRANCH   1  15
TORSDOF 1
ENDMDL
MODEL 2
REMARK VINA RESULT:      -5.0      1.988      4.229
REMARK  1 active torsions:
REMARK  status: ('A' for Active; 'I' for Inactive)
REMARK    1  A    between atoms: C_3  and  C_7 
ROOT
ATOM      1  C   LIG d   1       3.113   0.159  -3.497  0.00  0.00     0.005 C 
ATOM      2  H   LIG d   1       2.084   0.487  -3.356  0.00  0.00     0.090 H 
ATOM      3  C   LIG d   1       4.085   1.264  -3.035  0.00  0.00    -0.001 C 
ATOM      4  C   LIG d   1       4.458   0.825  -1.596  0.00  0.00    -0.007 C 
ATOM      5  C   LIG d   1       4.485  -0.718  -1.738  0.00  0.00    -0.033 C 
ATOM      6  N   LIG d   1       3.376  -1.033  -2.669  0.00  0.00     0.233 N 
ATOM      7  H   LIG d   1       4.969   1.291  -3.671  0.00  0.00     0.033 H 
ATOM      8  H   LIG d   1       3.587   2.235  -3.025  0.00  0.00     0.033 H 
ATOM      9  H   LIG d   1       5.437   1.208  -1.311  0.00  0.00     0.032 H 
ATOM     10  H   LIG d   1       3.695   1.137  -0.882  0.00  0.00     0.032 H 
ATOM     11  H   LIG d   1       5.438  -1.043  -2.155  0.00  0.00     0.081 H 
ATOM     12  H   LIG d   1       4.312  -1.192  -0.771  0.00  0.00     0.081 H 
ATOM     13  H   LIG d   1       2.548  -1.272  -2.146  0.00  0.00     0.202 HD
ATOM     14  H   LIG d   1       3.639  -1.806  -3.262  0.00  0.00     0.202 HD
ENDROOT
BRANCH   1  15
ATOM     15  C   LIG d   1       3.354  -0.163  -4.950  0.00  0.00     0.018 A 
ATOM     16  C   LIG d   1       2.601   0.450  -5.939  0.00  0.00    -0.050 A 
ATOM     17  C   LIG d   1       2.858   0.124  -7.262  0.00  0.00    -0.043 A 
ATOM     18  H   LIG d   1       1.832   1.165  -5.685  0.00  0.00     0.062 H 
ATOM     19  C   LIG d   1       3.850  -0.794  -7.548  0.00  0.00     0.028 A 
ATOM     20  H   LIG d   1       2.288   0.579  -8.058  0.00  0.00     0.063 H 
ATOM     21  N   LIG d   1       4.548  -1.357  -6.581  0.00  0.00    -0.263 NA
ATOM     22  H   LIG d   1       4.057  -1.053  -8.575  0.00  0.00     0.083 H 
ATOM     23  C   LIG d   1       4.330  -1.072  -5.312  0.00  0.00     0.036 A 
ATOM     24  H   LIG d   1       4.921  -1.554  -4.548  0.00  0.00     0.083 H 
ENDBRANCH   1  15
TORSDOF 1
ENDMDL
MODEL 3
REMARK VINA RESULT:      -4.9      2.058      2.516
REMARK  1 active torsions:
REMARK  status: ('A' for Active; 'I' for Inactive)
REMARK    1  A    between atoms: C_3  and  C_7 
ROOT
ATOM      1  C   LIG d   1       6.844  -1.573  -4.387  0.00  0.00     0.005 C 
ATOM      2  H   LIG d   1       6.914  -1.068  -5.350  0.00  0.00     0.090 H 
ATOM      3  C   LIG d   1       6.191  -2.959  -4.566  0.00  0.00    -0.001 C 
ATOM      4  C   LIG d   1       7.410  -3.915  -4.641  0.00  0.00    -0.007 C 
ATOM      5  C   LIG d   1       8.391  -3.248  -3.646  0.00  0.00    -0.033 C 
ATOM      6  N   LIG d   1       8.196  -1.791  -3.838  0.00  0.00     0.233 N 
ATOM      7  H   LIG d   1       5.563  -3.202  -3.709  0.00  0.00     0.033 H 
ATOM      8  H   LIG d   1       5.615  -2.996  -5.491  0.00  0.00     0.033 H 
ATOM      9  H   LIG d   1       7.141  -4.918  -4.312  0.00  0.00     0.032 H 
ATOM     10  H   LIG d   1       7.829  -3.935  -5.647  0.00  0.00     0.032 H 
ATOM     11  H   LIG d   1       8.146  -3.534  -2.623  0.00  0.00     0.081 H 
ATOM     12  H   LIG d   1       9.419  -3.525  -3.882  0.00  0.00     0.081 H 
ATOM     13  H   LIG d   1       8.886  -1.436  -4.482  0.00  0.00     0.202 HD
ATOM     14  H   LIG d   1       8.283  -1.316  -2.952  0.00  0.00     0.202 HD
ENDROOT
BRANCH   1  15
ATOM     15  C   LIG d   1       6.031  -0.741  -3.430  0.00  0.00     0.018 A 
ATOM     16  C   LIG d   1       5.050  -1.330  -2.647  0.00  0.00    -0.050 A 
ATOM     17  C   LIG d   1       4.327  -0.526  -1.779  0.00  0.00    -0.043 A 
ATOM     18  H   LIG d   1       4.855  -2.390  -2.710  0.00  0.00     0.062 H 
ATOM     19  C   LIG d   1       4.606   0.827  -1.724  0.00  0.00     0.028 A 
ATOM     20  H   LIG d   1       3.553  -0.950  -1.158  0.00  0.00     0.063 H 
ATOM     21  N   LIG d   1       5.546   1.353  -2.484  0.00  0.00    -0.263 NA
ATOM     22  H   LIG d   1       4.047   1.460  -1.052  0.00  0.00     0.083 H 
ATOM     23  C   LIG d   1       6.253   0.619  -3.320  0.00  0.00     0.036 A 
ATOM     24  H   LIG d   1       7.016   1.086  -3.927  0.00  0.00     0.083 H 
ENDBRANCH   1  15
TORSDOF 1
ENDMDL
MODEL 4
REMARK VINA RESULT:      -4.7      1.141      4.415
REMARK  1 active torsions:
REMARK  status: ('A' for Active; 'I' for Inactive)
REMARK    1  A    between atoms: C_3  and  C_7 
ROOT
ATOM      1  C   LIG d   1       5.683  -0.474  -2.857  0.00  0.00     0.005 C 
ATOM      2  H   LIG d   1       6.653  -0.359  -2.376  0.00  0.00     0.090 H 
ATOM      3  C   LIG d   1       4.566  -0.469  -1.794  0.00  0.00    -0.001 C 
ATOM      4  C   LIG d   1       4.067   0.999  -1.815  0.00  0.00    -0.007 C 
ATOM      5  C   LIG d   1       4.198   1.351  -3.318  0.00  0.00    -0.033 C 
ATOM      6  N   LIG d   1       5.434   0.664  -3.762  0.00  0.00     0.233 N 
ATOM      7  H   LIG d   1       3.764  -1.153  -2.073  0.00  0.00     0.033 H 
ATOM      8  H   LIG d   1       4.967  -0.725  -0.813  0.00  0.00     0.033 H 
ATOM      9  H   LIG d   1       3.029   1.064  -1.488  0.00  0.00     0.032 H 
ATOM     10  H   LIG d   1       4.707   1.638  -1.207  0.00  0.00     0.032 H 
ATOM     11  H   LIG d   1       3.336   0.980  -3.871  0.00  0.00     0.081 H 
ATOM     12  H   LIG d   1       4.298   2.429  -3.448  0.00  0.00     0.081 H 
ATOM     13  H   LIG d   1       6.213   1.304  -3.725  0.00  0.00     0.202 HD
ATOM     14  H   LIG d   1       5.316   0.328  -4.706  0.00  0.00     0.202 HD
ENDROOT
BRANCH   1  15
ATOM     15  C   LIG d   1       5.646  -1.764  -3.635  0.00  0.00     0.018 A 
ATOM     16  C   LIG d   1       6.820  -2.339  -4.097  0.00  0.00    -0.050 A 
ATOM     17  C   LIG d   1       6.738  -3.527  -4.807  0.00  0.00    -0.043 A 
ATOM     18  H   LIG d   1       7.776  -1.873  -3.907  0.00  0.00     0.062 H 
ATOM     19  C   LIG d   1       5.498  -4.095  -5.029  0.00  0.00     0.028 A 
ATOM     20  H   LIG d   1       7.632  -4.001  -5.185  0.00  0.00     0.063 H 
ATOM     21  N   LIG d   1       4.402  -3.520  -4.575  0.00  0.00    -0.263 NA
ATOM     22  H   LIG d   1       5.426  -5.019  -5.582  0.00  0.00     0.083 H 
ATOM     23  C   LIG d   1       4.442  -2.390  -3.896  0.00  0.00     0.036 A 
ATOM     24  H   LIG d   1       3.522  -1.948  -3.540  0.00  0.00     0.083 H 
ENDBRANCH   1  15
TORSDOF 1
ENDMDL
MODEL 5
REMARK VINA RESULT:      -4.5      2.302      3.592
REMARK  1 active torsions:
REMARK  status: ('A' for Active; 'I' for Inactive)
REMARK    1  A    between atoms: C_3  and  C_7 
ROOT
ATOM      1  C   LIG d   1       4.169  -0.388  -6.318  0.00  0.00     0.005 C 
ATOM      2  H   LIG d   1       4.974   0.346  -6.318  0.00  0.00     0.090 H 
ATOM      3  C   LIG d   1       2.853   0.277  -6.774  0.00  0.00    -0.001 C 
ATOM      4  C   LIG d   1       2.780  -0.085  -8.280  0.00  0.00    -0.007 C 
ATOM      5  C   LIG d   1       3.389  -1.510  -8.289  0.00  0.00    -0.033 C 
ATOM      6  N   LIG d   1       4.473  -1.465  -7.279  0.00  0.00     0.233 N 
ATOM      7  H   LIG d   1       2.003  -0.141  -6.235  0.00  0.00     0.033 H 
ATOM      8  H   LIG d   1       2.902   1.358  -6.640  0.00  0.00     0.033 H 
ATOM      9  H   LIG d   1       1.748  -0.099  -8.629  0.00  0.00     0.032 H 
ATOM     10  H   LIG d   1       3.383   0.600  -8.876  0.00  0.00     0.032 H 
ATOM     11  H   LIG d   1       2.635  -2.245  -8.007  0.00  0.00     0.081 H 
ATOM     12  H   LIG d   1       3.798  -1.742  -9.272  0.00  0.00     0.081 H 
ATOM     13  H   LIG d   1       5.354  -1.277  -7.732  0.00  0.00     0.202 HD
ATOM     14  H   LIG d   1       4.523  -2.349  -6.794  0.00  0.00     0.202 HD
ENDROOT
BRANCH   1  15
ATOM     15  C   LIG d   1       4.001  -0.966  -4.937  0.00  0.00     0.018 A 
ATOM     16  C   LIG d   1       3.383  -0.229  -3.939  0.00  0.00    -0.050 A 
ATOM     17  C   LIG d   1       3.249  -0.801  -2.682  0.00  0.00    -0.043 A 
ATOM     18  H   LIG d   1       3.014   0.767  -4.134  0.00  0.00     0.062 H 
ATOM     19  C   LIG d   1       3.733  -2.079  -2.470  0.00  0.00     0.028 A 
ATOM     20  H   LIG d   1       2.777  -0.255  -1.880  0.00  0.00     0.063 H 
ATOM     21  N   LIG d   1       4.314  -2.751  -3.444  0.00  0.00    -0.263 NA
ATOM     22  H   LIG d   1       3.632  -2.531  -1.495  0.00  0.00     0.083 H 
ATOM     23  C   LIG d   1       4.459  -2.238  -4.650  0.00  0.00     0.036 A 
ATOM     24  H   LIG d   1       4.941  -2.818  -5.422  0.00  0.00     0.083 H 
ENDBRANCH   1  15
TORSDOF 1
ENDMDL
MODEL 6
REMARK VINA RESULT:      -4.5      1.650      4.477
REMARK  1 active torsions:
REMARK  status: ('A' for Active; 'I' for Inactive)
REMARK    1  A    between atoms: C_3  and  C_7 
ROOT
ATOM      1  C   LIG d   1       4.939  -1.004  -3.099  0.00  0.00     0.005 C 
ATOM      2  H   LIG d   1       5.424  -0.553  -2.234  0.00  0.00     0.090 H 
ATOM      3  C   LIG d   1       3.600  -1.644  -2.677  0.00  0.00    -0.001 C 
ATOM      4  C   LIG d   1       2.560  -0.553  -3.039  0.00  0.00    -0.007 C 
ATOM      5  C   LIG d   1       3.170   0.044  -4.332  0.00  0.00    -0.033 C 
ATOM      6  N   LIG d   1       4.634   0.036  -4.100  0.00  0.00     0.233 N 
ATOM      7  H   LIG d   1       3.415  -2.556  -3.243  0.00  0.00     0.033 H 
ATOM      8  H   LIG d   1       3.591  -1.845  -1.605  0.00  0.00     0.033 H 
ATOM      9  H   LIG d   1       1.583  -0.994  -3.235  0.00  0.00     0.032 H 
ATOM     10  H   LIG d   1       2.496   0.202  -2.255  0.00  0.00     0.032 H 
ATOM     11  H   LIG d   1       2.917  -0.577  -5.192  0.00  0.00     0.081 H 
ATOM     12  H   LIG d   1       2.817   1.064  -4.484  0.00  0.00     0.081 H 
ATOM     13  H   LIG d   1       4.930   0.936  -3.756  0.00  0.00     0.202 HD
ATOM     14  H   LIG d   1       5.114  -0.172  -4.963  0.00  0.00     0.202 HD
ENDROOT
BRANCH   1  15
ATOM     15  C   LIG d   1       5.840  -2.049  -3.704  0.00  0.00     0.018 A 
ATOM     16  C   LIG d   1       5.319  -3.031  -4.531  0.00  0.00    -0.050 A 
ATOM     17  C   LIG d   1       6.186  -3.972  -5.067  0.00  0.00    -0.043 A 
ATOM     18  H   LIG d   1       4.262  -3.063  -4.754  0.00  0.00     0.062 H 
ATOM     19  C   LIG d   1       7.531  -3.899  -4.760  0.00  0.00     0.028 A 
ATOM     20  H   LIG d   1       5.813  -4.754  -5.712  0.00  0.00     0.063 H 
ATOM     21  N   LIG d   1       7.993  -2.950  -3.970  0.00  0.00    -0.263 NA
ATOM     22  H   LIG d   1       8.213  -4.627  -5.173  0.00  0.00     0.083 H 
ATOM     23  C   LIG d   1       7.198  -2.039  -3.442  0.00  0.00     0.036 A 
ATOM     24  H   LIG d   1       7.612  -1.277  -2.799  0.00  0.00     0.083 H 
ENDBRANCH   1  15
TORSDOF 1
ENDMDL
MODEL 7
REMARK VINA RESULT:      -4.2      1.662      4.556
REMARK  1 active torsions:
REMARK  status: ('A' for Active; 'I' for Inactive)
REMARK    1  A    between atoms: C_3  and  C_7 
ROOT
ATOM      1  C   LIG d   1       5.148  -1.429  -4.102  0.00  0.00     0.005 C 
ATOM      2  H   LIG d   1       5.139  -0.767  -4.967  0.00  0.00     0.090 H 
ATOM      3  C   LIG d   1       5.427  -0.616  -2.821  0.00  0.00    -0.001 C 
ATOM      4  C   LIG d   1       4.008  -0.373  -2.243  0.00  0.00    -0.007 C 
ATOM      5  C   LIG d   1       3.292  -1.697  -2.609  0.00  0.00    -0.033 C 
ATOM      6  N   LIG d   1       3.826  -2.062  -3.942  0.00  0.00     0.233 N 
ATOM      7  H   LIG d   1       6.033  -1.193  -2.123  0.00  0.00     0.033 H 
ATOM      8  H   LIG d   1       5.911   0.330  -3.063  0.00  0.00     0.033 H 
ATOM      9  H   LIG d   1       4.045  -0.233  -1.164  0.00  0.00     0.032 H 
ATOM     10  H   LIG d   1       3.529   0.476  -2.730  0.00  0.00     0.032 H 
ATOM     11  H   LIG d   1       3.529  -2.471  -1.878  0.00  0.00     0.081 H 
ATOM     12  H   LIG d   1       2.214  -1.543  -2.663  0.00  0.00     0.081 H 
ATOM     13  H   LIG d   1       3.202  -1.732  -4.662  0.00  0.00     0.202 HD
ATOM     14  H   LIG d   1       3.919  -3.065  -4.008  0.00  0.00     0.202 HD
ENDROOT
BRANCH   1  15
ATOM     15  C   LIG d   1       6.205  -2.488  -4.278  0.00  0.00     0.018 A 
ATOM     16  C   LIG d   1       7.440  -2.358  -3.662  0.00  0.00    -0.050 A 
ATOM     17  C   LIG d   1       8.382  -3.357  -3.851  0.00  0.00    -0.043 A 
ATOM     18  H   LIG d   1       7.662  -1.498  -3.047  0.00  0.00     0.062 H 
ATOM     19  C   LIG d   1       8.060  -4.444  -4.643  0.00  0.00     0.028 A 
ATOM     20  H   LIG d   1       9.355  -3.286  -3.390  0.00  0.00     0.063 H 
ATOM     21  N   LIG d   1       6.875  -4.535  -5.214  0.00  0.00    -0.263 NA
ATOM     22  H   LIG d   1       8.788  -5.226  -4.796  0.00  0.00     0.083 H 
ATOM     23  C   LIG d   1       5.956  -3.603  -5.056  0.00  0.00     0.036 A 
ATOM     24  H   LIG d   1       4.997  -3.713  -5.540  0.00  0.00     0.083 H 
ENDBRANCH   1  15
TORSDOF 1
ENDMDL
MODEL 8
REMARK VINA RESULT:      -4.1      9.554     10.621
REMARK  1 active torsions:
REMARK  status: ('A' for Active; 'I' for Inactive)
REMARK    1  A    between atoms: C_3  and  C_7 
ROOT
ATOM      1  C   LIG d   1       5.577 -10.410  -1.882  0.00  0.00     0.005 C 
ATOM      2  H   LIG d   1       4.964  -9.631  -1.431  0.00  0.00     0.090 H 
ATOM      3  C   LIG d   1       6.979  -9.854  -2.206  0.00  0.00    -0.001 C 
ATOM      4  C   LIG d   1       7.827 -10.307  -0.990  0.00  0.00    -0.007 C 
ATOM      5  C   LIG d   1       7.206 -11.690  -0.674  0.00  0.00    -0.033 C 
ATOM      6  N   LIG d   1       5.755 -11.521  -0.928  0.00  0.00     0.233 N 
ATOM      7  H   LIG d   1       7.363 -10.290  -3.128  0.00  0.00     0.033 H 
ATOM      8  H   LIG d   1       6.955  -8.766  -2.275  0.00  0.00     0.033 H 
ATOM      9  H   LIG d   1       8.878 -10.403  -1.261  0.00  0.00     0.032 H 
ATOM     10  H   LIG d   1       7.703  -9.623  -0.151  0.00  0.00     0.032 H 
ATOM     11  H   LIG d   1       7.622 -12.452  -1.333  0.00  0.00     0.081 H 
ATOM     12  H   LIG d   1       7.378 -11.955   0.369  0.00  0.00     0.081 H 
ATOM     13  H   LIG d   1       5.280 -11.308  -0.065  0.00  0.00     0.202 HD
ATOM     14  H   LIG d   1       5.378 -12.371  -1.322  0.00  0.00     0.202 HD
ENDROOT
BRANCH   1  15
ATOM     15  C   LIG d   1       4.921 -10.915  -3.140  0.00  0.00     0.018 A 
ATOM     16  C   LIG d   1       5.674 -11.536  -4.124  0.00  0.00    -0.050 A 
ATOM     17  C   LIG d   1       5.028 -11.986  -5.266  0.00  0.00    -0.043 A 
ATOM     18  H   LIG d   1       6.740 -11.667  -4.005  0.00  0.00     0.062 H 
ATOM     19  C   LIG d   1       3.663 -11.802  -5.383  0.00  0.00     0.028 A 
ATOM     20  H   LIG d   1       5.584 -12.470  -6.054  0.00  0.00     0.063 H 
ATOM     21  N   LIG d   1       2.978 -11.208  -4.426  0.00  0.00    -0.263 NA
ATOM     22  H   LIG d   1       3.152 -12.150  -6.268  0.00  0.00     0.083 H 
ATOM     23  C   LIG d   1       3.559 -10.767  -3.328  0.00  0.00     0.036 A 
ATOM     24  H   LIG d   1       2.965 -10.285  -2.566  0.00  0.00     0.083 H 
ENDBRANCH   1  15
TORSDOF 1
ENDMDL
MODEL 9
REMARK VINA RESULT:      -4.1      2.032      2.527
REMARK  1 active torsions:
REMARK  status: ('A' for Active; 'I' for Inactive)
REMARK    1  A    between atoms: C_3  and  C_7 
ROOT
ATOM      1  C   LIG d   1       3.774  -0.662  -5.623  0.00  0.00     0.005 C 
ATOM      2  H   LIG d   1       2.780  -1.109  -5.613  0.00  0.00     0.090 H 
ATOM      3  C   LIG d   1       4.826  -1.731  -5.987  0.00  0.00    -0.001 C 
ATOM      4  C   LIG d   1       5.039  -1.510  -7.507  0.00  0.00    -0.007 C 
ATOM      5  C   LIG d   1       4.905   0.029  -7.621  0.00  0.00    -0.033 C 
ATOM      6  N   LIG d   1       3.840   0.390  -6.655  0.00  0.00     0.233 N 
ATOM      7  H   LIG d   1       5.752  -1.561  -5.439  0.00  0.00     0.033 H 
ATOM      8  H   LIG d   1       4.440  -2.732  -5.794  0.00  0.00     0.033 H 
ATOM      9  H   LIG d   1       6.031  -1.840  -7.814  0.00  0.00     0.032 H 
ATOM     10  H   LIG d   1       4.265  -2.012  -8.087  0.00  0.00     0.032 H 
ATOM     11  H   LIG d   1       5.844   0.513  -7.351  0.00  0.00     0.081 H 
ATOM     12  H   LIG d   1       4.609   0.312  -8.631  0.00  0.00     0.081 H 
ATOM     13  H   LIG d   1       2.954   0.454  -7.132  0.00  0.00     0.202 HD
ATOM     14  H   LIG d   1       4.059   1.275  -6.223  0.00  0.00     0.202 HD
ENDROOT
BRANCH   1  15
ATOM     15  C   LIG d   1       4.085  -0.075  -4.271  0.00  0.00     0.018 A 
ATOM     16  C   LIG d   1       5.400   0.102  -3.868  0.00  0.00    -0.050 A 
ATOM     17  C   LIG d   1       5.639   0.647  -2.616  0.00  0.00    -0.043 A 
ATOM     18  H   LIG d   1       6.218  -0.178  -4.515  0.00  0.00     0.062 H 
ATOM     19  C   LIG d   1       4.566   0.995  -1.817  0.00  0.00     0.028 A 
ATOM     20  H   LIG d   1       6.650   0.795  -2.268  0.00  0.00     0.063 H 
ATOM     21  N   LIG d   1       3.328   0.813  -2.233  0.00  0.00    -0.263 NA
ATOM     22  H   LIG d   1       4.743   1.420  -0.841  0.00  0.00     0.083 H 
ATOM     23  C   LIG d   1       3.063   0.297  -3.417  0.00  0.00     0.036 A 
ATOM     24  H   LIG d   1       2.036   0.163  -3.724  0.00  0.00     0.083 H 
ENDBRANCH   1  15
TORSDOF 1
ENDMDL
MODEL 10
REMARK VINA RESULT:      -4.1      6.452      7.497
REMARK  1 active torsions:
REMARK  status: ('A' for Active; 'I' for Inactive)
REMARK    1  A    between atoms: C_3  and  C_7 
ROOT
ATOM      1  C   LIG d   1       2.477  -1.137 -10.718  0.00  0.00     0.005 C 
ATOM      2  H   LIG d   1       2.871  -1.960 -10.122  0.00  0.00     0.090 H 
ATOM      3  C   LIG d   1       2.929  -1.288 -12.186  0.00  0.00    -0.001 C 
ATOM      4  C   LIG d   1       1.709  -1.966 -12.861  0.00  0.00    -0.007 C 
ATOM      5  C   LIG d   1       0.528  -1.309 -12.103  0.00  0.00    -0.033 C 
ATOM      6  N   LIG d   1       1.003  -1.172 -10.706  0.00  0.00     0.233 N 
ATOM      7  H   LIG d   1       3.123  -0.313 -12.631  0.00  0.00     0.033 H 
ATOM      8  H   LIG d   1       3.811  -1.926 -12.253  0.00  0.00     0.033 H 
ATOM      9  H   LIG d   1       1.670  -1.732 -13.924  0.00  0.00     0.032 H 
ATOM     10  H   LIG d   1       1.723  -3.044 -12.700  0.00  0.00     0.032 H 
ATOM     11  H   LIG d   1       0.303  -0.331 -12.528  0.00  0.00     0.081 H 
ATOM     12  H   LIG d   1      -0.352  -1.951 -12.141  0.00  0.00     0.081 H 
ATOM     13  H   LIG d   1       0.686  -1.957 -10.159  0.00  0.00     0.202 HD
ATOM     14  H   LIG d   1       0.646  -0.315 -10.308  0.00  0.00     0.202 HD
ENDROOT
BRANCH   1  15
ATOM     15  C   LIG d   1       2.964   0.177 -10.163  0.00  0.00     0.018 A 
ATOM     16  C   LIG d   1       2.442   0.675  -8.980  0.00  0.00    -0.050 A 
ATOM     17  C   LIG d   1       2.920   1.888  -8.507  0.00  0.00    -0.043 A 
ATOM     18  H   LIG d   1       1.681   0.132  -8.439  0.00  0.00     0.062 H 
ATOM     19  C   LIG d   1       3.894   2.554  -9.226  0.00  0.00     0.028 A 
ATOM     20  H   LIG d   1       2.533   2.308  -7.590  0.00  0.00     0.063 H 
ATOM     21  N   LIG d   1       4.368   2.049 -10.348  0.00  0.00    -0.263 NA
ATOM     22  H   LIG d   1       4.272   3.498  -8.864  0.00  0.00     0.083 H 
ATOM     23  C   LIG d   1       3.937   0.900 -10.828  0.00  0.00     0.036 A 
ATOM     24  H   LIG d   1       4.349   0.518 -11.750  0.00  0.00     0.083 H 
ENDBRANCH   1  15
TORSDOF 1
ENDMDL
