MODEL 1
REMARK VINA RESULT:      -6.0      0.000      0.000
REMARK  9 active torsions:
REMARK  status: ('A' for Active; 'I' for Inactive)
REMARK    1  A    between atoms: C_1  and  O_2 
REMARK    2  A    between atoms: O_2  and  C_3 
REMARK    3  A    between atoms: C_3  and  C_4 
REMARK    4  A    between atoms: C_4  and  O_5 
REMARK    5  A    between atoms: O_5  and  C_6 
REMARK    6  A    between atoms: C_7  and  C_12 
REMARK    7  A    between atoms: C_14  and  C_17 
REMARK    8  A    between atoms: N_22  and  C_23 
REMARK    9  A    between atoms: C_23  and  C_24 
ROOT
ATOM      1  C   LIG d   1       3.118   0.085  -7.775  0.00  0.00     0.207 A 
ATOM      2  N   LIG d   1       3.659  -0.782  -6.901  0.00  0.00    -0.190 NA
ATOM      3  C   LIG d   1       3.685  -0.256  -5.709  0.00  0.00     0.245 A 
ATOM      4  O   LIG d   1       3.159   0.973  -5.775  0.00  0.00    -0.336 OA
ATOM      5  N   LIG d   1       2.799   1.183  -7.133  0.00  0.00    -0.056 NA
ENDROOT
BRANCH   3   6
ATOM      6  C   LIG d   1       4.218  -0.922  -4.466  0.00  0.00     0.090 C 
ATOM      7  H   LIG d   1       4.495  -1.955  -4.672  0.00  0.00     0.056 H 
ATOM      8  N   LIG d   1       5.375  -0.166  -3.923  0.00  0.00    -0.281 N 
ATOM      9  C   LIG d   1       5.460  -0.534  -2.491  0.00  0.00     0.000 C 
ATOM     10  C   LIG d   1       4.050  -0.970  -2.051  0.00  0.00    -0.038 C 
ATOM     11  H   LIG d   1       5.784   0.325  -1.903  0.00  0.00     0.043 H 
ATOM     12  H   LIG d   1       6.160  -1.360  -2.363  0.00  0.00     0.043 H 
ATOM     13  C   LIG d   1       3.176  -0.853  -3.321  0.00  0.00    -0.027 C 
ATOM     14  H   LIG d   1       3.676  -0.307  -1.271  0.00  0.00     0.028 H 
ATOM     15  H   LIG d   1       4.066  -2.001  -1.697  0.00  0.00     0.028 H 
ATOM     16  H   LIG d   1       2.647   0.100  -3.337  0.00  0.00     0.029 H 
ATOM     17  H   LIG d   1       2.477  -1.685  -3.385  0.00  0.00     0.029 H 
BRANCH   8  18
ATOM     18  C   LIG d   1       6.613  -0.515  -4.634  0.00  0.00     0.102 C 
ATOM     19  H   LIG d   1       7.039  -1.419  -4.200  0.00  0.00     0.055 H 
ATOM     20  H   LIG d   1       6.389  -0.689  -5.687  0.00  0.00     0.055 H 
BRANCH  18  21
ATOM     21  C   LIG d   1       7.600   0.617  -4.511  0.00  0.00     0.269 A 
ATOM     22  N   LIG d   1       8.894   0.487  -4.263  0.00  0.00    -0.246 N 
ATOM     23  C   LIG d   1       9.444   1.718  -4.228  0.00  0.00     0.128 A 
ATOM     24  H   LIG d   1       9.366  -0.350  -4.132  0.00  0.00     0.310 HD
ATOM     25  C   LIG d   1       8.454   2.606  -4.452  0.00  0.00     0.128 A 
ATOM     26  H   LIG d   1      10.483   1.950  -4.050  0.00  0.00     0.112 H 
ATOM     27  N   LIG d   1       7.315   1.904  -4.625  0.00  0.00    -0.246 N 
ATOM     28  H   LIG d   1       8.554   3.681  -4.486  0.00  0.00     0.112 H 
ATOM     29  H   LIG d   1       6.438   2.278  -4.803  0.00  0.00     0.310 HD
ENDBRANCH  18  21
ENDBRANCH   8  18
ENDBRANCH   3   6
BRANCH   1  30
ATOM     30  C   LIG d   1       2.920  -0.157  -9.225  0.00  0.00     0.084 A 
ATOM     31  C   LIG d   1       3.824   0.357 -10.162  0.00  0.00     0.226 A 
ATOM     32  N   LIG d   1       3.644   0.143 -11.454  0.00  0.00    -0.221 NA
ATOM     33  C   LIG d   1       2.623  -0.561 -11.905  0.00  0.00     0.031 A 
ATOM     34  C   LIG d   1       1.689  -1.100 -11.041  0.00  0.00    -0.043 A 
ATOM     35  H   LIG d   1       2.514  -0.717 -12.968  0.00  0.00     0.083 H 
ATOM     36  C   LIG d   1       1.830  -0.900  -9.677  0.00  0.00    -0.044 A 
ATOM     37  H   LIG d   1       0.857  -1.671 -11.425  0.00  0.00     0.063 H 
ATOM     38  H   LIG d   1       1.114  -1.312  -8.981  0.00  0.00     0.063 H 
BRANCH  31  39
ATOM     39  O   LIG d   1       4.890   1.082  -9.743  0.00  0.00    -0.474 OA
BRANCH  39  40
ATOM     40  C   LIG d   1       6.171   0.453  -9.814  0.00  0.00     0.115 C 
ATOM     41  H   LIG d   1       6.854   1.082 -10.385  0.00  0.00     0.072 H 
ATOM     42  H   LIG d   1       6.074  -0.516 -10.303  0.00  0.00     0.072 H 
BRANCH  40  43
ATOM     43  C   LIG d   1       6.723   0.257  -8.400  0.00  0.00     0.081 C 
ATOM     44  H   LIG d   1       7.689  -0.245  -8.454  0.00  0.00     0.059 H 
ATOM     45  H   LIG d   1       6.029  -0.352  -7.820  0.00  0.00     0.059 H 
BRANCH  43  46
ATOM     46  O   LIG d   1       6.881   1.529  -7.769  0.00  0.00    -0.380 OA
BRANCH  46  47
ATOM     47  C   LIG d   1       8.066   2.227  -8.157  0.00  0.00     0.037 C 
ATOM     48  H   LIG d   1       8.697   1.568  -8.754  0.00  0.00     0.052 H 
ATOM     49  H   LIG d   1       7.796   3.103  -8.747  0.00  0.00     0.052 H 
ATOM     50  H   LIG d   1       8.610   2.541  -7.266  0.00  0.00     0.052 H 
ENDBRANCH  46  47
ENDBRANCH  43  46
ENDBRANCH  40  43
ENDBRANCH  39  40
ENDBRANCH  31  39
ENDBRANCH   1  30
TORSDOF 9
ENDMDL
MODEL 2
REMARK VINA RESULT:      -5.8      2.539      3.322
REMARK  9 active torsions:
REMARK  status: ('A' for Active; 'I' for Inactive)
REMARK    1  A    between atoms: C_1  and  O_2 
REMARK    2  A    between atoms: O_2  and  C_3 
REMARK    3  A    between atoms: C_3  and  C_4 
REMARK    4  A    between atoms: C_4  and  O_5 
REMARK    5  A    between atoms: O_5  and  C_6 
REMARK    6  A    between atoms: C_7  and  C_12 
REMARK    7  A    between atoms: C_14  and  C_17 
REMARK    8  A    between atoms: N_22  and  C_23 
REMARK    9  A    between atoms: C_23  and  C_24 
ROOT
ATOM      1  C   LIG d   1       3.823  -0.669  -7.620  0.00  0.00     0.207 A 
ATOM      2  N   LIG d   1       3.529  -0.832  -6.318  0.00  0.00    -0.190 NA
ATOM      3  C   LIG d   1       4.463  -0.301  -5.581  0.00  0.00     0.245 A 
ATOM      4  O   LIG d   1       5.394   0.225  -6.387  0.00  0.00    -0.336 OA
ATOM      5  N   LIG d   1       4.963  -0.030  -7.716  0.00  0.00    -0.056 NA
ENDROOT
BRANCH   3   6
ATOM      6  C   LIG d   1       4.490  -0.281  -4.073  0.00  0.00     0.090 C 
ATOM      7  H   LIG d   1       4.640  -1.286  -3.679  0.00  0.00     0.056 H 
ATOM      8  N   LIG d   1       5.546   0.639  -3.581  0.00  0.00    -0.281 N 
ATOM      9  C   LIG d   1       5.146   1.011  -2.204  0.00  0.00     0.000 C 
ATOM     10  C   LIG d   1       3.617   0.848  -2.118  0.00  0.00    -0.038 C 
ATOM     11  H   LIG d   1       5.420   2.046  -2.002  0.00  0.00     0.043 H 
ATOM     12  H   LIG d   1       5.630   0.349  -1.487  0.00  0.00     0.043 H 
ATOM     13  C   LIG d   1       3.185   0.337  -3.512  0.00  0.00    -0.027 C 
ATOM     14  H   LIG d   1       3.145   1.807  -1.903  0.00  0.00     0.028 H 
ATOM     15  H   LIG d   1       3.357   0.118  -1.351  0.00  0.00     0.028 H 
ATOM     16  H   LIG d   1       2.849   1.165  -4.138  0.00  0.00     0.029 H 
ATOM     17  H   LIG d   1       2.407  -0.420  -3.421  0.00  0.00     0.029 H 
BRANCH   8  18
ATOM     18  C   LIG d   1       6.862  -0.016  -3.591  0.00  0.00     0.102 C 
ATOM     19  H   LIG d   1       7.157  -0.254  -2.570  0.00  0.00     0.055 H 
ATOM     20  H   LIG d   1       6.806  -0.933  -4.176  0.00  0.00     0.055 H 
BRANCH  18  21
ATOM     21  C   LIG d   1       7.879   0.911  -4.206  0.00  0.00     0.269 A 
ATOM     22  N   LIG d   1       9.191   0.818  -4.063  0.00  0.00    -0.246 N 
ATOM     23  C   LIG d   1       9.765   1.820  -4.760  0.00  0.00     0.128 A 
ATOM     24  H   LIG d   1       9.660   0.143  -3.548  0.00  0.00     0.310 HD
ATOM     25  C   LIG d   1       8.772   2.535  -5.327  0.00  0.00     0.128 A 
ATOM     26  H   LIG d   1      10.824   2.016  -4.846  0.00  0.00     0.112 H 
ATOM     27  N   LIG d   1       7.607   1.956  -4.972  0.00  0.00    -0.246 N 
ATOM     28  H   LIG d   1       8.888   3.409  -5.950  0.00  0.00     0.112 H 
ATOM     29  H   LIG d   1       6.721   2.253  -5.232  0.00  0.00     0.310 HD
ENDBRANCH  18  21
ENDBRANCH   8  18
ENDBRANCH   3   6
BRANCH   1  30
ATOM     30  C   LIG d   1       2.997  -1.140  -8.759  0.00  0.00     0.084 A 
ATOM     31  C   LIG d   1       3.175  -2.425  -9.284  0.00  0.00     0.226 A 
ATOM     32  N   LIG d   1       2.441  -2.841 -10.302  0.00  0.00    -0.221 NA
ATOM     33  C   LIG d   1       1.516  -2.075 -10.849  0.00  0.00     0.031 A 
ATOM     34  C   LIG d   1       1.282  -0.795 -10.384  0.00  0.00    -0.043 A 
ATOM     35  H   LIG d   1       0.934  -2.454 -11.676  0.00  0.00     0.083 H 
ATOM     36  C   LIG d   1       2.029  -0.309  -9.323  0.00  0.00    -0.044 A 
ATOM     37  H   LIG d   1       0.524  -0.179 -10.845  0.00  0.00     0.063 H 
ATOM     38  H   LIG d   1       1.864   0.688  -8.942  0.00  0.00     0.063 H 
BRANCH  31  39
ATOM     39  O   LIG d   1       4.111  -3.247  -8.750  0.00  0.00    -0.474 OA
BRANCH  39  40
ATOM     40  C   LIG d   1       3.639  -4.423  -8.087  0.00  0.00     0.115 C 
ATOM     41  H   LIG d   1       4.004  -5.306  -8.611  0.00  0.00     0.072 H 
ATOM     42  H   LIG d   1       2.549  -4.425  -8.084  0.00  0.00     0.072 H 
BRANCH  40  43
ATOM     43  C   LIG d   1       4.154  -4.437  -6.646  0.00  0.00     0.081 C 
ATOM     44  H   LIG d   1       3.794  -3.552  -6.123  0.00  0.00     0.059 H 
ATOM     45  H   LIG d   1       5.244  -4.440  -6.649  0.00  0.00     0.059 H 
BRANCH  43  46
ATOM     46  O   LIG d   1       3.678  -5.610  -5.983  0.00  0.00    -0.380 OA
BRANCH  46  47
ATOM     47  C   LIG d   1       4.715  -6.474  -5.514  0.00  0.00     0.037 C 
ATOM     48  H   LIG d   1       4.905  -7.250  -6.255  0.00  0.00     0.052 H 
ATOM     49  H   LIG d   1       5.624  -5.896  -5.353  0.00  0.00     0.052 H 
ATOM     50  H   LIG d   1       4.406  -6.935  -4.575  0.00  0.00     0.052 H 
ENDBRANCH  46  47
ENDBRANCH  43  46
ENDBRANCH  40  43
ENDBRANCH  39  40
ENDBRANCH  31  39
ENDBRANCH   1  30
TORSDOF 9
ENDMDL
MODEL 3
REMARK VINA RESULT:      -5.8      1.677      2.607
REMARK  9 active torsions:
REMARK  status: ('A' for Active; 'I' for Inactive)
REMARK    1  A    between atoms: C_1  and  O_2 
REMARK    2  A    between atoms: O_2  and  C_3 
REMARK    3  A    between atoms: C_3  and  C_4 
REMARK    4  A    between atoms: C_4  and  O_5 
REMARK    5  A    between atoms: O_5  and  C_6 
REMARK    6  A    between atoms: C_7  and  C_12 
REMARK    7  A    between atoms: C_14  and  C_17 
REMARK    8  A    between atoms: N_22  and  C_23 
REMARK    9  A    between atoms: C_23  and  C_24 
ROOT
ATOM      1  C   LIG d   1       2.900   0.275  -7.364  0.00  0.00     0.207 A 
ATOM      2  N   LIG d   1       3.166  -0.459  -6.269  0.00  0.00    -0.190 NA
ATOM      3  C   LIG d   1       3.103   0.290  -5.205  0.00  0.00     0.245 A 
ATOM      4  O   LIG d   1       2.793   1.537  -5.579  0.00  0.00    -0.336 OA
ATOM      5  N   LIG d   1       2.670   1.512  -6.994  0.00  0.00    -0.056 NA
ENDROOT
BRANCH   3   6
ATOM      6  C   LIG d   1       3.339  -0.172  -3.789  0.00  0.00     0.090 C 
ATOM      7  H   LIG d   1       2.512  -0.792  -3.445  0.00  0.00     0.056 H 
ATOM      8  N   LIG d   1       4.625  -0.908  -3.686  0.00  0.00    -0.281 N 
ATOM      9  C   LIG d   1       5.023  -0.825  -2.262  0.00  0.00     0.000 C 
ATOM     10  C   LIG d   1       4.358   0.436  -1.679  0.00  0.00    -0.038 C 
ATOM     11  H   LIG d   1       6.107  -0.744  -2.182  0.00  0.00     0.043 H 
ATOM     12  H   LIG d   1       4.673  -1.709  -1.729  0.00  0.00     0.043 H 
ATOM     13  C   LIG d   1       3.543   1.040  -2.846  0.00  0.00    -0.027 C 
ATOM     14  H   LIG d   1       5.117   1.142  -1.342  0.00  0.00     0.028 H 
ATOM     15  H   LIG d   1       3.697   0.168  -0.855  0.00  0.00     0.028 H 
ATOM     16  H   LIG d   1       4.110   1.826  -3.345  0.00  0.00     0.029 H 
ATOM     17  H   LIG d   1       2.585   1.418  -2.491  0.00  0.00     0.029 H 
BRANCH   8  18
ATOM     18  C   LIG d   1       4.467  -2.306  -4.112  0.00  0.00     0.102 C 
ATOM     19  H   LIG d   1       4.496  -2.957  -3.239  0.00  0.00     0.055 H 
ATOM     20  H   LIG d   1       3.510  -2.425  -4.621  0.00  0.00     0.055 H 
BRANCH  18  21
ATOM     21  C   LIG d   1       5.586  -2.675  -5.052  0.00  0.00     0.269 A 
ATOM     22  N   LIG d   1       5.632  -2.390  -6.343  0.00  0.00    -0.246 N 
ATOM     23  C   LIG d   1       6.785  -2.880  -6.843  0.00  0.00     0.128 A 
ATOM     24  H   LIG d   1       4.954  -1.910  -6.844  0.00  0.00     0.310 HD
ATOM     25  C   LIG d   1       7.441  -3.478  -5.828  0.00  0.00     0.128 A 
ATOM     26  H   LIG d   1       7.120  -2.808  -7.867  0.00  0.00     0.112 H 
ATOM     27  N   LIG d   1       6.681  -3.341  -4.722  0.00  0.00    -0.246 N 
ATOM     28  H   LIG d   1       8.397  -3.975  -5.890  0.00  0.00     0.112 H 
ATOM     29  H   LIG d   1       6.899  -3.674  -3.838  0.00  0.00     0.310 HD
ENDBRANCH  18  21
ENDBRANCH   8  18
ENDBRANCH   3   6
BRANCH   1  30
ATOM     30  C   LIG d   1       2.878  -0.228  -8.759  0.00  0.00     0.084 A 
ATOM     31  C   LIG d   1       4.069  -0.551  -9.419  0.00  0.00     0.226 A 
ATOM     32  N   LIG d   1       4.047  -0.995 -10.664  0.00  0.00    -0.221 NA
ATOM     33  C   LIG d   1       2.914  -1.159 -11.322  0.00  0.00     0.031 A 
ATOM     34  C   LIG d   1       1.698  -0.862 -10.737  0.00  0.00    -0.043 A 
ATOM     35  H   LIG d   1       2.939  -1.529 -12.336  0.00  0.00     0.083 H 
ATOM     36  C   LIG d   1       1.668  -0.388  -9.435  0.00  0.00    -0.044 A 
ATOM     37  H   LIG d   1       0.781  -0.998 -11.290  0.00  0.00     0.063 H 
ATOM     38  H   LIG d   1       0.730  -0.149  -8.956  0.00  0.00     0.063 H 
BRANCH  31  39
ATOM     39  O   LIG d   1       5.255  -0.403  -8.779  0.00  0.00    -0.474 OA
BRANCH  39  40
ATOM     40  C   LIG d   1       5.981   0.802  -9.030  0.00  0.00     0.115 C 
ATOM     41  H   LIG d   1       5.287   1.641  -9.084  0.00  0.00     0.072 H 
ATOM     42  H   LIG d   1       6.517   0.713  -9.975  0.00  0.00     0.072 H 
BRANCH  40  43
ATOM     43  C   LIG d   1       6.981   1.041  -7.896  0.00  0.00     0.081 C 
ATOM     44  H   LIG d   1       7.251   2.096  -7.867  0.00  0.00     0.059 H 
ATOM     45  H   LIG d   1       7.875   0.442  -8.068  0.00  0.00     0.059 H 
BRANCH  43  46
ATOM     46  O   LIG d   1       6.388   0.665  -6.652  0.00  0.00    -0.380 OA
BRANCH  46  47
ATOM     47  C   LIG d   1       7.302   0.652  -5.553  0.00  0.00     0.037 C 
ATOM     48  H   LIG d   1       6.745   0.669  -4.617  0.00  0.00     0.052 H 
ATOM     49  H   LIG d   1       7.910  -0.252  -5.598  0.00  0.00     0.052 H 
ATOM     50  H   LIG d   1       7.948   1.528  -5.608  0.00  0.00     0.052 H 
ENDBRANCH  46  47
ENDBRANCH  43  46
ENDBRANCH  40  43
ENDBRANCH  39  40
ENDBRANCH  31  39
ENDBRANCH   1  30
TORSDOF 9
ENDMDL
MODEL 4
REMARK VINA RESULT:      -5.7      2.440      6.392
REMARK  9 active torsions:
REMARK  status: ('A' for Active; 'I' for Inactive)
REMARK    1  A    between atoms: C_1  and  O_2 
REMARK    2  A    between atoms: O_2  and  C_3 
REMARK    3  A    between atoms: C_3  and  C_4 
REMARK    4  A    between atoms: C_4  and  O_5 
REMARK    5  A    between atoms: O_5  and  C_6 
REMARK    6  A    between atoms: C_7  and  C_12 
REMARK    7  A    between atoms: C_14  and  C_17 
REMARK    8  A    between atoms: N_22  and  C_23 
REMARK    9  A    between atoms: C_23  and  C_24 
ROOT
ATOM      1  C   LIG d   1       3.476  -0.136  -5.903  0.00  0.00     0.207 A 
ATOM      2  N   LIG d   1       3.484  -0.959  -6.967  0.00  0.00    -0.190 NA
ATOM      3  C   LIG d   1       3.042  -0.331  -8.020  0.00  0.00     0.245 A 
ATOM      4  O   LIG d   1       2.734   0.923  -7.669  0.00  0.00    -0.336 OA
ATOM      5  N   LIG d   1       3.018   1.033  -6.281  0.00  0.00    -0.056 NA
ENDROOT
BRANCH   3   6
ATOM      6  C   LIG d   1       2.902  -0.920  -9.401  0.00  0.00     0.090 C 
ATOM      7  H   LIG d   1       3.721  -0.594 -10.041  0.00  0.00     0.056 H 
ATOM      8  N   LIG d   1       2.845  -2.402  -9.334  0.00  0.00    -0.281 N 
ATOM      9  C   LIG d   1       2.174  -2.835 -10.582  0.00  0.00     0.000 C 
ATOM     10  C   LIG d   1       1.299  -1.660 -11.056  0.00  0.00    -0.038 C 
ATOM     11  H   LIG d   1       1.550  -3.707 -10.388  0.00  0.00     0.043 H 
ATOM     12  H   LIG d   1       2.921  -3.070 -11.340  0.00  0.00     0.043 H 
ATOM     13  C   LIG d   1       1.536  -0.535 -10.022  0.00  0.00    -0.027 C 
ATOM     14  H   LIG d   1       0.248  -1.950 -11.066  0.00  0.00     0.028 H 
ATOM     15  H   LIG d   1       1.610  -1.333 -12.049  0.00  0.00     0.028 H 
ATOM     16  H   LIG d   1       0.752  -0.537  -9.265  0.00  0.00     0.029 H 
ATOM     17  H   LIG d   1       1.596   0.435 -10.515  0.00  0.00     0.029 H 
BRANCH   8  18
ATOM     18  C   LIG d   1       4.193  -2.978  -9.231  0.00  0.00     0.102 C 
ATOM     19  H   LIG d   1       4.516  -3.325 -10.211  0.00  0.00     0.055 H 
ATOM     20  H   LIG d   1       4.885  -2.217  -8.868  0.00  0.00     0.055 H 
BRANCH  18  21
ATOM     21  C   LIG d   1       4.171  -4.138  -8.268  0.00  0.00     0.269 A 
ATOM     22  N   LIG d   1       4.468  -5.392  -8.567  0.00  0.00    -0.246 N 
ATOM     23  C   LIG d   1       4.336  -6.136  -7.450  0.00  0.00     0.128 A 
ATOM     24  H   LIG d   1       4.737  -5.720  -9.440  0.00  0.00     0.310 HD
ATOM     25  C   LIG d   1       3.944  -5.308  -6.460  0.00  0.00     0.128 A 
ATOM     26  H   LIG d   1       4.510  -7.198  -7.364  0.00  0.00     0.112 H 
ATOM     27  N   LIG d   1       3.846  -4.070  -6.987  0.00  0.00    -0.246 N 
ATOM     28  H   LIG d   1       3.744  -5.585  -5.436  0.00  0.00     0.112 H 
ATOM     29  H   LIG d   1       3.582  -3.268  -6.509  0.00  0.00     0.310 HD
ENDBRANCH  18  21
ENDBRANCH   8  18
ENDBRANCH   3   6
BRANCH   1  30
ATOM     30  C   LIG d   1       3.908  -0.492  -4.530  0.00  0.00     0.084 A 
ATOM     31  C   LIG d   1       5.178  -0.129  -4.067  0.00  0.00     0.226 A 
ATOM     32  N   LIG d   1       5.563  -0.451  -2.844  0.00  0.00    -0.221 NA
ATOM     33  C   LIG d   1       4.772  -1.111  -2.018  0.00  0.00     0.031 A 
ATOM     34  C   LIG d   1       3.504  -1.502  -2.404  0.00  0.00    -0.043 A 
ATOM     35  H   LIG d   1       5.122  -1.350  -1.025  0.00  0.00     0.083 H 
ATOM     36  C   LIG d   1       3.055  -1.194  -3.678  0.00  0.00    -0.044 A 
ATOM     37  H   LIG d   1       2.870  -2.045  -1.719  0.00  0.00     0.063 H 
ATOM     38  H   LIG d   1       2.068  -1.489  -4.003  0.00  0.00     0.063 H 
BRANCH  31  39
ATOM     39  O   LIG d   1       6.021   0.553  -4.879  0.00  0.00    -0.474 OA
BRANCH  39  40
ATOM     40  C   LIG d   1       7.093  -0.185  -5.470  0.00  0.00     0.115 C 
ATOM     41  H   LIG d   1       6.996  -1.239  -5.209  0.00  0.00     0.072 H 
ATOM     42  H   LIG d   1       8.044   0.195  -5.098  0.00  0.00     0.072 H 
BRANCH  40  43
ATOM     43  C   LIG d   1       7.042  -0.031  -6.992  0.00  0.00     0.081 C 
ATOM     44  H   LIG d   1       6.414  -0.815  -7.415  0.00  0.00     0.059 H 
ATOM     45  H   LIG d   1       8.049  -0.112  -7.400  0.00  0.00     0.059 H 
BRANCH  43  46
ATOM     46  O   LIG d   1       6.496   1.248  -7.322  0.00  0.00    -0.380 OA
BRANCH  46  47
ATOM     47  C   LIG d   1       6.195   1.410  -8.710  0.00  0.00     0.037 C 
ATOM     48  H   LIG d   1       6.308   0.454  -9.220  0.00  0.00     0.052 H 
ATOM     49  H   LIG d   1       5.169   1.761  -8.820  0.00  0.00     0.052 H 
ATOM     50  H   LIG d   1       6.878   2.138  -9.147  0.00  0.00     0.052 H 
ENDBRANCH  46  47
ENDBRANCH  43  46
ENDBRANCH  40  43
ENDBRANCH  39  40
ENDBRANCH  31  39
ENDBRANCH   1  30
TORSDOF 9
ENDMDL
MODEL 5
REMARK VINA RESULT:      -5.6      3.637      6.743
REMARK  9 active torsions:
REMARK  status: ('A' for Active; 'I' for Inactive)
REMARK    1  A    between atoms: C_1  and  O_2 
REMARK    2  A    between atoms: O_2  and  C_3 
REMARK    3  A    between atoms: C_3  and  C_4 
REMARK    4  A    between atoms: C_4  and  O_5 
REMARK    5  A    between atoms: O_5  and  C_6 
REMARK    6  A    between atoms: C_7  and  C_12 
REMARK    7  A    between atoms: C_14  and  C_17 
REMARK    8  A    between atoms: N_22  and  C_23 
REMARK    9  A    between atoms: C_23  and  C_24 
ROOT
ATOM      1  C   LIG d   1       5.096  -2.415  -4.323  0.00  0.00     0.207 A 
ATOM      2  N   LIG d   1       4.251  -3.359  -4.774  0.00  0.00    -0.190 NA
ATOM      3  C   LIG d   1       4.920  -4.321  -5.343  0.00  0.00     0.245 A 
ATOM      4  O   LIG d   1       6.224  -4.028  -5.278  0.00  0.00    -0.336 OA
ATOM      5  N   LIG d   1       6.322  -2.777  -4.614  0.00  0.00    -0.056 NA
ENDROOT
BRANCH   3   6
ATOM      6  C   LIG d   1       4.324  -5.556  -5.969  0.00  0.00     0.090 C 
ATOM      7  H   LIG d   1       3.258  -5.619  -5.755  0.00  0.00     0.056 H 
ATOM      8  N   LIG d   1       4.567  -5.570  -7.434  0.00  0.00    -0.281 N 
ATOM      9  C   LIG d   1       4.465  -6.989  -7.846  0.00  0.00     0.000 C 
ATOM     10  C   LIG d   1       4.793  -7.844  -6.608  0.00  0.00    -0.038 C 
ATOM     11  H   LIG d   1       5.179  -7.199  -8.642  0.00  0.00     0.043 H 
ATOM     12  H   LIG d   1       3.452  -7.202  -8.187  0.00  0.00     0.043 H 
ATOM     13  C   LIG d   1       5.057  -6.828  -5.473  0.00  0.00    -0.027 C 
ATOM     14  H   LIG d   1       5.682  -8.448  -6.790  0.00  0.00     0.028 H 
ATOM     15  H   LIG d   1       3.946  -8.483  -6.354  0.00  0.00     0.028 H 
ATOM     16  H   LIG d   1       6.125  -6.641  -5.364  0.00  0.00     0.029 H 
ATOM     17  H   LIG d   1       4.628  -7.178  -4.535  0.00  0.00     0.029 H 
BRANCH   8  18
ATOM     18  C   LIG d   1       3.579  -4.741  -8.140  0.00  0.00     0.102 C 
ATOM     19  H   LIG d   1       2.968  -5.373  -8.783  0.00  0.00     0.055 H 
ATOM     20  H   LIG d   1       2.941  -4.239  -7.412  0.00  0.00     0.055 H 
BRANCH  18  21
ATOM     21  C   LIG d   1       4.293  -3.712  -8.978  0.00  0.00     0.269 A 
ATOM     22  N   LIG d   1       5.019  -2.708  -8.512  0.00  0.00    -0.246 N 
ATOM     23  C   LIG d   1       5.496  -2.008  -9.561  0.00  0.00     0.128 A 
ATOM     24  H   LIG d   1       5.181  -2.511  -7.576  0.00  0.00     0.310 HD
ATOM     25  C   LIG d   1       5.039  -2.603 -10.682  0.00  0.00     0.128 A 
ATOM     26  H   LIG d   1       6.125  -1.132  -9.513  0.00  0.00     0.112 H 
ATOM     27  N   LIG d   1       4.293  -3.660 -10.300  0.00  0.00    -0.246 N 
ATOM     28  H   LIG d   1       5.234  -2.291 -11.697  0.00  0.00     0.112 H 
ATOM     29  H   LIG d   1       3.835  -4.276 -10.893  0.00  0.00     0.310 HD
ENDBRANCH  18  21
ENDBRANCH   8  18
ENDBRANCH   3   6
BRANCH   1  30
ATOM     30  C   LIG d   1       4.706  -1.168  -3.619  0.00  0.00     0.084 A 
ATOM     31  C   LIG d   1       4.256  -0.056  -4.339  0.00  0.00     0.226 A 
ATOM     32  N   LIG d   1       3.913   1.055  -3.710  0.00  0.00    -0.221 NA
ATOM     33  C   LIG d   1       3.972   1.155  -2.395  0.00  0.00     0.031 A 
ATOM     34  C   LIG d   1       4.405   0.098  -1.618  0.00  0.00    -0.043 A 
ATOM     35  H   LIG d   1       3.678   2.079  -1.920  0.00  0.00     0.083 H 
ATOM     36  C   LIG d   1       4.782  -1.087  -2.229  0.00  0.00    -0.044 A 
ATOM     37  H   LIG d   1       4.452   0.196  -0.543  0.00  0.00     0.063 H 
ATOM     38  H   LIG d   1       5.124  -1.927  -1.643  0.00  0.00     0.063 H 
BRANCH  31  39
ATOM     39  O   LIG d   1       4.176  -0.115  -5.691  0.00  0.00    -0.474 OA
BRANCH  39  40
ATOM     40  C   LIG d   1       2.926   0.243  -6.283  0.00  0.00     0.115 C 
ATOM     41  H   LIG d   1       2.619   1.224  -5.920  0.00  0.00     0.072 H 
ATOM     42  H   LIG d   1       2.171  -0.497  -6.015  0.00  0.00     0.072 H 
BRANCH  40  43
ATOM     43  C   LIG d   1       3.077   0.289  -7.806  0.00  0.00     0.081 C 
ATOM     44  H   LIG d   1       4.135   0.278  -8.066  0.00  0.00     0.059 H 
ATOM     45  H   LIG d   1       2.617   1.200  -8.189  0.00  0.00     0.059 H 
BRANCH  43  46
ATOM     46  O   LIG d   1       2.431  -0.848  -8.382  0.00  0.00    -0.380 OA
BRANCH  46  47
ATOM     47  C   LIG d   1       1.924  -0.623  -9.699  0.00  0.00     0.037 C 
ATOM     48  H   LIG d   1       0.944  -0.152  -9.635  0.00  0.00     0.052 H 
ATOM     49  H   LIG d   1       2.605   0.030 -10.244  0.00  0.00     0.052 H 
ATOM     50  H   LIG d   1       1.836  -1.575 -10.222  0.00  0.00     0.052 H 
ENDBRANCH  46  47
ENDBRANCH  43  46
ENDBRANCH  40  43
ENDBRANCH  39  40
ENDBRANCH  31  39
ENDBRANCH   1  30
TORSDOF 9
ENDMDL
MODEL 6
REMARK VINA RESULT:      -5.6      2.010      7.290
REMARK  9 active torsions:
REMARK  status: ('A' for Active; 'I' for Inactive)
REMARK    1  A    between atoms: C_1  and  O_2 
REMARK    2  A    between atoms: O_2  and  C_3 
REMARK    3  A    between atoms: C_3  and  C_4 
REMARK    4  A    between atoms: C_4  and  O_5 
REMARK    5  A    between atoms: O_5  and  C_6 
REMARK    6  A    between atoms: C_7  and  C_12 
REMARK    7  A    between atoms: C_14  and  C_17 
REMARK    8  A    between atoms: N_22  and  C_23 
REMARK    9  A    between atoms: C_23  and  C_24 
ROOT
ATOM      1  C   LIG d   1       3.744  -0.016  -5.649  0.00  0.00     0.207 A 
ATOM      2  N   LIG d   1       4.267  -0.550  -6.767  0.00  0.00    -0.190 NA
ATOM      3  C   LIG d   1       3.810   0.075  -7.815  0.00  0.00     0.245 A 
ATOM      4  O   LIG d   1       2.974   1.037  -7.405  0.00  0.00    -0.336 OA
ATOM      5  N   LIG d   1       2.938   0.960  -5.987  0.00  0.00    -0.056 NA
ENDROOT
BRANCH   3   6
ATOM      6  C   LIG d   1       4.164  -0.233  -9.247  0.00  0.00     0.090 C 
ATOM      7  H   LIG d   1       5.110  -0.771  -9.301  0.00  0.00     0.056 H 
ATOM      8  N   LIG d   1       3.079  -1.010  -9.899  0.00  0.00    -0.281 N 
ATOM      9  C   LIG d   1       3.240  -0.784 -11.354  0.00  0.00     0.000 C 
ATOM     10  C   LIG d   1       3.965   0.565 -11.524  0.00  0.00    -0.038 C 
ATOM     11  H   LIG d   1       2.264  -0.744 -11.835  0.00  0.00     0.043 H 
ATOM     12  H   LIG d   1       3.839  -1.584 -11.788  0.00  0.00     0.043 H 
ATOM     13  C   LIG d   1       4.226   1.068 -10.086  0.00  0.00    -0.027 C 
ATOM     14  H   LIG d   1       3.331   1.269 -12.063  0.00  0.00     0.028 H 
ATOM     15  H   LIG d   1       4.908   0.423 -12.053  0.00  0.00     0.028 H 
ATOM     16  H   LIG d   1       3.449   1.766  -9.776  0.00  0.00     0.029 H 
ATOM     17  H   LIG d   1       5.211   1.528 -10.012  0.00  0.00     0.029 H 
BRANCH   8  18
ATOM     18  C   LIG d   1       3.185  -2.439  -9.570  0.00  0.00     0.102 C 
ATOM     19  H   LIG d   1       4.169  -2.806  -9.859  0.00  0.00     0.055 H 
ATOM     20  H   LIG d   1       3.047  -2.575  -8.498  0.00  0.00     0.055 H 
BRANCH  18  21
ATOM     21  C   LIG d   1       2.123  -3.206 -10.316  0.00  0.00     0.269 A 
ATOM     22  N   LIG d   1       0.817  -3.072 -10.149  0.00  0.00    -0.246 N 
ATOM     23  C   LIG d   1       0.194  -3.922 -10.992  0.00  0.00     0.128 A 
ATOM     24  H   LIG d   1       0.382  -2.465  -9.530  0.00  0.00     0.310 HD
ATOM     25  C   LIG d   1       1.151  -4.585 -11.673  0.00  0.00     0.128 A 
ATOM     26  H   LIG d   1      -0.873  -4.049 -11.099  0.00  0.00     0.112 H 
ATOM     27  N   LIG d   1       2.343  -4.127 -11.240  0.00  0.00    -0.246 N 
ATOM     28  H   LIG d   1       0.992  -5.342 -12.426  0.00  0.00     0.112 H 
ATOM     29  H   LIG d   1       3.213  -4.423 -11.551  0.00  0.00     0.310 HD
ENDBRANCH  18  21
ENDBRANCH   8  18
ENDBRANCH   3   6
BRANCH   1  30
ATOM     30  C   LIG d   1       4.028  -0.462  -4.262  0.00  0.00     0.084 A 
ATOM     31  C   LIG d   1       5.066   0.121  -3.526  0.00  0.00     0.226 A 
ATOM     32  N   LIG d   1       5.320  -0.281  -2.293  0.00  0.00    -0.221 NA
ATOM     33  C   LIG d   1       4.608  -1.228  -1.710  0.00  0.00     0.031 A 
ATOM     34  C   LIG d   1       3.568  -1.849  -2.374  0.00  0.00    -0.043 A 
ATOM     35  H   LIG d   1       4.845  -1.524  -0.699  0.00  0.00     0.083 H 
ATOM     36  C   LIG d   1       3.265  -1.468  -3.671  0.00  0.00    -0.044 A 
ATOM     37  H   LIG d   1       2.997  -2.625  -1.886  0.00  0.00     0.063 H 
ATOM     38  H   LIG d   1       2.456  -1.939  -4.210  0.00  0.00     0.063 H 
BRANCH  31  39
ATOM     39  O   LIG d   1       5.820   1.100  -4.083  0.00  0.00    -0.474 OA
BRANCH  39  40
ATOM     40  C   LIG d   1       7.221   1.081  -3.801  0.00  0.00     0.115 C 
ATOM     41  H   LIG d   1       7.481   0.142  -3.313  0.00  0.00     0.072 H 
ATOM     42  H   LIG d   1       7.470   1.914  -3.143  0.00  0.00     0.072 H 
BRANCH  40  43
ATOM     43  C   LIG d   1       8.007   1.211  -5.108  0.00  0.00     0.081 C 
ATOM     44  H   LIG d   1       8.584   0.302  -5.276  0.00  0.00     0.059 H 
ATOM     45  H   LIG d   1       8.682   2.064  -5.042  0.00  0.00     0.059 H 
BRANCH  43  46
ATOM     46  O   LIG d   1       7.097   1.406  -6.193  0.00  0.00    -0.380 OA
BRANCH  46  47
ATOM     47  C   LIG d   1       7.536   0.837  -7.428  0.00  0.00     0.037 C 
ATOM     48  H   LIG d   1       8.542   0.437  -7.307  0.00  0.00     0.052 H 
ATOM     49  H   LIG d   1       6.858   0.035  -7.719  0.00  0.00     0.052 H 
ATOM     50  H   LIG d   1       7.542   1.607  -8.200  0.00  0.00     0.052 H 
ENDBRANCH  46  47
ENDBRANCH  43  46
ENDBRANCH  40  43
ENDBRANCH  39  40
ENDBRANCH  31  39
ENDBRANCH   1  30
TORSDOF 9
ENDMDL
MODEL 7
REMARK VINA RESULT:      -5.6      1.930      6.028
REMARK  9 active torsions:
REMARK  status: ('A' for Active; 'I' for Inactive)
REMARK    1  A    between atoms: C_1  and  O_2 
REMARK    2  A    between atoms: O_2  and  C_3 
REMARK    3  A    between atoms: C_3  and  C_4 
REMARK    4  A    between atoms: C_4  and  O_5 
REMARK    5  A    between atoms: O_5  and  C_6 
REMARK    6  A    between atoms: C_7  and  C_12 
REMARK    7  A    between atoms: C_14  and  C_17 
REMARK    8  A    between atoms: N_22  and  C_23 
REMARK    9  A    between atoms: C_23  and  C_24 
ROOT
ATOM      1  C   LIG d   1       4.014  -0.395  -5.671  0.00  0.00     0.207 A 
ATOM      2  N   LIG d   1       3.374   0.267  -6.650  0.00  0.00    -0.190 NA
ATOM      3  C   LIG d   1       3.382  -0.439  -7.745  0.00  0.00     0.245 A 
ATOM      4  O   LIG d   1       4.029  -1.586  -7.507  0.00  0.00    -0.336 OA
ATOM      5  N   LIG d   1       4.441  -1.539  -6.148  0.00  0.00    -0.056 NA
ENDROOT
BRANCH   3   6
ATOM      6  C   LIG d   1       2.764  -0.033  -9.059  0.00  0.00     0.090 C 
ATOM      7  H   LIG d   1       2.251   0.923  -8.962  0.00  0.00     0.056 H 
ATOM      8  N   LIG d   1       3.796   0.030 -10.125  0.00  0.00    -0.281 N 
ATOM      9  C   LIG d   1       3.063  -0.119 -11.403  0.00  0.00     0.000 C 
ATOM     10  C   LIG d   1       1.761  -0.882 -11.092  0.00  0.00    -0.038 C 
ATOM     11  H   LIG d   1       3.664  -0.686 -12.114  0.00  0.00     0.043 H 
ATOM     12  H   LIG d   1       2.829   0.864 -11.812  0.00  0.00     0.043 H 
ATOM     13  C   LIG d   1       1.791  -1.126  -9.566  0.00  0.00    -0.027 C 
ATOM     14  H   LIG d   1       1.742  -1.830 -11.628  0.00  0.00     0.028 H 
ATOM     15  H   LIG d   1       0.895  -0.277 -11.362  0.00  0.00     0.028 H 
ATOM     16  H   LIG d   1       2.177  -2.121  -9.343  0.00  0.00     0.029 H 
ATOM     17  H   LIG d   1       0.800  -0.991  -9.135  0.00  0.00     0.029 H 
BRANCH   8  18
ATOM     18  C   LIG d   1       4.524   1.306 -10.078  0.00  0.00     0.102 C 
ATOM     19  H   LIG d   1       4.790   1.610 -11.090  0.00  0.00     0.055 H 
ATOM     20  H   LIG d   1       3.891   2.068  -9.624  0.00  0.00     0.055 H 
BRANCH  18  21
ATOM     21  C   LIG d   1       5.777   1.139  -9.257  0.00  0.00     0.269 A 
ATOM     22  N   LIG d   1       6.414  -0.002  -9.047  0.00  0.00    -0.246 N 
ATOM     23  C   LIG d   1       7.487   0.249  -8.269  0.00  0.00     0.128 A 
ATOM     24  H   LIG d   1       6.154  -0.870  -9.395  0.00  0.00     0.310 HD
ATOM     25  C   LIG d   1       7.488   1.571  -8.001  0.00  0.00     0.128 A 
ATOM     26  H   LIG d   1       8.209  -0.475  -7.923  0.00  0.00     0.112 H 
ATOM     27  N   LIG d   1       6.418   2.108  -8.623  0.00  0.00    -0.246 N 
ATOM     28  H   LIG d   1       8.211   2.101  -7.400  0.00  0.00     0.112 H 
ATOM     29  H   LIG d   1       6.162   3.043  -8.608  0.00  0.00     0.310 HD
ENDBRANCH  18  21
ENDBRANCH   8  18
ENDBRANCH   3   6
BRANCH   1  30
ATOM     30  C   LIG d   1       4.209   0.089  -4.282  0.00  0.00     0.084 A 
ATOM     31  C   LIG d   1       5.449   0.592  -3.872  0.00  0.00     0.226 A 
ATOM     32  N   LIG d   1       5.622   1.020  -2.633  0.00  0.00    -0.221 NA
ATOM     33  C   LIG d   1       4.643   0.998  -1.748  0.00  0.00     0.031 A 
ATOM     34  C   LIG d   1       3.391   0.516  -2.080  0.00  0.00    -0.043 A 
ATOM     35  H   LIG d   1       4.824   1.361  -0.747  0.00  0.00     0.083 H 
ATOM     36  C   LIG d   1       3.160   0.051  -3.364  0.00  0.00    -0.044 A 
ATOM     37  H   LIG d   1       2.601   0.501  -1.344  0.00  0.00     0.063 H 
ATOM     38  H   LIG d   1       2.190  -0.330  -3.648  0.00  0.00     0.063 H 
BRANCH  31  39
ATOM     39  O   LIG d   1       6.481   0.638  -4.749  0.00  0.00    -0.474 OA
BRANCH  39  40
ATOM     40  C   LIG d   1       7.780   0.329  -4.239  0.00  0.00     0.115 C 
ATOM     41  H   LIG d   1       8.157  -0.572  -4.724  0.00  0.00     0.072 H 
ATOM     42  H   LIG d   1       7.719   0.165  -3.163  0.00  0.00     0.072 H 
BRANCH  40  43
ATOM     43  C   LIG d   1       8.730   1.495  -4.523  0.00  0.00     0.081 C 
ATOM     44  H   LIG d   1       8.405   2.017  -5.423  0.00  0.00     0.059 H 
ATOM     45  H   LIG d   1       9.741   1.113  -4.670  0.00  0.00     0.059 H 
BRANCH  43  46
ATOM     46  O   LIG d   1       8.719   2.399  -3.417  0.00  0.00    -0.380 OA
BRANCH  46  47
ATOM     47  C   LIG d   1      10.009   2.903  -3.064  0.00  0.00     0.037 C 
ATOM     48  H   LIG d   1      10.227   2.650  -2.028  0.00  0.00     0.052 H 
ATOM     49  H   LIG d   1      10.762   2.457  -3.713  0.00  0.00     0.052 H 
ATOM     50  H   LIG d   1      10.020   3.986  -3.184  0.00  0.00     0.052 H 
ENDBRANCH  46  47
ENDBRANCH  43  46
ENDBRANCH  40  43
ENDBRANCH  39  40
ENDBRANCH  31  39
ENDBRANCH   1  30
TORSDOF 9
ENDMDL
MODEL 8
REMARK VINA RESULT:      -5.6      2.074      6.088
REMARK  9 active torsions:
REMARK  status: ('A' for Active; 'I' for Inactive)
REMARK    1  A    between atoms: C_1  and  O_2 
REMARK    2  A    between atoms: O_2  and  C_3 
REMARK    3  A    between atoms: C_3  and  C_4 
REMARK    4  A    between atoms: C_4  and  O_5 
REMARK    5  A    between atoms: O_5  and  C_6 
REMARK    6  A    between atoms: C_7  and  C_12 
REMARK    7  A    between atoms: C_14  and  C_17 
REMARK    8  A    between atoms: N_22  and  C_23 
REMARK    9  A    between atoms: C_23  and  C_24 
ROOT
ATOM      1  C   LIG d   1       4.049  -0.456  -5.651  0.00  0.00     0.207 A 
ATOM      2  N   LIG d   1       3.491   0.243  -6.656  0.00  0.00    -0.190 NA
ATOM      3  C   LIG d   1       3.454  -0.483  -7.737  0.00  0.00     0.245 A 
ATOM      4  O   LIG d   1       3.988  -1.680  -7.464  0.00  0.00    -0.336 OA
ATOM      5  N   LIG d   1       4.377  -1.644  -6.098  0.00  0.00    -0.056 NA
ENDROOT
BRANCH   3   6
ATOM      6  C   LIG d   1       2.900  -0.048  -9.070  0.00  0.00     0.090 C 
ATOM      7  H   LIG d   1       2.323   0.869  -8.965  0.00  0.00     0.056 H 
ATOM      8  N   LIG d   1       3.995   0.130 -10.057  0.00  0.00    -0.281 N 
ATOM      9  C   LIG d   1       3.360   0.001 -11.389  0.00  0.00     0.000 C 
ATOM     10  C   LIG d   1       2.091  -0.852 -11.205  0.00  0.00    -0.038 C 
ATOM     11  H   LIG d   1       4.041  -0.492 -12.082  0.00  0.00     0.043 H 
ATOM     12  H   LIG d   1       3.092   0.988 -11.767  0.00  0.00     0.043 H 
ATOM     13  C   LIG d   1       2.034  -1.171  -9.694  0.00  0.00    -0.027 C 
ATOM     14  H   LIG d   1       2.166  -1.772 -11.784  0.00  0.00     0.028 H 
ATOM     15  H   LIG d   1       1.208  -0.286 -11.506  0.00  0.00     0.028 H 
ATOM     16  H   LIG d   1       2.466  -2.151  -9.491  0.00  0.00     0.029 H 
ATOM     17  H   LIG d   1       1.010  -1.117  -9.327  0.00  0.00     0.029 H 
BRANCH   8  18
ATOM     18  C   LIG d   1       4.637   1.442  -9.901  0.00  0.00     0.102 C 
ATOM     19  H   LIG d   1       4.735   1.918 -10.876  0.00  0.00     0.055 H 
ATOM     20  H   LIG d   1       4.027   2.069  -9.250  0.00  0.00     0.055 H 
BRANCH  18  21
ATOM     21  C   LIG d   1       6.003   1.263  -9.290  0.00  0.00     0.269 A 
ATOM     22  N   LIG d   1       7.076   0.815  -9.921  0.00  0.00    -0.246 N 
ATOM     23  C   LIG d   1       8.104   0.797  -9.048  0.00  0.00     0.128 A 
ATOM     24  H   LIG d   1       7.118   0.548 -10.853  0.00  0.00     0.310 HD
ATOM     25  C   LIG d   1       7.633   1.237  -7.863  0.00  0.00     0.128 A 
ATOM     26  H   LIG d   1       9.117   0.485  -9.257  0.00  0.00     0.112 H 
ATOM     27  N   LIG d   1       6.325   1.522  -8.032  0.00  0.00    -0.246 N 
ATOM     28  H   LIG d   1       8.197   1.342  -6.949  0.00  0.00     0.112 H 
ATOM     29  H   LIG d   1       5.724   1.859  -7.350  0.00  0.00     0.310 HD
ENDBRANCH  18  21
ENDBRANCH   8  18
ENDBRANCH   3   6
BRANCH   1  30
ATOM     30  C   LIG d   1       4.263   0.037  -4.268  0.00  0.00     0.084 A 
ATOM     31  C   LIG d   1       5.502   0.564  -3.884  0.00  0.00     0.226 A 
ATOM     32  N   LIG d   1       5.692   0.998  -2.650  0.00  0.00    -0.221 NA
ATOM     33  C   LIG d   1       4.731   0.962  -1.746  0.00  0.00     0.031 A 
ATOM     34  C   LIG d   1       3.481   0.456  -2.051  0.00  0.00    -0.043 A 
ATOM     35  H   LIG d   1       4.925   1.332  -0.750  0.00  0.00     0.083 H 
ATOM     36  C   LIG d   1       3.233  -0.017  -3.329  0.00  0.00    -0.044 A 
ATOM     37  H   LIG d   1       2.707   0.429  -1.299  0.00  0.00     0.063 H 
ATOM     38  H   LIG d   1       2.265  -0.417  -3.592  0.00  0.00     0.063 H 
BRANCH  31  39
ATOM     39  O   LIG d   1       6.515   0.625  -4.782  0.00  0.00    -0.474 OA
BRANCH  39  40
ATOM     40  C   LIG d   1       7.774   0.083  -4.377  0.00  0.00     0.115 C 
ATOM     41  H   LIG d   1       7.811   0.022  -3.290  0.00  0.00     0.072 H 
ATOM     42  H   LIG d   1       8.578   0.728  -4.732  0.00  0.00     0.072 H 
BRANCH  40  43
ATOM     43  C   LIG d   1       7.943  -1.317  -4.972  0.00  0.00     0.081 C 
ATOM     44  H   LIG d   1       9.001  -1.514  -5.141  0.00  0.00     0.059 H 
ATOM     45  H   LIG d   1       7.407  -1.377  -5.919  0.00  0.00     0.059 H 
BRANCH  43  46
ATOM     46  O   LIG d   1       7.415  -2.286  -4.064  0.00  0.00    -0.380 OA
BRANCH  46  47
ATOM     47  C   LIG d   1       7.160  -3.561  -4.659  0.00  0.00     0.037 C 
ATOM     48  H   LIG d   1       6.085  -3.703  -4.765  0.00  0.00     0.052 H 
ATOM     49  H   LIG d   1       7.631  -3.604  -5.640  0.00  0.00     0.052 H 
ATOM     50  H   LIG d   1       7.569  -4.346  -4.023  0.00  0.00     0.052 H 
ENDBRANCH  46  47
ENDBRANCH  43  46
ENDBRANCH  40  43
ENDBRANCH  39  40
ENDBRANCH  31  39
ENDBRANCH   1  30
TORSDOF 9
ENDMDL
MODEL 9
REMARK VINA RESULT:      -5.6      1.686      2.203
REMARK  9 active torsions:
REMARK  status: ('A' for Active; 'I' for Inactive)
REMARK    1  A    between atoms: C_1  and  O_2 
REMARK    2  A    between atoms: O_2  and  C_3 
REMARK    3  A    between atoms: C_3  and  C_4 
REMARK    4  A    between atoms: C_4  and  O_5 
REMARK    5  A    between atoms: O_5  and  C_6 
REMARK    6  A    between atoms: C_7  and  C_12 
REMARK    7  A    between atoms: C_14  and  C_17 
REMARK    8  A    between atoms: N_22  and  C_23 
REMARK    9  A    between atoms: C_23  and  C_24 
ROOT
ATOM      1  C   LIG d   1       4.363  -0.872  -7.347  0.00  0.00     0.207 A 
ATOM      2  N   LIG d   1       4.412  -0.194  -6.187  0.00  0.00    -0.190 NA
ATOM      3  C   LIG d   1       4.490  -1.027  -5.188  0.00  0.00     0.245 A 
ATOM      4  O   LIG d   1       4.494  -2.274  -5.673  0.00  0.00    -0.336 OA
ATOM      5  N   LIG d   1       4.405  -2.156  -7.085  0.00  0.00    -0.056 NA
ENDROOT
BRANCH   3   6
ATOM      6  C   LIG d   1       4.565  -0.647  -3.730  0.00  0.00     0.090 C 
ATOM      7  H   LIG d   1       4.842  -1.508  -3.124  0.00  0.00     0.056 H 
ATOM      8  N   LIG d   1       5.524   0.468  -3.528  0.00  0.00    -0.281 N 
ATOM      9  C   LIG d   1       5.128   1.112  -2.254  0.00  0.00     0.000 C 
ATOM     10  C   LIG d   1       3.632   0.816  -2.042  0.00  0.00    -0.038 C 
ATOM     11  H   LIG d   1       5.288   2.189  -2.315  0.00  0.00     0.043 H 
ATOM     12  H   LIG d   1       5.710   0.693  -1.433  0.00  0.00     0.043 H 
ATOM     13  C   LIG d   1       3.216  -0.053  -3.252  0.00  0.00    -0.027 C 
ATOM     14  H   LIG d   1       3.061   1.744  -2.028  0.00  0.00     0.028 H 
ATOM     15  H   LIG d   1       3.484   0.266  -1.113  0.00  0.00     0.028 H 
ATOM     16  H   LIG d   1       2.767   0.563  -4.031  0.00  0.00     0.029 H 
ATOM     17  H   LIG d   1       2.534  -0.843  -2.942  0.00  0.00     0.029 H 
BRANCH   8  18
ATOM     18  C   LIG d   1       6.905  -0.029  -3.464  0.00  0.00     0.102 C 
ATOM     19  H   LIG d   1       7.293   0.106  -2.456  0.00  0.00     0.055 H 
ATOM     20  H   LIG d   1       6.921  -1.089  -3.721  0.00  0.00     0.055 H 
BRANCH  18  21
ATOM     21  C   LIG d   1       7.761   0.737  -4.440  0.00  0.00     0.269 A 
ATOM     22  N   LIG d   1       7.357   1.221  -5.603  0.00  0.00    -0.246 N 
ATOM     23  C   LIG d   1       8.401   1.843  -6.188  0.00  0.00     0.128 A 
ATOM     24  H   LIG d   1       6.463   1.143  -5.972  0.00  0.00     0.310 HD
ATOM     25  C   LIG d   1       9.457   1.722  -5.358  0.00  0.00     0.128 A 
ATOM     26  H   LIG d   1       8.394   2.343  -7.145  0.00  0.00     0.112 H 
ATOM     27  N   LIG d   1       9.040   1.032  -4.276  0.00  0.00    -0.246 N 
ATOM     28  H   LIG d   1      10.451   2.107  -5.527  0.00  0.00     0.112 H 
ATOM     29  H   LIG d   1       9.585   0.792  -3.510  0.00  0.00     0.310 HD
ENDBRANCH  18  21
ENDBRANCH   8  18
ENDBRANCH   3   6
BRANCH   1  30
ATOM     30  C   LIG d   1       4.270  -0.268  -8.699  0.00  0.00     0.084 A 
ATOM     31  C   LIG d   1       5.413   0.231  -9.335  0.00  0.00     0.226 A 
ATOM     32  N   LIG d   1       5.328   0.772 -10.538  0.00  0.00    -0.221 NA
ATOM     33  C   LIG d   1       4.178   0.854 -11.183  0.00  0.00     0.031 A 
ATOM     34  C   LIG d   1       3.008   0.383 -10.619  0.00  0.00    -0.043 A 
ATOM     35  H   LIG d   1       4.152   1.300 -12.166  0.00  0.00     0.083 H 
ATOM     36  C   LIG d   1       3.043  -0.188  -9.357  0.00  0.00    -0.044 A 
ATOM     37  H   LIG d   1       2.075   0.461 -11.157  0.00  0.00     0.063 H 
ATOM     38  H   LIG d   1       2.142  -0.564  -8.896  0.00  0.00     0.063 H 
BRANCH  31  39
ATOM     39  O   LIG d   1       6.614   0.163  -8.712  0.00  0.00    -0.474 OA
BRANCH  39  40
ATOM     40  C   LIG d   1       7.540  -0.815  -9.191  0.00  0.00     0.115 C 
ATOM     41  H   LIG d   1       8.116  -0.398 -10.017  0.00  0.00     0.072 H 
ATOM     42  H   LIG d   1       6.993  -1.693  -9.537  0.00  0.00     0.072 H 
BRANCH  40  43
ATOM     43  C   LIG d   1       8.489  -1.217  -8.060  0.00  0.00     0.081 C 
ATOM     44  H   LIG d   1       9.124  -0.370  -7.802  0.00  0.00     0.059 H 
ATOM     45  H   LIG d   1       9.110  -2.051  -8.386  0.00  0.00     0.059 H 
BRANCH  43  46
ATOM     46  O   LIG d   1       7.728  -1.609  -6.916  0.00  0.00    -0.380 OA
BRANCH  46  47
ATOM     47  C   LIG d   1       8.390  -2.555  -6.074  0.00  0.00     0.037 C 
ATOM     48  H   LIG d   1       8.475  -3.509  -6.595  0.00  0.00     0.052 H 
ATOM     49  H   LIG d   1       9.385  -2.187  -5.827  0.00  0.00     0.052 H 
ATOM     50  H   LIG d   1       7.814  -2.691  -5.159  0.00  0.00     0.052 H 
ENDBRANCH  46  47
ENDBRANCH  43  46
ENDBRANCH  40  43
ENDBRANCH  39  40
ENDBRANCH  31  39
ENDBRANCH   1  30
TORSDOF 9
ENDMDL
