MODEL 1
REMARK VINA RESULT:      -7.5      0.000      0.000
REMARK  9 active torsions:
REMARK  status: ('A' for Active; 'I' for Inactive)
REMARK    1  A    between atoms: C_1  and  O_2 
REMARK    2  A    between atoms: O_2  and  C_3 
REMARK    3  A    between atoms: C_3  and  C_4 
REMARK    4  A    between atoms: C_4  and  C_5 
REMARK       I    between atoms: C_5  and  N_7 
REMARK    5  A    between atoms: C_18  and  N_23 
REMARK    6  A    between atoms: N_23  and  S_24 
REMARK    7  A    between atoms: S_24  and  C_27 
REMARK    8  A    between atoms: C_30  and  O_33 
REMARK    9  A    between atoms: O_33  and  C_34 
ROOT
ATOM      1  C   LIG d   1       6.460   0.755  -3.491  0.00  0.00     0.218 C 
ATOM      2  O   LIG d   1       6.168   1.897  -3.206  0.00  0.00    -0.276 OA
ATOM      3  N   LIG d   1       5.819  -0.272  -2.900  0.00  0.00    -0.300 N 
ATOM      4  C   LIG d   1       4.764  -0.028  -1.910  0.00  0.00     0.019 C 
ATOM      5  C   LIG d   1       3.517  -0.830  -2.261  0.00  0.00    -0.006 C 
ATOM      6  H   LIG d   1       2.835  -0.786  -1.413  0.00  0.00     0.033 H 
ATOM      7  C   LIG d   1       3.864  -2.297  -2.519  0.00  0.00    -0.037 C 
ATOM      8  C   LIG d   1       4.877  -2.362  -3.664  0.00  0.00     0.016 C 
ATOM      9  H   LIG d   1       5.070  -3.400  -3.935  0.00  0.00     0.038 H 
ATOM     10  C   LIG d   1       6.170  -1.667  -3.207  0.00  0.00     0.023 C 
ATOM     11  C   LIG d   1       4.346  -1.603  -4.858  0.00  0.00     0.027 C 
ATOM     12  C   LIG d   1       4.788  -1.979  -6.087  0.00  0.00    -0.040 C 
ATOM     13  C   LIG d   1       4.445  -1.239  -7.224  0.00  0.00    -0.032 C 
ATOM     14  C   LIG d   1       3.670  -0.121  -7.077  0.00  0.00     0.112 C 
ATOM     15  C   LIG d   1       3.223   0.236  -5.789  0.00  0.00     0.274 C 
ATOM     16  O   LIG d   1       2.579   1.262  -5.634  0.00  0.00    -0.266 OA
ATOM     17  N   LIG d   1       3.499  -0.553  -4.722  0.00  0.00    -0.310 N 
ATOM     18  C   LIG d   1       2.807  -0.247  -3.470  0.00  0.00     0.031 C 
ATOM     19  H   LIG d   1       4.518   1.034  -1.899  0.00  0.00     0.047 H 
ATOM     20  H   LIG d   1       5.117  -0.325  -0.923  0.00  0.00     0.047 H 
ATOM     21  H   LIG d   1       2.962  -2.843  -2.796  0.00  0.00     0.028 H 
ATOM     22  H   LIG d   1       4.299  -2.733  -1.620  0.00  0.00     0.028 H 
ATOM     23  H   LIG d   1       6.570  -2.171  -2.327  0.00  0.00     0.047 H 
ATOM     24  H   LIG d   1       6.906  -1.684  -4.012  0.00  0.00     0.047 H 
ATOM     25  H   LIG d   1       5.411  -2.856  -6.186  0.00  0.00     0.064 H 
ATOM     26  H   LIG d   1       4.785  -1.546  -8.202  0.00  0.00     0.064 H 
ATOM     27  H   LIG d   1       2.744   0.835  -3.355  0.00  0.00     0.050 H 
ATOM     28  H   LIG d   1       1.797  -0.654  -3.516  0.00  0.00     0.050 H 
ENDROOT
BRANCH  14  29
ATOM     29  N   LIG d   1       3.328   0.658  -8.189  0.00  0.00    -0.211 N 
ATOM     30  H   LIG d   1       2.408   0.693  -8.493  0.00  0.00     0.174 HD
BRANCH  29  31
ATOM     31  S   LIG d   1       4.496   1.519  -8.987  0.00  0.00     0.072 S 
ATOM     32  O   LIG d   1       3.875   2.707  -9.459  0.00  0.00    -0.150 OA
ATOM     33  O   LIG d   1       5.636   1.540  -8.139  0.00  0.00    -0.150 OA
BRANCH  31  34
ATOM     34  C   LIG d   1       4.948   0.586 -10.413  0.00  0.00     0.109 A 
ATOM     35  C   LIG d   1       6.177  -0.045 -10.463  0.00  0.00    -0.032 A 
ATOM     36  C   LIG d   1       6.534  -0.777 -11.579  0.00  0.00    -0.018 A 
ATOM     37  H   LIG d   1       6.860   0.035  -9.629  0.00  0.00     0.064 H 
ATOM     38  C   LIG d   1       5.658  -0.878 -12.650  0.00  0.00     0.120 A 
ATOM     39  H   LIG d   1       7.495  -1.269 -11.617  0.00  0.00     0.066 H 
ATOM     40  C   LIG d   1       4.424  -0.245 -12.597  0.00  0.00    -0.018 A 
ATOM     41  C   LIG d   1       4.071   0.481 -11.476  0.00  0.00    -0.032 A 
ATOM     42  H   LIG d   1       3.741  -0.323 -13.428  0.00  0.00     0.066 H 
ATOM     43  H   LIG d   1       3.109   0.971 -11.432  0.00  0.00     0.064 H 
BRANCH  38  44
ATOM     44  O   LIG d   1       6.006  -1.599 -13.748  0.00  0.00    -0.495 OA
BRANCH  44  45
ATOM     45  C   LIG d   1       6.491  -0.868 -14.876  0.00  0.00     0.079 C 
ATOM     46  H   LIG d   1       6.601   0.183 -14.608  0.00  0.00     0.066 H 
ATOM     47  H   LIG d   1       7.458  -1.269 -15.180  0.00  0.00     0.066 H 
ATOM     48  H   LIG d   1       5.784  -0.960 -15.700  0.00  0.00     0.066 H 
ENDBRANCH  44  45
ENDBRANCH  38  44
ENDBRANCH  31  34
ENDBRANCH  29  31
ENDBRANCH  14  29
BRANCH   1  49
ATOM     49  C   LIG d   1       7.542   0.486  -4.505  0.00  0.00     0.048 C 
ATOM     50  H   LIG d   1       8.197  -0.304  -4.137  0.00  0.00     0.038 H 
ATOM     51  H   LIG d   1       7.088   0.172  -5.445  0.00  0.00     0.038 H 
BRANCH  49  52
ATOM     52  C   LIG d   1       8.357   1.760  -4.733  0.00  0.00     0.056 C 
ATOM     53  H   LIG d   1       8.796   1.737  -5.729  0.00  0.00     0.056 H 
ATOM     54  H   LIG d   1       7.704   2.629  -4.643  0.00  0.00     0.056 H 
BRANCH  52  55
ATOM     55  O   LIG d   1       9.396   1.843  -3.755  0.00  0.00    -0.383 OA
BRANCH  55  56
ATOM     56  C   LIG d   1       9.669   3.172  -3.308  0.00  0.00     0.036 C 
ATOM     57  H   LIG d   1       8.738   3.651  -3.003  0.00  0.00     0.052 H 
ATOM     58  H   LIG d   1      10.354   3.138  -2.462  0.00  0.00     0.052 H 
ATOM     59  H   LIG d   1      10.122   3.742  -4.120  0.00  0.00     0.052 H 
ENDBRANCH  55  56
ENDBRANCH  52  55
ENDBRANCH  49  52
ENDBRANCH   1  49
TORSDOF 9
ENDMDL
MODEL 2
REMARK VINA RESULT:      -7.3      1.583      2.042
REMARK  9 active torsions:
REMARK  status: ('A' for Active; 'I' for Inactive)
REMARK    1  A    between atoms: C_1  and  O_2 
REMARK    2  A    between atoms: O_2  and  C_3 
REMARK    3  A    between atoms: C_3  and  C_4 
REMARK    4  A    between atoms: C_4  and  C_5 
REMARK       I    between atoms: C_5  and  N_7 
REMARK    5  A    between atoms: C_18  and  N_23 
REMARK    6  A    between atoms: N_23  and  S_24 
REMARK    7  A    between atoms: S_24  and  C_27 
REMARK    8  A    between atoms: C_30  and  O_33 
REMARK    9  A    between atoms: O_33  and  C_34 
ROOT
ATOM      1  C   LIG d   1       6.557   0.681  -3.429  0.00  0.00     0.218 C 
ATOM      2  O   LIG d   1       6.285   1.856  -3.301  0.00  0.00    -0.276 OA
ATOM      3  N   LIG d   1       5.786  -0.257  -2.845  0.00  0.00    -0.300 N 
ATOM      4  C   LIG d   1       4.612   0.125  -2.051  0.00  0.00     0.019 C 
ATOM      5  C   LIG d   1       3.391  -0.663  -2.506  0.00  0.00    -0.006 C 
ATOM      6  H   LIG d   1       2.596  -0.508  -1.777  0.00  0.00     0.033 H 
ATOM      7  C   LIG d   1       3.696  -2.160  -2.569  0.00  0.00    -0.037 C 
ATOM      8  C   LIG d   1       4.859  -2.378  -3.539  0.00  0.00     0.016 C 
ATOM      9  H   LIG d   1       5.037  -3.444  -3.678  0.00  0.00     0.038 H 
ATOM     10  C   LIG d   1       6.107  -1.687  -2.962  0.00  0.00     0.023 C 
ATOM     11  C   LIG d   1       4.546  -1.726  -4.865  0.00  0.00     0.027 C 
ATOM     12  C   LIG d   1       5.142  -2.240  -5.973  0.00  0.00    -0.040 C 
ATOM     13  C   LIG d   1       5.004  -1.608  -7.213  0.00  0.00    -0.032 C 
ATOM     14  C   LIG d   1       4.274  -0.453  -7.291  0.00  0.00     0.112 C 
ATOM     15  C   LIG d   1       3.664   0.049  -6.124  0.00  0.00     0.274 C 
ATOM     16  O   LIG d   1       3.058   1.108  -6.164  0.00  0.00    -0.266 OA
ATOM     17  N   LIG d   1       3.743  -0.638  -4.957  0.00  0.00    -0.310 N 
ATOM     18  C   LIG d   1       2.893  -0.181  -3.857  0.00  0.00     0.031 C 
ATOM     19  H   LIG d   1       4.422   1.191  -2.178  0.00  0.00     0.047 H 
ATOM     20  H   LIG d   1       4.804  -0.083  -0.999  0.00  0.00     0.047 H 
ATOM     21  H   LIG d   1       2.817  -2.698  -2.923  0.00  0.00     0.028 H 
ATOM     22  H   LIG d   1       3.974  -2.518  -1.577  0.00  0.00     0.028 H 
ATOM     23  H   LIG d   1       6.349  -2.113  -1.989  0.00  0.00     0.047 H 
ATOM     24  H   LIG d   1       6.949  -1.812  -3.643  0.00  0.00     0.047 H 
ATOM     25  H   LIG d   1       5.727  -3.144  -5.894  0.00  0.00     0.064 H 
ATOM     26  H   LIG d   1       5.466  -2.024  -8.096  0.00  0.00     0.064 H 
ATOM     27  H   LIG d   1       2.870   0.909  -3.857  0.00  0.00     0.050 H 
ATOM     28  H   LIG d   1       1.881  -0.553  -4.014  0.00  0.00     0.050 H 
ENDROOT
BRANCH  14  29
ATOM     29  N   LIG d   1       4.137   0.221  -8.511  0.00  0.00    -0.211 N 
ATOM     30  H   LIG d   1       4.889   0.705  -8.885  0.00  0.00     0.174 HD
BRANCH  29  31
ATOM     31  S   LIG d   1       2.688   0.193  -9.313  0.00  0.00     0.072 S 
ATOM     32  O   LIG d   1       1.909  -0.830  -8.709  0.00  0.00    -0.150 OA
ATOM     33  O   LIG d   1       2.245   1.540  -9.398  0.00  0.00    -0.150 OA
BRANCH  31  34
ATOM     34  C   LIG d   1       3.017  -0.333 -10.963  0.00  0.00     0.109 A 
ATOM     35  C   LIG d   1       4.156   0.108 -11.613  0.00  0.00    -0.032 A 
ATOM     36  C   LIG d   1       4.417  -0.302 -12.906  0.00  0.00    -0.018 A 
ATOM     37  H   LIG d   1       4.841   0.774 -11.109  0.00  0.00     0.064 H 
ATOM     38  C   LIG d   1       3.535  -1.157 -13.552  0.00  0.00     0.120 A 
ATOM     39  H   LIG d   1       5.305   0.043 -13.413  0.00  0.00     0.066 H 
ATOM     40  C   LIG d   1       2.394  -1.598 -12.898  0.00  0.00    -0.018 A 
ATOM     41  C   LIG d   1       2.141  -1.189 -11.603  0.00  0.00    -0.032 A 
ATOM     42  H   LIG d   1       1.707  -2.264 -13.398  0.00  0.00     0.066 H 
ATOM     43  H   LIG d   1       1.255  -1.535 -11.091  0.00  0.00     0.064 H 
BRANCH  38  44
ATOM     44  O   LIG d   1       3.790  -1.562 -14.824  0.00  0.00    -0.495 OA
BRANCH  44  45
ATOM     45  C   LIG d   1       3.308  -2.854 -15.202  0.00  0.00     0.079 C 
ATOM     46  H   LIG d   1       3.016  -3.408 -14.309  0.00  0.00     0.066 H 
ATOM     47  H   LIG d   1       2.446  -2.741 -15.859  0.00  0.00     0.066 H 
ATOM     48  H   LIG d   1       4.095  -3.397 -15.725  0.00  0.00     0.066 H 
ENDBRANCH  44  45
ENDBRANCH  38  44
ENDBRANCH  31  34
ENDBRANCH  29  31
ENDBRANCH  14  29
BRANCH   1  49
ATOM     49  C   LIG d   1       7.759   0.271  -4.240  0.00  0.00     0.048 C 
ATOM     50  H   LIG d   1       8.630   0.198  -3.589  0.00  0.00     0.038 H 
ATOM     51  H   LIG d   1       7.570  -0.696  -4.705  0.00  0.00     0.038 H 
BRANCH  49  52
ATOM     52  C   LIG d   1       8.021   1.315  -5.327  0.00  0.00     0.056 C 
ATOM     53  H   LIG d   1       7.918   2.314  -4.905  0.00  0.00     0.056 H 
ATOM     54  H   LIG d   1       9.032   1.188  -5.716  0.00  0.00     0.056 H 
BRANCH  52  55
ATOM     55  O   LIG d   1       7.078   1.147  -6.388  0.00  0.00    -0.383 OA
BRANCH  55  56
ATOM     56  C   LIG d   1       7.563   1.560  -7.667  0.00  0.00     0.036 C 
ATOM     57  H   LIG d   1       8.256   0.811  -8.052  0.00  0.00     0.052 H 
ATOM     58  H   LIG d   1       6.725   1.667  -8.356  0.00  0.00     0.052 H 
ATOM     59  H   LIG d   1       8.077   2.516  -7.569  0.00  0.00     0.052 H 
ENDBRANCH  55  56
ENDBRANCH  52  55
ENDBRANCH  49  52
ENDBRANCH   1  49
TORSDOF 9
ENDMDL
MODEL 3
REMARK VINA RESULT:      -6.9      2.451      2.841
REMARK  9 active torsions:
REMARK  status: ('A' for Active; 'I' for Inactive)
REMARK    1  A    between atoms: C_1  and  O_2 
REMARK    2  A    between atoms: O_2  and  C_3 
REMARK    3  A    between atoms: C_3  and  C_4 
REMARK    4  A    between atoms: C_4  and  C_5 
REMARK       I    between atoms: C_5  and  N_7 
REMARK    5  A    between atoms: C_18  and  N_23 
REMARK    6  A    between atoms: N_23  and  S_24 
REMARK    7  A    between atoms: S_24  and  C_27 
REMARK    8  A    between atoms: C_30  and  O_33 
REMARK    9  A    between atoms: O_33  and  C_34 
ROOT
ATOM      1  C   LIG d   1       6.570   0.703  -3.479  0.00  0.00     0.218 C 
ATOM      2  O   LIG d   1       6.268   1.873  -3.367  0.00  0.00    -0.276 OA
ATOM      3  N   LIG d   1       5.828  -0.246  -2.875  0.00  0.00    -0.300 N 
ATOM      4  C   LIG d   1       4.651   0.118  -2.077  0.00  0.00     0.019 C 
ATOM      5  C   LIG d   1       3.447  -0.708  -2.511  0.00  0.00    -0.006 C 
ATOM      6  H   LIG d   1       2.654  -0.563  -1.777  0.00  0.00     0.033 H 
ATOM      7  C   LIG d   1       3.790  -2.198  -2.553  0.00  0.00    -0.037 C 
ATOM      8  C   LIG d   1       4.951  -2.400  -3.529  0.00  0.00     0.016 C 
ATOM      9  H   LIG d   1       5.155  -3.464  -3.653  0.00  0.00     0.038 H 
ATOM     10  C   LIG d   1       6.185  -1.669  -2.973  0.00  0.00     0.023 C 
ATOM     11  C   LIG d   1       4.611  -1.777  -4.863  0.00  0.00     0.027 C 
ATOM     12  C   LIG d   1       5.211  -2.293  -5.967  0.00  0.00    -0.040 C 
ATOM     13  C   LIG d   1       5.047  -1.683  -7.216  0.00  0.00    -0.032 C 
ATOM     14  C   LIG d   1       4.287  -0.549  -7.305  0.00  0.00     0.112 C 
ATOM     15  C   LIG d   1       3.673  -0.046  -6.141  0.00  0.00     0.274 C 
ATOM     16  O   LIG d   1       3.039   0.996  -6.192  0.00  0.00    -0.266 OA
ATOM     17  N   LIG d   1       3.779  -0.712  -4.965  0.00  0.00    -0.310 N 
ATOM     18  C   LIG d   1       2.926  -0.260  -3.865  0.00  0.00     0.031 C 
ATOM     19  H   LIG d   1       4.432   1.176  -2.219  0.00  0.00     0.047 H 
ATOM     20  H   LIG d   1       4.856  -0.069  -1.024  0.00  0.00     0.047 H 
ATOM     21  H   LIG d   1       2.923  -2.764  -2.892  0.00  0.00     0.028 H 
ATOM     22  H   LIG d   1       4.085  -2.533  -1.559  0.00  0.00     0.028 H 
ATOM     23  H   LIG d   1       6.446  -2.073  -1.995  0.00  0.00     0.047 H 
ATOM     24  H   LIG d   1       7.025  -1.782  -3.659  0.00  0.00     0.047 H 
ATOM     25  H   LIG d   1       5.820  -3.180  -5.879  0.00  0.00     0.064 H 
ATOM     26  H   LIG d   1       5.513  -2.101  -8.096  0.00  0.00     0.064 H 
ATOM     27  H   LIG d   1       2.874   0.829  -3.880  0.00  0.00     0.050 H 
ATOM     28  H   LIG d   1       1.923  -0.661  -4.008  0.00  0.00     0.050 H 
ENDROOT
BRANCH  14  29
ATOM     29  N   LIG d   1       4.123   0.102  -8.534  0.00  0.00    -0.211 N 
ATOM     30  H   LIG d   1       4.681   0.863  -8.758  0.00  0.00     0.174 HD
BRANCH  29  31
ATOM     31  S   LIG d   1       2.973  -0.426  -9.603  0.00  0.00     0.072 S 
ATOM     32  O   LIG d   1       1.758  -0.529  -8.875  0.00  0.00    -0.150 OA
ATOM     33  O   LIG d   1       3.100   0.381 -10.765  0.00  0.00    -0.150 OA
BRANCH  31  34
ATOM     34  C   LIG d   1       3.417  -2.064 -10.077  0.00  0.00     0.109 A 
ATOM     35  C   LIG d   1       4.533  -2.275 -10.867  0.00  0.00    -0.032 A 
ATOM     36  C   LIG d   1       4.883  -3.558 -11.241  0.00  0.00    -0.018 A 
ATOM     37  H   LIG d   1       5.130  -1.436 -11.193  0.00  0.00     0.064 H 
ATOM     38  C   LIG d   1       4.115  -4.635 -10.823  0.00  0.00     0.120 A 
ATOM     39  H   LIG d   1       5.754  -3.722 -11.858  0.00  0.00     0.066 H 
ATOM     40  C   LIG d   1       2.997  -4.421 -10.029  0.00  0.00    -0.018 A 
ATOM     41  C   LIG d   1       2.654  -3.137  -9.654  0.00  0.00    -0.032 A 
ATOM     42  H   LIG d   1       2.398  -5.258  -9.702  0.00  0.00     0.066 H 
ATOM     43  H   LIG d   1       1.787  -2.969  -9.034  0.00  0.00     0.064 H 
BRANCH  38  44
ATOM     44  O   LIG d   1       4.459  -5.898 -11.188  0.00  0.00    -0.495 OA
BRANCH  44  45
ATOM     45  C   LIG d   1       5.124  -6.698 -10.209  0.00  0.00     0.079 C 
ATOM     46  H   LIG d   1       4.417  -6.977  -9.427  0.00  0.00     0.066 H 
ATOM     47  H   LIG d   1       5.516  -7.599 -10.682  0.00  0.00     0.066 H 
ATOM     48  H   LIG d   1       5.945  -6.131  -9.771  0.00  0.00     0.066 H 
ENDBRANCH  44  45
ENDBRANCH  38  44
ENDBRANCH  31  34
ENDBRANCH  29  31
ENDBRANCH  14  29
BRANCH   1  49
ATOM     49  C   LIG d   1       7.775   0.312  -4.294  0.00  0.00     0.048 C 
ATOM     50  H   LIG d   1       8.649   0.253  -3.646  0.00  0.00     0.038 H 
ATOM     51  H   LIG d   1       7.601  -0.659  -4.757  0.00  0.00     0.038 H 
BRANCH  49  52
ATOM     52  C   LIG d   1       8.017   1.359  -5.383  0.00  0.00     0.056 C 
ATOM     53  H   LIG d   1       7.878   2.356  -4.966  0.00  0.00     0.056 H 
ATOM     54  H   LIG d   1       9.035   1.261  -5.760  0.00  0.00     0.056 H 
BRANCH  52  55
ATOM     55  O   LIG d   1       7.092   1.157  -6.453  0.00  0.00    -0.383 OA
BRANCH  55  56
ATOM     56  C   LIG d   1       7.582   1.567  -7.730  0.00  0.00     0.036 C 
ATOM     57  H   LIG d   1       7.321   0.817  -8.478  0.00  0.00     0.052 H 
ATOM     58  H   LIG d   1       7.134   2.522  -8.003  0.00  0.00     0.052 H 
ATOM     59  H   LIG d   1       8.666   1.674  -7.686  0.00  0.00     0.052 H 
ENDBRANCH  55  56
ENDBRANCH  52  55
ENDBRANCH  49  52
ENDBRANCH   1  49
TORSDOF 9
ENDMDL
MODEL 4
REMARK VINA RESULT:      -6.3      3.334      7.082
REMARK  9 active torsions:
REMARK  status: ('A' for Active; 'I' for Inactive)
REMARK    1  A    between atoms: C_1  and  O_2 
REMARK    2  A    between atoms: O_2  and  C_3 
REMARK    3  A    between atoms: C_3  and  C_4 
REMARK    4  A    between atoms: C_4  and  C_5 
REMARK       I    between atoms: C_5  and  N_7 
REMARK    5  A    between atoms: C_18  and  N_23 
REMARK    6  A    between atoms: N_23  and  S_24 
REMARK    7  A    between atoms: S_24  and  C_27 
REMARK    8  A    between atoms: C_30  and  O_33 
REMARK    9  A    between atoms: O_33  and  C_34 
ROOT
ATOM      1  C   LIG d   1       4.125   0.247  -6.998  0.00  0.00     0.218 C 
ATOM      2  O   LIG d   1       5.173   0.395  -6.407  0.00  0.00    -0.276 OA
ATOM      3  N   LIG d   1       4.021   0.617  -8.290  0.00  0.00    -0.300 N 
ATOM      4  C   LIG d   1       5.167   1.201  -8.996  0.00  0.00     0.019 C 
ATOM      5  C   LIG d   1       5.394   0.478 -10.318  0.00  0.00    -0.006 C 
ATOM      6  H   LIG d   1       6.110   1.054 -10.902  0.00  0.00     0.033 H 
ATOM      7  C   LIG d   1       4.095   0.379 -11.119  0.00  0.00    -0.037 C 
ATOM      8  C   LIG d   1       3.060  -0.369 -10.275  0.00  0.00     0.016 C 
ATOM      9  H   LIG d   1       2.155  -0.539 -10.857  0.00  0.00     0.038 H 
ATOM     10  C   LIG d   1       2.756   0.472  -9.024  0.00  0.00     0.023 C 
ATOM     11  C   LIG d   1       3.637  -1.687  -9.813  0.00  0.00     0.027 C 
ATOM     12  C   LIG d   1       2.764  -2.695  -9.549  0.00  0.00    -0.040 C 
ATOM     13  C   LIG d   1       3.213  -3.897  -8.991  0.00  0.00    -0.032 C 
ATOM     14  C   LIG d   1       4.542  -4.036  -8.700  0.00  0.00     0.112 C 
ATOM     15  C   LIG d   1       5.421  -2.974  -8.994  0.00  0.00     0.274 C 
ATOM     16  O   LIG d   1       6.600  -3.060  -8.687  0.00  0.00    -0.266 OA
ATOM     17  N   LIG d   1       4.967  -1.859  -9.616  0.00  0.00    -0.310 N 
ATOM     18  C   LIG d   1       5.971  -0.909 -10.098  0.00  0.00     0.031 C 
ATOM     19  H   LIG d   1       6.059   1.108  -8.376  0.00  0.00     0.047 H 
ATOM     20  H   LIG d   1       4.973   2.255  -9.191  0.00  0.00     0.047 H 
ATOM     21  H   LIG d   1       4.277  -0.166 -12.045  0.00  0.00     0.028 H 
ATOM     22  H   LIG d   1       3.729   1.380 -11.344  0.00  0.00     0.028 H 
ATOM     23  H   LIG d   1       2.362   1.445  -9.319  0.00  0.00     0.047 H 
ATOM     24  H   LIG d   1       2.032  -0.047  -8.395  0.00  0.00     0.047 H 
ATOM     25  H   LIG d   1       1.715  -2.565  -9.771  0.00  0.00     0.064 H 
ATOM     26  H   LIG d   1       2.521  -4.703  -8.794  0.00  0.00     0.064 H 
ATOM     27  H   LIG d   1       6.777  -0.845  -9.366  0.00  0.00     0.050 H 
ATOM     28  H   LIG d   1       6.380  -1.275 -11.039  0.00  0.00     0.050 H 
ENDROOT
BRANCH  14  29
ATOM     29  N   LIG d   1       5.023  -5.216  -8.118  0.00  0.00    -0.211 N 
ATOM     30  H   LIG d   1       5.566  -5.827  -8.638  0.00  0.00     0.174 HD
BRANCH  29  31
ATOM     31  S   LIG d   1       4.662  -5.567  -6.540  0.00  0.00     0.072 S 
ATOM     32  O   LIG d   1       3.261  -5.379  -6.392  0.00  0.00    -0.150 OA
ATOM     33  O   LIG d   1       5.302  -6.800  -6.242  0.00  0.00    -0.150 OA
BRANCH  31  34
ATOM     34  C   LIG d   1       5.442  -4.341  -5.542  0.00  0.00     0.109 A 
ATOM     35  C   LIG d   1       6.818  -4.336  -5.407  0.00  0.00    -0.032 A 
ATOM     36  C   LIG d   1       7.433  -3.377  -4.625  0.00  0.00    -0.018 A 
ATOM     37  H   LIG d   1       7.413  -5.083  -5.912  0.00  0.00     0.064 H 
ATOM     38  C   LIG d   1       6.668  -2.418  -3.977  0.00  0.00     0.120 A 
ATOM     39  H   LIG d   1       8.508  -3.373  -4.519  0.00  0.00     0.066 H 
ATOM     40  C   LIG d   1       5.287  -2.425  -4.115  0.00  0.00    -0.018 A 
ATOM     41  C   LIG d   1       4.679  -3.383  -4.902  0.00  0.00    -0.032 A 
ATOM     42  H   LIG d   1       4.690  -1.680  -3.611  0.00  0.00     0.066 H 
ATOM     43  H   LIG d   1       3.604  -3.387  -5.013  0.00  0.00     0.064 H 
BRANCH  38  44
ATOM     44  O   LIG d   1       7.270  -1.473  -3.208  0.00  0.00    -0.495 OA
BRANCH  44  45
ATOM     45  C   LIG d   1       6.955  -0.108  -3.493  0.00  0.00     0.079 C 
ATOM     46  H   LIG d   1       6.213   0.249  -2.778  0.00  0.00     0.066 H 
ATOM     47  H   LIG d   1       7.858   0.497  -3.412  0.00  0.00     0.066 H 
ATOM     48  H   LIG d   1       6.554  -0.030  -4.503  0.00  0.00     0.066 H 
ENDBRANCH  44  45
ENDBRANCH  38  44
ENDBRANCH  31  34
ENDBRANCH  29  31
ENDBRANCH  14  29
BRANCH   1  49
ATOM     49  C   LIG d   1       2.938  -0.351  -6.288  0.00  0.00     0.048 C 
ATOM     50  H   LIG d   1       2.090  -0.397  -6.971  0.00  0.00     0.038 H 
ATOM     51  H   LIG d   1       3.186  -1.357  -5.949  0.00  0.00     0.038 H 
BRANCH  49  52
ATOM     52  C   LIG d   1       2.575   0.517  -5.082  0.00  0.00     0.056 C 
ATOM     53  H   LIG d   1       3.349   1.267  -4.927  0.00  0.00     0.056 H 
ATOM     54  H   LIG d   1       1.621   1.012  -5.265  0.00  0.00     0.056 H 
BRANCH  52  55
ATOM     55  O   LIG d   1       2.468  -0.305  -3.918  0.00  0.00    -0.383 OA
BRANCH  55  56
ATOM     56  C   LIG d   1       3.169   0.203  -2.781  0.00  0.00     0.036 C 
ATOM     57  H   LIG d   1       3.986   0.844  -3.115  0.00  0.00     0.052 H 
ATOM     58  H   LIG d   1       2.486   0.781  -2.160  0.00  0.00     0.052 H 
ATOM     59  H   LIG d   1       3.573  -0.627  -2.202  0.00  0.00     0.052 H 
ENDBRANCH  55  56
ENDBRANCH  52  55
ENDBRANCH  49  52
ENDBRANCH   1  49
TORSDOF 9
ENDMDL
MODEL 5
REMARK VINA RESULT:      -6.1      3.016      7.466
REMARK  9 active torsions:
REMARK  status: ('A' for Active; 'I' for Inactive)
REMARK    1  A    between atoms: C_1  and  O_2 
REMARK    2  A    between atoms: O_2  and  C_3 
REMARK    3  A    between atoms: C_3  and  C_4 
REMARK    4  A    between atoms: C_4  and  C_5 
REMARK       I    between atoms: C_5  and  N_7 
REMARK    5  A    between atoms: C_18  and  N_23 
REMARK    6  A    between atoms: N_23  and  S_24 
REMARK    7  A    between atoms: S_24  and  C_27 
REMARK    8  A    between atoms: C_30  and  O_33 
REMARK    9  A    between atoms: O_33  and  C_34 
ROOT
ATOM      1  C   LIG d   1       4.687  -0.877  -6.785  0.00  0.00     0.218 C 
ATOM      2  O   LIG d   1       5.242  -1.586  -7.598  0.00  0.00    -0.276 OA
ATOM      3  N   LIG d   1       4.211  -1.408  -5.642  0.00  0.00    -0.300 N 
ATOM      4  C   LIG d   1       4.356  -2.841  -5.363  0.00  0.00     0.019 C 
ATOM      5  C   LIG d   1       4.949  -3.050  -3.976  0.00  0.00    -0.006 C 
ATOM      6  H   LIG d   1       4.857  -4.106  -3.722  0.00  0.00     0.033 H 
ATOM      7  C   LIG d   1       4.188  -2.239  -2.926  0.00  0.00    -0.037 C 
ATOM      8  C   LIG d   1       4.252  -0.761  -3.314  0.00  0.00     0.016 C 
ATOM      9  H   LIG d   1       3.800  -0.148  -2.534  0.00  0.00     0.038 H 
ATOM     10  C   LIG d   1       3.512  -0.577  -4.649  0.00  0.00     0.023 C 
ATOM     11  C   LIG d   1       5.692  -0.352  -3.527  0.00  0.00     0.027 C 
ATOM     12  C   LIG d   1       6.007   0.955  -3.334  0.00  0.00    -0.040 C 
ATOM     13  C   LIG d   1       7.287   1.431  -3.641  0.00  0.00    -0.032 C 
ATOM     14  C   LIG d   1       8.211   0.562  -4.154  0.00  0.00     0.112 C 
ATOM     15  C   LIG d   1       7.852  -0.789  -4.334  0.00  0.00     0.274 C 
ATOM     16  O   LIG d   1       8.646  -1.563  -4.844  0.00  0.00    -0.266 OA
ATOM     17  N   LIG d   1       6.633  -1.234  -3.942  0.00  0.00    -0.310 N 
ATOM     18  C   LIG d   1       6.422  -2.682  -3.942  0.00  0.00     0.031 C 
ATOM     19  H   LIG d   1       5.014  -3.289  -6.108  0.00  0.00     0.047 H 
ATOM     20  H   LIG d   1       3.379  -3.320  -5.413  0.00  0.00     0.047 H 
ATOM     21  H   LIG d   1       4.647  -2.383  -1.948  0.00  0.00     0.028 H 
ATOM     22  H   LIG d   1       3.148  -2.565  -2.897  0.00  0.00     0.028 H 
ATOM     23  H   LIG d   1       2.473  -0.889  -4.543  0.00  0.00     0.047 H 
ATOM     24  H   LIG d   1       3.557   0.467  -4.959  0.00  0.00     0.047 H 
ATOM     25  H   LIG d   1       5.263   1.632  -2.942  0.00  0.00     0.064 H 
ATOM     26  H   LIG d   1       7.542   2.467  -3.475  0.00  0.00     0.064 H 
ATOM     27  H   LIG d   1       6.913  -3.112  -4.815  0.00  0.00     0.050 H 
ATOM     28  H   LIG d   1       6.871  -3.105  -3.044  0.00  0.00     0.050 H 
ENDROOT
BRANCH  14  29
ATOM     29  N   LIG d   1       9.493   1.009  -4.497  0.00  0.00    -0.211 N 
ATOM     30  H   LIG d   1      10.274   0.575  -4.121  0.00  0.00     0.174 HD
BRANCH  29  31
ATOM     31  S   LIG d   1       9.675   2.280  -5.543  0.00  0.00     0.072 S 
ATOM     32  O   LIG d   1      10.975   2.162  -6.103  0.00  0.00    -0.150 OA
ATOM     33  O   LIG d   1       8.501   2.319  -6.342  0.00  0.00    -0.150 OA
BRANCH  31  34
ATOM     34  C   LIG d   1       9.674   3.754  -4.576  0.00  0.00     0.109 A 
ATOM     35  C   LIG d   1       9.326   4.959  -5.158  0.00  0.00    -0.032 A 
ATOM     36  C   LIG d   1       9.325   6.116  -4.403  0.00  0.00    -0.018 A 
ATOM     37  H   LIG d   1       9.056   4.997  -6.203  0.00  0.00     0.064 H 
ATOM     38  C   LIG d   1       9.673   6.068  -3.061  0.00  0.00     0.120 A 
ATOM     39  H   LIG d   1       9.053   7.058  -4.857  0.00  0.00     0.066 H 
ATOM     40  C   LIG d   1      10.021   4.856  -2.479  0.00  0.00    -0.018 A 
ATOM     41  C   LIG d   1      10.015   3.702  -3.238  0.00  0.00    -0.032 A 
ATOM     42  H   LIG d   1      10.291   4.816  -1.435  0.00  0.00     0.066 H 
ATOM     43  H   LIG d   1      10.282   2.758  -2.786  0.00  0.00     0.064 H 
BRANCH  38  44
ATOM     44  O   LIG d   1       9.671   7.204  -2.316  0.00  0.00    -0.495 OA
BRANCH  44  45
ATOM     45  C   LIG d   1      10.256   7.128  -1.014  0.00  0.00     0.079 C 
ATOM     46  H   LIG d   1      10.184   8.100  -0.526  0.00  0.00     0.066 H 
ATOM     47  H   LIG d   1       9.726   6.382  -0.421  0.00  0.00     0.066 H 
ATOM     48  H   LIG d   1      11.304   6.842  -1.102  0.00  0.00     0.066 H 
ENDBRANCH  44  45
ENDBRANCH  38  44
ENDBRANCH  31  34
ENDBRANCH  29  31
ENDBRANCH  14  29
BRANCH   1  49
ATOM     49  C   LIG d   1       4.529   0.597  -7.055  0.00  0.00     0.048 C 
ATOM     50  H   LIG d   1       4.499   1.139  -6.110  0.00  0.00     0.038 H 
ATOM     51  H   LIG d   1       5.371   0.949  -7.650  0.00  0.00     0.038 H 
BRANCH  49  52
ATOM     52  C   LIG d   1       3.228   0.839  -7.823  0.00  0.00     0.056 C 
ATOM     53  H   LIG d   1       3.159   0.135  -8.652  0.00  0.00     0.056 H 
ATOM     54  H   LIG d   1       2.379   0.695  -7.153  0.00  0.00     0.056 H 
BRANCH  52  55
ATOM     55  O   LIG d   1       3.214   2.175  -8.329  0.00  0.00    -0.383 OA
BRANCH  55  56
ATOM     56  C   LIG d   1       4.285   2.466  -9.229  0.00  0.00     0.036 C 
ATOM     57  H   LIG d   1       4.926   3.234  -8.795  0.00  0.00     0.052 H 
ATOM     58  H   LIG d   1       4.869   1.563  -9.405  0.00  0.00     0.052 H 
ATOM     59  H   LIG d   1       3.877   2.825 -10.174  0.00  0.00     0.052 H 
ENDBRANCH  55  56
ENDBRANCH  52  55
ENDBRANCH  49  52
ENDBRANCH   1  49
TORSDOF 9
ENDMDL
MODEL 6
REMARK VINA RESULT:      -6.0      3.127      7.814
REMARK  9 active torsions:
REMARK  status: ('A' for Active; 'I' for Inactive)
REMARK    1  A    between atoms: C_1  and  O_2 
REMARK    2  A    between atoms: O_2  and  C_3 
REMARK    3  A    between atoms: C_3  and  C_4 
REMARK    4  A    between atoms: C_4  and  C_5 
REMARK       I    between atoms: C_5  and  N_7 
REMARK    5  A    between atoms: C_18  and  N_23 
REMARK    6  A    between atoms: N_23  and  S_24 
REMARK    7  A    between atoms: S_24  and  C_27 
REMARK    8  A    between atoms: C_30  and  O_33 
REMARK    9  A    between atoms: O_33  and  C_34 
ROOT
ATOM      1  C   LIG d   1       4.872  -1.018 -11.763  0.00  0.00     0.218 C 
ATOM      2  O   LIG d   1       5.153  -1.993 -12.428  0.00  0.00    -0.276 OA
ATOM      3  N   LIG d   1       3.582  -0.738 -11.489  0.00  0.00    -0.300 N 
ATOM      4  C   LIG d   1       2.505  -1.601 -11.987  0.00  0.00     0.019 C 
ATOM      5  C   LIG d   1       1.567  -1.980 -10.849  0.00  0.00    -0.006 C 
ATOM      6  H   LIG d   1       0.681  -2.445 -11.281  0.00  0.00     0.033 H 
ATOM      7  C   LIG d   1       1.123  -0.742 -10.069  0.00  0.00    -0.037 C 
ATOM      8  C   LIG d   1       2.368  -0.043  -9.519  0.00  0.00     0.016 C 
ATOM      9  H   LIG d   1       2.079   0.789  -8.877  0.00  0.00     0.038 H 
ATOM     10  C   LIG d   1       3.211   0.451 -10.707  0.00  0.00     0.023 C 
ATOM     11  C   LIG d   1       3.206  -1.032  -8.742  0.00  0.00     0.027 C 
ATOM     12  C   LIG d   1       4.005  -0.540  -7.759  0.00  0.00    -0.040 C 
ATOM     13  C   LIG d   1       4.906  -1.376  -7.089  0.00  0.00    -0.032 C 
ATOM     14  C   LIG d   1       4.981  -2.694  -7.451  0.00  0.00     0.112 C 
ATOM     15  C   LIG d   1       4.132  -3.172  -8.469  0.00  0.00     0.274 C 
ATOM     16  O   LIG d   1       4.227  -4.330  -8.843  0.00  0.00    -0.266 OA
ATOM     17  N   LIG d   1       3.209  -2.356  -9.034  0.00  0.00    -0.310 N 
ATOM     18  C   LIG d   1       2.214  -2.979  -9.907  0.00  0.00     0.031 C 
ATOM     19  H   LIG d   1       2.937  -2.506 -12.416  0.00  0.00     0.047 H 
ATOM     20  H   LIG d   1       1.944  -1.071 -12.757  0.00  0.00     0.047 H 
ATOM     21  H   LIG d   1       0.476  -1.041  -9.245  0.00  0.00     0.028 H 
ATOM     22  H   LIG d   1       0.587  -0.065 -10.733  0.00  0.00     0.028 H 
ATOM     23  H   LIG d   1       2.629   1.148 -11.310  0.00  0.00     0.047 H 
ATOM     24  H   LIG d   1       4.116   0.939 -10.343  0.00  0.00     0.047 H 
ATOM     25  H   LIG d   1       3.945   0.505  -7.494  0.00  0.00     0.064 H 
ATOM     26  H   LIG d   1       5.531  -0.988  -6.298  0.00  0.00     0.064 H 
ATOM     27  H   LIG d   1       2.698  -3.758 -10.497  0.00  0.00     0.050 H 
ATOM     28  H   LIG d   1       1.440  -3.436  -9.291  0.00  0.00     0.050 H 
ENDROOT
BRANCH  14  29
ATOM     29  N   LIG d   1       5.888  -3.553  -6.820  0.00  0.00    -0.211 N 
ATOM     30  H   LIG d   1       6.737  -3.758  -7.242  0.00  0.00     0.174 HD
BRANCH  29  31
ATOM     31  S   LIG d   1       5.511  -4.223  -5.353  0.00  0.00     0.072 S 
ATOM     32  O   LIG d   1       4.249  -4.858  -5.508  0.00  0.00    -0.150 OA
ATOM     33  O   LIG d   1       6.667  -4.923  -4.917  0.00  0.00    -0.150 OA
BRANCH  31  34
ATOM     34  C   LIG d   1       5.271  -2.894  -4.220  0.00  0.00     0.109 A 
ATOM     35  C   LIG d   1       4.047  -2.732  -3.597  0.00  0.00    -0.032 A 
ATOM     36  C   LIG d   1       3.855  -1.691  -2.709  0.00  0.00    -0.018 A 
ATOM     37  H   LIG d   1       3.240  -3.420  -3.805  0.00  0.00     0.064 H 
ATOM     38  C   LIG d   1       4.892  -0.808  -2.443  0.00  0.00     0.120 A 
ATOM     39  H   LIG d   1       2.900  -1.565  -2.223  0.00  0.00     0.066 H 
ATOM     40  C   LIG d   1       6.120  -0.974  -3.069  0.00  0.00    -0.018 A 
ATOM     41  C   LIG d   1       6.307  -2.020  -3.952  0.00  0.00    -0.032 A 
ATOM     42  H   LIG d   1       6.928  -0.289  -2.864  0.00  0.00     0.066 H 
ATOM     43  H   LIG d   1       7.263  -2.152  -4.437  0.00  0.00     0.064 H 
BRANCH  38  44
ATOM     44  O   LIG d   1       4.707   0.215  -1.569  0.00  0.00    -0.495 OA
BRANCH  44  45
ATOM     45  C   LIG d   1       4.004   1.362  -2.053  0.00  0.00     0.079 C 
ATOM     46  H   LIG d   1       3.684   1.974  -1.209  0.00  0.00     0.066 H 
ATOM     47  H   LIG d   1       4.661   1.946  -2.697  0.00  0.00     0.066 H 
ATOM     48  H   LIG d   1       3.131   1.040  -2.621  0.00  0.00     0.066 H 
ENDBRANCH  44  45
ENDBRANCH  38  44
ENDBRANCH  31  34
ENDBRANCH  29  31
ENDBRANCH  14  29
BRANCH   1  49
ATOM     49  C   LIG d   1       5.965  -0.121 -11.244  0.00  0.00     0.048 C 
ATOM     50  H   LIG d   1       6.603   0.191 -12.070  0.00  0.00     0.038 H 
ATOM     51  H   LIG d   1       5.522   0.758 -10.776  0.00  0.00     0.038 H 
BRANCH  49  52
ATOM     52  C   LIG d   1       6.802  -0.880 -10.212  0.00  0.00     0.056 C 
ATOM     53  H   LIG d   1       6.141  -1.381  -9.506  0.00  0.00     0.056 H 
ATOM     54  H   LIG d   1       7.420  -1.620 -10.720  0.00  0.00     0.056 H 
BRANCH  52  55
ATOM     55  O   LIG d   1       7.640   0.039  -9.509  0.00  0.00    -0.383 OA
BRANCH  55  56
ATOM     56  C   LIG d   1       6.981   1.245  -9.119  0.00  0.00     0.036 C 
ATOM     57  H   LIG d   1       6.115   1.411  -9.761  0.00  0.00     0.052 H 
ATOM     58  H   LIG d   1       6.654   1.163  -8.083  0.00  0.00     0.052 H 
ATOM     59  H   LIG d   1       7.671   2.084  -9.217  0.00  0.00     0.052 H 
ENDBRANCH  55  56
ENDBRANCH  52  55
ENDBRANCH  49  52
ENDBRANCH   1  49
TORSDOF 9
ENDMDL
MODEL 7
REMARK VINA RESULT:      -6.0      2.743      4.144
REMARK  9 active torsions:
REMARK  status: ('A' for Active; 'I' for Inactive)
REMARK    1  A    between atoms: C_1  and  O_2 
REMARK    2  A    between atoms: O_2  and  C_3 
REMARK    3  A    between atoms: C_3  and  C_4 
REMARK    4  A    between atoms: C_4  and  C_5 
REMARK       I    between atoms: C_5  and  N_7 
REMARK    5  A    between atoms: C_18  and  N_23 
REMARK    6  A    between atoms: N_23  and  S_24 
REMARK    7  A    between atoms: S_24  and  C_27 
REMARK    8  A    between atoms: C_30  and  O_33 
REMARK    9  A    between atoms: O_33  and  C_34 
ROOT
ATOM      1  C   LIG d   1       5.346  -2.693  -3.879  0.00  0.00     0.218 C 
ATOM      2  O   LIG d   1       4.240  -3.191  -3.916  0.00  0.00    -0.276 OA
ATOM      3  N   LIG d   1       6.380  -3.303  -4.492  0.00  0.00    -0.300 N 
ATOM      4  C   LIG d   1       6.186  -4.569  -5.208  0.00  0.00     0.019 C 
ATOM      5  C   LIG d   1       6.780  -4.477  -6.608  0.00  0.00    -0.006 C 
ATOM      6  H   LIG d   1       6.801  -5.479  -7.034  0.00  0.00     0.033 H 
ATOM      7  C   LIG d   1       8.215  -3.949  -6.561  0.00  0.00    -0.037 C 
ATOM      8  C   LIG d   1       8.203  -2.570  -5.898  0.00  0.00     0.016 C 
ATOM      9  H   LIG d   1       9.197  -2.126  -5.937  0.00  0.00     0.038 H 
ATOM     10  C   LIG d   1       7.736  -2.736  -4.442  0.00  0.00     0.023 C 
ATOM     11  C   LIG d   1       7.207  -1.676  -6.600  0.00  0.00     0.027 C 
ATOM     12  C   LIG d   1       7.424  -0.335  -6.550  0.00  0.00    -0.040 C 
ATOM     13  C   LIG d   1       6.476   0.559  -7.061  0.00  0.00    -0.032 C 
ATOM     14  C   LIG d   1       5.319   0.062  -7.596  0.00  0.00     0.112 C 
ATOM     15  C   LIG d   1       5.130  -1.334  -7.639  0.00  0.00     0.274 C 
ATOM     16  O   LIG d   1       4.080  -1.790  -8.062  0.00  0.00    -0.266 OA
ATOM     17  N   LIG d   1       6.108  -2.173  -7.218  0.00  0.00    -0.310 N 
ATOM     18  C   LIG d   1       5.935  -3.596  -7.511  0.00  0.00     0.031 C 
ATOM     19  H   LIG d   1       5.120  -4.782  -5.282  0.00  0.00     0.047 H 
ATOM     20  H   LIG d   1       6.677  -5.373  -4.661  0.00  0.00     0.047 H 
ATOM     21  H   LIG d   1       8.607  -3.865  -7.574  0.00  0.00     0.028 H 
ATOM     22  H   LIG d   1       8.836  -4.630  -5.979  0.00  0.00     0.028 H 
ATOM     23  H   LIG d   1       8.416  -3.399  -3.908  0.00  0.00     0.047 H 
ATOM     24  H   LIG d   1       7.701  -1.764  -3.949  0.00  0.00     0.047 H 
ATOM     25  H   LIG d   1       8.335   0.043  -6.111  0.00  0.00     0.064 H 
ATOM     26  H   LIG d   1       6.655   1.624  -7.033  0.00  0.00     0.064 H 
ATOM     27  H   LIG d   1       4.886  -3.860  -7.381  0.00  0.00     0.050 H 
ATOM     28  H   LIG d   1       6.217  -3.780  -8.548  0.00  0.00     0.050 H 
ENDROOT
BRANCH  14  29
ATOM     29  N   LIG d   1       4.338   0.928  -8.094  0.00  0.00    -0.211 N 
ATOM     30  H   LIG d   1       3.613   1.221  -7.520  0.00  0.00     0.174 HD
BRANCH  29  31
ATOM     31  S   LIG d   1       4.413   1.451  -9.663  0.00  0.00     0.072 S 
ATOM     32  O   LIG d   1       3.752   2.708  -9.705  0.00  0.00    -0.150 OA
ATOM     33  O   LIG d   1       5.760   1.284 -10.082  0.00  0.00    -0.150 OA
BRANCH  31  34
ATOM     34  C   LIG d   1       3.445   0.340 -10.629  0.00  0.00     0.109 A 
ATOM     35  C   LIG d   1       3.936  -0.138 -11.830  0.00  0.00    -0.032 A 
ATOM     36  C   LIG d   1       3.179  -1.010 -12.590  0.00  0.00    -0.018 A 
ATOM     37  H   LIG d   1       4.912   0.170 -12.175  0.00  0.00     0.064 H 
ATOM     38  C   LIG d   1       1.925  -1.404 -12.146  0.00  0.00     0.120 A 
ATOM     39  H   LIG d   1       3.563  -1.382 -13.528  0.00  0.00     0.066 H 
ATOM     40  C   LIG d   1       1.435  -0.924 -10.940  0.00  0.00    -0.018 A 
ATOM     41  C   LIG d   1       2.198  -0.057 -10.183  0.00  0.00    -0.032 A 
ATOM     42  H   LIG d   1       0.459  -1.230 -10.593  0.00  0.00     0.066 H 
ATOM     43  H   LIG d   1       1.819   0.314  -9.242  0.00  0.00     0.064 H 
BRANCH  38  44
ATOM     44  O   LIG d   1       1.179  -2.262 -12.891  0.00  0.00    -0.495 OA
BRANCH  44  45
ATOM     45  C   LIG d   1      -0.227  -2.015 -12.951  0.00  0.00     0.079 C 
ATOM     46  H   LIG d   1      -0.401  -0.975 -13.231  0.00  0.00     0.066 H 
ATOM     47  H   LIG d   1      -0.679  -2.672 -13.694  0.00  0.00     0.066 H 
ATOM     48  H   LIG d   1      -0.672  -2.208 -11.976  0.00  0.00     0.066 H 
ENDBRANCH  44  45
ENDBRANCH  38  44
ENDBRANCH  31  34
ENDBRANCH  29  31
ENDBRANCH  14  29
BRANCH   1  49
ATOM     49  C   LIG d   1       5.563  -1.394  -3.148  0.00  0.00     0.048 C 
ATOM     50  H   LIG d   1       6.563  -1.383  -2.714  0.00  0.00     0.038 H 
ATOM     51  H   LIG d   1       5.460  -0.563  -3.845  0.00  0.00     0.038 H 
BRANCH  49  52
ATOM     52  C   LIG d   1       4.523  -1.256  -2.034  0.00  0.00     0.056 C 
ATOM     53  H   LIG d   1       3.538  -1.511  -2.423  0.00  0.00     0.056 H 
ATOM     54  H   LIG d   1       4.776  -1.929  -1.215  0.00  0.00     0.056 H 
BRANCH  52  55
ATOM     55  O   LIG d   1       4.512   0.091  -1.557  0.00  0.00    -0.383 OA
BRANCH  55  56
ATOM     56  C   LIG d   1       3.727   0.983  -2.350  0.00  0.00     0.036 C 
ATOM     57  H   LIG d   1       4.104   2.000  -2.236  0.00  0.00     0.052 H 
ATOM     58  H   LIG d   1       3.789   0.689  -3.398  0.00  0.00     0.052 H 
ATOM     59  H   LIG d   1       2.688   0.942  -2.022  0.00  0.00     0.052 H 
ENDBRANCH  55  56
ENDBRANCH  52  55
ENDBRANCH  49  52
ENDBRANCH   1  49
TORSDOF 9
ENDMDL
MODEL 8
REMARK VINA RESULT:      -6.0      3.512      7.915
REMARK  9 active torsions:
REMARK  status: ('A' for Active; 'I' for Inactive)
REMARK    1  A    between atoms: C_1  and  O_2 
REMARK    2  A    between atoms: O_2  and  C_3 
REMARK    3  A    between atoms: C_3  and  C_4 
REMARK    4  A    between atoms: C_4  and  C_5 
REMARK       I    between atoms: C_5  and  N_7 
REMARK    5  A    between atoms: C_18  and  N_23 
REMARK    6  A    between atoms: N_23  and  S_24 
REMARK    7  A    between atoms: S_24  and  C_27 
REMARK    8  A    between atoms: C_30  and  O_33 
REMARK    9  A    between atoms: O_33  and  C_34 
ROOT
ATOM      1  C   LIG d   1       3.550  -0.711  -5.708  0.00  0.00     0.218 C 
ATOM      2  O   LIG d   1       3.221  -0.118  -6.714  0.00  0.00    -0.276 OA
ATOM      3  N   LIG d   1       4.292  -1.833  -5.798  0.00  0.00    -0.300 N 
ATOM      4  C   LIG d   1       4.711  -2.351  -7.106  0.00  0.00     0.019 C 
ATOM      5  C   LIG d   1       6.210  -2.622  -7.108  0.00  0.00    -0.006 C 
ATOM      6  H   LIG d   1       6.452  -3.186  -8.008  0.00  0.00     0.033 H 
ATOM      7  C   LIG d   1       6.618  -3.459  -5.895  0.00  0.00    -0.037 C 
ATOM      8  C   LIG d   1       6.217  -2.704  -4.626  0.00  0.00     0.016 C 
ATOM      9  H   LIG d   1       6.581  -3.232  -3.745  0.00  0.00     0.038 H 
ATOM     10  C   LIG d   1       4.684  -2.586  -4.597  0.00  0.00     0.023 C 
ATOM     11  C   LIG d   1       6.785  -1.305  -4.666  0.00  0.00     0.027 C 
ATOM     12  C   LIG d   1       7.019  -0.690  -3.477  0.00  0.00    -0.040 C 
ATOM     13  C   LIG d   1       7.417   0.651  -3.435  0.00  0.00    -0.032 C 
ATOM     14  C   LIG d   1       7.551   1.339  -4.610  0.00  0.00     0.112 C 
ATOM     15  C   LIG d   1       7.308   0.668  -5.826  0.00  0.00     0.274 C 
ATOM     16  O   LIG d   1       7.367   1.282  -6.879  0.00  0.00    -0.266 OA
ATOM     17  N   LIG d   1       7.011  -0.655  -5.834  0.00  0.00    -0.310 N 
ATOM     18  C   LIG d   1       7.006  -1.329  -7.132  0.00  0.00     0.031 C 
ATOM     19  H   LIG d   1       4.476  -1.617  -7.877  0.00  0.00     0.047 H 
ATOM     20  H   LIG d   1       4.177  -3.277  -7.316  0.00  0.00     0.047 H 
ATOM     21  H   LIG d   1       7.696  -3.616  -5.904  0.00  0.00     0.028 H 
ATOM     22  H   LIG d   1       6.105  -4.421  -5.927  0.00  0.00     0.028 H 
ATOM     23  H   LIG d   1       4.235  -3.579  -4.596  0.00  0.00     0.047 H 
ATOM     24  H   LIG d   1       4.370  -2.035  -3.710  0.00  0.00     0.047 H 
ATOM     25  H   LIG d   1       6.895  -1.241  -2.556  0.00  0.00     0.064 H 
ATOM     26  H   LIG d   1       7.617   1.136  -2.491  0.00  0.00     0.064 H 
ATOM     27  H   LIG d   1       6.572  -0.661  -7.876  0.00  0.00     0.050 H 
ATOM     28  H   LIG d   1       8.034  -1.552  -7.419  0.00  0.00     0.050 H 
ENDROOT
BRANCH  14  29
ATOM     29  N   LIG d   1       7.923   2.689  -4.606  0.00  0.00    -0.211 N 
ATOM     30  H   LIG d   1       7.252   3.376  -4.475  0.00  0.00     0.174 HD
BRANCH  29  31
ATOM     31  S   LIG d   1       9.510   3.111  -4.826  0.00  0.00     0.072 S 
ATOM     32  O   LIG d   1      10.283   1.958  -4.523  0.00  0.00    -0.150 OA
ATOM     33  O   LIG d   1       9.583   3.769  -6.083  0.00  0.00    -0.150 OA
BRANCH  31  34
ATOM     34  C   LIG d   1       9.902   4.318  -3.603  0.00  0.00     0.109 A 
ATOM     35  C   LIG d   1      10.637   3.956  -2.489  0.00  0.00    -0.032 A 
ATOM     36  C   LIG d   1      10.945   4.900  -1.528  0.00  0.00    -0.018 A 
ATOM     37  H   LIG d   1      10.969   2.935  -2.369  0.00  0.00     0.064 H 
ATOM     38  C   LIG d   1      10.517   6.211  -1.683  0.00  0.00     0.120 A 
ATOM     39  H   LIG d   1      11.518   4.617  -0.658  0.00  0.00     0.066 H 
ATOM     40  C   LIG d   1       9.781   6.571  -2.803  0.00  0.00    -0.018 A 
ATOM     41  C   LIG d   1       9.480   5.624  -3.762  0.00  0.00    -0.032 A 
ATOM     42  H   LIG d   1       9.447   7.590  -2.925  0.00  0.00     0.066 H 
ATOM     43  H   LIG d   1       8.910   5.904  -4.636  0.00  0.00     0.064 H 
BRANCH  38  44
ATOM     44  O   LIG d   1      10.820   7.141  -0.740  0.00  0.00    -0.495 OA
BRANCH  44  45
ATOM     45  C   LIG d   1      10.979   6.676   0.602  0.00  0.00     0.079 C 
ATOM     46  H   LIG d   1      11.015   7.530   1.280  0.00  0.00     0.066 H 
ATOM     47  H   LIG d   1      10.136   6.038   0.867  0.00  0.00     0.066 H 
ATOM     48  H   LIG d   1      11.905   6.108   0.684  0.00  0.00     0.066 H 
ENDBRANCH  44  45
ENDBRANCH  38  44
ENDBRANCH  31  34
ENDBRANCH  29  31
ENDBRANCH  14  29
BRANCH   1  49
ATOM     49  C   LIG d   1       3.128  -0.193  -4.357  0.00  0.00     0.048 C 
ATOM     50  H   LIG d   1       2.235  -0.723  -4.028  0.00  0.00     0.038 H 
ATOM     51  H   LIG d   1       3.932  -0.355  -3.639  0.00  0.00     0.038 H 
BRANCH  49  52
ATOM     52  C   LIG d   1       2.828   1.304  -4.456  0.00  0.00     0.056 C 
ATOM     53  H   LIG d   1       3.137   1.673  -5.432  0.00  0.00     0.056 H 
ATOM     54  H   LIG d   1       1.758   1.468  -4.327  0.00  0.00     0.056 H 
BRANCH  52  55
ATOM     55  O   LIG d   1       3.542   2.001  -3.434  0.00  0.00    -0.383 OA
BRANCH  55  56
ATOM     56  C   LIG d   1       3.926   1.180  -2.329  0.00  0.00     0.036 C 
ATOM     57  H   LIG d   1       4.266   1.812  -1.508  0.00  0.00     0.052 H 
ATOM     58  H   LIG d   1       3.072   0.587  -2.002  0.00  0.00     0.052 H 
ATOM     59  H   LIG d   1       4.734   0.516  -2.634  0.00  0.00     0.052 H 
ENDBRANCH  55  56
ENDBRANCH  52  55
ENDBRANCH  49  52
ENDBRANCH   1  49
TORSDOF 9
ENDMDL
MODEL 9
REMARK VINA RESULT:      -5.9      3.057      6.428
REMARK  9 active torsions:
REMARK  status: ('A' for Active; 'I' for Inactive)
REMARK    1  A    between atoms: C_1  and  O_2 
REMARK    2  A    between atoms: O_2  and  C_3 
REMARK    3  A    between atoms: C_3  and  C_4 
REMARK    4  A    between atoms: C_4  and  C_5 
REMARK       I    between atoms: C_5  and  N_7 
REMARK    5  A    between atoms: C_18  and  N_23 
REMARK    6  A    between atoms: N_23  and  S_24 
REMARK    7  A    between atoms: S_24  and  C_27 
REMARK    8  A    between atoms: C_30  and  O_33 
REMARK    9  A    between atoms: O_33  and  C_34 
ROOT
ATOM      1  C   LIG d   1       4.113  -0.753  -6.054  0.00  0.00     0.218 C 
ATOM      2  O   LIG d   1       4.468  -1.577  -6.870  0.00  0.00    -0.276 OA
ATOM      3  N   LIG d   1       3.892  -1.122  -4.777  0.00  0.00    -0.300 N 
ATOM      4  C   LIG d   1       4.078  -2.515  -4.355  0.00  0.00     0.019 C 
ATOM      5  C   LIG d   1       4.957  -2.576  -3.113  0.00  0.00    -0.006 C 
ATOM      6  H   LIG d   1       4.911  -3.588  -2.714  0.00  0.00     0.033 H 
ATOM      7  C   LIG d   1       4.453  -1.614  -2.036  0.00  0.00    -0.037 C 
ATOM      8  C   LIG d   1       4.448  -0.198  -2.614  0.00  0.00     0.016 C 
ATOM      9  H   LIG d   1       4.184   0.522  -1.840  0.00  0.00     0.038 H 
ATOM     10  C   LIG d   1       3.436  -0.150  -3.771  0.00  0.00     0.023 C 
ATOM     11  C   LIG d   1       5.811   0.125  -3.182  0.00  0.00     0.027 C 
ATOM     12  C   LIG d   1       6.176   1.433  -3.230  0.00  0.00    -0.040 C 
ATOM     13  C   LIG d   1       7.363   1.818  -3.863  0.00  0.00    -0.032 C 
ATOM     14  C   LIG d   1       8.142   0.858  -4.448  0.00  0.00     0.112 C 
ATOM     15  C   LIG d   1       7.737  -0.490  -4.373  0.00  0.00     0.274 C 
ATOM     16  O   LIG d   1       8.392  -1.351  -4.939  0.00  0.00    -0.266 OA
ATOM     17  N   LIG d   1       6.629  -0.837  -3.675  0.00  0.00    -0.310 N 
ATOM     18  C   LIG d   1       6.406  -2.264  -3.445  0.00  0.00     0.031 C 
ATOM     19  H   LIG d   1       4.552  -3.075  -5.161  0.00  0.00     0.047 H 
ATOM     20  H   LIG d   1       3.108  -2.958  -4.132  0.00  0.00     0.047 H 
ATOM     21  H   LIG d   1       5.113  -1.655  -1.170  0.00  0.00     0.028 H 
ATOM     22  H   LIG d   1       3.440  -1.894  -1.743  0.00  0.00     0.028 H 
ATOM     23  H   LIG d   1       2.442  -0.405  -3.405  0.00  0.00     0.047 H 
ATOM     24  H   LIG d   1       3.425   0.847  -4.214  0.00  0.00     0.047 H 
ATOM     25  H   LIG d   1       5.543   2.182  -2.776  0.00  0.00     0.064 H 
ATOM     26  H   LIG d   1       7.660   2.856  -3.889  0.00  0.00     0.064 H 
ATOM     27  H   LIG d   1       6.690  -2.816  -4.341  0.00  0.00     0.050 H 
ATOM     28  H   LIG d   1       7.036  -2.591  -2.617  0.00  0.00     0.050 H 
ENDROOT
BRANCH  14  29
ATOM     29  N   LIG d   1       9.324   1.209  -5.112  0.00  0.00    -0.211 N 
ATOM     30  H   LIG d   1      10.178   1.129  -4.659  0.00  0.00     0.174 HD
BRANCH  29  31
ATOM     31  S   LIG d   1       9.264   1.764  -6.672  0.00  0.00     0.072 S 
ATOM     32  O   LIG d   1      10.381   1.203  -7.347  0.00  0.00    -0.150 OA
ATOM     33  O   LIG d   1       7.928   1.574  -7.118  0.00  0.00    -0.150 OA
BRANCH  31  34
ATOM     34  C   LIG d   1       9.532   3.505  -6.615  0.00  0.00     0.109 A 
ATOM     35  C   LIG d   1       9.608   4.152  -5.395  0.00  0.00    -0.032 A 
ATOM     36  C   LIG d   1       9.817   5.516  -5.347  0.00  0.00    -0.018 A 
ATOM     37  H   LIG d   1       9.502   3.590  -4.478  0.00  0.00     0.064 H 
ATOM     38  C   LIG d   1       9.952   6.238  -6.525  0.00  0.00     0.120 A 
ATOM     39  H   LIG d   1       9.876   6.021  -4.394  0.00  0.00     0.066 H 
ATOM     40  C   LIG d   1       9.877   5.586  -7.748  0.00  0.00    -0.018 A 
ATOM     41  C   LIG d   1       9.672   4.221  -7.789  0.00  0.00    -0.032 A 
ATOM     42  H   LIG d   1       9.982   6.146  -8.665  0.00  0.00     0.066 H 
ATOM     43  H   LIG d   1       9.617   3.712  -8.740  0.00  0.00     0.064 H 
BRANCH  38  44
ATOM     44  O   LIG d   1      10.160   7.580  -6.481  0.00  0.00    -0.495 OA
BRANCH  44  45
ATOM     45  C   LIG d   1       9.214   8.405  -7.164  0.00  0.00     0.079 C 
ATOM     46  H   LIG d   1       8.406   8.672  -6.483  0.00  0.00     0.066 H 
ATOM     47  H   LIG d   1       9.710   9.312  -7.512  0.00  0.00     0.066 H 
ATOM     48  H   LIG d   1       8.807   7.863  -8.017  0.00  0.00     0.066 H 
ENDBRANCH  44  45
ENDBRANCH  38  44
ENDBRANCH  31  34
ENDBRANCH  29  31
ENDBRANCH  14  29
BRANCH   1  49
ATOM     49  C   LIG d   1       3.917   0.682  -6.469  0.00  0.00     0.048 C 
ATOM     50  H   LIG d   1       3.482   1.244  -5.643  0.00  0.00     0.038 H 
ATOM     51  H   LIG d   1       4.879   1.117  -6.737  0.00  0.00     0.038 H 
BRANCH  49  52
ATOM     52  C   LIG d   1       2.978   0.741  -7.676  0.00  0.00     0.056 C 
ATOM     53  H   LIG d   1       3.271  -0.017  -8.402  0.00  0.00     0.056 H 
ATOM     54  H   LIG d   1       1.955   0.554  -7.349  0.00  0.00     0.056 H 
BRANCH  52  55
ATOM     55  O   LIG d   1       3.057   2.034  -8.279  0.00  0.00    -0.383 OA
BRANCH  55  56
ATOM     56  C   LIG d   1       4.233   2.238  -9.064  0.00  0.00     0.036 C 
ATOM     57  H   LIG d   1       4.369   1.393  -9.741  0.00  0.00     0.052 H 
ATOM     58  H   LIG d   1       4.129   3.154  -9.645  0.00  0.00     0.052 H 
ATOM     59  H   LIG d   1       5.099   2.320  -8.407  0.00  0.00     0.052 H 
ENDBRANCH  55  56
ENDBRANCH  52  55
ENDBRANCH  49  52
ENDBRANCH   1  49
TORSDOF 9
ENDMDL
