MODEL 1
REMARK VINA RESULT:      -7.2      0.000      0.000
REMARK  13 active torsions:
REMARK  status: ('A' for Active; 'I' for Inactive)
REMARK    1  A    between atoms: C_3  and  O_8 
REMARK    2  A    between atoms: C_6  and  O_7 
REMARK    3  A    between atoms: O_8  and  C_9 
REMARK    4  A    between atoms: C_11  and  O_36 
REMARK    5  A    between atoms: C_13  and  O_35 
REMARK    6  A    between atoms: C_15  and  O_34 
REMARK    7  A    between atoms: C_17  and  C_20 
REMARK    8  A    between atoms: C_20  and  O_21 
REMARK    9  A    between atoms: O_21  and  C_22 
REMARK   10  A    between atoms: C_22  and  C_24 
REMARK   11  A    between atoms: C_25  and  C_26 
REMARK   12  A    between atoms: C_29  and  O_33 
REMARK   13  A    between atoms: C_30  and  O_32 
ROOT
ATOM      1  C   LIG d   1       1.873  -2.682 -10.069  0.00  0.00     0.231 C 
ATOM      2  H   LIG d   1       1.321  -2.547  -9.139  0.00  0.00     0.108 H 
ATOM      3  C   LIG d   1       1.279  -3.857 -10.851  0.00  0.00     0.145 C 
ATOM      4  H   LIG d   1       1.804  -3.966 -11.799  0.00  0.00     0.068 H 
ATOM      5  C   LIG d   1       1.435  -5.139 -10.027  0.00  0.00     0.115 C 
ATOM      6  H   LIG d   1       0.868  -5.050  -9.101  0.00  0.00     0.065 H 
ATOM      7  C   LIG d   1       2.918  -5.347  -9.704  0.00  0.00     0.113 C 
ATOM      8  H   LIG d   1       3.477  -5.487 -10.630  0.00  0.00     0.065 H 
ATOM      9  C   LIG d   1       3.449  -4.115  -8.967  0.00  0.00     0.125 C 
ATOM     10  H   LIG d   1       2.918  -3.999  -8.022  0.00  0.00     0.066 H 
ATOM     11  O   LIG d   1       3.245  -2.953  -9.775  0.00  0.00    -0.330 OA
ENDROOT
BRANCH   9  12
ATOM     12  C   LIG d   1       4.944  -4.288  -8.694  0.00  0.00     0.121 C 
ATOM     13  H   LIG d   1       5.402  -3.312  -8.540  0.00  0.00     0.072 H 
ATOM     14  H   LIG d   1       5.415  -4.780  -9.547  0.00  0.00     0.072 H 
BRANCH  12  15
ATOM     15  O   LIG d   1       5.126  -5.089  -7.524  0.00  0.00    -0.459 OA
BRANCH  15  16
ATOM     16  C   LIG d   1       4.371  -4.783  -6.449  0.00  0.00     0.332 C 
ATOM     17  O   LIG d   1       3.538  -5.572  -6.046  0.00  0.00    -0.246 OA
BRANCH  16  18
ATOM     18  C   LIG d   1       4.548  -3.541  -5.787  0.00  0.00     0.023 C 
ATOM     19  C   LIG d   1       4.544  -3.487  -4.438  0.00  0.00    -0.048 C 
ATOM     20  H   LIG d   1       4.402  -4.389  -3.862  0.00  0.00     0.063 H 
ATOM     21  H   LIG d   1       4.690  -2.638  -6.363  0.00  0.00     0.069 H 
BRANCH  19  22
ATOM     22  C   LIG d   1       4.734  -2.200  -3.753  0.00  0.00    -0.021 A 
ATOM     23  C   LIG d   1       5.510  -1.198  -4.347  0.00  0.00    -0.009 A 
ATOM     24  C   LIG d   1       5.684   0.010  -3.699  0.00  0.00     0.159 A 
ATOM     25  H   LIG d   1       5.971  -1.367  -5.308  0.00  0.00     0.066 H 
ATOM     26  C   LIG d   1       5.088   0.227  -2.457  0.00  0.00     0.158 A 
ATOM     27  C   LIG d   1       4.317  -0.767  -1.868  0.00  0.00    -0.016 A 
ATOM     28  C   LIG d   1       4.135  -1.972  -2.510  0.00  0.00    -0.051 A 
ATOM     29  H   LIG d   1       3.857  -0.593  -0.907  0.00  0.00     0.066 H 
ATOM     30  H   LIG d   1       3.531  -2.741  -2.052  0.00  0.00     0.062 H 
BRANCH  24  31
ATOM     31  O   LIG d   1       6.438   0.986  -4.272  0.00  0.00    -0.503 OA
ATOM     32  H   LIG d   1       6.016   1.856  -4.276  0.00  0.00     0.292 HD
ENDBRANCH  24  31
BRANCH  26  33
ATOM     33  O   LIG d   1       5.261   1.415  -1.822  0.00  0.00    -0.503 OA
ATOM     34  H   LIG d   1       4.537   1.651  -1.225  0.00  0.00     0.292 HD
ENDBRANCH  26  33
ENDBRANCH  19  22
ENDBRANCH  16  18
ENDBRANCH  15  16
ENDBRANCH  12  15
ENDBRANCH   9  12
BRANCH   7  35
ATOM     35  O   LIG d   1       3.069  -6.500  -8.875  0.00  0.00    -0.386 OA
ATOM     36  H   LIG d   1       3.982  -6.807  -8.789  0.00  0.00     0.210 HD
ENDBRANCH   7  35
BRANCH   5  37
ATOM     37  O   LIG d   1       0.949  -6.252 -10.780  0.00  0.00    -0.386 OA
ATOM     38  H   LIG d   1       1.609  -6.651 -11.362  0.00  0.00     0.210 HD
ENDBRANCH   5  37
BRANCH   1  39
ATOM     39  O   LIG d   1       1.781  -1.492 -10.854  0.00  0.00    -0.461 OA
BRANCH  39  40
ATOM     40  C   LIG d   1       2.429  -0.391 -10.387  0.00  0.00     0.124 A 
ATOM     41  C   LIG d   1       2.143   0.097  -9.120  0.00  0.00    -0.016 A 
ATOM     42  C   LIG d   1       2.801   1.215  -8.646  0.00  0.00    -0.017 A 
ATOM     43  H   LIG d   1       1.404  -0.396  -8.506  0.00  0.00     0.066 H 
ATOM     44  C   LIG d   1       3.750   1.847  -9.435  0.00  0.00     0.117 A 
ATOM     45  H   LIG d   1       2.578   1.595  -7.660  0.00  0.00     0.066 H 
ATOM     46  C   LIG d   1       4.037   1.359 -10.702  0.00  0.00    -0.017 A 
ATOM     47  C   LIG d   1       3.382   0.238 -11.174  0.00  0.00    -0.016 A 
ATOM     48  H   LIG d   1       4.777   1.852 -11.316  0.00  0.00     0.066 H 
ATOM     49  H   LIG d   1       3.609  -0.145 -12.157  0.00  0.00     0.066 H 
BRANCH  44  50
ATOM     50  O   LIG d   1       4.399   2.948  -8.968  0.00  0.00    -0.507 OA
ATOM     51  H   LIG d   1       4.716   2.860  -8.059  0.00  0.00     0.292 HD
ENDBRANCH  44  50
ENDBRANCH  39  40
ENDBRANCH   1  39
BRANCH   3  52
ATOM     52  O   LIG d   1      -0.109  -3.614 -11.096  0.00  0.00    -0.383 OA
ATOM     53  H   LIG d   1      -0.301  -3.315 -11.996  0.00  0.00     0.210 HD
ENDBRANCH   3  52
TORSDOF 13
ENDMDL
MODEL 2
REMARK VINA RESULT:      -6.9      6.486     10.933
REMARK  13 active torsions:
REMARK  status: ('A' for Active; 'I' for Inactive)
REMARK    1  A    between atoms: C_3  and  O_8 
REMARK    2  A    between atoms: C_6  and  O_7 
REMARK    3  A    between atoms: O_8  and  C_9 
REMARK    4  A    between atoms: C_11  and  O_36 
REMARK    5  A    between atoms: C_13  and  O_35 
REMARK    6  A    between atoms: C_15  and  O_34 
REMARK    7  A    between atoms: C_17  and  C_20 
REMARK    8  A    between atoms: C_20  and  O_21 
REMARK    9  A    between atoms: O_21  and  C_22 
REMARK   10  A    between atoms: C_22  and  C_24 
REMARK   11  A    between atoms: C_25  and  C_26 
REMARK   12  A    between atoms: C_29  and  O_33 
REMARK   13  A    between atoms: C_30  and  O_32 
ROOT
ATOM      1  C   LIG d   1       9.928   6.652  -3.880  0.00  0.00     0.231 C 
ATOM      2  H   LIG d   1      10.870   7.169  -4.064  0.00  0.00     0.108 H 
ATOM      3  C   LIG d   1       9.438   6.972  -2.465  0.00  0.00     0.145 C 
ATOM      4  H   LIG d   1       8.476   6.489  -2.295  0.00  0.00     0.068 H 
ATOM      5  C   LIG d   1      10.459   6.450  -1.450  0.00  0.00     0.115 C 
ATOM      6  H   LIG d   1      11.407   6.970  -1.586  0.00  0.00     0.065 H 
ATOM      7  C   LIG d   1      10.660   4.948  -1.670  0.00  0.00     0.113 C 
ATOM      8  H   LIG d   1       9.721   4.424  -1.484  0.00  0.00     0.065 H 
ATOM      9  C   LIG d   1      11.102   4.706  -3.115  0.00  0.00     0.125 C 
ATOM     10  H   LIG d   1      12.061   5.196  -3.289  0.00  0.00     0.066 H 
ATOM     11  O   LIG d   1      10.123   5.242  -4.008  0.00  0.00    -0.330 OA
ENDROOT
BRANCH   9  12
ATOM     12  C   LIG d   1      11.247   3.203  -3.361  0.00  0.00     0.121 C 
ATOM     13  H   LIG d   1      12.071   2.815  -2.764  0.00  0.00     0.072 H 
ATOM     14  H   LIG d   1      11.448   3.026  -4.418  0.00  0.00     0.072 H 
BRANCH  12  15
ATOM     15  O   LIG d   1      10.036   2.541  -2.989  0.00  0.00    -0.459 OA
BRANCH  15  16
ATOM     16  C   LIG d   1       9.300   2.005  -3.984  0.00  0.00     0.332 C 
ATOM     17  O   LIG d   1       9.813   1.770  -5.062  0.00  0.00    -0.246 OA
BRANCH  16  18
ATOM     18  C   LIG d   1       7.928   1.715  -3.774  0.00  0.00     0.023 C 
ATOM     19  C   LIG d   1       7.516   0.433  -3.670  0.00  0.00    -0.048 C 
ATOM     20  H   LIG d   1       8.231  -0.372  -3.751  0.00  0.00     0.063 H 
ATOM     21  H   LIG d   1       7.213   2.520  -3.694  0.00  0.00     0.069 H 
BRANCH  19  22
ATOM     22  C   LIG d   1       6.095   0.134  -3.447  0.00  0.00    -0.021 A 
ATOM     23  C   LIG d   1       5.505  -0.973  -4.070  0.00  0.00    -0.009 A 
ATOM     24  C   LIG d   1       4.168  -1.249  -3.856  0.00  0.00     0.159 A 
ATOM     25  H   LIG d   1       6.093  -1.609  -4.714  0.00  0.00     0.066 H 
ATOM     26  C   LIG d   1       3.411  -0.427  -3.023  0.00  0.00     0.158 A 
ATOM     27  C   LIG d   1       3.995   0.671  -2.405  0.00  0.00    -0.016 A 
ATOM     28  C   LIG d   1       5.328   0.951  -2.609  0.00  0.00    -0.051 A 
ATOM     29  H   LIG d   1       3.404   1.304  -1.760  0.00  0.00     0.066 H 
ATOM     30  H   LIG d   1       5.782   1.802  -2.123  0.00  0.00     0.062 H 
BRANCH  24  31
ATOM     31  O   LIG d   1       3.592  -2.324  -4.459  0.00  0.00    -0.503 OA
ATOM     32  H   LIG d   1       2.631  -2.364  -4.355  0.00  0.00     0.292 HD
ENDBRANCH  24  31
BRANCH  26  33
ATOM     33  O   LIG d   1       2.097  -0.701  -2.815  0.00  0.00    -0.503 OA
ATOM     34  H   LIG d   1       1.494  -0.137  -3.320  0.00  0.00     0.292 HD
ENDBRANCH  26  33
ENDBRANCH  19  22
ENDBRANCH  16  18
ENDBRANCH  15  16
ENDBRANCH  12  15
ENDBRANCH   9  12
BRANCH   7  35
ATOM     35  O   LIG d   1      11.664   4.464  -0.776  0.00  0.00    -0.386 OA
ATOM     36  H   LIG d   1      12.186   3.731  -1.131  0.00  0.00     0.210 HD
ENDBRANCH   7  35
BRANCH   5  37
ATOM     37  O   LIG d   1       9.975   6.680  -0.125  0.00  0.00    -0.386 OA
ATOM     38  H   LIG d   1       9.911   5.880   0.414  0.00  0.00     0.210 HD
ENDBRANCH   5  37
BRANCH   1  39
ATOM     39  O   LIG d   1       8.954   7.086  -4.831  0.00  0.00    -0.461 OA
BRANCH  39  40
ATOM     40  C   LIG d   1       9.408   7.784  -5.907  0.00  0.00     0.124 A 
ATOM     41  C   LIG d   1       9.815   7.111  -7.050  0.00  0.00    -0.016 A 
ATOM     42  C   LIG d   1      10.276   7.821  -8.142  0.00  0.00    -0.017 A 
ATOM     43  H   LIG d   1       9.773   6.033  -7.085  0.00  0.00     0.066 H 
ATOM     44  C   LIG d   1      10.331   9.206  -8.095  0.00  0.00     0.117 A 
ATOM     45  H   LIG d   1      10.594   7.297  -9.031  0.00  0.00     0.066 H 
ATOM     46  C   LIG d   1       9.923   9.879  -6.953  0.00  0.00    -0.017 A 
ATOM     47  C   LIG d   1       9.458   9.169  -5.863  0.00  0.00    -0.016 A 
ATOM     48  H   LIG d   1       9.965  10.958  -6.918  0.00  0.00     0.066 H 
ATOM     49  H   LIG d   1       9.136   9.693  -4.975  0.00  0.00     0.066 H 
BRANCH  44  50
ATOM     50  O   LIG d   1      10.785   9.904  -9.170  0.00  0.00    -0.507 OA
ATOM     51  H   LIG d   1      11.429  10.591  -8.949  0.00  0.00     0.292 HD
ENDBRANCH  44  50
ENDBRANCH  39  40
ENDBRANCH   1  39
BRANCH   3  52
ATOM     52  O   LIG d   1       9.297   8.387  -2.317  0.00  0.00    -0.383 OA
ATOM     53  H   LIG d   1       9.080   8.848  -3.140  0.00  0.00     0.210 HD
ENDBRANCH   3  52
TORSDOF 13
ENDMDL
MODEL 3
REMARK VINA RESULT:      -6.9      5.673      9.369
REMARK  13 active torsions:
REMARK  status: ('A' for Active; 'I' for Inactive)
REMARK    1  A    between atoms: C_3  and  O_8 
REMARK    2  A    between atoms: C_6  and  O_7 
REMARK    3  A    between atoms: O_8  and  C_9 
REMARK    4  A    between atoms: C_11  and  O_36 
REMARK    5  A    between atoms: C_13  and  O_35 
REMARK    6  A    between atoms: C_15  and  O_34 
REMARK    7  A    between atoms: C_17  and  C_20 
REMARK    8  A    between atoms: C_20  and  O_21 
REMARK    9  A    between atoms: O_21  and  C_22 
REMARK   10  A    between atoms: C_22  and  C_24 
REMARK   11  A    between atoms: C_25  and  C_26 
REMARK   12  A    between atoms: C_29  and  O_33 
REMARK   13  A    between atoms: C_30  and  O_32 
ROOT
ATOM      1  C   LIG d   1       8.475  -8.199  -3.001  0.00  0.00     0.231 C 
ATOM      2  H   LIG d   1       7.667  -7.663  -2.502  0.00  0.00     0.108 H 
ATOM      3  C   LIG d   1       9.636  -8.398  -2.023  0.00  0.00     0.145 C 
ATOM      4  H   LIG d   1      10.427  -8.969  -2.509  0.00  0.00     0.068 H 
ATOM      5  C   LIG d   1      10.177  -7.029  -1.600  0.00  0.00     0.115 C 
ATOM      6  H   LIG d   1       9.401  -6.478  -1.069  0.00  0.00     0.065 H 
ATOM      7  C   LIG d   1      10.597  -6.250  -2.850  0.00  0.00     0.113 C 
ATOM      8  H   LIG d   1      11.409  -6.778  -3.352  0.00  0.00     0.065 H 
ATOM      9  C   LIG d   1       9.399  -6.134  -3.796  0.00  0.00     0.125 C 
ATOM     10  H   LIG d   1       8.604  -5.571  -3.308  0.00  0.00     0.066 H 
ATOM     11  O   LIG d   1       8.925  -7.442  -4.126  0.00  0.00    -0.330 OA
ENDROOT
BRANCH   9  12
ATOM     12  C   LIG d   1       9.827  -5.410  -5.074  0.00  0.00     0.121 C 
ATOM     13  H   LIG d   1       9.348  -5.877  -5.934  0.00  0.00     0.072 H 
ATOM     14  H   LIG d   1      10.910  -5.473  -5.183  0.00  0.00     0.072 H 
BRANCH  12  15
ATOM     15  O   LIG d   1       9.435  -4.037  -4.998  0.00  0.00    -0.459 OA
BRANCH  15  16
ATOM     16  C   LIG d   1       8.268  -3.699  -5.583  0.00  0.00     0.332 C 
ATOM     17  O   LIG d   1       7.888  -4.297  -6.573  0.00  0.00    -0.246 OA
BRANCH  16  18
ATOM     18  C   LIG d   1       7.483  -2.648  -5.045  0.00  0.00     0.023 C 
ATOM     19  C   LIG d   1       6.684  -2.877  -3.981  0.00  0.00    -0.048 C 
ATOM     20  H   LIG d   1       6.639  -3.863  -3.542  0.00  0.00     0.063 H 
ATOM     21  H   LIG d   1       7.528  -1.662  -5.485  0.00  0.00     0.069 H 
BRANCH  19  22
ATOM     22  C   LIG d   1       5.875  -1.785  -3.421  0.00  0.00    -0.021 A 
ATOM     23  C   LIG d   1       6.329  -0.463  -3.503  0.00  0.00    -0.009 A 
ATOM     24  C   LIG d   1       5.563   0.558  -2.975  0.00  0.00     0.159 A 
ATOM     25  H   LIG d   1       7.273  -0.243  -3.977  0.00  0.00     0.066 H 
ATOM     26  C   LIG d   1       4.344   0.273  -2.362  0.00  0.00     0.158 A 
ATOM     27  C   LIG d   1       3.893  -1.039  -2.281  0.00  0.00    -0.016 A 
ATOM     28  C   LIG d   1       4.648  -2.063  -2.809  0.00  0.00    -0.051 A 
ATOM     29  H   LIG d   1       2.948  -1.255  -1.806  0.00  0.00     0.066 H 
ATOM     30  H   LIG d   1       4.293  -3.082  -2.749  0.00  0.00     0.062 H 
BRANCH  24  31
ATOM     31  O   LIG d   1       6.001   1.844  -3.052  0.00  0.00    -0.503 OA
ATOM     32  H   LIG d   1       5.365   2.452  -3.454  0.00  0.00     0.292 HD
ENDBRANCH  24  31
BRANCH  26  33
ATOM     33  O   LIG d   1       3.594   1.279  -1.844  0.00  0.00    -0.503 OA
ATOM     34  H   LIG d   1       3.252   1.097  -0.957  0.00  0.00     0.292 HD
ENDBRANCH  26  33
ENDBRANCH  19  22
ENDBRANCH  16  18
ENDBRANCH  15  16
ENDBRANCH  12  15
ENDBRANCH   9  12
BRANCH   7  35
ATOM     35  O   LIG d   1      11.037  -4.944  -2.474  0.00  0.00    -0.386 OA
ATOM     36  H   LIG d   1      10.762  -4.245  -3.083  0.00  0.00     0.210 HD
ENDBRANCH   7  35
BRANCH   5  37
ATOM     37  O   LIG d   1      11.308  -7.207  -0.744  0.00  0.00    -0.386 OA
ATOM     38  H   LIG d   1      12.154  -7.005  -1.164  0.00  0.00     0.210 HD
ENDBRANCH   5  37
BRANCH   1  39
ATOM     39  O   LIG d   1       8.000  -9.472  -3.443  0.00  0.00    -0.461 OA
BRANCH  39  40
ATOM     40  C   LIG d   1       6.653  -9.663  -3.444  0.00  0.00     0.124 A 
ATOM     41  C   LIG d   1       5.877  -9.131  -4.463  0.00  0.00    -0.016 A 
ATOM     42  C   LIG d   1       4.510  -9.326  -4.464  0.00  0.00    -0.017 A 
ATOM     43  H   LIG d   1       6.342  -8.562  -5.255  0.00  0.00     0.066 H 
ATOM     44  C   LIG d   1       3.913 -10.055  -3.446  0.00  0.00     0.117 A 
ATOM     45  H   LIG d   1       3.906  -8.910  -5.257  0.00  0.00     0.066 H 
ATOM     46  C   LIG d   1       4.689 -10.589  -2.427  0.00  0.00    -0.017 A 
ATOM     47  C   LIG d   1       6.057 -10.397  -2.430  0.00  0.00    -0.016 A 
ATOM     48  H   LIG d   1       4.224 -11.157  -1.635  0.00  0.00     0.066 H 
ATOM     49  H   LIG d   1       6.662 -10.816  -1.639  0.00  0.00     0.066 H 
BRANCH  44  50
ATOM     50  O   LIG d   1       2.566 -10.247  -3.446  0.00  0.00    -0.507 OA
ATOM     51  H   LIG d   1       2.144 -10.066  -2.595  0.00  0.00     0.292 HD
ENDBRANCH  44  50
ENDBRANCH  39  40
ENDBRANCH   1  39
BRANCH   3  52
ATOM     52  O   LIG d   1       9.173  -9.106  -0.870  0.00  0.00    -0.383 OA
ATOM     53  H   LIG d   1       8.215  -9.059  -0.740  0.00  0.00     0.210 HD
ENDBRANCH   3  52
TORSDOF 13
ENDMDL
MODEL 4
REMARK VINA RESULT:      -6.8      5.382      7.778
REMARK  13 active torsions:
REMARK  status: ('A' for Active; 'I' for Inactive)
REMARK    1  A    between atoms: C_3  and  O_8 
REMARK    2  A    between atoms: C_6  and  O_7 
REMARK    3  A    between atoms: O_8  and  C_9 
REMARK    4  A    between atoms: C_11  and  O_36 
REMARK    5  A    between atoms: C_13  and  O_35 
REMARK    6  A    between atoms: C_15  and  O_34 
REMARK    7  A    between atoms: C_17  and  C_20 
REMARK    8  A    between atoms: C_20  and  O_21 
REMARK    9  A    between atoms: O_21  and  C_22 
REMARK   10  A    between atoms: C_22  and  C_24 
REMARK   11  A    between atoms: C_25  and  C_26 
REMARK   12  A    between atoms: C_29  and  O_33 
REMARK   13  A    between atoms: C_30  and  O_32 
ROOT
ATOM      1  C   LIG d   1       5.061  -4.086  -5.149  0.00  0.00     0.231 C 
ATOM      2  H   LIG d   1       4.112  -4.036  -4.615  0.00  0.00     0.108 H 
ATOM      3  C   LIG d   1       4.842  -3.704  -6.615  0.00  0.00     0.145 C 
ATOM      4  H   LIG d   1       5.797  -3.714  -7.141  0.00  0.00     0.068 H 
ATOM      5  C   LIG d   1       3.890  -4.715  -7.262  0.00  0.00     0.115 C 
ATOM      6  H   LIG d   1       2.919  -4.668  -6.770  0.00  0.00     0.065 H 
ATOM      7  C   LIG d   1       4.477  -6.122  -7.110  0.00  0.00     0.113 C 
ATOM      8  H   LIG d   1       5.425  -6.180  -7.646  0.00  0.00     0.065 H 
ATOM      9  C   LIG d   1       4.710  -6.410  -5.625  0.00  0.00     0.125 C 
ATOM     10  H   LIG d   1       3.757  -6.391  -5.096  0.00  0.00     0.066 H 
ATOM     11  O   LIG d   1       5.579  -5.416  -5.077  0.00  0.00    -0.330 OA
ENDROOT
BRANCH   9  12
ATOM     12  C   LIG d   1       5.352  -7.790  -5.468  0.00  0.00     0.121 C 
ATOM     13  H   LIG d   1       5.923  -7.822  -4.540  0.00  0.00     0.072 H 
ATOM     14  H   LIG d   1       6.018  -7.978  -6.311  0.00  0.00     0.072 H 
BRANCH  12  15
ATOM     15  O   LIG d   1       4.332  -8.790  -5.435  0.00  0.00    -0.459 OA
BRANCH  15  16
ATOM     16  C   LIG d   1       4.265  -9.561  -4.330  0.00  0.00     0.332 C 
ATOM     17  O   LIG d   1       3.189  -9.974  -3.940  0.00  0.00    -0.246 OA
BRANCH  16  18
ATOM     18  C   LIG d   1       5.449  -9.891  -3.622  0.00  0.00     0.023 C 
ATOM     19  C   LIG d   1       5.369 -10.428  -2.385  0.00  0.00    -0.048 C 
ATOM     20  H   LIG d   1       4.404 -10.601  -1.933  0.00  0.00     0.063 H 
ATOM     21  H   LIG d   1       6.414  -9.717  -4.074  0.00  0.00     0.069 H 
BRANCH  19  22
ATOM     22  C   LIG d   1       6.596 -10.775  -1.654  0.00  0.00    -0.021 A 
ATOM     23  C   LIG d   1       7.544  -9.786  -1.364  0.00  0.00    -0.009 A 
ATOM     24  C   LIG d   1       8.694 -10.119  -0.677  0.00  0.00     0.159 A 
ATOM     25  H   LIG d   1       7.375  -8.767  -1.676  0.00  0.00     0.066 H 
ATOM     26  C   LIG d   1       8.911 -11.436  -0.274  0.00  0.00     0.158 A 
ATOM     27  C   LIG d   1       7.971 -12.418  -0.562  0.00  0.00    -0.016 A 
ATOM     28  C   LIG d   1       6.819 -12.094  -1.242  0.00  0.00    -0.051 A 
ATOM     29  H   LIG d   1       8.143 -13.437  -0.247  0.00  0.00     0.066 H 
ATOM     30  H   LIG d   1       6.087 -12.858  -1.460  0.00  0.00     0.062 H 
BRANCH  24  31
ATOM     31  O   LIG d   1       9.617  -9.161  -0.393  0.00  0.00    -0.503 OA
ATOM     32  H   LIG d   1       9.258  -8.396   0.076  0.00  0.00     0.292 HD
ENDBRANCH  24  31
BRANCH  26  33
ATOM     33  O   LIG d   1      10.044 -11.760   0.401  0.00  0.00    -0.503 OA
ATOM     34  H   LIG d   1      10.492 -11.002   0.803  0.00  0.00     0.292 HD
ENDBRANCH  26  33
ENDBRANCH  19  22
ENDBRANCH  16  18
ENDBRANCH  15  16
ENDBRANCH  12  15
ENDBRANCH   9  12
BRANCH   7  35
ATOM     35  O   LIG d   1       3.563  -7.080  -7.645  0.00  0.00    -0.386 OA
ATOM     36  H   LIG d   1       3.015  -6.742  -8.366  0.00  0.00     0.210 HD
ENDBRANCH   7  35
BRANCH   5  37
ATOM     37  O   LIG d   1       3.738  -4.407  -8.649  0.00  0.00    -0.386 OA
ATOM     38  H   LIG d   1       3.128  -4.993  -9.117  0.00  0.00     0.210 HD
ENDBRANCH   5  37
BRANCH   1  39
ATOM     39  O   LIG d   1       5.991  -3.180  -4.554  0.00  0.00    -0.461 OA
BRANCH  39  40
ATOM     40  C   LIG d   1       5.475  -2.154  -3.825  0.00  0.00     0.124 A 
ATOM     41  C   LIG d   1       4.309  -2.339  -3.096  0.00  0.00    -0.016 A 
ATOM     42  C   LIG d   1       3.786  -1.297  -2.355  0.00  0.00    -0.017 A 
ATOM     43  H   LIG d   1       3.810  -3.296  -3.109  0.00  0.00     0.066 H 
ATOM     44  C   LIG d   1       4.427  -0.067  -2.340  0.00  0.00     0.117 A 
ATOM     45  H   LIG d   1       2.878  -1.441  -1.789  0.00  0.00     0.066 H 
ATOM     46  C   LIG d   1       5.593   0.117  -3.067  0.00  0.00    -0.017 A 
ATOM     47  C   LIG d   1       6.119  -0.926  -3.804  0.00  0.00    -0.016 A 
ATOM     48  H   LIG d   1       6.092   1.075  -3.054  0.00  0.00     0.066 H 
ATOM     49  H   LIG d   1       7.030  -0.785  -4.367  0.00  0.00     0.066 H 
BRANCH  44  50
ATOM     50  O   LIG d   1       3.911   0.959  -1.610  0.00  0.00    -0.507 OA
ATOM     51  H   LIG d   1       2.984   0.839  -1.365  0.00  0.00     0.292 HD
ENDBRANCH  44  50
ENDBRANCH  39  40
ENDBRANCH   1  39
BRANCH   3  52
ATOM     52  O   LIG d   1       4.270  -2.395  -6.687  0.00  0.00    -0.383 OA
ATOM     53  H   LIG d   1       4.189  -2.051  -7.588  0.00  0.00     0.210 HD
ENDBRANCH   3  52
TORSDOF 13
ENDMDL
MODEL 5
REMARK VINA RESULT:      -6.7      6.435     10.950
REMARK  13 active torsions:
REMARK  status: ('A' for Active; 'I' for Inactive)
REMARK    1  A    between atoms: C_3  and  O_8 
REMARK    2  A    between atoms: C_6  and  O_7 
REMARK    3  A    between atoms: O_8  and  C_9 
REMARK    4  A    between atoms: C_11  and  O_36 
REMARK    5  A    between atoms: C_13  and  O_35 
REMARK    6  A    between atoms: C_15  and  O_34 
REMARK    7  A    between atoms: C_17  and  C_20 
REMARK    8  A    between atoms: C_20  and  O_21 
REMARK    9  A    between atoms: O_21  and  C_22 
REMARK   10  A    between atoms: C_22  and  C_24 
REMARK   11  A    between atoms: C_25  and  C_26 
REMARK   12  A    between atoms: C_29  and  O_33 
REMARK   13  A    between atoms: C_30  and  O_32 
ROOT
ATOM      1  C   LIG d   1       8.002   1.758  -3.919  0.00  0.00     0.231 C 
ATOM      2  H   LIG d   1       8.264   0.715  -3.743  0.00  0.00     0.108 H 
ATOM      3  C   LIG d   1       8.180   2.085  -5.404  0.00  0.00     0.145 C 
ATOM      4  H   LIG d   1       7.880   3.116  -5.589  0.00  0.00     0.068 H 
ATOM      5  C   LIG d   1       9.653   1.904  -5.785  0.00  0.00     0.115 C 
ATOM      6  H   LIG d   1       9.940   0.862  -5.650  0.00  0.00     0.065 H 
ATOM      7  C   LIG d   1      10.515   2.796  -4.887  0.00  0.00     0.113 C 
ATOM      8  H   LIG d   1      10.261   3.842  -5.061  0.00  0.00     0.065 H 
ATOM      9  C   LIG d   1      10.246   2.442  -3.422  0.00  0.00     0.125 C 
ATOM     10  H   LIG d   1      10.538   1.407  -3.238  0.00  0.00     0.066 H 
ATOM     11  O   LIG d   1       8.854   2.602  -3.141  0.00  0.00    -0.330 OA
ENDROOT
BRANCH   9  12
ATOM     12  C   LIG d   1      11.058   3.369  -2.516  0.00  0.00     0.121 C 
ATOM     13  H   LIG d   1      12.037   2.928  -2.328  0.00  0.00     0.072 H 
ATOM     14  H   LIG d   1      10.533   3.502  -1.569  0.00  0.00     0.072 H 
BRANCH  12  15
ATOM     15  O   LIG d   1      11.221   4.637  -3.153  0.00  0.00    -0.459 OA
BRANCH  15  16
ATOM     16  C   LIG d   1      10.519   5.672  -2.648  0.00  0.00     0.332 C 
ATOM     17  O   LIG d   1      10.129   5.638  -1.495  0.00  0.00    -0.246 OA
BRANCH  16  18
ATOM     18  C   LIG d   1      10.233   6.800  -3.458  0.00  0.00     0.023 C 
ATOM     19  C   LIG d   1      10.730   6.876  -4.712  0.00  0.00    -0.048 C 
ATOM     20  H   LIG d   1      11.350   6.078  -5.095  0.00  0.00     0.063 H 
ATOM     21  H   LIG d   1       9.613   7.597  -3.074  0.00  0.00     0.069 H 
BRANCH  19  22
ATOM     22  C   LIG d   1      10.429   8.042  -5.553  0.00  0.00    -0.021 A 
ATOM     23  C   LIG d   1       9.548   7.918  -6.635  0.00  0.00    -0.009 A 
ATOM     24  C   LIG d   1       9.268   9.018  -7.421  0.00  0.00     0.159 A 
ATOM     25  H   LIG d   1       9.090   6.965  -6.853  0.00  0.00     0.066 H 
ATOM     26  C   LIG d   1       9.862  10.248  -7.138  0.00  0.00     0.158 A 
ATOM     27  C   LIG d   1      10.735  10.371  -6.065  0.00  0.00    -0.016 A 
ATOM     28  C   LIG d   1      11.016   9.280  -5.273  0.00  0.00    -0.051 A 
ATOM     29  H   LIG d   1      11.191  11.326  -5.849  0.00  0.00     0.066 H 
ATOM     30  H   LIG d   1      11.692   9.381  -4.436  0.00  0.00     0.062 H 
BRANCH  24  31
ATOM     31  O   LIG d   1       8.414   8.901  -8.473  0.00  0.00    -0.503 OA
ATOM     32  H   LIG d   1       7.577   8.469  -8.253  0.00  0.00     0.292 HD
ENDBRANCH  24  31
BRANCH  26  33
ATOM     33  O   LIG d   1       9.585  11.327  -7.914  0.00  0.00    -0.503 OA
ATOM     34  H   LIG d   1      10.142  11.398  -8.702  0.00  0.00     0.292 HD
ENDBRANCH  26  33
ENDBRANCH  19  22
ENDBRANCH  16  18
ENDBRANCH  15  16
ENDBRANCH  12  15
ENDBRANCH   9  12
BRANCH   7  35
ATOM     35  O   LIG d   1      11.896   2.582  -5.184  0.00  0.00    -0.386 OA
ATOM     36  H   LIG d   1      12.079   1.734  -5.612  0.00  0.00     0.210 HD
ENDBRANCH   7  35
BRANCH   5  37
ATOM     37  O   LIG d   1       9.841   2.277  -7.152  0.00  0.00    -0.386 OA
ATOM     38  H   LIG d   1       9.681   1.561  -7.781  0.00  0.00     0.210 HD
ENDBRANCH   5  37
BRANCH   1  39
ATOM     39  O   LIG d   1       6.642   1.978  -3.543  0.00  0.00    -0.461 OA
BRANCH  39  40
ATOM     40  C   LIG d   1       5.925   0.889  -3.153  0.00  0.00     0.124 A 
ATOM     41  C   LIG d   1       4.706   1.054  -2.512  0.00  0.00    -0.016 A 
ATOM     42  C   LIG d   1       3.978  -0.051  -2.116  0.00  0.00    -0.017 A 
ATOM     43  H   LIG d   1       4.327   2.047  -2.320  0.00  0.00     0.066 H 
ATOM     44  C   LIG d   1       4.466  -1.326  -2.362  0.00  0.00     0.117 A 
ATOM     45  H   LIG d   1       3.030   0.078  -1.617  0.00  0.00     0.066 H 
ATOM     46  C   LIG d   1       5.684  -1.491  -3.005  0.00  0.00    -0.017 A 
ATOM     47  C   LIG d   1       6.409  -0.386  -3.404  0.00  0.00    -0.016 A 
ATOM     48  H   LIG d   1       6.063  -2.484  -3.196  0.00  0.00     0.066 H 
ATOM     49  H   LIG d   1       7.356  -0.514  -3.908  0.00  0.00     0.066 H 
BRANCH  44  50
ATOM     50  O   LIG d   1       3.749  -2.414  -1.973  0.00  0.00    -0.507 OA
ATOM     51  H   LIG d   1       4.290  -3.195  -1.789  0.00  0.00     0.292 HD
ENDBRANCH  44  50
ENDBRANCH  39  40
ENDBRANCH   1  39
BRANCH   3  52
ATOM     52  O   LIG d   1       7.373   1.203  -6.188  0.00  0.00    -0.383 OA
ATOM     53  H   LIG d   1       7.293   1.464  -7.116  0.00  0.00     0.210 HD
ENDBRANCH   3  52
TORSDOF 13
ENDMDL
MODEL 6
REMARK VINA RESULT:      -6.6      6.575     11.090
REMARK  13 active torsions:
REMARK  status: ('A' for Active; 'I' for Inactive)
REMARK    1  A    between atoms: C_3  and  O_8 
REMARK    2  A    between atoms: C_6  and  O_7 
REMARK    3  A    between atoms: O_8  and  C_9 
REMARK    4  A    between atoms: C_11  and  O_36 
REMARK    5  A    between atoms: C_13  and  O_35 
REMARK    6  A    between atoms: C_15  and  O_34 
REMARK    7  A    between atoms: C_17  and  C_20 
REMARK    8  A    between atoms: C_20  and  O_21 
REMARK    9  A    between atoms: O_21  and  C_22 
REMARK   10  A    between atoms: C_22  and  C_24 
REMARK   11  A    between atoms: C_25  and  C_26 
REMARK   12  A    between atoms: C_29  and  O_33 
REMARK   13  A    between atoms: C_30  and  O_32 
ROOT
ATOM      1  C   LIG d   1       8.780   1.799  -3.778  0.00  0.00     0.231 C 
ATOM      2  H   LIG d   1       8.951   0.959  -3.105  0.00  0.00     0.108 H 
ATOM      3  C   LIG d   1       9.661   1.645  -5.021  0.00  0.00     0.145 C 
ATOM      4  H   LIG d   1       9.460   2.462  -5.713  0.00  0.00     0.068 H 
ATOM      5  C   LIG d   1      11.133   1.679  -4.600  0.00  0.00     0.115 C 
ATOM      6  H   LIG d   1      11.347   0.832  -3.949  0.00  0.00     0.065 H 
ATOM      7  C   LIG d   1      11.409   2.987  -3.851  0.00  0.00     0.113 C 
ATOM      8  H   LIG d   1      11.243   3.832  -4.520  0.00  0.00     0.065 H 
ATOM      9  C   LIG d   1      10.460   3.089  -2.654  0.00  0.00     0.125 C 
ATOM     10  H   LIG d   1      10.653   2.266  -1.965  0.00  0.00     0.066 H 
ATOM     11  O   LIG d   1       9.107   3.019  -3.112  0.00  0.00    -0.330 OA
ENDROOT
BRANCH   9  12
ATOM     12  C   LIG d   1      10.687   4.420  -1.935  0.00  0.00     0.121 C 
ATOM     13  H   LIG d   1      11.499   4.312  -1.217  0.00  0.00     0.072 H 
ATOM     14  H   LIG d   1       9.775   4.709  -1.410  0.00  0.00     0.072 H 
BRANCH  12  15
ATOM     15  O   LIG d   1      11.025   5.427  -2.891  0.00  0.00    -0.459 OA
BRANCH  15  16
ATOM     16  C   LIG d   1      10.076   6.338  -3.184  0.00  0.00     0.332 C 
ATOM     17  O   LIG d   1       9.335   6.748  -2.309  0.00  0.00    -0.246 OA
BRANCH  16  18
ATOM     18  C   LIG d   1       9.940   6.821  -4.510  0.00  0.00     0.023 C 
ATOM     19  C   LIG d   1       9.994   5.962  -5.551  0.00  0.00    -0.048 C 
ATOM     20  H   LIG d   1      10.146   4.908  -5.373  0.00  0.00     0.063 H 
ATOM     21  H   LIG d   1       9.788   7.875  -4.687  0.00  0.00     0.069 H 
BRANCH  19  22
ATOM     22  C   LIG d   1       9.846   6.462  -6.925  0.00  0.00    -0.021 A 
ATOM     23  C   LIG d   1       9.249   7.707  -7.158  0.00  0.00    -0.009 A 
ATOM     24  C   LIG d   1       9.114   8.172  -8.451  0.00  0.00     0.159 A 
ATOM     25  H   LIG d   1       8.895   8.301  -6.329  0.00  0.00     0.066 H 
ATOM     26  C   LIG d   1       9.571   7.403  -9.521  0.00  0.00     0.158 A 
ATOM     27  C   LIG d   1      10.164   6.168  -9.290  0.00  0.00    -0.016 A 
ATOM     28  C   LIG d   1      10.307   5.699  -8.003  0.00  0.00    -0.051 A 
ATOM     29  H   LIG d   1      10.517   5.576 -10.122  0.00  0.00     0.066 H 
ATOM     30  H   LIG d   1      10.773   4.740  -7.826  0.00  0.00     0.062 H 
BRANCH  24  31
ATOM     31  O   LIG d   1       8.534   9.380  -8.682  0.00  0.00    -0.503 OA
ATOM     32  H   LIG d   1       7.606   9.325  -8.951  0.00  0.00     0.292 HD
ENDBRANCH  24  31
BRANCH  26  33
ATOM     33  O   LIG d   1       9.436   7.862 -10.792  0.00  0.00    -0.503 OA
ATOM     34  H   LIG d   1       8.665   8.432 -10.923  0.00  0.00     0.292 HD
ENDBRANCH  26  33
ENDBRANCH  19  22
ENDBRANCH  16  18
ENDBRANCH  15  16
ENDBRANCH  12  15
ENDBRANCH   9  12
BRANCH   7  35
ATOM     35  O   LIG d   1      12.761   2.998  -3.391  0.00  0.00    -0.386 OA
ATOM     36  H   LIG d   1      12.889   2.569  -2.534  0.00  0.00     0.210 HD
ENDBRANCH   7  35
BRANCH   5  37
ATOM     37  O   LIG d   1      11.963   1.610  -5.762  0.00  0.00    -0.386 OA
ATOM     38  H   LIG d   1      12.910   1.662  -5.573  0.00  0.00     0.210 HD
ENDBRANCH   5  37
BRANCH   1  39
ATOM     39  O   LIG d   1       7.406   1.823  -4.169  0.00  0.00    -0.461 OA
BRANCH  39  40
ATOM     40  C   LIG d   1       6.580   0.917  -3.579  0.00  0.00     0.124 A 
ATOM     41  C   LIG d   1       6.822  -0.441  -3.724  0.00  0.00    -0.016 A 
ATOM     42  C   LIG d   1       5.983  -1.360  -3.125  0.00  0.00    -0.017 A 
ATOM     43  H   LIG d   1       7.666  -0.779  -4.307  0.00  0.00     0.066 H 
ATOM     44  C   LIG d   1       4.899  -0.925  -2.378  0.00  0.00     0.117 A 
ATOM     45  H   LIG d   1       6.172  -2.417  -3.239  0.00  0.00     0.066 H 
ATOM     46  C   LIG d   1       4.657   0.433  -2.231  0.00  0.00    -0.017 A 
ATOM     47  C   LIG d   1       5.499   1.352  -2.827  0.00  0.00    -0.016 A 
ATOM     48  H   LIG d   1       3.813   0.771  -1.649  0.00  0.00     0.066 H 
ATOM     49  H   LIG d   1       5.313   2.409  -2.709  0.00  0.00     0.066 H 
BRANCH  44  50
ATOM     50  O   LIG d   1       4.073  -1.830  -1.788  0.00  0.00    -0.507 OA
ATOM     51  H   LIG d   1       4.234  -1.951  -0.842  0.00  0.00     0.292 HD
ENDBRANCH  44  50
ENDBRANCH  39  40
ENDBRANCH   1  39
BRANCH   3  52
ATOM     52  O   LIG d   1       9.375   0.397  -5.657  0.00  0.00    -0.383 OA
ATOM     53  H   LIG d   1       8.470   0.325  -5.991  0.00  0.00     0.210 HD
ENDBRANCH   3  52
TORSDOF 13
ENDMDL
MODEL 7
REMARK VINA RESULT:      -6.6      7.498     12.613
REMARK  13 active torsions:
REMARK  status: ('A' for Active; 'I' for Inactive)
REMARK    1  A    between atoms: C_3  and  O_8 
REMARK    2  A    between atoms: C_6  and  O_7 
REMARK    3  A    between atoms: O_8  and  C_9 
REMARK    4  A    between atoms: C_11  and  O_36 
REMARK    5  A    between atoms: C_13  and  O_35 
REMARK    6  A    between atoms: C_15  and  O_34 
REMARK    7  A    between atoms: C_17  and  C_20 
REMARK    8  A    between atoms: C_20  and  O_21 
REMARK    9  A    between atoms: O_21  and  C_22 
REMARK   10  A    between atoms: C_22  and  C_24 
REMARK   11  A    between atoms: C_25  and  C_26 
REMARK   12  A    between atoms: C_29  and  O_33 
REMARK   13  A    between atoms: C_30  and  O_32 
ROOT
ATOM      1  C   LIG d   1      11.445   6.492  -1.067  0.00  0.00     0.231 C 
ATOM      2  H   LIG d   1      11.764   7.328  -1.689  0.00  0.00     0.108 H 
ATOM      3  C   LIG d   1      12.649   5.596  -0.759  0.00  0.00     0.145 C 
ATOM      4  H   LIG d   1      12.339   4.782  -0.104  0.00  0.00     0.068 H 
ATOM      5  C   LIG d   1      13.194   5.019  -2.070  0.00  0.00     0.115 C 
ATOM      6  H   LIG d   1      13.551   5.830  -2.705  0.00  0.00     0.065 H 
ATOM      7  C   LIG d   1      12.072   4.260  -2.786  0.00  0.00     0.113 C 
ATOM      8  H   LIG d   1      11.751   3.419  -2.170  0.00  0.00     0.065 H 
ATOM      9  C   LIG d   1      10.892   5.207  -3.015  0.00  0.00     0.125 C 
ATOM     10  H   LIG d   1      11.203   6.027  -3.664  0.00  0.00     0.066 H 
ATOM     11  O   LIG d   1      10.453   5.732  -1.760  0.00  0.00    -0.330 OA
ENDROOT
BRANCH   9  12
ATOM     12  C   LIG d   1       9.744   4.441  -3.676  0.00  0.00     0.121 C 
ATOM     13  H   LIG d   1       9.894   4.423  -4.755  0.00  0.00     0.072 H 
ATOM     14  H   LIG d   1       8.799   4.937  -3.449  0.00  0.00     0.072 H 
BRANCH  12  15
ATOM     15  O   LIG d   1       9.713   3.103  -3.176  0.00  0.00    -0.459 OA
BRANCH  15  16
ATOM     16  C   LIG d   1       9.169   2.163  -3.975  0.00  0.00     0.332 C 
ATOM     17  O   LIG d   1       9.856   1.598  -4.805  0.00  0.00    -0.246 OA
BRANCH  16  18
ATOM     18  C   LIG d   1       7.796   1.832  -3.849  0.00  0.00     0.023 C 
ATOM     19  C   LIG d   1       7.431   0.585  -3.477  0.00  0.00    -0.048 C 
ATOM     20  H   LIG d   1       8.187  -0.161  -3.281  0.00  0.00     0.063 H 
ATOM     21  H   LIG d   1       7.041   2.579  -4.045  0.00  0.00     0.069 H 
BRANCH  19  22
ATOM     22  C   LIG d   1       6.009   0.245  -3.341  0.00  0.00    -0.021 A 
ATOM     23  C   LIG d   1       5.497  -0.896  -3.971  0.00  0.00    -0.009 A 
ATOM     24  C   LIG d   1       4.158  -1.210  -3.838  0.00  0.00     0.159 A 
ATOM     25  H   LIG d   1       6.146  -1.528  -4.557  0.00  0.00     0.066 H 
ATOM     26  C   LIG d   1       3.321  -0.393  -3.079  0.00  0.00     0.158 A 
ATOM     27  C   LIG d   1       3.829   0.739  -2.454  0.00  0.00    -0.016 A 
ATOM     28  C   LIG d   1       5.163   1.057  -2.578  0.00  0.00    -0.051 A 
ATOM     29  H   LIG d   1       3.176   1.369  -1.867  0.00  0.00     0.066 H 
ATOM     30  H   LIG d   1       5.556   1.936  -2.086  0.00  0.00     0.062 H 
BRANCH  24  31
ATOM     31  O   LIG d   1       3.657  -2.318  -4.448  0.00  0.00    -0.503 OA
ATOM     32  H   LIG d   1       2.771  -2.196  -4.816  0.00  0.00     0.292 HD
ENDBRANCH  24  31
BRANCH  26  33
ATOM     33  O   LIG d   1       2.005  -0.704  -2.951  0.00  0.00    -0.503 OA
ATOM     34  H   LIG d   1       1.548  -0.200  -2.263  0.00  0.00     0.292 HD
ENDBRANCH  26  33
ENDBRANCH  19  22
ENDBRANCH  16  18
ENDBRANCH  15  16
ENDBRANCH  12  15
ENDBRANCH   9  12
BRANCH   7  35
ATOM     35  O   LIG d   1      12.549   3.779  -4.043  0.00  0.00    -0.386 OA
ATOM     36  H   LIG d   1      13.260   3.126  -3.972  0.00  0.00     0.210 HD
ENDBRANCH   7  35
BRANCH   5  37
ATOM     37  O   LIG d   1      14.271   4.125  -1.785  0.00  0.00    -0.386 OA
ATOM     38  H   LIG d   1      14.779   4.359  -0.997  0.00  0.00     0.210 HD
ENDBRANCH   5  37
BRANCH   1  39
ATOM     39  O   LIG d   1      10.897   6.989   0.155  0.00  0.00    -0.461 OA
BRANCH  39  40
ATOM     40  C   LIG d   1      10.661   8.327   0.227  0.00  0.00     0.124 A 
ATOM     41  C   LIG d   1      11.432   9.124   1.060  0.00  0.00    -0.016 A 
ATOM     42  C   LIG d   1      11.193  10.483   1.132  0.00  0.00    -0.017 A 
ATOM     43  H   LIG d   1      12.219   8.682   1.653  0.00  0.00     0.066 H 
ATOM     44  C   LIG d   1      10.182  11.049   0.370  0.00  0.00     0.117 A 
ATOM     45  H   LIG d   1      11.793  11.102   1.782  0.00  0.00     0.066 H 
ATOM     46  C   LIG d   1       9.412  10.253  -0.464  0.00  0.00    -0.017 A 
ATOM     47  C   LIG d   1       9.655   8.896  -0.540  0.00  0.00    -0.016 A 
ATOM     48  H   LIG d   1       8.625  10.695  -1.058  0.00  0.00     0.066 H 
ATOM     49  H   LIG d   1       9.058   8.276  -1.193  0.00  0.00     0.066 H 
BRANCH  44  50
ATOM     50  O   LIG d   1       9.946  12.387   0.441  0.00  0.00    -0.507 OA
ATOM     51  H   LIG d   1       9.010  12.617   0.513  0.00  0.00     0.292 HD
ENDBRANCH  44  50
ENDBRANCH  39  40
ENDBRANCH   1  39
BRANCH   3  52
ATOM     52  O   LIG d   1      13.666   6.368  -0.117  0.00  0.00    -0.383 OA
ATOM     53  H   LIG d   1      13.953   7.139  -0.626  0.00  0.00     0.210 HD
ENDBRANCH   3  52
TORSDOF 13
ENDMDL
MODEL 8
REMARK VINA RESULT:      -6.5     10.366     13.786
REMARK  13 active torsions:
REMARK  status: ('A' for Active; 'I' for Inactive)
REMARK    1  A    between atoms: C_3  and  O_8 
REMARK    2  A    between atoms: C_6  and  O_7 
REMARK    3  A    between atoms: O_8  and  C_9 
REMARK    4  A    between atoms: C_11  and  O_36 
REMARK    5  A    between atoms: C_13  and  O_35 
REMARK    6  A    between atoms: C_15  and  O_34 
REMARK    7  A    between atoms: C_17  and  C_20 
REMARK    8  A    between atoms: C_20  and  O_21 
REMARK    9  A    between atoms: O_21  and  C_22 
REMARK   10  A    between atoms: C_22  and  C_24 
REMARK   11  A    between atoms: C_25  and  C_26 
REMARK   12  A    between atoms: C_29  and  O_33 
REMARK   13  A    between atoms: C_30  and  O_32 
ROOT
ATOM      1  C   LIG d   1      10.142   6.154  -2.834  0.00  0.00     0.231 C 
ATOM      2  H   LIG d   1      11.125   6.626  -2.831  0.00  0.00     0.108 H 
ATOM      3  C   LIG d   1      10.254   4.734  -2.273  0.00  0.00     0.145 C 
ATOM      4  H   LIG d   1       9.266   4.277  -2.238  0.00  0.00     0.068 H 
ATOM      5  C   LIG d   1      11.169   3.907  -3.182  0.00  0.00     0.115 C 
ATOM      6  H   LIG d   1      12.171   4.334  -3.177  0.00  0.00     0.065 H 
ATOM      7  C   LIG d   1      10.608   3.926  -4.607  0.00  0.00     0.113 C 
ATOM      8  H   LIG d   1       9.625   3.452  -4.618  0.00  0.00     0.065 H 
ATOM      9  C   LIG d   1      10.481   5.378  -5.077  0.00  0.00     0.125 C 
ATOM     10  H   LIG d   1      11.469   5.839  -5.105  0.00  0.00     0.066 H 
ATOM     11  O   LIG d   1       9.643   6.099  -4.171  0.00  0.00    -0.330 OA
ENDROOT
BRANCH   9  12
ATOM     12  C   LIG d   1       9.865   5.409  -6.477  0.00  0.00     0.121 C 
ATOM     13  H   LIG d   1       8.789   5.561  -6.397  0.00  0.00     0.072 H 
ATOM     14  H   LIG d   1      10.061   4.462  -6.981  0.00  0.00     0.072 H 
BRANCH  12  15
ATOM     15  O   LIG d   1      10.443   6.478  -7.229  0.00  0.00    -0.459 OA
BRANCH  15  16
ATOM     16  C   LIG d   1       9.631   7.502  -7.561  0.00  0.00     0.332 C 
ATOM     17  O   LIG d   1       9.080   7.515  -8.647  0.00  0.00    -0.246 OA
BRANCH  16  18
ATOM     18  C   LIG d   1       9.418   8.566  -6.648  0.00  0.00     0.023 C 
ATOM     19  C   LIG d   1      10.473   9.204  -6.095  0.00  0.00    -0.048 C 
ATOM     20  H   LIG d   1      11.478   8.900  -6.345  0.00  0.00     0.063 H 
ATOM     21  H   LIG d   1       8.412   8.869  -6.398  0.00  0.00     0.069 H 
BRANCH  19  22
ATOM     22  C   LIG d   1      10.251  10.309  -5.153  0.00  0.00    -0.021 A 
ATOM     23  C   LIG d   1       9.003  10.468  -4.538  0.00  0.00    -0.009 A 
ATOM     24  C   LIG d   1       8.801  11.509  -3.653  0.00  0.00     0.159 A 
ATOM     25  H   LIG d   1       8.201   9.778  -4.755  0.00  0.00     0.066 H 
ATOM     26  C   LIG d   1       9.838  12.399  -3.375  0.00  0.00     0.158 A 
ATOM     27  C   LIG d   1      11.076  12.242  -3.984  0.00  0.00    -0.016 A 
ATOM     28  C   LIG d   1      11.287  11.204  -4.864  0.00  0.00    -0.051 A 
ATOM     29  H   LIG d   1      11.876  12.934  -3.764  0.00  0.00     0.066 H 
ATOM     30  H   LIG d   1      12.253  11.081  -5.332  0.00  0.00     0.062 H 
BRANCH  24  31
ATOM     31  O   LIG d   1       7.590  11.666  -3.055  0.00  0.00    -0.503 OA
ATOM     32  H   LIG d   1       7.336  12.590  -2.920  0.00  0.00     0.292 HD
ENDBRANCH  24  31
BRANCH  26  33
ATOM     33  O   LIG d   1       9.636  13.422  -2.505  0.00  0.00    -0.503 OA
ATOM     34  H   LIG d   1      10.452  13.810  -2.159  0.00  0.00     0.292 HD
ENDBRANCH  26  33
ENDBRANCH  19  22
ENDBRANCH  16  18
ENDBRANCH  15  16
ENDBRANCH  12  15
ENDBRANCH   9  12
BRANCH   7  35
ATOM     35  O   LIG d   1      11.491   3.218  -5.478  0.00  0.00    -0.386 OA
ATOM     36  H   LIG d   1      11.209   3.210  -6.403  0.00  0.00     0.210 HD
ENDBRANCH   7  35
BRANCH   5  37
ATOM     37  O   LIG d   1      11.222   2.560  -2.707  0.00  0.00    -0.386 OA
ATOM     38  H   LIG d   1      11.706   1.957  -3.286  0.00  0.00     0.210 HD
ENDBRANCH   5  37
BRANCH   1  39
ATOM     39  O   LIG d   1       9.246   6.917  -2.023  0.00  0.00    -0.461 OA
BRANCH  39  40
ATOM     40  C   LIG d   1       9.701   8.110  -1.553  0.00  0.00     0.124 A 
ATOM     41  C   LIG d   1       8.868   8.922  -0.798  0.00  0.00    -0.016 A 
ATOM     42  C   LIG d   1       9.330  10.133  -0.321  0.00  0.00    -0.017 A 
ATOM     43  H   LIG d   1       7.857   8.608  -0.586  0.00  0.00     0.066 H 
ATOM     44  C   LIG d   1      10.629  10.535  -0.595  0.00  0.00     0.117 A 
ATOM     45  H   LIG d   1       8.681  10.765   0.266  0.00  0.00     0.066 H 
ATOM     46  C   LIG d   1      11.464   9.722  -1.349  0.00  0.00    -0.017 A 
ATOM     47  C   LIG d   1      11.002   8.510  -1.822  0.00  0.00    -0.016 A 
ATOM     48  H   LIG d   1      12.475  10.036  -1.561  0.00  0.00     0.066 H 
ATOM     49  H   LIG d   1      11.652   7.874  -2.405  0.00  0.00     0.066 H 
BRANCH  44  50
ATOM     50  O   LIG d   1      11.085  11.728  -0.125  0.00  0.00    -0.507 OA
ATOM     51  H   LIG d   1      11.940  11.672   0.323  0.00  0.00     0.292 HD
ENDBRANCH  44  50
ENDBRANCH  39  40
ENDBRANCH   1  39
BRANCH   3  52
ATOM     52  O   LIG d   1      10.808   4.783  -0.956  0.00  0.00    -0.383 OA
ATOM     53  H   LIG d   1      11.327   4.002  -0.719  0.00  0.00     0.210 HD
ENDBRANCH   3  52
TORSDOF 13
ENDMDL
MODEL 9
REMARK VINA RESULT:      -6.4      3.709      6.658
REMARK  13 active torsions:
REMARK  status: ('A' for Active; 'I' for Inactive)
REMARK    1  A    between atoms: C_3  and  O_8 
REMARK    2  A    between atoms: C_6  and  O_7 
REMARK    3  A    between atoms: O_8  and  C_9 
REMARK    4  A    between atoms: C_11  and  O_36 
REMARK    5  A    between atoms: C_13  and  O_35 
REMARK    6  A    between atoms: C_15  and  O_34 
REMARK    7  A    between atoms: C_17  and  C_20 
REMARK    8  A    between atoms: C_20  and  O_21 
REMARK    9  A    between atoms: O_21  and  C_22 
REMARK   10  A    between atoms: C_22  and  C_24 
REMARK   11  A    between atoms: C_25  and  C_26 
REMARK   12  A    between atoms: C_29  and  O_33 
REMARK   13  A    between atoms: C_30  and  O_32 
ROOT
ATOM      1  C   LIG d   1       3.544   0.169  -6.410  0.00  0.00     0.231 C 
ATOM      2  H   LIG d   1       4.456   0.766  -6.382  0.00  0.00     0.108 H 
ATOM      3  C   LIG d   1       2.872   0.199  -5.034  0.00  0.00     0.145 C 
ATOM      4  H   LIG d   1       1.940  -0.364  -5.073  0.00  0.00     0.068 H 
ATOM      5  C   LIG d   1       3.811  -0.434  -4.003  0.00  0.00     0.115 C 
ATOM      6  H   LIG d   1       4.723   0.157  -3.927  0.00  0.00     0.065 H 
ATOM      7  C   LIG d   1       4.158  -1.858  -4.450  0.00  0.00     0.113 C 
ATOM      8  H   LIG d   1       3.250  -2.462  -4.476  0.00  0.00     0.065 H 
ATOM      9  C   LIG d   1       4.779  -1.808  -5.848  0.00  0.00     0.125 C 
ATOM     10  H   LIG d   1       5.708  -1.238  -5.813  0.00  0.00     0.066 H 
ATOM     11  O   LIG d   1       3.867  -1.180  -6.752  0.00  0.00    -0.330 OA
ENDROOT
BRANCH   9  12
ATOM     12  C   LIG d   1       5.073  -3.231  -6.327  0.00  0.00     0.121 C 
ATOM     13  H   LIG d   1       6.053  -3.541  -5.967  0.00  0.00     0.072 H 
ATOM     14  H   LIG d   1       5.062  -3.256  -7.418  0.00  0.00     0.072 H 
BRANCH  12  15
ATOM     15  O   LIG d   1       4.076  -4.120  -5.820  0.00  0.00    -0.459 OA
BRANCH  15  16
ATOM     16  C   LIG d   1       4.135  -5.404  -6.229  0.00  0.00     0.332 C 
ATOM     17  O   LIG d   1       3.679  -5.719  -7.313  0.00  0.00    -0.246 OA
BRANCH  16  18
ATOM     18  C   LIG d   1       4.727  -6.388  -5.397  0.00  0.00     0.023 C 
ATOM     19  C   LIG d   1       4.732  -7.683  -5.780  0.00  0.00    -0.048 C 
ATOM     20  H   LIG d   1       4.281  -7.970  -6.719  0.00  0.00     0.063 H 
ATOM     21  H   LIG d   1       5.177  -6.101  -4.459  0.00  0.00     0.069 H 
BRANCH  19  22
ATOM     22  C   LIG d   1       5.351  -8.701  -4.920  0.00  0.00    -0.021 A 
ATOM     23  C   LIG d   1       4.549  -9.540  -4.137  0.00  0.00    -0.009 A 
ATOM     24  C   LIG d   1       5.137 -10.496  -3.332  0.00  0.00     0.159 A 
ATOM     25  H   LIG d   1       3.475  -9.441  -4.164  0.00  0.00     0.066 H 
ATOM     26  C   LIG d   1       6.525 -10.622  -3.299  0.00  0.00     0.158 A 
ATOM     27  C   LIG d   1       7.322  -9.790  -4.075  0.00  0.00    -0.016 A 
ATOM     28  C   LIG d   1       6.743  -8.839  -4.885  0.00  0.00    -0.051 A 
ATOM     29  H   LIG d   1       8.396  -9.893  -4.047  0.00  0.00     0.066 H 
ATOM     30  H   LIG d   1       7.365  -8.196  -5.492  0.00  0.00     0.062 H 
BRANCH  24  31
ATOM     31  O   LIG d   1       4.361 -11.312  -2.569  0.00  0.00    -0.503 OA
ATOM     32  H   LIG d   1       4.754 -11.543  -1.716  0.00  0.00     0.292 HD
ENDBRANCH  24  31
BRANCH  26  33
ATOM     33  O   LIG d   1       7.100 -11.562  -2.505  0.00  0.00    -0.503 OA
ATOM     34  H   LIG d   1       7.511 -11.203  -1.705  0.00  0.00     0.292 HD
ENDBRANCH  26  33
ENDBRANCH  19  22
ENDBRANCH  16  18
ENDBRANCH  15  16
ENDBRANCH  12  15
ENDBRANCH   9  12
BRANCH   7  35
ATOM     35  O   LIG d   1       5.090  -2.433  -3.533  0.00  0.00    -0.386 OA
ATOM     36  H   LIG d   1       5.816  -1.843  -3.288  0.00  0.00     0.210 HD
ENDBRANCH   7  35
BRANCH   5  37
ATOM     37  O   LIG d   1       3.162  -0.477  -2.730  0.00  0.00    -0.386 OA
ATOM     38  H   LIG d   1       2.525  -1.197  -2.638  0.00  0.00     0.210 HD
ENDBRANCH   5  37
BRANCH   1  39
ATOM     39  O   LIG d   1       2.653   0.708  -7.388  0.00  0.00    -0.461 OA
BRANCH  39  40
ATOM     40  C   LIG d   1       3.038   0.622  -8.690  0.00  0.00     0.124 A 
ATOM     41  C   LIG d   1       2.394  -0.257  -9.548  0.00  0.00    -0.016 A 
ATOM     42  C   LIG d   1       2.785  -0.344 -10.869  0.00  0.00    -0.017 A 
ATOM     43  H   LIG d   1       1.587  -0.875  -9.181  0.00  0.00     0.066 H 
ATOM     44  C   LIG d   1       3.821   0.450 -11.339  0.00  0.00     0.117 A 
ATOM     45  H   LIG d   1       2.283  -1.029 -11.537  0.00  0.00     0.066 H 
ATOM     46  C   LIG d   1       4.465   1.330 -10.481  0.00  0.00    -0.017 A 
ATOM     47  C   LIG d   1       4.070   1.419  -9.161  0.00  0.00    -0.016 A 
ATOM     48  H   LIG d   1       5.271   1.948 -10.848  0.00  0.00     0.066 H 
ATOM     49  H   LIG d   1       4.568   2.108  -8.494  0.00  0.00     0.066 H 
BRANCH  44  50
ATOM     50  O   LIG d   1       4.206   0.364 -12.640  0.00  0.00    -0.507 OA
ATOM     51  H   LIG d   1       5.046   0.806 -12.831  0.00  0.00     0.292 HD
ENDBRANCH  44  50
ENDBRANCH  39  40
ENDBRANCH   1  39
BRANCH   3  52
ATOM     52  O   LIG d   1       2.601   1.553  -4.665  0.00  0.00    -0.383 OA
ATOM     53  H   LIG d   1       1.698   1.839  -4.862  0.00  0.00     0.210 HD
ENDBRANCH   3  52
TORSDOF 13
ENDMDL
MODEL 10
REMARK VINA RESULT:      -6.3      1.782      8.320
REMARK  13 active torsions:
REMARK  status: ('A' for Active; 'I' for Inactive)
REMARK    1  A    between atoms: C_3  and  O_8 
REMARK    2  A    between atoms: C_6  and  O_7 
REMARK    3  A    between atoms: O_8  and  C_9 
REMARK    4  A    between atoms: C_11  and  O_36 
REMARK    5  A    between atoms: C_13  and  O_35 
REMARK    6  A    between atoms: C_15  and  O_34 
REMARK    7  A    between atoms: C_17  and  C_20 
REMARK    8  A    between atoms: C_20  and  O_21 
REMARK    9  A    between atoms: O_21  and  C_22 
REMARK   10  A    between atoms: C_22  and  C_24 
REMARK   11  A    between atoms: C_25  and  C_26 
REMARK   12  A    between atoms: C_29  and  O_33 
REMARK   13  A    between atoms: C_30  and  O_32 
ROOT
ATOM      1  C   LIG d   1       5.556  -1.871  -4.562  0.00  0.00     0.231 C 
ATOM      2  H   LIG d   1       5.140  -2.398  -3.703  0.00  0.00     0.108 H 
ATOM      3  C   LIG d   1       6.459  -0.735  -4.076  0.00  0.00     0.145 C 
ATOM      4  H   LIG d   1       6.907  -0.234  -4.933  0.00  0.00     0.068 H 
ATOM      5  C   LIG d   1       5.618   0.268  -3.279  0.00  0.00     0.115 C 
ATOM      6  H   LIG d   1       5.211  -0.220  -2.393  0.00  0.00     0.065 H 
ATOM      7  C   LIG d   1       4.472   0.773  -4.161  0.00  0.00     0.113 C 
ATOM      8  H   LIG d   1       4.882   1.305  -5.021  0.00  0.00     0.065 H 
ATOM      9  C   LIG d   1       3.647  -0.422  -4.644  0.00  0.00     0.125 C 
ATOM     10  H   LIG d   1       3.205  -0.930  -3.787  0.00  0.00     0.066 H 
ATOM     11  O   LIG d   1       4.494  -1.331  -5.351  0.00  0.00    -0.330 OA
ENDROOT
BRANCH   9  12
ATOM     12  C   LIG d   1       2.536   0.068  -5.575  0.00  0.00     0.121 C 
ATOM     13  H   LIG d   1       1.651   0.312  -4.988  0.00  0.00     0.072 H 
ATOM     14  H   LIG d   1       2.291  -0.717  -6.292  0.00  0.00     0.072 H 
BRANCH  12  15
ATOM     15  O   LIG d   1       2.979   1.232  -6.275  0.00  0.00    -0.459 OA
BRANCH  15  16
ATOM     16  C   LIG d   1       2.903   1.203  -7.621  0.00  0.00     0.332 C 
ATOM     17  O   LIG d   1       3.226   2.182  -8.270  0.00  0.00    -0.246 OA
BRANCH  16  18
ATOM     18  C   LIG d   1       2.447   0.034  -8.282  0.00  0.00     0.023 C 
ATOM     19  C   LIG d   1       2.312   0.027  -9.626  0.00  0.00    -0.048 C 
ATOM     20  H   LIG d   1       2.547   0.913 -10.197  0.00  0.00     0.063 H 
ATOM     21  H   LIG d   1       2.213  -0.852  -7.711  0.00  0.00     0.069 H 
BRANCH  19  22
ATOM     22  C   LIG d   1       1.846  -1.187 -10.311  0.00  0.00    -0.021 A 
ATOM     23  C   LIG d   1       2.008  -2.440  -9.706  0.00  0.00    -0.009 A 
ATOM     24  C   LIG d   1       1.567  -3.576 -10.355  0.00  0.00     0.159 A 
ATOM     25  H   LIG d   1       2.476  -2.516  -8.737  0.00  0.00     0.066 H 
ATOM     26  C   LIG d   1       0.962  -3.476 -11.607  0.00  0.00     0.158 A 
ATOM     27  C   LIG d   1       0.800  -2.233 -12.207  0.00  0.00    -0.016 A 
ATOM     28  C   LIG d   1       1.233  -1.094 -11.565  0.00  0.00    -0.051 A 
ATOM     29  H   LIG d   1       0.330  -2.160 -13.177  0.00  0.00     0.066 H 
ATOM     30  H   LIG d   1       1.101  -0.129 -12.032  0.00  0.00     0.062 H 
BRANCH  24  31
ATOM     31  O   LIG d   1       1.724  -4.795  -9.771  0.00  0.00    -0.503 OA
ATOM     32  H   LIG d   1       2.037  -5.482 -10.375  0.00  0.00     0.292 HD
ENDBRANCH  24  31
BRANCH  26  33
ATOM     33  O   LIG d   1       0.530  -4.596 -12.242  0.00  0.00    -0.503 OA
ATOM     34  H   LIG d   1       1.034  -5.391 -12.021  0.00  0.00     0.292 HD
ENDBRANCH  26  33
ENDBRANCH  19  22
ENDBRANCH  16  18
ENDBRANCH  15  16
ENDBRANCH  12  15
ENDBRANCH   9  12
BRANCH   7  35
ATOM     35  O   LIG d   1       3.640   1.654  -3.405  0.00  0.00    -0.386 OA
ATOM     36  H   LIG d   1       2.945   1.205  -2.904  0.00  0.00     0.210 HD
ENDBRANCH   7  35
BRANCH   5  37
ATOM     37  O   LIG d   1       6.439   1.369  -2.883  0.00  0.00    -0.386 OA
ATOM     38  H   LIG d   1       5.943   2.126  -2.542  0.00  0.00     0.210 HD
ENDBRANCH   5  37
BRANCH   1  39
ATOM     39  O   LIG d   1       6.321  -2.782  -5.354  0.00  0.00    -0.461 OA
BRANCH  39  40
ATOM     40  C   LIG d   1       5.632  -3.728  -6.047  0.00  0.00     0.124 A 
ATOM     41  C   LIG d   1       5.049  -4.794  -5.377  0.00  0.00    -0.016 A 
ATOM     42  C   LIG d   1       4.349  -5.754  -6.081  0.00  0.00    -0.017 A 
ATOM     43  H   LIG d   1       5.145  -4.873  -4.304  0.00  0.00     0.066 H 
ATOM     44  C   LIG d   1       4.228  -5.651  -7.459  0.00  0.00     0.117 A 
ATOM     45  H   LIG d   1       3.897  -6.583  -5.559  0.00  0.00     0.066 H 
ATOM     46  C   LIG d   1       4.810  -4.585  -8.130  0.00  0.00    -0.017 A 
ATOM     47  C   LIG d   1       5.505  -3.623  -7.424  0.00  0.00    -0.016 A 
ATOM     48  H   LIG d   1       4.715  -4.506  -9.203  0.00  0.00     0.066 H 
ATOM     49  H   LIG d   1       5.955  -2.790  -7.946  0.00  0.00     0.066 H 
BRANCH  44  50
ATOM     50  O   LIG d   1       3.539  -6.596  -8.153  0.00  0.00    -0.507 OA
ATOM     51  H   LIG d   1       4.098  -7.281  -8.546  0.00  0.00     0.292 HD
ENDBRANCH  44  50
ENDBRANCH  39  40
ENDBRANCH   1  39
BRANCH   3  52
ATOM     52  O   LIG d   1       7.488  -1.267  -3.239  0.00  0.00    -0.383 OA
ATOM     53  H   LIG d   1       7.974  -2.004  -3.635  0.00  0.00     0.210 HD
ENDBRANCH   3  52
TORSDOF 13
ENDMDL
