MODEL 1
REMARK VINA RESULT:      -5.5      0.000      0.000
REMARK  4 active torsions:
REMARK  status: ('A' for Active; 'I' for Inactive)
REMARK    1  A    between atoms: C_4  and  S_7 
REMARK    2  A    between atoms: S_7  and  C_9 
REMARK    3  A    between atoms: C_9  and  C_10 
REMARK    4  A    between atoms: C_10  and  N_22 
ROOT
ATOM      1  S   LIG d   1       2.399   0.538  -5.161  0.00  0.00     0.059 S 
ATOM      2  O   LIG d   1       2.506   1.951  -5.067  0.00  0.00    -0.252 OA
ENDROOT
BRANCH   1   3
ATOM      3  C   LIG d   1       3.252  -0.051  -3.736  0.00  0.00     0.039 A 
ATOM      4  C   LIG d   1       3.859   0.844  -2.875  0.00  0.00    -0.046 A 
ATOM      5  C   LIG d   1       4.528   0.382  -1.757  0.00  0.00    -0.061 A 
ATOM      6  H   LIG d   1       3.809   1.905  -3.076  0.00  0.00     0.063 H 
ATOM      7  C   LIG d   1       4.596  -0.975  -1.504  0.00  0.00    -0.062 A 
ATOM      8  H   LIG d   1       5.002   1.082  -1.085  0.00  0.00     0.062 H 
ATOM      9  C   LIG d   1       3.984  -1.870  -2.362  0.00  0.00    -0.061 A 
ATOM     10  H   LIG d   1       5.122  -1.336  -0.633  0.00  0.00     0.062 H 
ATOM     11  C   LIG d   1       3.314  -1.408  -3.480  0.00  0.00    -0.046 A 
ATOM     12  H   LIG d   1       4.034  -2.930  -2.162  0.00  0.00     0.062 H 
ATOM     13  H   LIG d   1       2.840  -2.107  -4.152  0.00  0.00     0.063 H 
ENDBRANCH   1   3
BRANCH   1  14
ATOM     14  C   LIG d   1       3.403  -0.053  -6.551  0.00  0.00     0.068 C 
ATOM     15  H   LIG d   1       4.422   0.323  -6.448  0.00  0.00     0.046 H 
ATOM     16  H   LIG d   1       3.418  -1.143  -6.551  0.00  0.00     0.046 H 
BRANCH  14  17
ATOM     17  C   LIG d   1       2.804   0.450  -7.866  0.00  0.00    -0.024 C 
ATOM     18  H   LIG d   1       3.241  -0.102  -8.698  0.00  0.00     0.082 H 
ATOM     19  H   LIG d   1       1.725   0.297  -7.854  0.00  0.00     0.082 H 
BRANCH  17  20
ATOM     20  N   LIG d   1       3.083   1.890  -8.000  0.00  0.00     0.219 N 
ATOM     21  H   LIG d   1       3.533   2.076  -8.895  0.00  0.00     0.199 HD
ATOM     22  H   LIG d   1       2.216   2.421  -7.940  0.00  0.00     0.199 HD
ATOM     23  H   LIG d   1       3.710   2.185  -7.242  0.00  0.00     0.199 HD
ENDBRANCH  17  20
ENDBRANCH  14  17
ENDBRANCH   1  14
TORSDOF 4
ENDMDL
MODEL 2
REMARK VINA RESULT:      -4.9      3.354      3.718
REMARK  4 active torsions:
REMARK  status: ('A' for Active; 'I' for Inactive)
REMARK    1  A    between atoms: C_4  and  S_7 
REMARK    2  A    between atoms: S_7  and  C_9 
REMARK    3  A    between atoms: C_9  and  C_10 
REMARK    4  A    between atoms: C_10  and  N_22 
ROOT
ATOM      1  S   LIG d   1       5.032  -2.602  -4.347  0.00  0.00     0.059 S 
ATOM      2  O   LIG d   1       4.199  -3.597  -3.769  0.00  0.00    -0.252 OA
ENDROOT
BRANCH   1   3
ATOM      3  C   LIG d   1       4.487  -1.102  -3.600  0.00  0.00     0.039 A 
ATOM      4  C   LIG d   1       4.930  -0.759  -2.336  0.00  0.00    -0.046 A 
ATOM      5  C   LIG d   1       4.501   0.418  -1.751  0.00  0.00    -0.061 A 
ATOM      6  H   LIG d   1       5.612  -1.409  -1.808  0.00  0.00     0.063 H 
ATOM      7  C   LIG d   1       3.625   1.247  -2.425  0.00  0.00    -0.062 A 
ATOM      8  H   LIG d   1       4.848   0.687  -0.763  0.00  0.00     0.062 H 
ATOM      9  C   LIG d   1       3.186   0.906  -3.691  0.00  0.00    -0.061 A 
ATOM     10  H   LIG d   1       3.287   2.164  -1.966  0.00  0.00     0.062 H 
ATOM     11  C   LIG d   1       3.615  -0.270  -4.277  0.00  0.00    -0.046 A 
ATOM     12  H   LIG d   1       2.505   1.555  -4.219  0.00  0.00     0.062 H 
ATOM     13  H   LIG d   1       3.269  -0.539  -5.264  0.00  0.00     0.063 H 
ENDBRANCH   1   3
BRANCH   1  14
ATOM     14  C   LIG d   1       4.607  -2.401  -6.099  0.00  0.00     0.068 C 
ATOM     15  H   LIG d   1       3.591  -2.013  -6.183  0.00  0.00     0.046 H 
ATOM     16  H   LIG d   1       5.302  -1.702  -6.564  0.00  0.00     0.046 H 
BRANCH  14  17
ATOM     17  C   LIG d   1       4.696  -3.755  -6.805  0.00  0.00    -0.024 C 
ATOM     18  H   LIG d   1       4.742  -3.600  -7.883  0.00  0.00     0.082 H 
ATOM     19  H   LIG d   1       5.594  -4.278  -6.475  0.00  0.00     0.082 H 
BRANCH  17  20
ATOM     20  N   LIG d   1       3.515  -4.561  -6.451  0.00  0.00     0.219 N 
ATOM     21  H   LIG d   1       3.805  -5.475  -6.111  0.00  0.00     0.199 HD
ATOM     22  H   LIG d   1       2.972  -4.087  -5.731  0.00  0.00     0.199 HD
ATOM     23  H   LIG d   1       2.928  -4.684  -7.286  0.00  0.00     0.199 HD
ENDBRANCH  17  20
ENDBRANCH  14  17
ENDBRANCH   1  14
TORSDOF 4
ENDMDL
MODEL 3
REMARK VINA RESULT:      -4.6      1.146      1.876
REMARK  4 active torsions:
REMARK  status: ('A' for Active; 'I' for Inactive)
REMARK    1  A    between atoms: C_4  and  S_7 
REMARK    2  A    between atoms: S_7  and  C_9 
REMARK    3  A    between atoms: C_9  and  C_10 
REMARK    4  A    between atoms: C_10  and  N_22 
ROOT
ATOM      1  S   LIG d   1       2.764   0.308  -5.461  0.00  0.00     0.059 S 
ATOM      2  O   LIG d   1       2.544   1.703  -5.306  0.00  0.00    -0.252 OA
ENDROOT
BRANCH   1   3
ATOM      3  C   LIG d   1       3.466  -0.186  -3.921  0.00  0.00     0.039 A 
ATOM      4  C   LIG d   1       3.522  -1.525  -3.586  0.00  0.00    -0.046 A 
ATOM      5  C   LIG d   1       4.073  -1.912  -2.378  0.00  0.00    -0.061 A 
ATOM      6  H   LIG d   1       3.138  -2.269  -4.268  0.00  0.00     0.063 H 
ATOM      7  C   LIG d   1       4.560  -0.959  -1.504  0.00  0.00    -0.062 A 
ATOM      8  H   LIG d   1       4.117  -2.959  -2.116  0.00  0.00     0.062 H 
ATOM      9  C   LIG d   1       4.508   0.380  -1.841  0.00  0.00    -0.061 A 
ATOM     10  H   LIG d   1       4.987  -1.262  -0.558  0.00  0.00     0.062 H 
ATOM     11  C   LIG d   1       3.959   0.767  -3.050  0.00  0.00    -0.046 A 
ATOM     12  H   LIG d   1       4.893   1.124  -1.160  0.00  0.00     0.062 H 
ATOM     13  H   LIG d   1       3.914   1.814  -3.311  0.00  0.00     0.063 H 
ENDBRANCH   1   3
BRANCH   1  14
ATOM     14  C   LIG d   1       4.098   0.037  -6.659  0.00  0.00     0.068 C 
ATOM     15  H   LIG d   1       4.068   0.818  -7.419  0.00  0.00     0.046 H 
ATOM     16  H   LIG d   1       5.060   0.067  -6.146  0.00  0.00     0.046 H 
BRANCH  14  17
ATOM     17  C   LIG d   1       3.917  -1.329  -7.325  0.00  0.00    -0.024 C 
ATOM     18  H   LIG d   1       4.842  -1.613  -7.827  0.00  0.00     0.082 H 
ATOM     19  H   LIG d   1       3.672  -2.072  -6.567  0.00  0.00     0.082 H 
BRANCH  17  20
ATOM     20  N   LIG d   1       2.810  -1.249  -8.293  0.00  0.00     0.219 N 
ATOM     21  H   LIG d   1       3.177  -1.249  -9.243  0.00  0.00     0.199 HD
ATOM     22  H   LIG d   1       2.182  -2.041  -8.172  0.00  0.00     0.199 HD
ATOM     23  H   LIG d   1       2.287  -0.379  -8.136  0.00  0.00     0.199 HD
ENDBRANCH  17  20
ENDBRANCH  14  17
ENDBRANCH   1  14
TORSDOF 4
ENDMDL
MODEL 4
REMARK VINA RESULT:      -4.5      4.149      4.699
REMARK  4 active torsions:
REMARK  status: ('A' for Active; 'I' for Inactive)
REMARK    1  A    between atoms: C_4  and  S_7 
REMARK    2  A    between atoms: S_7  and  C_9 
REMARK    3  A    between atoms: C_9  and  C_10 
REMARK    4  A    between atoms: C_10  and  N_22 
ROOT
ATOM      1  S   LIG d   1       7.646   0.630  -4.537  0.00  0.00     0.059 S 
ATOM      2  O   LIG d   1       6.998   0.985  -5.751  0.00  0.00    -0.252 OA
ENDROOT
BRANCH   1   3
ATOM      3  C   LIG d   1       6.323   0.178  -3.464  0.00  0.00     0.039 A 
ATOM      4  C   LIG d   1       5.620   1.154  -2.784  0.00  0.00    -0.046 A 
ATOM      5  C   LIG d   1       4.582   0.799  -1.943  0.00  0.00    -0.061 A 
ATOM      6  H   LIG d   1       5.881   2.195  -2.911  0.00  0.00     0.063 H 
ATOM      7  C   LIG d   1       4.252  -0.533  -1.777  0.00  0.00    -0.062 A 
ATOM      8  H   LIG d   1       4.033   1.562  -1.412  0.00  0.00     0.062 H 
ATOM      9  C   LIG d   1       4.952  -1.510  -2.461  0.00  0.00    -0.061 A 
ATOM     10  H   LIG d   1       3.444  -0.811  -1.116  0.00  0.00     0.062 H 
ATOM     11  C   LIG d   1       5.989  -1.154  -3.303  0.00  0.00    -0.046 A 
ATOM     12  H   LIG d   1       4.692  -2.549  -2.334  0.00  0.00     0.062 H 
ATOM     13  H   LIG d   1       6.539  -1.917  -3.834  0.00  0.00     0.063 H 
ENDBRANCH   1   3
BRANCH   1  14
ATOM     14  C   LIG d   1       8.346   2.117  -3.769  0.00  0.00     0.068 C 
ATOM     15  H   LIG d   1       7.966   3.003  -4.280  0.00  0.00     0.046 H 
ATOM     16  H   LIG d   1       8.059   2.153  -2.718  0.00  0.00     0.046 H 
BRANCH  14  17
ATOM     17  C   LIG d   1       9.872   2.079  -3.880  0.00  0.00    -0.024 C 
ATOM     18  H   LIG d   1      10.205   2.859  -4.565  0.00  0.00     0.082 H 
ATOM     19  H   LIG d   1      10.311   2.248  -2.897  0.00  0.00     0.082 H 
BRANCH  17  20
ATOM     20  N   LIG d   1      10.285   0.753  -4.370  0.00  0.00     0.219 N 
ATOM     21  H   LIG d   1      10.644   0.828  -5.320  0.00  0.00     0.199 HD
ATOM     22  H   LIG d   1      11.007   0.367  -3.764  0.00  0.00     0.199 HD
ATOM     23  H   LIG d   1       9.473   0.124  -4.367  0.00  0.00     0.199 HD
ENDBRANCH  17  20
ENDBRANCH  14  17
ENDBRANCH   1  14
TORSDOF 4
ENDMDL
MODEL 5
REMARK VINA RESULT:      -4.5      3.071      3.274
REMARK  4 active torsions:
REMARK  status: ('A' for Active; 'I' for Inactive)
REMARK    1  A    between atoms: C_4  and  S_7 
REMARK    2  A    between atoms: S_7  and  C_9 
REMARK    3  A    between atoms: C_9  and  C_10 
REMARK    4  A    between atoms: C_10  and  N_22 
ROOT
ATOM      1  S   LIG d   1       5.495  -2.691  -4.192  0.00  0.00     0.059 S 
ATOM      2  O   LIG d   1       4.346  -3.513  -4.336  0.00  0.00    -0.252 OA
ENDROOT
BRANCH   1   3
ATOM      3  C   LIG d   1       4.878  -1.224  -3.434  0.00  0.00     0.039 A 
ATOM      4  C   LIG d   1       5.753  -0.231  -3.036  0.00  0.00    -0.046 A 
ATOM      5  C   LIG d   1       5.268   0.919  -2.441  0.00  0.00    -0.061 A 
ATOM      6  H   LIG d   1       6.815  -0.354  -3.191  0.00  0.00     0.063 H 
ATOM      7  C   LIG d   1       3.909   1.072  -2.239  0.00  0.00    -0.062 A 
ATOM      8  H   LIG d   1       5.952   1.695  -2.130  0.00  0.00     0.062 H 
ATOM      9  C   LIG d   1       3.034   0.081  -2.641  0.00  0.00    -0.061 A 
ATOM     10  H   LIG d   1       3.531   1.969  -1.770  0.00  0.00     0.062 H 
ATOM     11  C   LIG d   1       3.519  -1.068  -3.237  0.00  0.00    -0.046 A 
ATOM     12  H   LIG d   1       1.973   0.203  -2.487  0.00  0.00     0.062 H 
ATOM     13  H   LIG d   1       2.835  -1.844  -3.548  0.00  0.00     0.063 H 
ENDBRANCH   1   3
BRANCH   1  14
ATOM     14  C   LIG d   1       6.052  -2.139  -5.828  0.00  0.00     0.068 C 
ATOM     15  H   LIG d   1       6.094  -1.049  -5.849  0.00  0.00     0.046 H 
ATOM     16  H   LIG d   1       7.044  -2.543  -6.030  0.00  0.00     0.046 H 
BRANCH  14  17
ATOM     17  C   LIG d   1       5.073  -2.632  -6.895  0.00  0.00    -0.024 C 
ATOM     18  H   LIG d   1       5.552  -2.594  -7.873  0.00  0.00     0.082 H 
ATOM     19  H   LIG d   1       4.782  -3.658  -6.673  0.00  0.00     0.082 H 
BRANCH  17  20
ATOM     20  N   LIG d   1       3.872  -1.778  -6.876  0.00  0.00     0.219 N 
ATOM     21  H   LIG d   1       4.082  -0.891  -6.423  0.00  0.00     0.199 HD
ATOM     22  H   LIG d   1       3.551  -1.606  -7.827  0.00  0.00     0.199 HD
ATOM     23  H   LIG d   1       3.128  -2.255  -6.352  0.00  0.00     0.199 HD
ENDBRANCH  17  20
ENDBRANCH  14  17
ENDBRANCH   1  14
TORSDOF 4
ENDMDL
MODEL 6
REMARK VINA RESULT:      -4.3      3.541      3.803
REMARK  4 active torsions:
REMARK  status: ('A' for Active; 'I' for Inactive)
REMARK    1  A    between atoms: C_4  and  S_7 
REMARK    2  A    between atoms: S_7  and  C_9 
REMARK    3  A    between atoms: C_9  and  C_10 
REMARK    4  A    between atoms: C_10  and  N_22 
ROOT
ATOM      1  S   LIG d   1       5.464  -2.057  -6.193  0.00  0.00     0.059 S 
ATOM      2  O   LIG d   1       6.203  -3.188  -5.753  0.00  0.00    -0.252 OA
ENDROOT
BRANCH   1   3
ATOM      3  C   LIG d   1       4.475  -1.626  -4.800  0.00  0.00     0.039 A 
ATOM      4  C   LIG d   1       3.630  -0.534  -4.863  0.00  0.00    -0.046 A 
ATOM      5  C   LIG d   1       2.854  -0.196  -3.770  0.00  0.00    -0.061 A 
ATOM      6  H   LIG d   1       3.576   0.055  -5.767  0.00  0.00     0.063 H 
ATOM      7  C   LIG d   1       2.928  -0.947  -2.612  0.00  0.00    -0.062 A 
ATOM      8  H   LIG d   1       2.195   0.657  -3.819  0.00  0.00     0.062 H 
ATOM      9  C   LIG d   1       3.769  -2.043  -2.550  0.00  0.00    -0.061 A 
ATOM     10  H   LIG d   1       2.324  -0.681  -1.756  0.00  0.00     0.062 H 
ATOM     11  C   LIG d   1       4.544  -2.381  -3.644  0.00  0.00    -0.046 A 
ATOM     12  H   LIG d   1       3.823  -2.632  -1.647  0.00  0.00     0.062 H 
ATOM     13  H   LIG d   1       5.204  -3.235  -3.594  0.00  0.00     0.063 H 
ENDBRANCH   1   3
BRANCH   1  14
ATOM     14  C   LIG d   1       4.259  -2.573  -7.446  0.00  0.00     0.068 C 
ATOM     15  H   LIG d   1       3.262  -2.246  -7.147  0.00  0.00     0.046 H 
ATOM     16  H   LIG d   1       4.515  -2.123  -8.405  0.00  0.00     0.046 H 
BRANCH  14  17
ATOM     17  C   LIG d   1       4.277  -4.098  -7.576  0.00  0.00    -0.024 C 
ATOM     18  H   LIG d   1       3.852  -4.385  -8.537  0.00  0.00     0.082 H 
ATOM     19  H   LIG d   1       5.305  -4.454  -7.514  0.00  0.00     0.082 H 
BRANCH  17  20
ATOM     20  N   LIG d   1       3.498  -4.684  -6.472  0.00  0.00     0.219 N 
ATOM     21  H   LIG d   1       2.526  -4.389  -6.536  0.00  0.00     0.199 HD
ATOM     22  H   LIG d   1       3.548  -5.701  -6.511  0.00  0.00     0.199 HD
ATOM     23  H   LIG d   1       3.888  -4.363  -5.577  0.00  0.00     0.199 HD
ENDBRANCH  17  20
ENDBRANCH  14  17
ENDBRANCH   1  14
TORSDOF 4
ENDMDL
MODEL 7
REMARK VINA RESULT:      -4.2      3.089      3.700
REMARK  4 active torsions:
REMARK  status: ('A' for Active; 'I' for Inactive)
REMARK    1  A    between atoms: C_4  and  S_7 
REMARK    2  A    between atoms: S_7  and  C_9 
REMARK    3  A    between atoms: C_9  and  C_10 
REMARK    4  A    between atoms: C_10  and  N_22 
ROOT
ATOM      1  S   LIG d   1       6.315  -1.147  -5.481  0.00  0.00     0.059 S 
ATOM      2  O   LIG d   1       6.013  -0.180  -6.476  0.00  0.00    -0.252 OA
ENDROOT
BRANCH   1   3
ATOM      3  C   LIG d   1       4.917  -1.107  -4.409  0.00  0.00     0.039 A 
ATOM      4  C   LIG d   1       3.864  -0.253  -4.679  0.00  0.00    -0.046 A 
ATOM      5  C   LIG d   1       2.767  -0.221  -3.838  0.00  0.00    -0.061 A 
ATOM      6  H   LIG d   1       3.898   0.388  -5.548  0.00  0.00     0.063 H 
ATOM      7  C   LIG d   1       2.726  -1.038  -2.724  0.00  0.00    -0.062 A 
ATOM      8  H   LIG d   1       1.944   0.446  -4.050  0.00  0.00     0.062 H 
ATOM      9  C   LIG d   1       3.777  -1.896  -2.457  0.00  0.00    -0.061 A 
ATOM     10  H   LIG d   1       1.871  -1.010  -2.065  0.00  0.00     0.062 H 
ATOM     11  C   LIG d   1       4.873  -1.928  -3.298  0.00  0.00    -0.046 A 
ATOM     12  H   LIG d   1       3.743  -2.537  -1.589  0.00  0.00     0.062 H 
ATOM     13  H   LIG d   1       5.696  -2.595  -3.087  0.00  0.00     0.063 H 
ENDBRANCH   1   3
BRANCH   1  14
ATOM     14  C   LIG d   1       7.679  -0.545  -4.447  0.00  0.00     0.068 C 
ATOM     15  H   LIG d   1       7.865  -1.256  -3.641  0.00  0.00     0.046 H 
ATOM     16  H   LIG d   1       8.578  -0.444  -5.055  0.00  0.00     0.046 H 
BRANCH  14  17
ATOM     17  C   LIG d   1       7.308   0.814  -3.852  0.00  0.00    -0.024 C 
ATOM     18  H   LIG d   1       6.263   0.802  -3.543  0.00  0.00     0.082 H 
ATOM     19  H   LIG d   1       7.940   1.016  -2.988  0.00  0.00     0.082 H 
BRANCH  17  20
ATOM     20  N   LIG d   1       7.533   1.860  -4.866  0.00  0.00     0.219 N 
ATOM     21  H   LIG d   1       6.766   1.867  -5.535  0.00  0.00     0.199 HD
ATOM     22  H   LIG d   1       7.601   2.772  -4.417  0.00  0.00     0.199 HD
ATOM     23  H   LIG d   1       8.410   1.664  -5.363  0.00  0.00     0.199 HD
ENDBRANCH  17  20
ENDBRANCH  14  17
ENDBRANCH   1  14
TORSDOF 4
ENDMDL
MODEL 8
REMARK VINA RESULT:      -4.2      4.029      4.699
REMARK  4 active torsions:
REMARK  status: ('A' for Active; 'I' for Inactive)
REMARK    1  A    between atoms: C_4  and  S_7 
REMARK    2  A    between atoms: S_7  and  C_9 
REMARK    3  A    between atoms: C_9  and  C_10 
REMARK    4  A    between atoms: C_10  and  N_22 
ROOT
ATOM      1  S   LIG d   1       6.401  -2.215  -4.753  0.00  0.00     0.059 S 
ATOM      2  O   LIG d   1       6.693  -1.416  -5.891  0.00  0.00    -0.252 OA
ENDROOT
BRANCH   1   3
ATOM      3  C   LIG d   1       5.710  -1.078  -3.599  0.00  0.00     0.039 A 
ATOM      4  C   LIG d   1       4.850  -1.528  -2.615  0.00  0.00    -0.046 A 
ATOM      5  C   LIG d   1       4.308  -0.635  -1.710  0.00  0.00    -0.061 A 
ATOM      6  H   LIG d   1       4.602  -2.578  -2.554  0.00  0.00     0.063 H 
ATOM      7  C   LIG d   1       4.622   0.709  -1.792  0.00  0.00    -0.062 A 
ATOM      8  H   LIG d   1       3.636  -0.987  -0.941  0.00  0.00     0.062 H 
ATOM      9  C   LIG d   1       5.486   1.158  -2.772  0.00  0.00    -0.061 A 
ATOM     10  H   LIG d   1       4.195   1.407  -1.086  0.00  0.00     0.062 H 
ATOM     11  C   LIG d   1       6.028   0.265  -3.677  0.00  0.00    -0.046 A 
ATOM     12  H   LIG d   1       5.734   2.207  -2.834  0.00  0.00     0.062 H 
ATOM     13  H   LIG d   1       6.701   0.617  -4.446  0.00  0.00     0.063 H 
ENDBRANCH   1   3
BRANCH   1  14
ATOM     14  C   LIG d   1       7.950  -2.747  -3.974  0.00  0.00     0.068 C 
ATOM     15  H   LIG d   1       8.060  -2.251  -3.009  0.00  0.00     0.046 H 
ATOM     16  H   LIG d   1       7.931  -3.827  -3.826  0.00  0.00     0.046 H 
BRANCH  14  17
ATOM     17  C   LIG d   1       9.130  -2.375  -4.875  0.00  0.00    -0.024 C 
ATOM     18  H   LIG d   1      10.006  -2.953  -4.582  0.00  0.00     0.082 H 
ATOM     19  H   LIG d   1       8.878  -2.599  -5.912  0.00  0.00     0.082 H 
BRANCH  17  20
ATOM     20  N   LIG d   1       9.397  -0.933  -4.746  0.00  0.00     0.219 N 
ATOM     21  H   LIG d   1       9.651  -0.543  -5.652  0.00  0.00     0.199 HD
ATOM     22  H   LIG d   1       8.571  -0.455  -4.391  0.00  0.00     0.199 HD
ATOM     23  H   LIG d   1      10.175  -0.791  -4.091  0.00  0.00     0.199 HD
ENDBRANCH  17  20
ENDBRANCH  14  17
ENDBRANCH   1  14
TORSDOF 4
ENDMDL
MODEL 9
REMARK VINA RESULT:      -4.1      2.674      5.701
REMARK  4 active torsions:
REMARK  status: ('A' for Active; 'I' for Inactive)
REMARK    1  A    between atoms: C_4  and  S_7 
REMARK    2  A    between atoms: S_7  and  C_9 
REMARK    3  A    between atoms: C_9  and  C_10 
REMARK    4  A    between atoms: C_10  and  N_22 
ROOT
ATOM      1  S   LIG d   1       4.065  -0.438  -6.239  0.00  0.00     0.059 S 
ATOM      2  O   LIG d   1       5.325  -0.080  -5.690  0.00  0.00    -0.252 OA
ENDROOT
BRANCH   1   3
ATOM      3  C   LIG d   1       3.971   0.491  -7.733  0.00  0.00     0.039 A 
ATOM      4  C   LIG d   1       4.990   0.407  -8.664  0.00  0.00    -0.046 A 
ATOM      5  C   LIG d   1       4.916   1.135  -9.837  0.00  0.00    -0.061 A 
ATOM      6  H   LIG d   1       5.842  -0.230  -8.476  0.00  0.00     0.063 H 
ATOM      7  C   LIG d   1       3.827   1.953 -10.075  0.00  0.00    -0.062 A 
ATOM      8  H   LIG d   1       5.711   1.069 -10.564  0.00  0.00     0.062 H 
ATOM      9  C   LIG d   1       2.807   2.034  -9.146  0.00  0.00    -0.061 A 
ATOM     10  H   LIG d   1       3.772   2.526 -10.989  0.00  0.00     0.062 H 
ATOM     11  C   LIG d   1       2.880   1.305  -7.974  0.00  0.00    -0.046 A 
ATOM     12  H   LIG d   1       1.955   2.670  -9.334  0.00  0.00     0.062 H 
ATOM     13  H   LIG d   1       2.084   1.371  -7.247  0.00  0.00     0.063 H 
ENDBRANCH   1   3
BRANCH   1  14
ATOM     14  C   LIG d   1       2.740   0.251  -5.209  0.00  0.00     0.068 C 
ATOM     15  H   LIG d   1       2.862   1.333  -5.136  0.00  0.00     0.046 H 
ATOM     16  H   LIG d   1       1.774   0.026  -5.660  0.00  0.00     0.046 H 
BRANCH  14  17
ATOM     17  C   LIG d   1       2.807  -0.365  -3.810  0.00  0.00    -0.024 C 
ATOM     18  H   LIG d   1       3.474   0.228  -3.184  0.00  0.00     0.082 H 
ATOM     19  H   LIG d   1       1.810  -0.374  -3.370  0.00  0.00     0.082 H 
BRANCH  17  20
ATOM     20  N   LIG d   1       3.297  -1.750  -3.918  0.00  0.00     0.219 N 
ATOM     21  H   LIG d   1       2.545  -2.362  -4.229  0.00  0.00     0.199 HD
ATOM     22  H   LIG d   1       4.069  -1.796  -4.580  0.00  0.00     0.199 HD
ATOM     23  H   LIG d   1       3.626  -2.063  -2.997  0.00  0.00     0.199 HD
ENDBRANCH  17  20
ENDBRANCH  14  17
ENDBRANCH   1  14
TORSDOF 4
ENDMDL
MODEL 10
REMARK VINA RESULT:      -4.0      2.748      2.907
REMARK  4 active torsions:
REMARK  status: ('A' for Active; 'I' for Inactive)
REMARK    1  A    between atoms: C_4  and  S_7 
REMARK    2  A    between atoms: S_7  and  C_9 
REMARK    3  A    between atoms: C_9  and  C_10 
REMARK    4  A    between atoms: C_10  and  N_22 
ROOT
ATOM      1  S   LIG d   1       4.440  -0.847  -6.157  0.00  0.00     0.059 S 
ATOM      2  O   LIG d   1       5.244   0.277  -6.488  0.00  0.00    -0.252 OA
ENDROOT
BRANCH   1   3
ATOM      3  C   LIG d   1       4.451  -0.875  -4.395  0.00  0.00     0.039 A 
ATOM      4  C   LIG d   1       4.971   0.194  -3.690  0.00  0.00    -0.046 A 
ATOM      5  C   LIG d   1       4.979   0.171  -2.308  0.00  0.00    -0.061 A 
ATOM      6  H   LIG d   1       5.369   1.047  -4.220  0.00  0.00     0.063 H 
ATOM      7  C   LIG d   1       4.474  -0.923  -1.632  0.00  0.00    -0.062 A 
ATOM      8  H   LIG d   1       5.385   1.007  -1.757  0.00  0.00     0.062 H 
ATOM      9  C   LIG d   1       3.950  -1.990  -2.336  0.00  0.00    -0.061 A 
ATOM     10  H   LIG d   1       4.484  -0.942  -0.552  0.00  0.00     0.062 H 
ATOM     11  C   LIG d   1       3.941  -1.967  -3.719  0.00  0.00    -0.046 A 
ATOM     12  H   LIG d   1       3.552  -2.843  -1.808  0.00  0.00     0.062 H 
ATOM     13  H   LIG d   1       3.535  -2.803  -4.269  0.00  0.00     0.063 H 
ENDBRANCH   1   3
BRANCH   1  14
ATOM     14  C   LIG d   1       5.309  -2.369  -6.627  0.00  0.00     0.068 C 
ATOM     15  H   LIG d   1       4.805  -3.227  -6.180  0.00  0.00     0.046 H 
ATOM     16  H   LIG d   1       5.303  -2.471  -7.712  0.00  0.00     0.046 H 
BRANCH  14  17
ATOM     17  C   LIG d   1       6.753  -2.309  -6.127  0.00  0.00    -0.024 C 
ATOM     18  H   LIG d   1       6.772  -1.894  -5.119  0.00  0.00     0.082 H 
ATOM     19  H   LIG d   1       7.175  -3.314  -6.114  0.00  0.00     0.082 H 
BRANCH  17  20
ATOM     20  N   LIG d   1       7.544  -1.469  -7.043  0.00  0.00     0.219 N 
ATOM     21  H   LIG d   1       8.457  -1.890  -7.202  0.00  0.00     0.199 HD
ATOM     22  H   LIG d   1       7.057  -1.368  -7.932  0.00  0.00     0.199 HD
ATOM     23  H   LIG d   1       7.672  -0.540  -6.623  0.00  0.00     0.199 HD
ENDBRANCH  17  20
ENDBRANCH  14  17
ENDBRANCH   1  14
TORSDOF 4
ENDMDL
