MODEL 1
REMARK VINA RESULT:      -5.7      0.000      0.000
REMARK  3 active torsions:
REMARK  status: ('A' for Active; 'I' for Inactive)
REMARK    1  A    between atoms: C_4  and  C_7 
REMARK    2  A    between atoms: C_7  and  N_8 
REMARK    3  A    between atoms: C_11  and  N_12 
ROOT
ATOM      1  C   LIG d   1       2.179   0.234  -5.062  0.00  0.00     0.048 C 
ATOM      2  H   LIG d   1       1.455  -0.577  -5.142  0.00  0.00     0.054 H 
ATOM      3  H   LIG d   1       1.653   1.187  -5.004  0.00  0.00     0.054 H 
ENDROOT
BRANCH   1   4
ATOM      4  C   LIG d   1       3.011   0.044  -3.819  0.00  0.00    -0.028 A 
ATOM      5  C   LIG d   1       3.222  -1.226  -3.316  0.00  0.00    -0.057 A 
ATOM      6  C   LIG d   1       3.990  -1.401  -2.180  0.00  0.00    -0.061 A 
ATOM      7  H   LIG d   1       2.791  -2.083  -3.813  0.00  0.00     0.062 H 
ATOM      8  C   LIG d   1       4.541  -0.305  -1.544  0.00  0.00    -0.062 A 
ATOM      9  H   LIG d   1       4.158  -2.394  -1.789  0.00  0.00     0.062 H 
ATOM     10  C   LIG d   1       4.326   0.966  -2.044  0.00  0.00    -0.061 A 
ATOM     11  H   LIG d   1       5.142  -0.441  -0.656  0.00  0.00     0.062 H 
ATOM     12  C   LIG d   1       3.558   1.141  -3.180  0.00  0.00    -0.057 A 
ATOM     13  H   LIG d   1       4.757   1.822  -1.547  0.00  0.00     0.062 H 
ATOM     14  H   LIG d   1       3.390   2.133  -3.570  0.00  0.00     0.062 H 
ENDBRANCH   1   4
BRANCH   1  15
ATOM     15  N   LIG d   1       3.051   0.229  -6.239  0.00  0.00    -0.349 N 
ATOM     16  C   LIG d   1       2.750   1.056  -7.274  0.00  0.00     0.007 A 
ATOM     17  C   LIG d   1       3.514   1.096  -8.383  0.00  0.00    -0.021 A 
ATOM     18  H   LIG d   1       1.881   1.694  -7.207  0.00  0.00     0.081 H 
ATOM     19  C   LIG d   1       4.691   0.220  -8.455  0.00  0.00     0.058 A 
ATOM     20  H   LIG d   1       3.267   1.756  -9.200  0.00  0.00     0.065 H 
ATOM     21  C   LIG d   1       4.963  -0.651  -7.304  0.00  0.00    -0.021 A 
ATOM     22  C   LIG d   1       4.129  -0.599  -6.248  0.00  0.00     0.007 A 
ATOM     23  H   LIG d   1       5.814  -1.315  -7.303  0.00  0.00     0.065 H 
ATOM     24  H   LIG d   1       4.318  -1.231  -5.392  0.00  0.00     0.081 H 
BRANCH  19  25
ATOM     25  N   LIG d   1       5.478   0.216  -9.517  0.00  0.00    -0.300 NA
ATOM     26  H   LIG d   1       5.411   0.926 -10.174  0.00  0.00     0.187 HD
ENDBRANCH  19  25
ENDBRANCH   1  15
TORSDOF 3
ENDMDL
MODEL 2
REMARK VINA RESULT:      -5.7      3.111      4.002
REMARK  3 active torsions:
REMARK  status: ('A' for Active; 'I' for Inactive)
REMARK    1  A    between atoms: C_4  and  C_7 
REMARK    2  A    between atoms: C_7  and  N_8 
REMARK    3  A    between atoms: C_11  and  N_12 
ROOT
ATOM      1  C   LIG d   1       6.757  -2.146  -4.311  0.00  0.00     0.048 C 
ATOM      2  H   LIG d   1       7.462  -1.594  -4.932  0.00  0.00     0.054 H 
ATOM      3  H   LIG d   1       7.302  -2.844  -3.675  0.00  0.00     0.054 H 
ENDROOT
BRANCH   1   4
ATOM      4  C   LIG d   1       5.983  -1.182  -3.450  0.00  0.00    -0.028 A 
ATOM      5  C   LIG d   1       6.246   0.173  -3.522  0.00  0.00    -0.057 A 
ATOM      6  C   LIG d   1       5.532   1.059  -2.736  0.00  0.00    -0.061 A 
ATOM      7  H   LIG d   1       7.005   0.542  -4.196  0.00  0.00     0.062 H 
ATOM      8  C   LIG d   1       4.560   0.588  -1.874  0.00  0.00    -0.062 A 
ATOM      9  H   LIG d   1       5.734   2.119  -2.795  0.00  0.00     0.062 H 
ATOM     10  C   LIG d   1       4.301  -0.767  -1.798  0.00  0.00    -0.061 A 
ATOM     11  H   LIG d   1       4.001   1.280  -1.260  0.00  0.00     0.062 H 
ATOM     12  C   LIG d   1       5.015  -1.653  -2.583  0.00  0.00    -0.057 A 
ATOM     13  H   LIG d   1       3.541  -1.136  -1.124  0.00  0.00     0.062 H 
ATOM     14  H   LIG d   1       4.813  -2.712  -2.524  0.00  0.00     0.062 H 
ENDBRANCH   1   4
BRANCH   1  15
ATOM     15  N   LIG d   1       5.829  -2.890  -5.167  0.00  0.00    -0.349 N 
ATOM     16  C   LIG d   1       5.241  -2.241  -6.206  0.00  0.00     0.007 A 
ATOM     17  C   LIG d   1       4.379  -2.871  -7.026  0.00  0.00    -0.021 A 
ATOM     18  H   LIG d   1       5.468  -1.199  -6.376  0.00  0.00     0.081 H 
ATOM     19  C   LIG d   1       4.083  -4.288  -6.777  0.00  0.00     0.058 A 
ATOM     20  H   LIG d   1       3.917  -2.348  -7.849  0.00  0.00     0.065 H 
ATOM     21  C   LIG d   1       4.750  -4.934  -5.639  0.00  0.00    -0.021 A 
ATOM     22  C   LIG d   1       5.597  -4.201  -4.891  0.00  0.00     0.007 A 
ATOM     23  H   LIG d   1       4.570  -5.973  -5.409  0.00  0.00     0.065 H 
ATOM     24  H   LIG d   1       6.099  -4.662  -4.053  0.00  0.00     0.081 H 
BRANCH  19  25
ATOM     25  N   LIG d   1       3.246  -4.960  -7.550  0.00  0.00    -0.300 NA
ATOM     26  H   LIG d   1       2.502  -5.442  -7.157  0.00  0.00     0.187 HD
ENDBRANCH  19  25
ENDBRANCH   1  15
TORSDOF 3
ENDMDL
MODEL 3
REMARK VINA RESULT:      -5.6      1.886      5.519
REMARK  3 active torsions:
REMARK  status: ('A' for Active; 'I' for Inactive)
REMARK    1  A    between atoms: C_4  and  C_7 
REMARK    2  A    between atoms: C_7  and  N_8 
REMARK    3  A    between atoms: C_11  and  N_12 
ROOT
ATOM      1  C   LIG d   1       3.994  -0.785  -6.718  0.00  0.00     0.048 C 
ATOM      2  H   LIG d   1       3.026  -1.280  -6.784  0.00  0.00     0.054 H 
ATOM      3  H   LIG d   1       4.783  -1.490  -6.978  0.00  0.00     0.054 H 
ENDROOT
BRANCH   1   4
ATOM      4  C   LIG d   1       4.028   0.381  -7.673  0.00  0.00    -0.028 A 
ATOM      5  C   LIG d   1       2.868   1.077  -7.956  0.00  0.00    -0.057 A 
ATOM      6  C   LIG d   1       2.900   2.150  -8.827  0.00  0.00    -0.061 A 
ATOM      7  H   LIG d   1       1.937   0.786  -7.492  0.00  0.00     0.062 H 
ATOM      8  C   LIG d   1       4.092   2.521  -9.421  0.00  0.00    -0.062 A 
ATOM      9  H   LIG d   1       1.995   2.697  -9.045  0.00  0.00     0.062 H 
ATOM     10  C   LIG d   1       5.251   1.822  -9.142  0.00  0.00    -0.061 A 
ATOM     11  H   LIG d   1       4.118   3.360 -10.101  0.00  0.00     0.062 H 
ATOM     12  C   LIG d   1       5.219   0.749  -8.270  0.00  0.00    -0.057 A 
ATOM     13  H   LIG d   1       6.182   2.113  -9.605  0.00  0.00     0.062 H 
ATOM     14  H   LIG d   1       6.124   0.203  -8.053  0.00  0.00     0.062 H 
ENDBRANCH   1   4
BRANCH   1  15
ATOM     15  N   LIG d   1       4.204  -0.302  -5.350  0.00  0.00    -0.349 N 
ATOM     16  C   LIG d   1       5.464  -0.315  -4.843  0.00  0.00     0.007 A 
ATOM     17  C   LIG d   1       5.719   0.115  -3.593  0.00  0.00    -0.021 A 
ATOM     18  H   LIG d   1       6.277  -0.679  -5.453  0.00  0.00     0.081 H 
ATOM     19  C   LIG d   1       4.599   0.605  -2.778  0.00  0.00     0.058 A 
ATOM     20  H   LIG d   1       6.724   0.101  -3.198  0.00  0.00     0.065 H 
ATOM     21  C   LIG d   1       3.261   0.595  -3.383  0.00  0.00    -0.021 A 
ATOM     22  C   LIG d   1       3.131   0.144  -4.645  0.00  0.00     0.007 A 
ATOM     23  H   LIG d   1       2.402   0.943  -2.830  0.00  0.00     0.065 H 
ATOM     24  H   LIG d   1       2.153   0.134  -5.106  0.00  0.00     0.081 H 
BRANCH  19  25
ATOM     25  N   LIG d   1       4.789   1.041  -1.544  0.00  0.00    -0.300 NA
ATOM     26  H   LIG d   1       4.089   0.941  -0.881  0.00  0.00     0.187 HD
ENDBRANCH  19  25
ENDBRANCH   1  15
TORSDOF 3
ENDMDL
MODEL 4
REMARK VINA RESULT:      -5.6      1.342      2.156
REMARK  3 active torsions:
REMARK  status: ('A' for Active; 'I' for Inactive)
REMARK    1  A    between atoms: C_4  and  C_7 
REMARK    2  A    between atoms: C_7  and  N_8 
REMARK    3  A    between atoms: C_11  and  N_12 
ROOT
ATOM      1  C   LIG d   1       4.440  -1.238  -5.662  0.00  0.00     0.048 C 
ATOM      2  H   LIG d   1       5.378  -1.784  -5.755  0.00  0.00     0.054 H 
ATOM      3  H   LIG d   1       3.607  -1.940  -5.674  0.00  0.00     0.054 H 
ENDROOT
BRANCH   1   4
ATOM      4  C   LIG d   1       4.431  -0.471  -4.364  0.00  0.00    -0.028 A 
ATOM      5  C   LIG d   1       5.589   0.131  -3.909  0.00  0.00    -0.057 A 
ATOM      6  C   LIG d   1       5.580   0.840  -2.722  0.00  0.00    -0.061 A 
ATOM      7  H   LIG d   1       6.501   0.052  -4.483  0.00  0.00     0.062 H 
ATOM      8  C   LIG d   1       4.414   0.941  -1.988  0.00  0.00    -0.062 A 
ATOM      9  H   LIG d   1       6.484   1.313  -2.368  0.00  0.00     0.062 H 
ATOM     10  C   LIG d   1       3.257   0.335  -2.440  0.00  0.00    -0.061 A 
ATOM     11  H   LIG d   1       4.405   1.495  -1.061  0.00  0.00     0.062 H 
ATOM     12  C   LIG d   1       3.266  -0.374  -3.627  0.00  0.00    -0.057 A 
ATOM     13  H   LIG d   1       2.345   0.414  -1.866  0.00  0.00     0.062 H 
ATOM     14  H   LIG d   1       2.362  -0.847  -3.981  0.00  0.00     0.062 H 
ENDBRANCH   1   4
BRANCH   1  15
ATOM     15  N   LIG d   1       4.306  -0.303  -6.783  0.00  0.00    -0.349 N 
ATOM     16  C   LIG d   1       5.408  -0.016  -7.525  0.00  0.00     0.007 A 
ATOM     17  C   LIG d   1       5.346   0.835  -8.566  0.00  0.00    -0.021 A 
ATOM     18  H   LIG d   1       6.350  -0.478  -7.273  0.00  0.00     0.081 H 
ATOM     19  C   LIG d   1       4.055   1.454  -8.891  0.00  0.00     0.058 A 
ATOM     20  H   LIG d   1       6.227   1.057  -9.150  0.00  0.00     0.065 H 
ATOM     21  C   LIG d   1       2.901   1.103  -8.052  0.00  0.00    -0.021 A 
ATOM     22  C   LIG d   1       3.084   0.235  -7.039  0.00  0.00     0.007 A 
ATOM     23  H   LIG d   1       1.928   1.528  -8.245  0.00  0.00     0.065 H 
ATOM     24  H   LIG d   1       2.245  -0.036  -6.415  0.00  0.00     0.081 H 
BRANCH  19  25
ATOM     25  N   LIG d   1       3.933   2.297  -9.903  0.00  0.00    -0.300 NA
ATOM     26  H   LIG d   1       3.689   1.968 -10.782  0.00  0.00     0.187 HD
ENDBRANCH  19  25
ENDBRANCH   1  15
TORSDOF 3
ENDMDL
MODEL 5
REMARK VINA RESULT:      -5.5      1.993      2.460
REMARK  3 active torsions:
REMARK  status: ('A' for Active; 'I' for Inactive)
REMARK    1  A    between atoms: C_4  and  C_7 
REMARK    2  A    between atoms: C_7  and  N_8 
REMARK    3  A    between atoms: C_11  and  N_12 
ROOT
ATOM      1  C   LIG d   1       4.991  -0.459  -6.428  0.00  0.00     0.048 C 
ATOM      2  H   LIG d   1       5.345   0.570  -6.369  0.00  0.00     0.054 H 
ATOM      3  H   LIG d   1       5.826  -1.118  -6.667  0.00  0.00     0.054 H 
ENDROOT
BRANCH   1   4
ATOM      4  C   LIG d   1       4.396  -0.864  -5.104  0.00  0.00    -0.028 A 
ATOM      5  C   LIG d   1       4.873  -1.980  -4.444  0.00  0.00    -0.057 A 
ATOM      6  C   LIG d   1       4.331  -2.348  -3.227  0.00  0.00    -0.061 A 
ATOM      7  H   LIG d   1       5.672  -2.563  -4.877  0.00  0.00     0.062 H 
ATOM      8  C   LIG d   1       3.308  -1.602  -2.673  0.00  0.00    -0.062 A 
ATOM      9  H   LIG d   1       4.706  -3.219  -2.708  0.00  0.00     0.062 H 
ATOM     10  C   LIG d   1       2.827  -0.489  -3.335  0.00  0.00    -0.061 A 
ATOM     11  H   LIG d   1       2.885  -1.889  -1.721  0.00  0.00     0.062 H 
ATOM     12  C   LIG d   1       3.369  -0.121  -4.552  0.00  0.00    -0.057 A 
ATOM     13  H   LIG d   1       2.027   0.094  -2.902  0.00  0.00     0.062 H 
ATOM     14  H   LIG d   1       2.993   0.749  -5.070  0.00  0.00     0.062 H 
ENDBRANCH   1   4
BRANCH   1  15
ATOM     15  N   LIG d   1       3.971  -0.566  -7.475  0.00  0.00    -0.349 N 
ATOM     16  C   LIG d   1       3.332   0.565  -7.877  0.00  0.00     0.007 A 
ATOM     17  C   LIG d   1       2.386   0.529  -8.834  0.00  0.00    -0.021 A 
ATOM     18  H   LIG d   1       3.588   1.508  -7.420  0.00  0.00     0.081 H 
ATOM     19  C   LIG d   1       2.052  -0.765  -9.444  0.00  0.00     0.058 A 
ATOM     20  H   LIG d   1       1.884   1.432  -9.148  0.00  0.00     0.065 H 
ATOM     21  C   LIG d   1       2.778  -1.949  -8.967  0.00  0.00    -0.021 A 
ATOM     22  C   LIG d   1       3.708  -1.789  -8.006  0.00  0.00     0.007 A 
ATOM     23  H   LIG d   1       2.573  -2.926  -9.379  0.00  0.00     0.065 H 
ATOM     24  H   LIG d   1       4.253  -2.650  -7.647  0.00  0.00     0.081 H 
BRANCH  19  25
ATOM     25  N   LIG d   1       1.132  -0.861 -10.389  0.00  0.00    -0.300 NA
ATOM     26  H   LIG d   1       1.266  -1.462 -11.137  0.00  0.00     0.187 HD
ENDBRANCH  19  25
ENDBRANCH   1  15
TORSDOF 3
ENDMDL
MODEL 6
REMARK VINA RESULT:      -5.4      2.552      3.144
REMARK  3 active torsions:
REMARK  status: ('A' for Active; 'I' for Inactive)
REMARK    1  A    between atoms: C_4  and  C_7 
REMARK    2  A    between atoms: C_7  and  N_8 
REMARK    3  A    between atoms: C_11  and  N_12 
ROOT
ATOM      1  C   LIG d   1       7.509  -0.758  -4.505  0.00  0.00     0.048 C 
ATOM      2  H   LIG d   1       8.444  -0.420  -4.058  0.00  0.00     0.054 H 
ATOM      3  H   LIG d   1       7.570  -1.826  -4.712  0.00  0.00     0.054 H 
ENDROOT
BRANCH   1   4
ATOM      4  C   LIG d   1       6.372  -0.496  -3.551  0.00  0.00    -0.028 A 
ATOM      5  C   LIG d   1       5.618  -1.549  -3.068  0.00  0.00    -0.057 A 
ATOM      6  C   LIG d   1       4.579  -1.310  -2.188  0.00  0.00    -0.061 A 
ATOM      7  H   LIG d   1       5.844  -2.560  -3.374  0.00  0.00     0.062 H 
ATOM      8  C   LIG d   1       4.289  -0.016  -1.797  0.00  0.00    -0.062 A 
ATOM      9  H   LIG d   1       3.992  -2.133  -1.808  0.00  0.00     0.062 H 
ATOM     10  C   LIG d   1       5.040   1.037  -2.284  0.00  0.00    -0.061 A 
ATOM     11  H   LIG d   1       3.478   0.171  -1.109  0.00  0.00     0.062 H 
ATOM     12  C   LIG d   1       6.079   0.798  -3.163  0.00  0.00    -0.057 A 
ATOM     13  H   LIG d   1       4.814   2.048  -1.978  0.00  0.00     0.062 H 
ATOM     14  H   LIG d   1       6.665   1.621  -3.543  0.00  0.00     0.062 H 
ENDBRANCH   1   4
BRANCH   1  15
ATOM     15  N   LIG d   1       7.275  -0.031  -5.755  0.00  0.00    -0.349 N 
ATOM     16  C   LIG d   1       6.239  -0.417  -6.547  0.00  0.00     0.007 A 
ATOM     17  C   LIG d   1       5.975   0.212  -7.708  0.00  0.00    -0.021 A 
ATOM     18  H   LIG d   1       5.617  -1.244  -6.239  0.00  0.00     0.081 H 
ATOM     19  C   LIG d   1       6.834   1.335  -8.109  0.00  0.00     0.058 A 
ATOM     20  H   LIG d   1       5.150  -0.101  -8.330  0.00  0.00     0.065 H 
ATOM     21  C   LIG d   1       7.936   1.703  -7.211  0.00  0.00    -0.021 A 
ATOM     22  C   LIG d   1       8.099   1.002  -6.072  0.00  0.00     0.007 A 
ATOM     23  H   LIG d   1       8.599   2.520  -7.455  0.00  0.00     0.065 H 
ATOM     24  H   LIG d   1       8.903   1.264  -5.399  0.00  0.00     0.081 H 
BRANCH  19  25
ATOM     25  N   LIG d   1       6.622   1.990  -9.237  0.00  0.00    -0.300 NA
ATOM     26  H   LIG d   1       6.570   2.958  -9.234  0.00  0.00     0.187 HD
ENDBRANCH  19  25
ENDBRANCH   1  15
TORSDOF 3
ENDMDL
MODEL 7
REMARK VINA RESULT:      -5.2      3.396      4.194
REMARK  3 active torsions:
REMARK  status: ('A' for Active; 'I' for Inactive)
REMARK    1  A    between atoms: C_4  and  C_7 
REMARK    2  A    between atoms: C_7  and  N_8 
REMARK    3  A    between atoms: C_11  and  N_12 
ROOT
ATOM      1  C   LIG d   1       6.433  -1.329  -5.007  0.00  0.00     0.048 C 
ATOM      2  H   LIG d   1       7.049  -2.072  -4.501  0.00  0.00     0.054 H 
ATOM      3  H   LIG d   1       6.248  -1.646  -6.033  0.00  0.00     0.054 H 
ENDROOT
BRANCH   1   4
ATOM      4  C   LIG d   1       5.119  -1.187  -4.281  0.00  0.00    -0.028 A 
ATOM      5  C   LIG d   1       4.882  -1.918  -3.133  0.00  0.00    -0.057 A 
ATOM      6  C   LIG d   1       3.679  -1.783  -2.464  0.00  0.00    -0.061 A 
ATOM      7  H   LIG d   1       5.637  -2.590  -2.754  0.00  0.00     0.062 H 
ATOM      8  C   LIG d   1       2.712  -0.923  -2.948  0.00  0.00    -0.062 A 
ATOM      9  H   LIG d   1       3.495  -2.351  -1.564  0.00  0.00     0.062 H 
ATOM     10  C   LIG d   1       2.948  -0.195  -4.100  0.00  0.00    -0.061 A 
ATOM     11  H   LIG d   1       1.773  -0.816  -2.426  0.00  0.00     0.062 H 
ATOM     12  C   LIG d   1       4.150  -0.330  -4.769  0.00  0.00    -0.057 A 
ATOM     13  H   LIG d   1       2.192   0.477  -4.479  0.00  0.00     0.062 H 
ATOM     14  H   LIG d   1       4.335   0.238  -5.668  0.00  0.00     0.062 H 
ENDBRANCH   1   4
BRANCH   1  15
ATOM     15  N   LIG d   1       7.129  -0.040  -5.013  0.00  0.00    -0.349 N 
ATOM     16  C   LIG d   1       7.398   0.559  -3.823  0.00  0.00     0.007 A 
ATOM     17  C   LIG d   1       8.035   1.744  -3.766  0.00  0.00    -0.021 A 
ATOM     18  H   LIG d   1       7.095   0.076  -2.907  0.00  0.00     0.081 H 
ATOM     19  C   LIG d   1       8.439   2.385  -5.024  0.00  0.00     0.058 A 
ATOM     20  H   LIG d   1       8.245   2.213  -2.816  0.00  0.00     0.065 H 
ATOM     21  C   LIG d   1       8.120   1.688  -6.276  0.00  0.00    -0.021 A 
ATOM     22  C   LIG d   1       7.483   0.504  -6.208  0.00  0.00     0.007 A 
ATOM     23  H   LIG d   1       8.393   2.113  -7.231  0.00  0.00     0.065 H 
ATOM     24  H   LIG d   1       7.245  -0.024  -7.120  0.00  0.00     0.081 H 
BRANCH  19  25
ATOM     25  N   LIG d   1       9.068   3.549  -5.029  0.00  0.00    -0.300 NA
ATOM     26  H   LIG d   1       8.563   4.373  -5.100  0.00  0.00     0.187 HD
ENDBRANCH  19  25
ENDBRANCH   1  15
TORSDOF 3
ENDMDL
MODEL 8
REMARK VINA RESULT:      -5.2      3.261      4.039
REMARK  3 active torsions:
REMARK  status: ('A' for Active; 'I' for Inactive)
REMARK    1  A    between atoms: C_4  and  C_7 
REMARK    2  A    between atoms: C_7  and  N_8 
REMARK    3  A    between atoms: C_11  and  N_12 
ROOT
ATOM      1  C   LIG d   1       5.507  -2.301  -5.642  0.00  0.00     0.048 C 
ATOM      2  H   LIG d   1       5.938  -1.494  -6.233  0.00  0.00     0.054 H 
ATOM      3  H   LIG d   1       6.304  -2.853  -5.143  0.00  0.00     0.054 H 
ENDROOT
BRANCH   1   4
ATOM      4  C   LIG d   1       4.573  -1.724  -4.609  0.00  0.00    -0.028 A 
ATOM      5  C   LIG d   1       4.467  -2.318  -3.365  0.00  0.00    -0.057 A 
ATOM      6  C   LIG d   1       3.615  -1.786  -2.415  0.00  0.00    -0.061 A 
ATOM      7  H   LIG d   1       5.052  -3.196  -3.133  0.00  0.00     0.062 H 
ATOM      8  C   LIG d   1       2.865  -0.663  -2.712  0.00  0.00    -0.062 A 
ATOM      9  H   LIG d   1       3.534  -2.247  -1.442  0.00  0.00     0.062 H 
ATOM     10  C   LIG d   1       2.968  -0.072  -3.957  0.00  0.00    -0.061 A 
ATOM     11  H   LIG d   1       2.200  -0.246  -1.970  0.00  0.00     0.062 H 
ATOM     12  C   LIG d   1       3.820  -0.605  -4.907  0.00  0.00    -0.057 A 
ATOM     13  H   LIG d   1       2.382   0.805  -4.189  0.00  0.00     0.062 H 
ATOM     14  H   LIG d   1       3.900  -0.143  -5.880  0.00  0.00     0.062 H 
ENDBRANCH   1   4
BRANCH   1  15
ATOM     15  N   LIG d   1       4.763  -3.208  -6.520  0.00  0.00    -0.349 N 
ATOM     16  C   LIG d   1       4.556  -4.487  -6.110  0.00  0.00     0.007 A 
ATOM     17  C   LIG d   1       3.881  -5.366  -6.874  0.00  0.00    -0.021 A 
ATOM     18  H   LIG d   1       4.942  -4.804  -5.152  0.00  0.00     0.081 H 
ATOM     19  C   LIG d   1       3.365  -4.914  -8.173  0.00  0.00     0.058 A 
ATOM     20  H   LIG d   1       3.721  -6.380  -6.539  0.00  0.00     0.065 H 
ATOM     21  C   LIG d   1       3.621  -3.521  -8.560  0.00  0.00    -0.021 A 
ATOM     22  C   LIG d   1       4.305  -2.733  -7.709  0.00  0.00     0.007 A 
ATOM     23  H   LIG d   1       3.265  -3.135  -9.504  0.00  0.00     0.065 H 
ATOM     24  H   LIG d   1       4.498  -1.704  -7.978  0.00  0.00     0.081 H 
BRANCH  19  25
ATOM     25  N   LIG d   1       2.693  -5.732  -8.965  0.00  0.00    -0.300 NA
ATOM     26  H   LIG d   1       1.820  -5.477  -9.299  0.00  0.00     0.187 HD
ENDBRANCH  19  25
ENDBRANCH   1  15
TORSDOF 3
ENDMDL
MODEL 9
REMARK VINA RESULT:      -4.9      2.836      3.862
REMARK  3 active torsions:
REMARK  status: ('A' for Active; 'I' for Inactive)
REMARK    1  A    between atoms: C_4  and  C_7 
REMARK    2  A    between atoms: C_7  and  N_8 
REMARK    3  A    between atoms: C_11  and  N_12 
ROOT
ATOM      1  C   LIG d   1       6.822  -1.935  -3.434  0.00  0.00     0.048 C 
ATOM      2  H   LIG d   1       7.674  -1.802  -2.767  0.00  0.00     0.054 H 
ATOM      3  H   LIG d   1       6.460  -2.961  -3.361  0.00  0.00     0.054 H 
ENDROOT
BRANCH   1   4
ATOM      4  C   LIG d   1       5.721  -0.985  -3.039  0.00  0.00    -0.028 A 
ATOM      5  C   LIG d   1       5.973   0.371  -2.962  0.00  0.00    -0.057 A 
ATOM      6  C   LIG d   1       4.961   1.244  -2.605  0.00  0.00    -0.061 A 
ATOM      7  H   LIG d   1       6.959   0.751  -3.185  0.00  0.00     0.062 H 
ATOM      8  C   LIG d   1       3.700   0.758  -2.319  0.00  0.00    -0.062 A 
ATOM      9  H   LIG d   1       5.157   2.305  -2.549  0.00  0.00     0.062 H 
ATOM     10  C   LIG d   1       3.448  -0.600  -2.392  0.00  0.00    -0.061 A 
ATOM     11  H   LIG d   1       2.908   1.439  -2.042  0.00  0.00     0.062 H 
ATOM     12  C   LIG d   1       4.460  -1.472  -2.748  0.00  0.00    -0.057 A 
ATOM     13  H   LIG d   1       2.462  -0.980  -2.169  0.00  0.00     0.062 H 
ATOM     14  H   LIG d   1       4.264  -2.532  -2.805  0.00  0.00     0.062 H 
ENDBRANCH   1   4
BRANCH   1  15
ATOM     15  N   LIG d   1       7.233  -1.660  -4.813  0.00  0.00    -0.349 N 
ATOM     16  C   LIG d   1       8.489  -1.190  -5.036  0.00  0.00     0.007 A 
ATOM     17  C   LIG d   1       8.923  -0.918  -6.281  0.00  0.00    -0.021 A 
ATOM     18  H   LIG d   1       9.150  -1.029  -4.197  0.00  0.00     0.081 H 
ATOM     19  C   LIG d   1       8.008  -1.142  -7.407  0.00  0.00     0.058 A 
ATOM     20  H   LIG d   1       9.922  -0.545  -6.448  0.00  0.00     0.065 H 
ATOM     21  C   LIG d   1       6.665  -1.653  -7.102  0.00  0.00    -0.021 A 
ATOM     22  C   LIG d   1       6.345  -1.892  -5.816  0.00  0.00     0.007 A 
ATOM     23  H   LIG d   1       5.950  -1.835  -7.891  0.00  0.00     0.065 H 
ATOM     24  H   LIG d   1       5.362  -2.271  -5.575  0.00  0.00     0.081 H 
BRANCH  19  25
ATOM     25  N   LIG d   1       8.379  -0.895  -8.652  0.00  0.00    -0.300 NA
ATOM     26  H   LIG d   1       9.150  -0.334  -8.826  0.00  0.00     0.187 HD
ENDBRANCH  19  25
ENDBRANCH   1  15
TORSDOF 3
ENDMDL
MODEL 10
REMARK VINA RESULT:      -4.8      2.458      5.847
REMARK  3 active torsions:
REMARK  status: ('A' for Active; 'I' for Inactive)
REMARK    1  A    between atoms: C_4  and  C_7 
REMARK    2  A    between atoms: C_7  and  N_8 
REMARK    3  A    between atoms: C_11  and  N_12 
ROOT
ATOM      1  C   LIG d   1       4.226  -0.145  -7.939  0.00  0.00     0.048 C 
ATOM      2  H   LIG d   1       5.216  -0.569  -8.104  0.00  0.00     0.054 H 
ATOM      3  H   LIG d   1       4.239   0.917  -8.184  0.00  0.00     0.054 H 
ENDROOT
BRANCH   1   4
ATOM      4  C   LIG d   1       3.224  -0.850  -8.817  0.00  0.00    -0.028 A 
ATOM      5  C   LIG d   1       3.269  -2.225  -8.950  0.00  0.00    -0.057 A 
ATOM      6  C   LIG d   1       2.346  -2.873  -9.751  0.00  0.00    -0.061 A 
ATOM      7  H   LIG d   1       4.020  -2.795  -8.423  0.00  0.00     0.062 H 
ATOM      8  C   LIG d   1       1.385  -2.144 -10.424  0.00  0.00    -0.062 A 
ATOM      9  H   LIG d   1       2.378  -3.948  -9.851  0.00  0.00     0.062 H 
ATOM     10  C   LIG d   1       1.344  -0.768 -10.296  0.00  0.00    -0.061 A 
ATOM     11  H   LIG d   1       0.663  -2.649 -11.050  0.00  0.00     0.062 H 
ATOM     12  C   LIG d   1       2.266  -0.121  -9.495  0.00  0.00    -0.057 A 
ATOM     13  H   LIG d   1       0.592  -0.199 -10.822  0.00  0.00     0.062 H 
ATOM     14  H   LIG d   1       2.234   0.954  -9.395  0.00  0.00     0.062 H 
ENDBRANCH   1   4
BRANCH   1  15
ATOM     15  N   LIG d   1       3.849  -0.316  -6.533  0.00  0.00    -0.349 N 
ATOM     16  C   LIG d   1       4.562  -1.186  -5.770  0.00  0.00     0.007 A 
ATOM     17  C   LIG d   1       4.262  -1.386  -4.473  0.00  0.00    -0.021 A 
ATOM     18  H   LIG d   1       5.383  -1.728  -6.214  0.00  0.00     0.081 H 
ATOM     19  C   LIG d   1       3.140  -0.639  -3.889  0.00  0.00     0.058 A 
ATOM     20  H   LIG d   1       4.834  -2.078  -3.875  0.00  0.00     0.065 H 
ATOM     21  C   LIG d   1       2.409   0.286  -4.765  0.00  0.00    -0.021 A 
ATOM     22  C   LIG d   1       2.804   0.405  -6.047  0.00  0.00     0.007 A 
ATOM     23  H   LIG d   1       1.575   0.860  -4.389  0.00  0.00     0.065 H 
ATOM     24  H   LIG d   1       2.279   1.084  -6.703  0.00  0.00     0.081 H 
BRANCH  19  25
ATOM     25  N   LIG d   1       2.800  -0.793  -2.621  0.00  0.00    -0.300 NA
ATOM     26  H   LIG d   1       3.313  -1.385  -2.049  0.00  0.00     0.187 HD
ENDBRANCH  19  25
ENDBRANCH   1  15
TORSDOF 3
ENDMDL
