MODEL 1
REMARK VINA RESULT:      -7.5      0.000      0.000
REMARK  2 active torsions:
REMARK  status: ('A' for Active; 'I' for Inactive)
REMARK    1  A    between atoms: N_13  and  C_14 
REMARK    2  A    between atoms: C_14  and  N_15 
ROOT
ATOM      1  C   LIG d   1       5.296  -1.620  -6.494  0.00  0.00     0.101 C 
ATOM      2  H   LIG d   1       5.953  -2.489  -6.488  0.00  0.00     0.073 H 
ATOM      3  H   LIG d   1       4.267  -1.941  -6.331  0.00  0.00     0.073 H 
ENDROOT
BRANCH   1   4
ATOM      4  N   LIG d   1       5.694  -0.699  -5.427  0.00  0.00    -0.321 N 
ATOM      5  C   LIG d   1       4.878  -0.296  -4.384  0.00  0.00     0.052 A 
ATOM      6  C   LIG d   1       3.562  -0.603  -4.052  0.00  0.00    -0.037 A 
ATOM      7  C   LIG d   1       5.606   0.583  -3.568  0.00  0.00     0.008 A 
ATOM      8  C   LIG d   1       2.985  -0.046  -2.932  0.00  0.00    -0.060 A 
ATOM      9  H   LIG d   1       2.993  -1.278  -4.674  0.00  0.00     0.064 H 
ATOM     10  C   LIG d   1       3.705   0.821  -2.125  0.00  0.00    -0.061 A 
ATOM     11  H   LIG d   1       1.963  -0.289  -2.679  0.00  0.00     0.062 H 
ATOM     12  C   LIG d   1       5.010   1.138  -2.438  0.00  0.00    -0.052 A 
ATOM     13  H   LIG d   1       3.241   1.254  -1.251  0.00  0.00     0.062 H 
ATOM     14  H   LIG d   1       5.568   1.815  -1.808  0.00  0.00     0.062 H 
ATOM     15  C   LIG d   1       6.944   0.705  -4.173  0.00  0.00     0.008 A 
ATOM     16  C   LIG d   1       6.940  -0.108  -5.317  0.00  0.00     0.052 A 
ATOM     17  C   LIG d   1       8.090   1.420  -3.830  0.00  0.00    -0.052 A 
ATOM     18  C   LIG d   1       8.087  -0.189  -6.099  0.00  0.00    -0.037 A 
ATOM     19  C   LIG d   1       9.214   0.524  -5.749  0.00  0.00    -0.060 A 
ATOM     20  H   LIG d   1       8.096  -0.812  -6.982  0.00  0.00     0.064 H 
ATOM     21  C   LIG d   1       9.217   1.326  -4.618  0.00  0.00    -0.061 A 
ATOM     22  H   LIG d   1      10.102   0.456  -6.359  0.00  0.00     0.062 H 
ATOM     23  H   LIG d   1      10.106   1.880  -4.354  0.00  0.00     0.062 H 
ATOM     24  H   LIG d   1       8.095   2.047  -2.951  0.00  0.00     0.062 H 
ENDBRANCH   1   4
BRANCH   1  25
ATOM     25  N   LIG d   1       5.395  -0.940  -7.788  0.00  0.00    -0.321 N 
ATOM     26  C   LIG d   1       4.579   0.099  -8.200  0.00  0.00     0.052 A 
ATOM     27  C   LIG d   1       4.978   0.491  -9.487  0.00  0.00     0.008 A 
ATOM     28  C   LIG d   1       3.518   0.758  -7.585  0.00  0.00    -0.037 A 
ATOM     29  C   LIG d   1       6.102  -0.385  -9.861  0.00  0.00     0.008 A 
ATOM     30  C   LIG d   1       4.316   1.531 -10.135  0.00  0.00    -0.052 A 
ATOM     31  C   LIG d   1       6.315  -1.247  -8.774  0.00  0.00     0.052 A 
ATOM     32  C   LIG d   1       6.903  -0.485 -10.996  0.00  0.00    -0.052 A 
ATOM     33  C   LIG d   1       7.329  -2.196  -8.847  0.00  0.00    -0.037 A 
ATOM     34  C   LIG d   1       8.113  -2.284  -9.977  0.00  0.00    -0.060 A 
ATOM     35  H   LIG d   1       7.502  -2.866  -8.016  0.00  0.00     0.064 H 
ATOM     36  C   LIG d   1       7.902  -1.432 -11.050  0.00  0.00    -0.061 A 
ATOM     37  H   LIG d   1       8.899  -3.024 -10.028  0.00  0.00     0.062 H 
ATOM     38  H   LIG d   1       8.523  -1.510 -11.930  0.00  0.00     0.062 H 
ATOM     39  H   LIG d   1       6.740   0.179 -11.834  0.00  0.00     0.062 H 
ATOM     40  C   LIG d   1       3.262   2.166  -9.513  0.00  0.00    -0.061 A 
ATOM     41  H   LIG d   1       4.619   1.831 -11.128  0.00  0.00     0.062 H 
ATOM     42  C   LIG d   1       2.869   1.782  -8.240  0.00  0.00    -0.060 A 
ATOM     43  H   LIG d   1       2.745   2.968 -10.017  0.00  0.00     0.062 H 
ATOM     44  H   LIG d   1       2.046   2.289  -7.759  0.00  0.00     0.062 H 
ATOM     45  H   LIG d   1       3.204   0.468  -6.593  0.00  0.00     0.064 H 
ENDBRANCH   1  25
TORSDOF 2
ENDMDL
MODEL 2
REMARK VINA RESULT:      -7.5      0.016      6.686
REMARK  2 active torsions:
REMARK  status: ('A' for Active; 'I' for Inactive)
REMARK    1  A    between atoms: N_13  and  C_14 
REMARK    2  A    between atoms: C_14  and  N_15 
ROOT
ATOM      1  C   LIG d   1       5.292  -1.624  -6.484  0.00  0.00     0.101 C 
ATOM      2  H   LIG d   1       4.263  -1.945  -6.321  0.00  0.00     0.073 H 
ATOM      3  H   LIG d   1       5.950  -2.493  -6.475  0.00  0.00     0.073 H 
ENDROOT
BRANCH   1   4
ATOM      4  N   LIG d   1       5.394  -0.948  -7.780  0.00  0.00    -0.321 N 
ATOM      5  C   LIG d   1       6.317  -1.258  -8.763  0.00  0.00     0.052 A 
ATOM      6  C   LIG d   1       7.333  -2.206  -8.828  0.00  0.00    -0.037 A 
ATOM      7  C   LIG d   1       6.106  -0.400  -9.853  0.00  0.00     0.008 A 
ATOM      8  C   LIG d   1       8.120  -2.297  -9.955  0.00  0.00    -0.060 A 
ATOM      9  H   LIG d   1       7.505  -2.871  -7.995  0.00  0.00     0.064 H 
ATOM     10  C   LIG d   1       7.910  -1.450 -11.032  0.00  0.00    -0.061 A 
ATOM     11  H   LIG d   1       8.907  -3.036 -10.001  0.00  0.00     0.062 H 
ATOM     12  C   LIG d   1       6.909  -0.504 -10.986  0.00  0.00    -0.052 A 
ATOM     13  H   LIG d   1       8.536  -1.529 -11.910  0.00  0.00     0.062 H 
ATOM     14  H   LIG d   1       6.748   0.155 -11.827  0.00  0.00     0.062 H 
ATOM     15  C   LIG d   1       4.978   0.475  -9.485  0.00  0.00     0.008 A 
ATOM     16  C   LIG d   1       4.580   0.091  -8.195  0.00  0.00     0.052 A 
ATOM     17  C   LIG d   1       4.315   1.511 -10.139  0.00  0.00    -0.052 A 
ATOM     18  C   LIG d   1       3.522   0.754  -7.583  0.00  0.00    -0.037 A 
ATOM     19  C   LIG d   1       2.874   1.777  -8.242  0.00  0.00    -0.060 A 
ATOM     20  H   LIG d   1       3.207   0.467  -6.590  0.00  0.00     0.064 H 
ATOM     21  C   LIG d   1       3.268   2.155  -9.516  0.00  0.00    -0.061 A 
ATOM     22  H   LIG d   1       2.053   2.287  -7.761  0.00  0.00     0.062 H 
ATOM     23  H   LIG d   1       2.754   2.959 -10.022  0.00  0.00     0.062 H 
ATOM     24  H   LIG d   1       4.620   1.809 -11.131  0.00  0.00     0.062 H 
ENDBRANCH   1   4
BRANCH   1  25
ATOM     25  N   LIG d   1       5.690  -0.700  -5.419  0.00  0.00    -0.321 N 
ATOM     26  C   LIG d   1       6.939  -0.113  -5.307  0.00  0.00     0.052 A 
ATOM     27  C   LIG d   1       6.941   0.707  -4.169  0.00  0.00     0.008 A 
ATOM     28  C   LIG d   1       8.090  -0.204  -6.084  0.00  0.00    -0.037 A 
ATOM     29  C   LIG d   1       5.602   0.589  -3.565  0.00  0.00     0.008 A 
ATOM     30  C   LIG d   1       8.086   1.423  -3.828  0.00  0.00    -0.052 A 
ATOM     31  C   LIG d   1       4.874  -0.293  -4.379  0.00  0.00     0.052 A 
ATOM     32  C   LIG d   1       5.006   1.150  -2.438  0.00  0.00    -0.052 A 
ATOM     33  C   LIG d   1       3.558  -0.596  -4.047  0.00  0.00    -0.037 A 
ATOM     34  C   LIG d   1       2.981  -0.035  -2.929  0.00  0.00    -0.060 A 
ATOM     35  H   LIG d   1       2.987  -1.274  -4.666  0.00  0.00     0.064 H 
ATOM     36  C   LIG d   1       3.701   0.836  -2.125  0.00  0.00    -0.061 A 
ATOM     37  H   LIG d   1       1.958  -0.274  -2.676  0.00  0.00     0.062 H 
ATOM     38  H   LIG d   1       3.238   1.270  -1.252  0.00  0.00     0.062 H 
ATOM     39  H   LIG d   1       5.566   1.829  -1.811  0.00  0.00     0.062 H 
ATOM     40  C   LIG d   1       9.219   1.314  -4.605  0.00  0.00    -0.061 A 
ATOM     41  H   LIG d   1       8.090   2.053  -2.950  0.00  0.00     0.062 H 
ATOM     42  C   LIG d   1       9.218   0.505  -5.732  0.00  0.00    -0.060 A 
ATOM     43  H   LIG d   1      10.109   1.864  -4.339  0.00  0.00     0.062 H 
ATOM     44  H   LIG d   1      10.108   0.431  -6.338  0.00  0.00     0.062 H 
ATOM     45  H   LIG d   1       8.100  -0.830  -6.964  0.00  0.00     0.064 H 
ENDBRANCH   1  25
TORSDOF 2
ENDMDL
MODEL 3
REMARK VINA RESULT:      -7.5      0.013      6.133
REMARK  2 active torsions:
REMARK  status: ('A' for Active; 'I' for Inactive)
REMARK    1  A    between atoms: N_13  and  C_14 
REMARK    2  A    between atoms: C_14  and  N_15 
ROOT
ATOM      1  C   LIG d   1       5.292  -1.628  -6.485  0.00  0.00     0.101 C 
ATOM      2  H   LIG d   1       4.263  -1.949  -6.322  0.00  0.00     0.073 H 
ATOM      3  H   LIG d   1       5.949  -2.497  -6.479  0.00  0.00     0.073 H 
ENDROOT
BRANCH   1   4
ATOM      4  N   LIG d   1       5.392  -0.948  -7.779  0.00  0.00    -0.321 N 
ATOM      5  C   LIG d   1       6.317  -1.254  -8.762  0.00  0.00     0.052 A 
ATOM      6  C   LIG d   1       7.334  -2.201  -8.830  0.00  0.00    -0.037 A 
ATOM      7  C   LIG d   1       6.105  -0.393  -9.850  0.00  0.00     0.008 A 
ATOM      8  C   LIG d   1       8.122  -2.287  -9.957  0.00  0.00    -0.060 A 
ATOM      9  H   LIG d   1       7.507  -2.868  -7.998  0.00  0.00     0.064 H 
ATOM     10  C   LIG d   1       7.911  -1.438 -11.032  0.00  0.00    -0.061 A 
ATOM     11  H   LIG d   1       8.910  -3.024 -10.004  0.00  0.00     0.062 H 
ATOM     12  C   LIG d   1       6.908  -0.492 -10.983  0.00  0.00    -0.052 A 
ATOM     13  H   LIG d   1       8.537  -1.512 -11.909  0.00  0.00     0.062 H 
ATOM     14  H   LIG d   1       6.746   0.168 -11.822  0.00  0.00     0.062 H 
ATOM     15  C   LIG d   1       4.976   0.479  -9.480  0.00  0.00     0.008 A 
ATOM     16  C   LIG d   1       4.578   0.091  -8.192  0.00  0.00     0.052 A 
ATOM     17  C   LIG d   1       4.311   1.516 -10.132  0.00  0.00    -0.052 A 
ATOM     18  C   LIG d   1       3.518   0.751  -7.578  0.00  0.00    -0.037 A 
ATOM     19  C   LIG d   1       2.869   1.775  -8.234  0.00  0.00    -0.060 A 
ATOM     20  H   LIG d   1       3.203   0.460  -6.586  0.00  0.00     0.064 H 
ATOM     21  C   LIG d   1       3.263   2.157  -9.507  0.00  0.00    -0.061 A 
ATOM     22  H   LIG d   1       2.047   2.283  -7.753  0.00  0.00     0.062 H 
ATOM     23  H   LIG d   1       2.748   2.961 -10.011  0.00  0.00     0.062 H 
ATOM     24  H   LIG d   1       4.616   1.817 -11.123  0.00  0.00     0.062 H 
ENDBRANCH   1   4
BRANCH   1  25
ATOM     25  N   LIG d   1       5.691  -0.707  -5.417  0.00  0.00    -0.321 N 
ATOM     26  C   LIG d   1       4.874  -0.302  -4.376  0.00  0.00     0.052 A 
ATOM     27  C   LIG d   1       5.603   0.573  -3.557  0.00  0.00     0.008 A 
ATOM     28  C   LIG d   1       3.556  -0.606  -4.046  0.00  0.00    -0.037 A 
ATOM     29  C   LIG d   1       6.940   0.699  -4.164  0.00  0.00     0.008 A 
ATOM     30  C   LIG d   1       5.009   1.126  -2.425  0.00  0.00    -0.052 A 
ATOM     31  C   LIG d   1       6.935  -0.113  -5.309  0.00  0.00     0.052 A 
ATOM     32  C   LIG d   1       8.085   1.414  -3.823  0.00  0.00    -0.052 A 
ATOM     33  C   LIG d   1       8.082  -0.192  -6.092  0.00  0.00    -0.037 A 
ATOM     34  C   LIG d   1       9.208   0.523  -5.743  0.00  0.00    -0.060 A 
ATOM     35  H   LIG d   1       8.091  -0.814  -6.976  0.00  0.00     0.064 H 
ATOM     36  C   LIG d   1       9.210   1.324  -4.611  0.00  0.00    -0.061 A 
ATOM     37  H   LIG d   1      10.095   0.458  -6.355  0.00  0.00     0.062 H 
ATOM     38  H   LIG d   1      10.099   1.879  -4.348  0.00  0.00     0.062 H 
ATOM     39  H   LIG d   1       8.089   2.040  -2.941  0.00  0.00     0.062 H 
ATOM     40  C   LIG d   1       3.700   0.820  -2.119  0.00  0.00    -0.061 A 
ATOM     41  H   LIG d   1       5.568   1.804  -1.796  0.00  0.00     0.062 H 
ATOM     42  C   LIG d   1       2.979  -0.047  -2.926  0.00  0.00    -0.060 A 
ATOM     43  H   LIG d   1       3.237   1.252  -1.245  0.00  0.00     0.062 H 
ATOM     44  H   LIG d   1       1.957  -0.286  -2.675  0.00  0.00     0.062 H 
ATOM     45  H   LIG d   1       2.986  -1.281  -4.667  0.00  0.00     0.064 H 
ENDBRANCH   1  25
TORSDOF 2
ENDMDL
MODEL 4
REMARK VINA RESULT:      -7.5      0.038      5.525
REMARK  2 active torsions:
REMARK  status: ('A' for Active; 'I' for Inactive)
REMARK    1  A    between atoms: N_13  and  C_14 
REMARK    2  A    between atoms: C_14  and  N_15 
ROOT
ATOM      1  C   LIG d   1       5.274  -1.629  -6.457  0.00  0.00     0.101 C 
ATOM      2  H   LIG d   1       4.243  -1.943  -6.290  0.00  0.00     0.073 H 
ATOM      3  H   LIG d   1       5.925  -2.503  -6.450  0.00  0.00     0.073 H 
ENDROOT
BRANCH   1   4
ATOM      4  N   LIG d   1       5.375  -0.956  -7.755  0.00  0.00    -0.321 N 
ATOM      5  C   LIG d   1       4.561   0.083  -8.171  0.00  0.00     0.052 A 
ATOM      6  C   LIG d   1       3.503   0.748  -7.559  0.00  0.00    -0.037 A 
ATOM      7  C   LIG d   1       4.958   0.464  -9.462  0.00  0.00     0.008 A 
ATOM      8  C   LIG d   1       2.856   1.770  -8.219  0.00  0.00    -0.060 A 
ATOM      9  H   LIG d   1       3.190   0.463  -6.566  0.00  0.00     0.064 H 
ATOM     10  C   LIG d   1       3.250   2.146  -9.494  0.00  0.00    -0.061 A 
ATOM     11  H   LIG d   1       2.036   2.283  -7.738  0.00  0.00     0.062 H 
ATOM     12  C   LIG d   1       4.295   1.499 -10.118  0.00  0.00    -0.052 A 
ATOM     13  H   LIG d   1       2.733   2.947 -10.003  0.00  0.00     0.062 H 
ATOM     14  H   LIG d   1       4.599   1.794 -11.111  0.00  0.00     0.062 H 
ATOM     15  C   LIG d   1       6.084  -0.413  -9.830  0.00  0.00     0.008 A 
ATOM     16  C   LIG d   1       6.296  -1.268  -8.738  0.00  0.00     0.052 A 
ATOM     17  C   LIG d   1       6.887  -0.519 -10.964  0.00  0.00    -0.052 A 
ATOM     18  C   LIG d   1       7.311  -2.217  -8.803  0.00  0.00    -0.037 A 
ATOM     19  C   LIG d   1       8.097  -2.312  -9.931  0.00  0.00    -0.060 A 
ATOM     20  H   LIG d   1       7.483  -2.881  -7.968  0.00  0.00     0.064 H 
ATOM     21  C   LIG d   1       7.887  -1.465 -11.009  0.00  0.00    -0.061 A 
ATOM     22  H   LIG d   1       8.884  -3.050  -9.975  0.00  0.00     0.062 H 
ATOM     23  H   LIG d   1       8.509  -1.549 -11.888  0.00  0.00     0.062 H 
ATOM     24  H   LIG d   1       6.725   0.138 -11.806  0.00  0.00     0.062 H 
ENDBRANCH   1   4
BRANCH   1  25
ATOM     25  N   LIG d   1       5.682  -0.706  -5.396  0.00  0.00    -0.321 N 
ATOM     26  C   LIG d   1       4.872  -0.291  -4.353  0.00  0.00     0.052 A 
ATOM     27  C   LIG d   1       5.610   0.583  -3.541  0.00  0.00     0.008 A 
ATOM     28  C   LIG d   1       3.554  -0.585  -4.017  0.00  0.00    -0.037 A 
ATOM     29  C   LIG d   1       6.946   0.697  -4.153  0.00  0.00     0.008 A 
ATOM     30  C   LIG d   1       5.023   1.146  -2.410  0.00  0.00    -0.052 A 
ATOM     31  C   LIG d   1       6.931  -0.121  -5.294  0.00  0.00     0.052 A 
ATOM     32  C   LIG d   1       8.097   1.406  -3.819  0.00  0.00    -0.052 A 
ATOM     33  C   LIG d   1       8.075  -0.210  -6.081  0.00  0.00    -0.037 A 
ATOM     34  C   LIG d   1       9.207   0.498  -5.739  0.00  0.00    -0.060 A 
ATOM     35  H   LIG d   1       8.076  -0.837  -6.962  0.00  0.00     0.064 H 
ATOM     36  C   LIG d   1       9.219   1.305  -4.611  0.00  0.00    -0.061 A 
ATOM     37  H   LIG d   1      10.092   0.424  -6.354  0.00  0.00     0.062 H 
ATOM     38  H   LIG d   1      10.112   1.855  -4.353  0.00  0.00     0.062 H 
ATOM     39  H   LIG d   1       8.108   2.036  -2.940  0.00  0.00     0.062 H 
ATOM     40  C   LIG d   1       3.714   0.850  -2.098  0.00  0.00    -0.061 A 
ATOM     41  H   LIG d   1       5.589   1.822  -1.786  0.00  0.00     0.062 H 
ATOM     42  C   LIG d   1       2.984  -0.016  -2.898  0.00  0.00    -0.060 A 
ATOM     43  H   LIG d   1       3.257   1.289  -1.224  0.00  0.00     0.062 H 
ATOM     44  H   LIG d   1       1.962  -0.247  -2.642  0.00  0.00     0.062 H 
ATOM     45  H   LIG d   1       2.977  -1.258  -4.633  0.00  0.00     0.064 H 
ENDBRANCH   1  25
TORSDOF 2
ENDMDL
MODEL 5
REMARK VINA RESULT:      -7.5      0.023      3.074
REMARK  2 active torsions:
REMARK  status: ('A' for Active; 'I' for Inactive)
REMARK    1  A    between atoms: N_13  and  C_14 
REMARK    2  A    between atoms: C_14  and  N_15 
ROOT
ATOM      1  C   LIG d   1       5.284  -1.625  -6.473  0.00  0.00     0.101 C 
ATOM      2  H   LIG d   1       5.939  -2.497  -6.466  0.00  0.00     0.073 H 
ATOM      3  H   LIG d   1       4.255  -1.942  -6.306  0.00  0.00     0.073 H 
ENDROOT
BRANCH   1   4
ATOM      4  N   LIG d   1       5.689  -0.702  -5.410  0.00  0.00    -0.321 N 
ATOM      5  C   LIG d   1       6.939  -0.116  -5.306  0.00  0.00     0.052 A 
ATOM      6  C   LIG d   1       8.084  -0.206  -6.091  0.00  0.00    -0.037 A 
ATOM      7  C   LIG d   1       6.949   0.701  -4.165  0.00  0.00     0.008 A 
ATOM      8  C   LIG d   1       9.215   0.502  -5.746  0.00  0.00    -0.060 A 
ATOM      9  H   LIG d   1       8.087  -0.832  -6.971  0.00  0.00     0.064 H 
ATOM     10  C   LIG d   1       9.224   1.310  -4.619  0.00  0.00    -0.061 A 
ATOM     11  H   LIG d   1      10.101   0.428  -6.359  0.00  0.00     0.062 H 
ATOM     12  C   LIG d   1       8.099   1.412  -3.829  0.00  0.00    -0.052 A 
ATOM     13  H   LIG d   1      10.117   1.858  -4.357  0.00  0.00     0.062 H 
ATOM     14  H   LIG d   1       8.109   2.042  -2.951  0.00  0.00     0.062 H 
ATOM     15  C   LIG d   1       5.612   0.588  -3.557  0.00  0.00     0.008 A 
ATOM     16  C   LIG d   1       4.878  -0.291  -4.368  0.00  0.00     0.052 A 
ATOM     17  C   LIG d   1       5.021   1.151  -2.427  0.00  0.00    -0.052 A 
ATOM     18  C   LIG d   1       3.562  -0.590  -4.032  0.00  0.00    -0.037 A 
ATOM     19  C   LIG d   1       2.990  -0.027  -2.912  0.00  0.00    -0.060 A 
ATOM     20  H   LIG d   1       2.987  -1.266  -4.649  0.00  0.00     0.064 H 
ATOM     21  C   LIG d   1       3.716   0.842  -2.111  0.00  0.00    -0.061 A 
ATOM     22  H   LIG d   1       1.968  -0.262  -2.656  0.00  0.00     0.062 H 
ATOM     23  H   LIG d   1       3.257   1.277  -1.235  0.00  0.00     0.062 H 
ATOM     24  H   LIG d   1       5.584   1.826  -1.801  0.00  0.00     0.062 H 
ENDBRANCH   1   4
BRANCH   1  25
ATOM     25  N   LIG d   1       5.383  -0.950  -7.770  0.00  0.00    -0.321 N 
ATOM     26  C   LIG d   1       4.568   0.088  -8.185  0.00  0.00     0.052 A 
ATOM     27  C   LIG d   1       4.965   0.475  -9.474  0.00  0.00     0.008 A 
ATOM     28  C   LIG d   1       3.509   0.751  -7.571  0.00  0.00    -0.037 A 
ATOM     29  C   LIG d   1       6.088  -0.404  -9.846  0.00  0.00     0.008 A 
ATOM     30  C   LIG d   1       4.304   1.513 -10.125  0.00  0.00    -0.052 A 
ATOM     31  C   LIG d   1       6.301  -1.263  -8.756  0.00  0.00     0.052 A 
ATOM     32  C   LIG d   1       6.887  -0.510 -10.982  0.00  0.00    -0.052 A 
ATOM     33  C   LIG d   1       7.313  -2.214  -8.827  0.00  0.00    -0.037 A 
ATOM     34  C   LIG d   1       8.096  -2.308  -9.957  0.00  0.00    -0.060 A 
ATOM     35  H   LIG d   1       7.487  -2.881  -7.994  0.00  0.00     0.064 H 
ATOM     36  C   LIG d   1       7.884  -1.459 -11.033  0.00  0.00    -0.061 A 
ATOM     37  H   LIG d   1       8.880  -3.049 -10.006  0.00  0.00     0.062 H 
ATOM     38  H   LIG d   1       8.504  -1.542 -11.914  0.00  0.00     0.062 H 
ATOM     39  H   LIG d   1       6.724   0.151 -11.822  0.00  0.00     0.062 H 
ATOM     40  C   LIG d   1       3.252   2.152  -9.504  0.00  0.00    -0.061 A 
ATOM     41  H   LIG d   1       4.607   1.809 -11.119  0.00  0.00     0.062 H 
ATOM     42  C   LIG d   1       2.860   1.773  -8.229  0.00  0.00    -0.060 A 
ATOM     43  H   LIG d   1       2.736   2.953 -10.010  0.00  0.00     0.062 H 
ATOM     44  H   LIG d   1       2.040   2.284  -7.749  0.00  0.00     0.062 H 
ATOM     45  H   LIG d   1       3.196   0.465  -6.578  0.00  0.00     0.064 H 
ENDBRANCH   1  25
TORSDOF 2
ENDMDL
MODEL 6
REMARK VINA RESULT:      -7.5      0.035      3.074
REMARK  2 active torsions:
REMARK  status: ('A' for Active; 'I' for Inactive)
REMARK    1  A    between atoms: N_13  and  C_14 
REMARK    2  A    between atoms: C_14  and  N_15 
ROOT
ATOM      1  C   LIG d   1       5.332  -1.628  -6.493  0.00  0.00     0.101 C 
ATOM      2  H   LIG d   1       6.004  -2.487  -6.487  0.00  0.00     0.073 H 
ATOM      3  H   LIG d   1       4.309  -1.966  -6.332  0.00  0.00     0.073 H 
ENDROOT
BRANCH   1   4
ATOM      4  N   LIG d   1       5.714  -0.702  -5.424  0.00  0.00    -0.321 N 
ATOM      5  C   LIG d   1       4.885  -0.304  -4.389  0.00  0.00     0.052 A 
ATOM      6  C   LIG d   1       3.568  -0.622  -4.069  0.00  0.00    -0.037 A 
ATOM      7  C   LIG d   1       5.598   0.583  -3.568  0.00  0.00     0.008 A 
ATOM      8  C   LIG d   1       2.977  -0.067  -2.955  0.00  0.00    -0.060 A 
ATOM      9  H   LIG d   1       3.010  -1.303  -4.694  0.00  0.00     0.064 H 
ATOM     10  C   LIG d   1       3.682   0.807  -2.143  0.00  0.00    -0.061 A 
ATOM     11  H   LIG d   1       1.955  -0.318  -2.711  0.00  0.00     0.062 H 
ATOM     12  C   LIG d   1       4.988   1.135  -2.445  0.00  0.00    -0.052 A 
ATOM     13  H   LIG d   1       3.207   1.239  -1.274  0.00  0.00     0.062 H 
ATOM     14  H   LIG d   1       5.534   1.817  -1.811  0.00  0.00     0.062 H 
ATOM     15  C   LIG d   1       6.940   0.715  -4.161  0.00  0.00     0.008 A 
ATOM     16  C   LIG d   1       6.954  -0.100  -5.304  0.00  0.00     0.052 A 
ATOM     17  C   LIG d   1       8.078   1.440  -3.810  0.00  0.00    -0.052 A 
ATOM     18  C   LIG d   1       8.109  -0.173  -6.076  0.00  0.00    -0.037 A 
ATOM     19  C   LIG d   1       9.226   0.550  -5.717  0.00  0.00    -0.060 A 
ATOM     20  H   LIG d   1       8.130  -0.797  -6.957  0.00  0.00     0.064 H 
ATOM     21  C   LIG d   1       9.212   1.354  -4.587  0.00  0.00    -0.061 A 
ATOM     22  H   LIG d   1      10.119   0.488  -6.319  0.00  0.00     0.062 H 
ATOM     23  H   LIG d   1      10.093   1.916  -4.316  0.00  0.00     0.062 H 
ATOM     24  H   LIG d   1       8.069   2.068  -2.932  0.00  0.00     0.062 H 
ENDBRANCH   1   4
BRANCH   1  25
ATOM     25  N   LIG d   1       5.424  -0.945  -7.786  0.00  0.00    -0.321 N 
ATOM     26  C   LIG d   1       6.352  -1.236  -8.770  0.00  0.00     0.052 A 
ATOM     27  C   LIG d   1       6.126  -0.380  -9.858  0.00  0.00     0.008 A 
ATOM     28  C   LIG d   1       7.384  -2.168  -8.838  0.00  0.00    -0.037 A 
ATOM     29  C   LIG d   1       4.989   0.481  -9.484  0.00  0.00     0.008 A 
ATOM     30  C   LIG d   1       6.928  -0.469 -10.993  0.00  0.00    -0.052 A 
ATOM     31  C   LIG d   1       4.598   0.086  -8.196  0.00  0.00     0.052 A 
ATOM     32  C   LIG d   1       4.313   1.510 -10.133  0.00  0.00    -0.052 A 
ATOM     33  C   LIG d   1       3.533   0.735  -7.580  0.00  0.00    -0.037 A 
ATOM     34  C   LIG d   1       2.873   1.753  -8.233  0.00  0.00    -0.060 A 
ATOM     35  H   LIG d   1       3.222   0.440  -6.588  0.00  0.00     0.064 H 
ATOM     36  C   LIG d   1       3.261   2.141  -9.507  0.00  0.00    -0.061 A 
ATOM     37  H   LIG d   1       2.046   2.253  -7.750  0.00  0.00     0.062 H 
ATOM     38  H   LIG d   1       2.736   2.940 -10.009  0.00  0.00     0.062 H 
ATOM     39  H   LIG d   1       4.614   1.815 -11.126  0.00  0.00     0.062 H 
ATOM     40  C   LIG d   1       7.951  -1.392 -11.039  0.00  0.00    -0.061 A 
ATOM     41  H   LIG d   1       6.757   0.192 -11.831  0.00  0.00     0.062 H 
ATOM     42  C   LIG d   1       8.173  -2.241  -9.966  0.00  0.00    -0.060 A 
ATOM     43  H   LIG d   1       8.575  -1.459 -11.917  0.00  0.00     0.062 H 
ATOM     44  H   LIG d   1       8.972  -2.966 -10.014  0.00  0.00     0.062 H 
ATOM     45  H   LIG d   1       7.566  -2.834  -8.008  0.00  0.00     0.064 H 
ENDBRANCH   1  25
TORSDOF 2
ENDMDL
MODEL 7
REMARK VINA RESULT:      -7.5      1.839      5.975
REMARK  2 active torsions:
REMARK  status: ('A' for Active; 'I' for Inactive)
REMARK    1  A    between atoms: N_13  and  C_14 
REMARK    2  A    between atoms: C_14  and  N_15 
ROOT
ATOM      1  C   LIG d   1       4.488  -1.969  -6.969  0.00  0.00     0.101 C 
ATOM      2  H   LIG d   1       3.401  -1.893  -6.928  0.00  0.00     0.073 H 
ATOM      3  H   LIG d   1       4.770  -2.949  -7.352  0.00  0.00     0.073 H 
ENDROOT
BRANCH   1   4
ATOM      4  N   LIG d   1       5.017  -0.929  -7.855  0.00  0.00    -0.321 N 
ATOM      5  C   LIG d   1       6.241  -0.986  -8.499  0.00  0.00     0.052 A 
ATOM      6  C   LIG d   1       7.249  -1.945  -8.510  0.00  0.00    -0.037 A 
ATOM      7  C   LIG d   1       6.398   0.186  -9.254  0.00  0.00     0.008 A 
ATOM      8  C   LIG d   1       8.389  -1.739  -9.257  0.00  0.00    -0.060 A 
ATOM      9  H   LIG d   1       7.139  -2.850  -7.932  0.00  0.00     0.064 H 
ATOM     10  C   LIG d   1       8.542  -0.581 -10.004  0.00  0.00    -0.061 A 
ATOM     11  H   LIG d   1       9.168  -2.486  -9.262  0.00  0.00     0.062 H 
ATOM     12  C   LIG d   1       7.554   0.381 -10.005  0.00  0.00    -0.052 A 
ATOM     13  H   LIG d   1       9.441  -0.429 -10.583  0.00  0.00     0.062 H 
ATOM     14  H   LIG d   1       7.677   1.282 -10.587  0.00  0.00     0.062 H 
ATOM     15  C   LIG d   1       5.181   0.989  -9.039  0.00  0.00     0.008 A 
ATOM     16  C   LIG d   1       4.365   0.251  -8.167  0.00  0.00     0.052 A 
ATOM     17  C   LIG d   1       4.753   2.229  -9.510  0.00  0.00    -0.052 A 
ATOM     18  C   LIG d   1       3.134   0.770  -7.782  0.00  0.00    -0.037 A 
ATOM     19  C   LIG d   1       2.724   1.998  -8.256  0.00  0.00    -0.060 A 
ATOM     20  H   LIG d   1       2.498   0.211  -7.111  0.00  0.00     0.064 H 
ATOM     21  C   LIG d   1       3.530   2.726  -9.118  0.00  0.00    -0.061 A 
ATOM     22  H   LIG d   1       1.766   2.396  -7.954  0.00  0.00     0.062 H 
ATOM     23  H   LIG d   1       3.198   3.687  -9.482  0.00  0.00     0.062 H 
ATOM     24  H   LIG d   1       5.379   2.798 -10.180  0.00  0.00     0.062 H 
ENDBRANCH   1   4
BRANCH   1  25
ATOM     25  N   LIG d   1       5.041  -1.791  -5.624  0.00  0.00    -0.321 N 
ATOM     26  C   LIG d   1       4.508  -0.963  -4.652  0.00  0.00     0.052 A 
ATOM     27  C   LIG d   1       5.305  -1.060  -3.502  0.00  0.00     0.008 A 
ATOM     28  C   LIG d   1       3.397  -0.124  -4.643  0.00  0.00    -0.037 A 
ATOM     29  C   LIG d   1       6.389  -2.006  -3.823  0.00  0.00     0.008 A 
ATOM     30  C   LIG d   1       4.981  -0.323  -2.365  0.00  0.00    -0.052 A 
ATOM     31  C   LIG d   1       6.174  -2.424  -5.145  0.00  0.00     0.052 A 
ATOM     32  C   LIG d   1       7.475  -2.499  -3.104  0.00  0.00    -0.052 A 
ATOM     33  C   LIG d   1       7.056  -3.332  -5.723  0.00  0.00    -0.037 A 
ATOM     34  C   LIG d   1       8.126  -3.811  -5.000  0.00  0.00    -0.060 A 
ATOM     35  H   LIG d   1       6.901  -3.662  -6.741  0.00  0.00     0.064 H 
ATOM     36  C   LIG d   1       8.337  -3.397  -3.694  0.00  0.00    -0.061 A 
ATOM     37  H   LIG d   1       8.807  -4.516  -5.455  0.00  0.00     0.062 H 
ATOM     38  H   LIG d   1       9.179  -3.780  -3.137  0.00  0.00     0.062 H 
ATOM     39  H   LIG d   1       7.641  -2.177  -2.085  0.00  0.00     0.062 H 
ATOM     40  C   LIG d   1       3.883   0.509  -2.378  0.00  0.00    -0.061 A 
ATOM     41  H   LIG d   1       5.597  -0.394  -1.480  0.00  0.00     0.062 H 
ATOM     42  C   LIG d   1       3.091   0.603  -3.513  0.00  0.00    -0.060 A 
ATOM     43  H   LIG d   1       3.633   1.084  -1.499  0.00  0.00     0.062 H 
ATOM     44  H   LIG d   1       2.229   1.252  -3.511  0.00  0.00     0.062 H 
ATOM     45  H   LIG d   1       2.774  -0.044  -5.521  0.00  0.00     0.064 H 
ENDBRANCH   1  25
TORSDOF 2
ENDMDL
MODEL 8
REMARK VINA RESULT:      -7.5      0.035      4.347
REMARK  2 active torsions:
REMARK  status: ('A' for Active; 'I' for Inactive)
REMARK    1  A    between atoms: N_13  and  C_14 
REMARK    2  A    between atoms: C_14  and  N_15 
ROOT
ATOM      1  C   LIG d   1       5.279  -1.629  -6.461  0.00  0.00     0.101 C 
ATOM      2  H   LIG d   1       5.933  -2.501  -6.452  0.00  0.00     0.073 H 
ATOM      3  H   LIG d   1       4.249  -1.945  -6.292  0.00  0.00     0.073 H 
ENDROOT
BRANCH   1   4
ATOM      4  N   LIG d   1       5.685  -0.704  -5.399  0.00  0.00    -0.321 N 
ATOM      5  C   LIG d   1       6.935  -0.120  -5.296  0.00  0.00     0.052 A 
ATOM      6  C   LIG d   1       8.081  -0.213  -6.081  0.00  0.00    -0.037 A 
ATOM      7  C   LIG d   1       6.947   0.699  -4.156  0.00  0.00     0.008 A 
ATOM      8  C   LIG d   1       9.212   0.494  -5.737  0.00  0.00    -0.060 A 
ATOM      9  H   LIG d   1       8.083  -0.841  -6.960  0.00  0.00     0.064 H 
ATOM     10  C   LIG d   1       9.222   1.304  -4.612  0.00  0.00    -0.061 A 
ATOM     11  H   LIG d   1      10.098   0.418  -6.350  0.00  0.00     0.062 H 
ATOM     12  C   LIG d   1       8.097   1.409  -3.821  0.00  0.00    -0.052 A 
ATOM     13  H   LIG d   1      10.116   1.851  -4.350  0.00  0.00     0.062 H 
ATOM     14  H   LIG d   1       8.109   2.040  -2.945  0.00  0.00     0.062 H 
ATOM     15  C   LIG d   1       5.609   0.588  -3.548  0.00  0.00     0.008 A 
ATOM     16  C   LIG d   1       4.874  -0.291  -4.358  0.00  0.00     0.052 A 
ATOM     17  C   LIG d   1       5.019   1.155  -2.419  0.00  0.00    -0.052 A 
ATOM     18  C   LIG d   1       3.558  -0.588  -4.021  0.00  0.00    -0.037 A 
ATOM     19  C   LIG d   1       2.986  -0.021  -2.902  0.00  0.00    -0.060 A 
ATOM     20  H   LIG d   1       2.982  -1.263  -4.637  0.00  0.00     0.064 H 
ATOM     21  C   LIG d   1       3.714   0.848  -2.103  0.00  0.00    -0.061 A 
ATOM     22  H   LIG d   1       1.964  -0.255  -2.646  0.00  0.00     0.062 H 
ATOM     23  H   LIG d   1       3.256   1.285  -1.228  0.00  0.00     0.062 H 
ATOM     24  H   LIG d   1       5.584   1.830  -1.795  0.00  0.00     0.062 H 
ENDBRANCH   1   4
BRANCH   1  25
ATOM     25  N   LIG d   1       5.378  -0.956  -7.758  0.00  0.00    -0.321 N 
ATOM     26  C   LIG d   1       6.301  -1.266  -8.741  0.00  0.00     0.052 A 
ATOM     27  C   LIG d   1       6.085  -0.415  -9.835  0.00  0.00     0.008 A 
ATOM     28  C   LIG d   1       7.320  -2.212  -8.804  0.00  0.00    -0.037 A 
ATOM     29  C   LIG d   1       4.960   0.463  -9.466  0.00  0.00     0.008 A 
ATOM     30  C   LIG d   1       6.884  -0.522 -10.971  0.00  0.00    -0.052 A 
ATOM     31  C   LIG d   1       4.565   0.083  -8.174  0.00  0.00     0.052 A 
ATOM     32  C   LIG d   1       4.296   1.497 -10.121  0.00  0.00    -0.052 A 
ATOM     33  C   LIG d   1       3.509   0.749  -7.562  0.00  0.00    -0.037 A 
ATOM     34  C   LIG d   1       2.861   1.772  -8.221  0.00  0.00    -0.060 A 
ATOM     35  H   LIG d   1       3.195   0.465  -6.567  0.00  0.00     0.064 H 
ATOM     36  C   LIG d   1       3.253   2.146  -9.498  0.00  0.00    -0.061 A 
ATOM     37  H   LIG d   1       2.042   2.285  -7.741  0.00  0.00     0.062 H 
ATOM     38  H   LIG d   1       2.738   2.948 -10.005  0.00  0.00     0.062 H 
ATOM     39  H   LIG d   1       4.600   1.791 -11.116  0.00  0.00     0.062 H 
ATOM     40  C   LIG d   1       7.894  -1.459 -11.012  0.00  0.00    -0.061 A 
ATOM     41  H   LIG d   1       6.721   0.136 -11.812  0.00  0.00     0.062 H 
ATOM     42  C   LIG d   1       8.107  -2.303  -9.933  0.00  0.00    -0.060 A 
ATOM     43  H   LIG d   1       8.517  -1.540 -11.889  0.00  0.00     0.062 H 
ATOM     44  H   LIG d   1       8.896  -3.038  -9.976  0.00  0.00     0.062 H 
ATOM     45  H   LIG d   1       7.495  -2.874  -7.970  0.00  0.00     0.064 H 
ENDBRANCH   1  25
TORSDOF 2
ENDMDL
MODEL 9
REMARK VINA RESULT:      -7.4      0.142      6.120
REMARK  2 active torsions:
REMARK  status: ('A' for Active; 'I' for Inactive)
REMARK    1  A    between atoms: N_13  and  C_14 
REMARK    2  A    between atoms: C_14  and  N_15 
ROOT
ATOM      1  C   LIG d   1       5.262  -1.637  -6.414  0.00  0.00     0.101 C 
ATOM      2  H   LIG d   1       4.238  -1.969  -6.237  0.00  0.00     0.073 H 
ATOM      3  H   LIG d   1       5.927  -2.500  -6.425  0.00  0.00     0.073 H 
ENDROOT
BRANCH   1   4
ATOM      4  N   LIG d   1       5.335  -0.947  -7.704  0.00  0.00    -0.321 N 
ATOM      5  C   LIG d   1       4.508   0.093  -8.093  0.00  0.00     0.052 A 
ATOM      6  C   LIG d   1       3.458   0.744  -7.453  0.00  0.00    -0.037 A 
ATOM      7  C   LIG d   1       4.879   0.492  -9.386  0.00  0.00     0.008 A 
ATOM      8  C   LIG d   1       2.793   1.770  -8.088  0.00  0.00    -0.060 A 
ATOM      9  H   LIG d   1       3.164   0.444  -6.458  0.00  0.00     0.064 H 
ATOM     10  C   LIG d   1       3.161   2.165  -9.365  0.00  0.00    -0.061 A 
ATOM     11  H   LIG d   1       1.979   2.272  -7.586  0.00  0.00     0.062 H 
ATOM     12  C   LIG d   1       4.199   1.531 -10.016  0.00  0.00    -0.052 A 
ATOM     13  H   LIG d   1       2.630   2.968  -9.855  0.00  0.00     0.062 H 
ATOM     14  H   LIG d   1       4.482   1.841 -11.011  0.00  0.00     0.062 H 
ATOM     15  C   LIG d   1       6.003  -0.373  -9.785  0.00  0.00     0.008 A 
ATOM     16  C   LIG d   1       6.240  -1.241  -8.708  0.00  0.00     0.052 A 
ATOM     17  C   LIG d   1       6.786  -0.460 -10.935  0.00  0.00    -0.052 A 
ATOM     18  C   LIG d   1       7.259  -2.183  -8.804  0.00  0.00    -0.037 A 
ATOM     19  C   LIG d   1       8.025  -2.259  -9.947  0.00  0.00    -0.060 A 
ATOM     20  H   LIG d   1       7.450  -2.856  -7.981  0.00  0.00     0.064 H 
ATOM     21  C   LIG d   1       7.790  -1.400 -11.010  0.00  0.00    -0.061 A 
ATOM     22  H   LIG d   1       8.815  -2.992 -10.015  0.00  0.00     0.062 H 
ATOM     23  H   LIG d   1       8.397  -1.469 -11.902  0.00  0.00     0.062 H 
ATOM     24  H   LIG d   1       6.604   0.206 -11.765  0.00  0.00     0.062 H 
ENDBRANCH   1   4
BRANCH   1  25
ATOM     25  N   LIG d   1       5.669  -0.720  -5.347  0.00  0.00    -0.321 N 
ATOM     26  C   LIG d   1       6.898  -0.087  -5.274  0.00  0.00     0.052 A 
ATOM     27  C   LIG d   1       6.918   0.710  -4.120  0.00  0.00     0.008 A 
ATOM     28  C   LIG d   1       8.017  -0.116  -6.102  0.00  0.00    -0.037 A 
ATOM     29  C   LIG d   1       5.611   0.526  -3.462  0.00  0.00     0.008 A 
ATOM     30  C   LIG d   1       8.048   1.463  -3.812  0.00  0.00    -0.052 A 
ATOM     31  C   LIG d   1       4.884  -0.366  -4.265  0.00  0.00     0.052 A 
ATOM     32  C   LIG d   1       5.043   1.040  -2.299  0.00  0.00    -0.052 A 
ATOM     33  C   LIG d   1       3.596  -0.728  -3.884  0.00  0.00    -0.037 A 
ATOM     34  C   LIG d   1       3.046  -0.213  -2.730  0.00  0.00    -0.060 A 
ATOM     35  H   LIG d   1       3.025  -1.415  -4.493  0.00  0.00     0.064 H 
ATOM     36  C   LIG d   1       3.767   0.669  -1.938  0.00  0.00    -0.061 A 
ATOM     37  H   LIG d   1       2.045  -0.498  -2.439  0.00  0.00     0.062 H 
ATOM     38  H   LIG d   1       3.325   1.066  -1.037  0.00  0.00     0.062 H 
ATOM     39  H   LIG d   1       5.603   1.727  -1.681  0.00  0.00     0.062 H 
ATOM     40  C   LIG d   1       9.150   1.415  -4.638  0.00  0.00    -0.061 A 
ATOM     41  H   LIG d   1       8.066   2.074  -2.921  0.00  0.00     0.062 H 
ATOM     42  C   LIG d   1       9.131   0.630  -5.782  0.00  0.00    -0.060 A 
ATOM     43  H   LIG d   1      10.028   1.994  -4.398  0.00  0.00     0.062 H 
ATOM     44  H   LIG d   1       9.996   0.604  -6.426  0.00  0.00     0.062 H 
ATOM     45  H   LIG d   1       8.013  -0.723  -6.994  0.00  0.00     0.064 H 
ENDBRANCH   1  25
TORSDOF 2
ENDMDL
MODEL 10
REMARK VINA RESULT:      -7.3      1.995      5.176
REMARK  2 active torsions:
REMARK  status: ('A' for Active; 'I' for Inactive)
REMARK    1  A    between atoms: N_13  and  C_14 
REMARK    2  A    between atoms: C_14  and  N_15 
ROOT
ATOM      1  C   LIG d   1       5.036  -1.745  -7.111  0.00  0.00     0.101 C 
ATOM      2  H   LIG d   1       3.957  -1.876  -7.197  0.00  0.00     0.073 H 
ATOM      3  H   LIG d   1       5.543  -2.580  -7.593  0.00  0.00     0.073 H 
ENDROOT
BRANCH   1   4
ATOM      4  N   LIG d   1       5.429  -0.493  -7.762  0.00  0.00    -0.321 N 
ATOM      5  C   LIG d   1       4.547   0.473  -8.217  0.00  0.00     0.052 A 
ATOM      6  C   LIG d   1       3.158   0.554  -8.203  0.00  0.00    -0.037 A 
ATOM      7  C   LIG d   1       5.292   1.520  -8.779  0.00  0.00     0.008 A 
ATOM      8  C   LIG d   1       2.526   1.655  -8.737  0.00  0.00    -0.060 A 
ATOM      9  H   LIG d   1       2.576  -0.248  -7.773  0.00  0.00     0.064 H 
ATOM     10  C   LIG d   1       3.263   2.691  -9.291  0.00  0.00    -0.061 A 
ATOM     11  H   LIG d   1       1.448   1.713  -8.723  0.00  0.00     0.062 H 
ATOM     12  C   LIG d   1       4.640   2.628  -9.315  0.00  0.00    -0.052 A 
ATOM     13  H   LIG d   1       2.756   3.548  -9.710  0.00  0.00     0.062 H 
ATOM     14  H   LIG d   1       5.211   3.437  -9.748  0.00  0.00     0.062 H 
ATOM     15  C   LIG d   1       6.711   1.145  -8.645  0.00  0.00     0.008 A 
ATOM     16  C   LIG d   1       6.734  -0.106  -8.010  0.00  0.00     0.052 A 
ATOM     17  C   LIG d   1       7.906   1.765  -9.007  0.00  0.00    -0.052 A 
ATOM     18  C   LIG d   1       7.957  -0.716  -7.750  0.00  0.00    -0.037 A 
ATOM     19  C   LIG d   1       9.131  -0.092  -8.113  0.00  0.00    -0.060 A 
ATOM     20  H   LIG d   1       7.986  -1.680  -7.262  0.00  0.00     0.064 H 
ATOM     21  C   LIG d   1       9.106   1.145  -8.739  0.00  0.00    -0.061 A 
ATOM     22  H   LIG d   1      10.077  -0.570  -7.908  0.00  0.00     0.062 H 
ATOM     23  H   LIG d   1      10.033   1.624  -9.020  0.00  0.00     0.062 H 
ATOM     24  H   LIG d   1       7.890   2.727  -9.496  0.00  0.00     0.062 H 
ENDBRANCH   1   4
BRANCH   1  25
ATOM     25  N   LIG d   1       5.411  -1.697  -5.695  0.00  0.00    -0.321 N 
ATOM     26  C   LIG d   1       4.741  -0.975  -4.724  0.00  0.00     0.052 A 
ATOM     27  C   LIG d   1       5.389  -1.178  -3.496  0.00  0.00     0.008 A 
ATOM     28  C   LIG d   1       3.620  -0.151  -4.775  0.00  0.00    -0.037 A 
ATOM     29  C   LIG d   1       6.525  -2.077  -3.766  0.00  0.00     0.008 A 
ATOM     30  C   LIG d   1       4.908  -0.561  -2.344  0.00  0.00    -0.052 A 
ATOM     31  C   LIG d   1       6.488  -2.364  -5.140  0.00  0.00     0.052 A 
ATOM     32  C   LIG d   1       7.522  -2.629  -2.966  0.00  0.00    -0.052 A 
ATOM     33  C   LIG d   1       7.455  -3.201  -5.686  0.00  0.00    -0.037 A 
ATOM     34  C   LIG d   1       8.436  -3.740  -4.882  0.00  0.00    -0.060 A 
ATOM     35  H   LIG d   1       7.437  -3.430  -6.743  0.00  0.00     0.064 H 
ATOM     36  C   LIG d   1       8.471  -3.456  -3.526  0.00  0.00    -0.061 A 
ATOM     37  H   LIG d   1       9.184  -4.390  -5.313  0.00  0.00     0.062 H 
ATOM     38  H   LIG d   1       9.244  -3.885  -2.906  0.00  0.00     0.062 H 
ATOM     39  H   LIG d   1       7.551  -2.409  -1.908  0.00  0.00     0.062 H 
ATOM     40  C   LIG d   1       3.802   0.258  -2.415  0.00  0.00    -0.061 A 
ATOM     41  H   LIG d   1       5.409  -0.713  -1.398  0.00  0.00     0.062 H 
ATOM     42  C   LIG d   1       3.158   0.457  -3.627  0.00  0.00    -0.060 A 
ATOM     43  H   LIG d   1       3.431   0.740  -1.524  0.00  0.00     0.062 H 
ATOM     44  H   LIG d   1       2.289   1.095  -3.672  0.00  0.00     0.062 H 
ATOM     45  H   LIG d   1       3.111   0.011  -5.713  0.00  0.00     0.064 H 
ENDBRANCH   1  25
TORSDOF 2
ENDMDL
