MODEL 1
REMARK VINA RESULT:      -5.6      0.000      0.000
REMARK  15 active torsions:
REMARK  status: ('A' for Active; 'I' for Inactive)
REMARK    1  A    between atoms: C_1  and  C_2 
REMARK    2  A    between atoms: C_2  and  C_9 
REMARK    3  A    between atoms: C_3  and  C_4 
REMARK    4  A    between atoms: C_4  and  O_5 
REMARK    5  A    between atoms: O_5  and  C_6 
REMARK    6  A    between atoms: C_6  and  C_8 
REMARK    7  A    between atoms: C_9  and  O_11 
REMARK    8  A    between atoms: O_11  and  C_12 
REMARK    9  A    between atoms: C_15  and  C_36 
REMARK   10  A    between atoms: C_16  and  O_35 
REMARK   11  A    between atoms: C_24  and  O_34 
REMARK   12  A    between atoms: C_26  and  C_28 
REMARK   13  A    between atoms: C_28  and  C_30 
REMARK   14  A    between atoms: C_30  and  O_32 
REMARK   15  A    between atoms: O_32  and  C_33 
ROOT
ATOM      1  C   LIG d   1       7.262  -2.130  -5.462  0.00  0.00     0.113 C 
ATOM      2  H   LIG d   1       7.871  -2.959  -5.820  0.00  0.00     0.074 H 
ATOM      3  C   LIG d   1       6.407  -2.598  -4.280  0.00  0.00    -0.006 C 
ATOM      4  C   LIG d   1       5.566  -1.425  -3.780  0.00  0.00     0.009 C 
ATOM      5  C   LIG d   1       4.671  -1.855  -2.619  0.00  0.00     0.062 C 
ATOM      6  H   LIG d   1       5.291  -2.145  -1.771  0.00  0.00     0.060 H 
ATOM      7  C   LIG d   1       3.766  -0.689  -2.213  0.00  0.00    -0.020 C 
ATOM      8  C   LIG d   1       4.619   0.480  -1.711  0.00  0.00     0.009 C 
ATOM      9  C   LIG d   1       5.651   0.822  -2.764  0.00  0.00     0.140 C 
ATOM     10  O   LIG d   1       5.793   1.955  -3.156  0.00  0.00    -0.297 OA
ATOM     11  C   LIG d   1       6.499  -0.304  -3.309  0.00  0.00     0.052 C 
ATOM     12  H   LIG d   1       7.155  -0.680  -2.524  0.00  0.00     0.041 H 
ATOM     13  C   LIG d   1       7.332   0.181  -4.495  0.00  0.00     0.076 C 
ATOM     14  H   LIG d   1       7.989   0.989  -4.173  0.00  0.00     0.061 H 
ATOM     15  C   LIG d   1       8.174  -0.985  -5.020  0.00  0.00     0.054 C 
ATOM     16  H   LIG d   1       8.839  -1.335  -4.231  0.00  0.00     0.041 H 
ATOM     17  H   LIG d   1       5.751  -3.406  -4.602  0.00  0.00     0.031 H 
ATOM     18  H   LIG d   1       7.055  -2.951  -3.478  0.00  0.00     0.031 H 
ATOM     19  H   LIG d   1       3.182  -0.367  -3.075  0.00  0.00     0.029 H 
ATOM     20  H   LIG d   1       3.091  -1.013  -1.421  0.00  0.00     0.029 H 
ATOM     21  H   LIG d   1       3.981   1.345  -1.530  0.00  0.00     0.034 H 
ATOM     22  H   LIG d   1       5.120   0.194  -0.786  0.00  0.00     0.034 H 
ENDROOT
BRANCH   1  23
ATOM     23  O   LIG d   1       6.409  -1.678  -6.515  0.00  0.00    -0.457 OA
BRANCH  23  24
ATOM     24  C   LIG d   1       6.176  -2.539  -7.526  0.00  0.00     0.335 C 
ATOM     25  O   LIG d   1       7.018  -2.708  -8.386  0.00  0.00    -0.245 OA
BRANCH  24  26
ATOM     26  C   LIG d   1       4.904  -3.273  -7.588  0.00  0.00     0.033 C 
ATOM     27  C   LIG d   1       3.851  -2.728  -8.192  0.00  0.00    -0.037 C 
ATOM     28  H   LIG d   1       2.892  -3.224  -8.157  0.00  0.00     0.061 H 
BRANCH  26  29
ATOM     29  C   LIG d   1       4.793  -4.640  -6.967  0.00  0.00    -0.033 C 
ATOM     30  H   LIG d   1       5.546  -4.746  -6.186  0.00  0.00     0.028 H 
ATOM     31  H   LIG d   1       3.801  -4.764  -6.535  0.00  0.00     0.028 H 
ATOM     32  H   LIG d   1       4.953  -5.401  -7.732  0.00  0.00     0.028 H 
ENDBRANCH  26  29
BRANCH  27  33
ATOM     33  C   LIG d   1       3.997  -1.420  -8.927  0.00  0.00     0.111 C 
ATOM     34  H   LIG d   1       5.048  -1.129  -8.946  0.00  0.00     0.074 H 
ATOM     35  H   LIG d   1       3.633  -1.534  -9.948  0.00  0.00     0.074 H 
BRANCH  33  36
ATOM     36  O   LIG d   1       3.235  -0.412  -8.259  0.00  0.00    -0.461 OA
BRANCH  36  37
ATOM     37  C   LIG d   1       3.757   0.825  -8.228  0.00  0.00     0.304 C 
ATOM     38  O   LIG d   1       4.926   0.981  -7.961  0.00  0.00    -0.251 OA
BRANCH  37  39
ATOM     39  C   LIG d   1       2.887   2.018  -8.528  0.00  0.00     0.033 C 
ATOM     40  H   LIG d   1       1.986   1.689  -9.047  0.00  0.00     0.034 H 
ATOM     41  H   LIG d   1       2.609   2.508  -7.595  0.00  0.00     0.034 H 
ATOM     42  H   LIG d   1       3.435   2.719  -9.157  0.00  0.00     0.034 H 
ENDBRANCH  37  39
ENDBRANCH  36  37
ENDBRANCH  33  36
ENDBRANCH  27  33
ENDBRANCH  24  26
ENDBRANCH  23  24
ENDBRANCH   1  23
BRANCH  15  43
ATOM     43  C   LIG d   1       8.994  -0.516  -6.194  0.00  0.00     0.039 C 
ATOM     44  C   LIG d   1       9.694  -1.393  -6.908  0.00  0.00    -0.088 C 
ATOM     45  H   LIG d   1      10.299  -1.054  -7.737  0.00  0.00     0.054 H 
ATOM     46  H   LIG d   1       9.658  -2.443  -6.662  0.00  0.00     0.054 H 
BRANCH  43  47
ATOM     47  C   LIG d   1       9.022   0.910  -6.548  0.00  0.00     0.335 C 
ATOM     48  O   LIG d   1       8.330   1.324  -7.457  0.00  0.00    -0.245 OA
BRANCH  47  49
ATOM     49  O   LIG d   1       9.814   1.759  -5.863  0.00  0.00    -0.465 OA
BRANCH  49  50
ATOM     50  C   LIG d   1       9.340   3.097  -5.698  0.00  0.00     0.082 C 
ATOM     51  H   LIG d   1       8.911   3.210  -4.702  0.00  0.00     0.066 H 
ATOM     52  H   LIG d   1      10.169   3.794  -5.818  0.00  0.00     0.066 H 
ATOM     53  H   LIG d   1       8.577   3.307  -6.447  0.00  0.00     0.066 H 
ENDBRANCH  49  50
ENDBRANCH  47  49
ENDBRANCH  43  47
ENDBRANCH  15  43
BRANCH  13  54
ATOM     54  O   LIG d   1       6.466   0.651  -5.528  0.00  0.00    -0.390 OA
ATOM     55  H   LIG d   1       5.540   0.397  -5.412  0.00  0.00     0.210 HD
ENDBRANCH  13  54
BRANCH   4  56
ATOM     56  C   LIG d   1       4.687  -0.907  -4.920  0.00  0.00    -0.056 C 
ATOM     57  H   LIG d   1       3.863  -1.601  -5.086  0.00  0.00     0.024 H 
ATOM     58  H   LIG d   1       4.289   0.073  -4.657  0.00  0.00     0.024 H 
ATOM     59  H   LIG d   1       5.282  -0.827  -5.829  0.00  0.00     0.024 H 
ENDBRANCH   4  56
BRANCH   5  60
ATOM     60  O   LIG d   1       3.866  -2.964  -3.024  0.00  0.00    -0.391 OA
ATOM     61  H   LIG d   1       3.930  -3.730  -2.438  0.00  0.00     0.210 HD
ENDBRANCH   5  60
TORSDOF 15
ENDMDL
MODEL 2
REMARK VINA RESULT:      -5.5      1.683      2.117
REMARK  15 active torsions:
REMARK  status: ('A' for Active; 'I' for Inactive)
REMARK    1  A    between atoms: C_1  and  C_2 
REMARK    2  A    between atoms: C_2  and  C_9 
REMARK    3  A    between atoms: C_3  and  C_4 
REMARK    4  A    between atoms: C_4  and  O_5 
REMARK    5  A    between atoms: O_5  and  C_6 
REMARK    6  A    between atoms: C_6  and  C_8 
REMARK    7  A    between atoms: C_9  and  O_11 
REMARK    8  A    between atoms: O_11  and  C_12 
REMARK    9  A    between atoms: C_15  and  C_36 
REMARK   10  A    between atoms: C_16  and  O_35 
REMARK   11  A    between atoms: C_24  and  O_34 
REMARK   12  A    between atoms: C_26  and  C_28 
REMARK   13  A    between atoms: C_28  and  C_30 
REMARK   14  A    between atoms: C_30  and  O_32 
REMARK   15  A    between atoms: O_32  and  C_33 
ROOT
ATOM      1  C   LIG d   1       5.412  -2.912  -5.148  0.00  0.00     0.113 C 
ATOM      2  H   LIG d   1       5.361  -3.971  -5.397  0.00  0.00     0.074 H 
ATOM      3  C   LIG d   1       4.333  -2.580  -4.112  0.00  0.00    -0.006 C 
ATOM      4  C   LIG d   1       4.421  -1.095  -3.761  0.00  0.00     0.009 C 
ATOM      5  C   LIG d   1       3.340  -0.711  -2.752  0.00  0.00     0.062 C 
ATOM      6  H   LIG d   1       3.516  -1.238  -1.814  0.00  0.00     0.060 H 
ATOM      7  C   LIG d   1       3.387   0.799  -2.505  0.00  0.00    -0.020 C 
ATOM      8  C   LIG d   1       4.734   1.183  -1.885  0.00  0.00     0.009 C 
ATOM      9  C   LIG d   1       5.847   0.655  -2.766  0.00  0.00     0.140 C 
ATOM     10  O   LIG d   1       6.741   1.374  -3.140  0.00  0.00    -0.297 OA
ATOM     11  C   LIG d   1       5.800  -0.803  -3.160  0.00  0.00     0.052 C 
ATOM     12  H   LIG d   1       5.953  -1.425  -2.277  0.00  0.00     0.041 H 
ATOM     13  C   LIG d   1       6.873  -1.109  -4.203  0.00  0.00     0.076 C 
ATOM     14  H   LIG d   1       7.858  -0.889  -3.789  0.00  0.00     0.061 H 
ATOM     15  C   LIG d   1       6.794  -2.590  -4.578  0.00  0.00     0.054 C 
ATOM     16  H   LIG d   1       6.971  -3.198  -3.691  0.00  0.00     0.041 H 
ATOM     17  H   LIG d   1       3.350  -2.799  -4.526  0.00  0.00     0.031 H 
ATOM     18  H   LIG d   1       4.494  -3.177  -3.214  0.00  0.00     0.031 H 
ATOM     19  H   LIG d   1       3.261   1.324  -3.452  0.00  0.00     0.029 H 
ATOM     20  H   LIG d   1       2.581   1.080  -1.826  0.00  0.00     0.029 H 
ATOM     21  H   LIG d   1       4.807   2.268  -1.816  0.00  0.00     0.034 H 
ATOM     22  H   LIG d   1       4.815   0.745  -0.891  0.00  0.00     0.034 H 
ENDROOT
BRANCH   1  23
ATOM     23  O   LIG d   1       5.192  -2.135  -6.327  0.00  0.00    -0.457 OA
BRANCH  23  24
ATOM     24  C   LIG d   1       4.706  -2.782  -7.404  0.00  0.00     0.335 C 
ATOM     25  O   LIG d   1       4.076  -3.813  -7.261  0.00  0.00    -0.245 OA
BRANCH  24  26
ATOM     26  C   LIG d   1       4.936  -2.244  -8.752  0.00  0.00     0.033 C 
ATOM     27  C   LIG d   1       4.064  -1.393  -9.286  0.00  0.00    -0.037 C 
ATOM     28  H   LIG d   1       4.182  -1.070 -10.311  0.00  0.00     0.061 H 
BRANCH  26  29
ATOM     29  C   LIG d   1       6.159  -2.656  -9.528  0.00  0.00    -0.033 C 
ATOM     30  H   LIG d   1       6.507  -3.625  -9.170  0.00  0.00     0.028 H 
ATOM     31  H   LIG d   1       5.913  -2.726 -10.587  0.00  0.00     0.028 H 
ATOM     32  H   LIG d   1       6.946  -1.914  -9.388  0.00  0.00     0.028 H 
ENDBRANCH  26  29
BRANCH  27  33
ATOM     33  C   LIG d   1       2.911  -0.879  -8.463  0.00  0.00     0.111 C 
ATOM     34  H   LIG d   1       2.132  -1.641  -8.413  0.00  0.00     0.074 H 
ATOM     35  H   LIG d   1       3.258  -0.648  -7.456  0.00  0.00     0.074 H 
BRANCH  33  36
ATOM     36  O   LIG d   1       2.383   0.303  -9.069  0.00  0.00    -0.461 OA
BRANCH  36  37
ATOM     37  C   LIG d   1       2.963   1.468  -8.738  0.00  0.00     0.304 C 
ATOM     38  O   LIG d   1       2.966   1.837  -7.587  0.00  0.00    -0.251 OA
BRANCH  37  39
ATOM     39  C   LIG d   1       3.611   2.315  -9.803  0.00  0.00     0.033 C 
ATOM     40  H   LIG d   1       3.247   3.340  -9.724  0.00  0.00     0.034 H 
ATOM     41  H   LIG d   1       4.693   2.303  -9.667  0.00  0.00     0.034 H 
ATOM     42  H   LIG d   1       3.364   1.915 -10.786  0.00  0.00     0.034 H 
ENDBRANCH  37  39
ENDBRANCH  36  37
ENDBRANCH  33  36
ENDBRANCH  27  33
ENDBRANCH  24  26
ENDBRANCH  23  24
ENDBRANCH   1  23
BRANCH  15  43
ATOM     43  C   LIG d   1       7.846  -2.898  -5.612  0.00  0.00     0.039 C 
ATOM     44  C   LIG d   1       7.850  -4.079  -6.225  0.00  0.00    -0.088 C 
ATOM     45  H   LIG d   1       8.618  -4.308  -6.951  0.00  0.00     0.054 H 
ATOM     46  H   LIG d   1       7.088  -4.809  -5.998  0.00  0.00     0.054 H 
BRANCH  43  47
ATOM     47  C   LIG d   1       8.868  -1.895  -5.942  0.00  0.00     0.335 C 
ATOM     48  O   LIG d   1       8.774  -1.247  -6.966  0.00  0.00    -0.245 OA
BRANCH  47  49
ATOM     49  O   LIG d   1       9.907  -1.692  -5.109  0.00  0.00    -0.465 OA
BRANCH  49  50
ATOM     50  C   LIG d   1      10.661  -0.492  -5.293  0.00  0.00     0.082 C 
ATOM     51  H   LIG d   1      11.725  -0.714  -5.206  0.00  0.00     0.066 H 
ATOM     52  H   LIG d   1      10.454  -0.081  -6.281  0.00  0.00     0.066 H 
ATOM     53  H   LIG d   1      10.380   0.235  -4.531  0.00  0.00     0.066 H 
ENDBRANCH  49  50
ENDBRANCH  47  49
ENDBRANCH  43  47
ENDBRANCH  15  43
BRANCH  13  54
ATOM     54  O   LIG d   1       6.653  -0.307  -5.365  0.00  0.00    -0.390 OA
ATOM     55  H   LIG d   1       5.736  -0.022  -5.479  0.00  0.00     0.210 HD
ENDBRANCH  13  54
BRANCH   4  56
ATOM     56  C   LIG d   1       4.235  -0.262  -5.031  0.00  0.00    -0.056 C 
ATOM     57  H   LIG d   1       4.767  -0.735  -5.856  0.00  0.00     0.024 H 
ATOM     58  H   LIG d   1       3.174  -0.197  -5.271  0.00  0.00     0.024 H 
ATOM     59  H   LIG d   1       4.633   0.739  -4.869  0.00  0.00     0.024 H 
ENDBRANCH   4  56
BRANCH   5  60
ATOM     60  O   LIG d   1       2.057  -1.071  -3.269  0.00  0.00    -0.391 OA
ATOM     61  H   LIG d   1       1.435  -0.333  -3.324  0.00  0.00     0.210 HD
ENDBRANCH   5  60
TORSDOF 15
ENDMDL
MODEL 3
REMARK VINA RESULT:      -5.5      2.264      5.153
REMARK  15 active torsions:
REMARK  status: ('A' for Active; 'I' for Inactive)
REMARK    1  A    between atoms: C_1  and  C_2 
REMARK    2  A    between atoms: C_2  and  C_9 
REMARK    3  A    between atoms: C_3  and  C_4 
REMARK    4  A    between atoms: C_4  and  O_5 
REMARK    5  A    between atoms: O_5  and  C_6 
REMARK    6  A    between atoms: C_6  and  C_8 
REMARK    7  A    between atoms: C_9  and  O_11 
REMARK    8  A    between atoms: O_11  and  C_12 
REMARK    9  A    between atoms: C_15  and  C_36 
REMARK   10  A    between atoms: C_16  and  O_35 
REMARK   11  A    between atoms: C_24  and  O_34 
REMARK   12  A    between atoms: C_26  and  C_28 
REMARK   13  A    between atoms: C_28  and  C_30 
REMARK   14  A    between atoms: C_30  and  O_32 
REMARK   15  A    between atoms: O_32  and  C_33 
ROOT
ATOM      1  C   LIG d   1       6.135  -2.006  -5.853  0.00  0.00     0.113 C 
ATOM      2  H   LIG d   1       6.683  -1.078  -5.691  0.00  0.00     0.074 H 
ATOM      3  C   LIG d   1       6.889  -2.871  -6.868  0.00  0.00    -0.006 C 
ATOM      4  C   LIG d   1       6.119  -4.174  -7.080  0.00  0.00     0.009 C 
ATOM      5  C   LIG d   1       6.819  -5.057  -8.111  0.00  0.00     0.062 C 
ATOM      6  H   LIG d   1       7.794  -5.359  -7.728  0.00  0.00     0.060 H 
ATOM      7  C   LIG d   1       5.969  -6.301  -8.379  0.00  0.00    -0.020 C 
ATOM      8  C   LIG d   1       5.839  -7.128  -7.096  0.00  0.00     0.009 C 
ATOM      9  C   LIG d   1       5.319  -6.236  -5.988  0.00  0.00     0.140 C 
ATOM     10  O   LIG d   1       4.368  -6.561  -5.320  0.00  0.00    -0.297 OA
ATOM     11  C   LIG d   1       6.031  -4.926  -5.747  0.00  0.00     0.052 C 
ATOM     12  H   LIG d   1       7.036  -5.120  -5.370  0.00  0.00     0.041 H 
ATOM     13  C   LIG d   1       5.256  -4.074  -4.744  0.00  0.00     0.076 C 
ATOM     14  H   LIG d   1       5.175  -4.608  -3.797  0.00  0.00     0.061 H 
ATOM     15  C   LIG d   1       6.005  -2.757  -4.528  0.00  0.00     0.054 C 
ATOM     16  H   LIG d   1       6.998  -2.966  -4.131  0.00  0.00     0.041 H 
ATOM     17  H   LIG d   1       6.969  -2.338  -7.814  0.00  0.00     0.031 H 
ATOM     18  H   LIG d   1       7.886  -3.094  -6.488  0.00  0.00     0.031 H 
ATOM     19  H   LIG d   1       4.977  -5.996  -8.714  0.00  0.00     0.029 H 
ATOM     20  H   LIG d   1       6.442  -6.904  -9.154  0.00  0.00     0.029 H 
ATOM     21  H   LIG d   1       5.143  -7.950  -7.261  0.00  0.00     0.034 H 
ATOM     22  H   LIG d   1       6.816  -7.524  -6.819  0.00  0.00     0.034 H 
ENDROOT
BRANCH   1  23
ATOM     23  O   LIG d   1       4.833  -1.707  -6.359  0.00  0.00    -0.457 OA
BRANCH  23  24
ATOM     24  C   LIG d   1       4.552  -0.410  -6.597  0.00  0.00     0.335 C 
ATOM     25  O   LIG d   1       5.455   0.387  -6.762  0.00  0.00    -0.245 OA
BRANCH  24  26
ATOM     26  C   LIG d   1       3.154   0.040  -6.657  0.00  0.00     0.033 C 
ATOM     27  C   LIG d   1       2.519   0.084  -7.825  0.00  0.00    -0.037 C 
ATOM     28  H   LIG d   1       1.525   0.503  -7.883  0.00  0.00     0.061 H 
BRANCH  26  29
ATOM     29  C   LIG d   1       2.442   0.453  -5.395  0.00  0.00    -0.033 C 
ATOM     30  H   LIG d   1       2.853   1.398  -5.039  0.00  0.00     0.028 H 
ATOM     31  H   LIG d   1       1.379   0.573  -5.600  0.00  0.00     0.028 H 
ATOM     32  H   LIG d   1       2.581  -0.314  -4.632  0.00  0.00     0.028 H 
ENDBRANCH  26  29
BRANCH  27  33
ATOM     33  C   LIG d   1       3.185  -0.452  -9.066  0.00  0.00     0.111 C 
ATOM     34  H   LIG d   1       4.189  -0.798  -8.818  0.00  0.00     0.074 H 
ATOM     35  H   LIG d   1       2.602  -1.283  -9.462  0.00  0.00     0.074 H 
BRANCH  33  36
ATOM     36  O   LIG d   1       3.267   0.584 -10.047  0.00  0.00    -0.461 OA
BRANCH  36  37
ATOM     37  C   LIG d   1       4.291   1.446  -9.939  0.00  0.00     0.304 C 
ATOM     38  O   LIG d   1       5.385   1.140 -10.349  0.00  0.00    -0.251 OA
BRANCH  37  39
ATOM     39  C   LIG d   1       4.074   2.797  -9.308  0.00  0.00     0.033 C 
ATOM     40  H   LIG d   1       3.387   2.699  -8.467  0.00  0.00     0.034 H 
ATOM     41  H   LIG d   1       5.027   3.190  -8.954  0.00  0.00     0.034 H 
ATOM     42  H   LIG d   1       3.652   3.479 -10.045  0.00  0.00     0.034 H 
ENDBRANCH  37  39
ENDBRANCH  36  37
ENDBRANCH  33  36
ENDBRANCH  27  33
ENDBRANCH  24  26
ENDBRANCH  23  24
ENDBRANCH   1  23
BRANCH  15  43
ATOM     43  C   LIG d   1       5.243  -1.907  -3.544  0.00  0.00     0.039 C 
ATOM     44  C   LIG d   1       4.139  -2.380  -2.971  0.00  0.00    -0.088 C 
ATOM     45  H   LIG d   1       3.581  -1.763  -2.282  0.00  0.00     0.054 H 
ATOM     46  H   LIG d   1       3.801  -3.381  -3.194  0.00  0.00     0.054 H 
BRANCH  43  47
ATOM     47  C   LIG d   1       5.718  -0.555  -3.218  0.00  0.00     0.335 C 
ATOM     48  O   LIG d   1       6.906  -0.349  -3.066  0.00  0.00    -0.245 OA
BRANCH  47  49
ATOM     49  O   LIG d   1       4.837   0.457  -3.089  0.00  0.00    -0.465 OA
BRANCH  49  50
ATOM     50  C   LIG d   1       4.596   0.942  -1.767  0.00  0.00     0.082 C 
ATOM     51  H   LIG d   1       5.475   0.765  -1.149  0.00  0.00     0.066 H 
ATOM     52  H   LIG d   1       4.386   2.011  -1.805  0.00  0.00     0.066 H 
ATOM     53  H   LIG d   1       3.740   0.420  -1.339  0.00  0.00     0.066 H 
ENDBRANCH  49  50
ENDBRANCH  47  49
ENDBRANCH  43  47
ENDBRANCH  15  43
BRANCH  13  54
ATOM     54  O   LIG d   1       3.949  -3.804  -5.254  0.00  0.00    -0.390 OA
ATOM     55  H   LIG d   1       3.463  -4.594  -5.528  0.00  0.00     0.210 HD
ENDBRANCH  13  54
BRANCH   4  56
ATOM     56  C   LIG d   1       4.707  -3.854  -7.575  0.00  0.00    -0.056 C 
ATOM     57  H   LIG d   1       4.741  -2.986  -8.233  0.00  0.00     0.024 H 
ATOM     58  H   LIG d   1       4.311  -4.710  -8.122  0.00  0.00     0.024 H 
ATOM     59  H   LIG d   1       4.064  -3.638  -6.722  0.00  0.00     0.024 H 
ENDBRANCH   4  56
BRANCH   5  60
ATOM     60  O   LIG d   1       6.990  -4.325  -9.327  0.00  0.00    -0.391 OA
ATOM     61  H   LIG d   1       6.178  -4.220  -9.839  0.00  0.00     0.210 HD
ENDBRANCH   5  60
TORSDOF 15
ENDMDL
MODEL 4
REMARK VINA RESULT:      -5.4      1.757      2.421
REMARK  15 active torsions:
REMARK  status: ('A' for Active; 'I' for Inactive)
REMARK    1  A    between atoms: C_1  and  C_2 
REMARK    2  A    between atoms: C_2  and  C_9 
REMARK    3  A    between atoms: C_3  and  C_4 
REMARK    4  A    between atoms: C_4  and  O_5 
REMARK    5  A    between atoms: O_5  and  C_6 
REMARK    6  A    between atoms: C_6  and  C_8 
REMARK    7  A    between atoms: C_9  and  O_11 
REMARK    8  A    between atoms: O_11  and  C_12 
REMARK    9  A    between atoms: C_15  and  C_36 
REMARK   10  A    between atoms: C_16  and  O_35 
REMARK   11  A    between atoms: C_24  and  O_34 
REMARK   12  A    between atoms: C_26  and  C_28 
REMARK   13  A    between atoms: C_28  and  C_30 
REMARK   14  A    between atoms: C_30  and  O_32 
REMARK   15  A    between atoms: O_32  and  C_33 
ROOT
ATOM      1  C   LIG d   1       7.757  -1.356  -5.697  0.00  0.00     0.113 C 
ATOM      2  H   LIG d   1       8.522  -1.908  -6.241  0.00  0.00     0.074 H 
ATOM      3  C   LIG d   1       6.755  -2.341  -5.086  0.00  0.00    -0.006 C 
ATOM      4  C   LIG d   1       5.693  -1.557  -4.318  0.00  0.00     0.009 C 
ATOM      5  C   LIG d   1       4.652  -2.499  -3.717  0.00  0.00     0.062 C 
ATOM      6  H   LIG d   1       5.128  -3.141  -2.975  0.00  0.00     0.060 H 
ATOM      7  C   LIG d   1       3.546  -1.679  -3.047  0.00  0.00    -0.020 C 
ATOM      8  C   LIG d   1       4.132  -0.864  -1.890  0.00  0.00     0.009 C 
ATOM      9  C   LIG d   1       5.298  -0.047  -2.406  0.00  0.00     0.140 C 
ATOM     10  O   LIG d   1       5.369   1.139  -2.199  0.00  0.00    -0.297 OA
ATOM     11  C   LIG d   1       6.369  -0.768  -3.191  0.00  0.00     0.052 C 
ATOM     12  H   LIG d   1       6.904  -1.455  -2.534  0.00  0.00     0.041 H 
ATOM     13  C   LIG d   1       7.349   0.232  -3.802  0.00  0.00     0.076 C 
ATOM     14  H   LIG d   1       7.824   0.809  -3.008  0.00  0.00     0.061 H 
ATOM     15  C   LIG d   1       8.415  -0.533  -4.589  0.00  0.00     0.054 C 
ATOM     16  H   LIG d   1       8.954  -1.198  -3.915  0.00  0.00     0.041 H 
ATOM     17  H   LIG d   1       6.280  -2.917  -5.880  0.00  0.00     0.031 H 
ATOM     18  H   LIG d   1       7.275  -3.015  -4.406  0.00  0.00     0.031 H 
ATOM     19  H   LIG d   1       3.105  -1.002  -3.779  0.00  0.00     0.029 H 
ATOM     20  H   LIG d   1       2.777  -2.350  -2.666  0.00  0.00     0.029 H 
ATOM     21  H   LIG d   1       3.369  -0.198  -1.490  0.00  0.00     0.034 H 
ATOM     22  H   LIG d   1       4.478  -1.540  -1.108  0.00  0.00     0.034 H 
ENDROOT
BRANCH   1  23
ATOM     23  O   LIG d   1       7.074  -0.480  -6.596  0.00  0.00    -0.457 OA
BRANCH  23  24
ATOM     24  C   LIG d   1       7.105  -0.801  -7.905  0.00  0.00     0.335 C 
ATOM     25  O   LIG d   1       6.256  -1.537  -8.370  0.00  0.00    -0.245 OA
BRANCH  24  26
ATOM     26  C   LIG d   1       8.165  -0.263  -8.769  0.00  0.00     0.033 C 
ATOM     27  C   LIG d   1       8.086   0.986  -9.219  0.00  0.00    -0.037 C 
ATOM     28  H   LIG d   1       8.814   1.352  -9.929  0.00  0.00     0.061 H 
BRANCH  26  29
ATOM     29  C   LIG d   1       9.340  -1.127  -9.145  0.00  0.00    -0.033 C 
ATOM     30  H   LIG d   1      10.147  -0.498  -9.521  0.00  0.00     0.028 H 
ATOM     31  H   LIG d   1       9.684  -1.675  -8.269  0.00  0.00     0.028 H 
ATOM     32  H   LIG d   1       9.039  -1.833  -9.920  0.00  0.00     0.028 H 
ENDBRANCH  26  29
BRANCH  27  33
ATOM     33  C   LIG d   1       6.981   1.892  -8.738  0.00  0.00     0.111 C 
ATOM     34  H   LIG d   1       6.634   1.554  -7.761  0.00  0.00     0.074 H 
ATOM     35  H   LIG d   1       7.356   2.912  -8.658  0.00  0.00     0.074 H 
BRANCH  33  36
ATOM     36  O   LIG d   1       5.896   1.854  -9.667  0.00  0.00    -0.461 OA
BRANCH  36  37
ATOM     37  C   LIG d   1       4.654   1.867  -9.155  0.00  0.00     0.304 C 
ATOM     38  O   LIG d   1       4.450   1.412  -8.054  0.00  0.00    -0.251 OA
BRANCH  37  39
ATOM     39  C   LIG d   1       3.517   2.450  -9.951  0.00  0.00     0.033 C 
ATOM     40  H   LIG d   1       3.371   1.864 -10.859  0.00  0.00     0.034 H 
ATOM     41  H   LIG d   1       2.605   2.426  -9.354  0.00  0.00     0.034 H 
ATOM     42  H   LIG d   1       3.749   3.481 -10.217  0.00  0.00     0.034 H 
ENDBRANCH  37  39
ENDBRANCH  36  37
ENDBRANCH  33  36
ENDBRANCH  27  33
ENDBRANCH  24  26
ENDBRANCH  23  24
ENDBRANCH   1  23
BRANCH  15  43
ATOM     43  C   LIG d   1       9.382   0.448  -5.200  0.00  0.00     0.039 C 
ATOM     44  C   LIG d   1      10.401   0.009  -5.934  0.00  0.00    -0.088 C 
ATOM     45  H   LIG d   1      11.106   0.712  -6.355  0.00  0.00     0.054 H 
ATOM     46  H   LIG d   1      10.523  -1.049  -6.111  0.00  0.00     0.054 H 
BRANCH  43  47
ATOM     47  C   LIG d   1       9.199   1.891  -4.984  0.00  0.00     0.335 C 
ATOM     48  O   LIG d   1       8.914   2.614  -5.918  0.00  0.00    -0.245 OA
BRANCH  47  49
ATOM     49  O   LIG d   1       9.347   2.411  -3.750  0.00  0.00    -0.465 OA
BRANCH  49  50
ATOM     50  C   LIG d   1      10.681   2.544  -3.257  0.00  0.00     0.082 C 
ATOM     51  H   LIG d   1      11.365   2.694  -4.093  0.00  0.00     0.066 H 
ATOM     52  H   LIG d   1      10.737   3.399  -2.584  0.00  0.00     0.066 H 
ATOM     53  H   LIG d   1      10.962   1.639  -2.718  0.00  0.00     0.066 H 
ENDBRANCH  49  50
ENDBRANCH  47  49
ENDBRANCH  43  47
ENDBRANCH  15  43
BRANCH  13  54
ATOM     54  O   LIG d   1       6.646   1.115  -4.679  0.00  0.00    -0.390 OA
ATOM     55  H   LIG d   1       6.820   0.958  -5.617  0.00  0.00     0.210 HD
ENDBRANCH  13  54
BRANCH   4  56
ATOM     56  C   LIG d   1       4.993  -0.583  -5.268  0.00  0.00    -0.056 C 
ATOM     57  H   LIG d   1       5.325  -0.771  -6.289  0.00  0.00     0.024 H 
ATOM     58  H   LIG d   1       3.914  -0.725  -5.204  0.00  0.00     0.024 H 
ATOM     59  H   LIG d   1       5.243   0.440  -4.988  0.00  0.00     0.024 H 
ENDBRANCH   4  56
BRANCH   5  60
ATOM     60  O   LIG d   1       4.086  -3.306  -4.752  0.00  0.00    -0.391 OA
ATOM     61  H   LIG d   1       3.488  -2.826  -5.342  0.00  0.00     0.210 HD
ENDBRANCH   5  60
TORSDOF 15
ENDMDL
MODEL 5
REMARK VINA RESULT:      -5.4      2.173      6.035
REMARK  15 active torsions:
REMARK  status: ('A' for Active; 'I' for Inactive)
REMARK    1  A    between atoms: C_1  and  C_2 
REMARK    2  A    between atoms: C_2  and  C_9 
REMARK    3  A    between atoms: C_3  and  C_4 
REMARK    4  A    between atoms: C_4  and  O_5 
REMARK    5  A    between atoms: O_5  and  C_6 
REMARK    6  A    between atoms: C_6  and  C_8 
REMARK    7  A    between atoms: C_9  and  O_11 
REMARK    8  A    between atoms: O_11  and  C_12 
REMARK    9  A    between atoms: C_15  and  C_36 
REMARK   10  A    between atoms: C_16  and  O_35 
REMARK   11  A    between atoms: C_24  and  O_34 
REMARK   12  A    between atoms: C_26  and  C_28 
REMARK   13  A    between atoms: C_28  and  C_30 
REMARK   14  A    between atoms: C_30  and  O_32 
REMARK   15  A    between atoms: O_32  and  C_33 
ROOT
ATOM      1  C   LIG d   1       6.219  -0.961  -7.173  0.00  0.00     0.113 C 
ATOM      2  H   LIG d   1       7.247  -0.758  -6.873  0.00  0.00     0.074 H 
ATOM      3  C   LIG d   1       5.702   0.193  -8.037  0.00  0.00    -0.006 C 
ATOM      4  C   LIG d   1       4.266  -0.107  -8.460  0.00  0.00     0.009 C 
ATOM      5  C   LIG d   1       3.697   1.035  -9.299  0.00  0.00     0.062 C 
ATOM      6  H   LIG d   1       4.259   1.117 -10.230  0.00  0.00     0.060 H 
ATOM      7  C   LIG d   1       2.226   0.754  -9.615  0.00  0.00    -0.020 C 
ATOM      8  C   LIG d   1       2.110  -0.520 -10.458  0.00  0.00     0.009 C 
ATOM      9  C   LIG d   1       2.828  -1.647  -9.744  0.00  0.00     0.140 C 
ATOM     10  O   LIG d   1       2.286  -2.707  -9.548  0.00  0.00    -0.297 OA
ATOM     11  C   LIG d   1       4.246  -1.398  -9.286  0.00  0.00     0.052 C 
ATOM     12  H   LIG d   1       4.896  -1.287 -10.154  0.00  0.00     0.041 H 
ATOM     13  C   LIG d   1       4.736  -2.554  -8.415  0.00  0.00     0.076 C 
ATOM     14  H   LIG d   1       4.711  -3.480  -8.990  0.00  0.00     0.061 H 
ATOM     15  C   LIG d   1       6.171  -2.266  -7.969  0.00  0.00     0.054 C 
ATOM     16  H   LIG d   1       6.812  -2.179  -8.846  0.00  0.00     0.041 H 
ATOM     17  H   LIG d   1       5.727   1.118  -7.462  0.00  0.00     0.031 H 
ATOM     18  H   LIG d   1       6.330   0.295  -8.922  0.00  0.00     0.031 H 
ATOM     19  H   LIG d   1       1.674   0.623  -8.684  0.00  0.00     0.029 H 
ATOM     20  H   LIG d   1       1.806   1.594 -10.168  0.00  0.00     0.029 H 
ATOM     21  H   LIG d   1       1.059  -0.779 -10.585  0.00  0.00     0.034 H 
ATOM     22  H   LIG d   1       2.568  -0.355 -11.433  0.00  0.00     0.034 H 
ENDROOT
BRANCH   1  23
ATOM     23  O   LIG d   1       5.400  -1.086  -6.009  0.00  0.00    -0.457 OA
BRANCH  23  24
ATOM     24  C   LIG d   1       5.948  -0.717  -4.833  0.00  0.00     0.335 C 
ATOM     25  O   LIG d   1       6.397   0.405  -4.698  0.00  0.00    -0.245 OA
BRANCH  24  26
ATOM     26  C   LIG d   1       6.003  -1.670  -3.716  0.00  0.00     0.033 C 
ATOM     27  C   LIG d   1       4.890  -1.998  -3.066  0.00  0.00    -0.037 C 
ATOM     28  H   LIG d   1       4.942  -2.623  -2.186  0.00  0.00     0.061 H 
BRANCH  26  29
ATOM     29  C   LIG d   1       7.321  -2.274  -3.307  0.00  0.00    -0.033 C 
ATOM     30  H   LIG d   1       7.804  -1.629  -2.573  0.00  0.00     0.028 H 
ATOM     31  H   LIG d   1       7.151  -3.257  -2.869  0.00  0.00     0.028 H 
ATOM     32  H   LIG d   1       7.963  -2.373  -4.183  0.00  0.00     0.028 H 
ENDBRANCH  26  29
BRANCH  27  33
ATOM     33  C   LIG d   1       3.556  -1.497  -3.556  0.00  0.00     0.111 C 
ATOM     34  H   LIG d   1       3.678  -1.041  -4.539  0.00  0.00     0.074 H 
ATOM     35  H   LIG d   1       2.858  -2.331  -3.627  0.00  0.00     0.074 H 
BRANCH  33  36
ATOM     36  O   LIG d   1       3.046  -0.525  -2.641  0.00  0.00    -0.461 OA
BRANCH  36  37
ATOM     37  C   LIG d   1       3.554   0.716  -2.724  0.00  0.00     0.304 C 
ATOM     38  O   LIG d   1       3.278   1.420  -3.667  0.00  0.00    -0.251 OA
BRANCH  37  39
ATOM     39  C   LIG d   1       4.466   1.230  -1.641  0.00  0.00     0.033 C 
ATOM     40  H   LIG d   1       3.975   2.047  -1.111  0.00  0.00     0.034 H 
ATOM     41  H   LIG d   1       4.688   0.425  -0.941  0.00  0.00     0.034 H 
ATOM     42  H   LIG d   1       5.392   1.590  -2.087  0.00  0.00     0.034 H 
ENDBRANCH  37  39
ENDBRANCH  36  37
ENDBRANCH  33  36
ENDBRANCH  27  33
ENDBRANCH  24  26
ENDBRANCH  23  24
ENDBRANCH   1  23
BRANCH  15  43
ATOM     43  C   LIG d   1       6.660  -3.399  -7.104  0.00  0.00     0.039 C 
ATOM     44  C   LIG d   1       7.922  -3.419  -6.684  0.00  0.00    -0.088 C 
ATOM     45  H   LIG d   1       8.277  -4.243  -6.081  0.00  0.00     0.054 H 
ATOM     46  H   LIG d   1       8.591  -2.613  -6.944  0.00  0.00     0.054 H 
BRANCH  43  47
ATOM     47  C   LIG d   1       5.742  -4.483  -6.726  0.00  0.00     0.335 C 
ATOM     48  O   LIG d   1       5.253  -4.505  -5.613  0.00  0.00    -0.245 OA
BRANCH  47  49
ATOM     49  O   LIG d   1       5.440  -5.452  -7.613  0.00  0.00    -0.465 OA
BRANCH  49  50
ATOM     50  C   LIG d   1       4.309  -6.273  -7.317  0.00  0.00     0.082 C 
ATOM     51  H   LIG d   1       4.581  -7.322  -7.430  0.00  0.00     0.066 H 
ATOM     52  H   LIG d   1       3.984  -6.088  -6.294  0.00  0.00     0.066 H 
ATOM     53  H   LIG d   1       3.497  -6.033  -8.005  0.00  0.00     0.066 H 
ENDBRANCH  49  50
ENDBRANCH  47  49
ENDBRANCH  43  47
ENDBRANCH  15  43
BRANCH  13  54
ATOM     54  O   LIG d   1       3.893  -2.680  -7.268  0.00  0.00    -0.390 OA
ATOM     55  H   LIG d   1       2.960  -2.824  -7.479  0.00  0.00     0.210 HD
ENDBRANCH  13  54
BRANCH   4  56
ATOM     56  C   LIG d   1       3.397  -0.289  -7.214  0.00  0.00    -0.056 C 
ATOM     57  H   LIG d   1       3.724  -1.175  -6.670  0.00  0.00     0.024 H 
ATOM     58  H   LIG d   1       3.491   0.587  -6.573  0.00  0.00     0.024 H 
ATOM     59  H   LIG d   1       2.356  -0.411  -7.513  0.00  0.00     0.024 H 
ENDBRANCH   4  56
BRANCH   5  60
ATOM     60  O   LIG d   1       3.802   2.260  -8.570  0.00  0.00    -0.391 OA
ATOM     61  H   LIG d   1       3.787   2.148  -7.610  0.00  0.00     0.210 HD
ENDBRANCH   5  60
TORSDOF 15
ENDMDL
MODEL 6
REMARK VINA RESULT:      -5.3      2.067      5.184
REMARK  15 active torsions:
REMARK  status: ('A' for Active; 'I' for Inactive)
REMARK    1  A    between atoms: C_1  and  C_2 
REMARK    2  A    between atoms: C_2  and  C_9 
REMARK    3  A    between atoms: C_3  and  C_4 
REMARK    4  A    between atoms: C_4  and  O_5 
REMARK    5  A    between atoms: O_5  and  C_6 
REMARK    6  A    between atoms: C_6  and  C_8 
REMARK    7  A    between atoms: C_9  and  O_11 
REMARK    8  A    between atoms: O_11  and  C_12 
REMARK    9  A    between atoms: C_15  and  C_36 
REMARK   10  A    between atoms: C_16  and  O_35 
REMARK   11  A    between atoms: C_24  and  O_34 
REMARK   12  A    between atoms: C_26  and  C_28 
REMARK   13  A    between atoms: C_28  and  C_30 
REMARK   14  A    between atoms: C_30  and  O_32 
REMARK   15  A    between atoms: O_32  and  C_33 
ROOT
ATOM      1  C   LIG d   1       6.597  -1.240  -3.537  0.00  0.00     0.113 C 
ATOM      2  H   LIG d   1       7.055  -0.600  -2.784  0.00  0.00     0.074 H 
ATOM      3  C   LIG d   1       7.496  -2.454  -3.790  0.00  0.00    -0.006 C 
ATOM      4  C   LIG d   1       6.839  -3.349  -4.839  0.00  0.00     0.009 C 
ATOM      5  C   LIG d   1       7.717  -4.560  -5.146  0.00  0.00     0.062 C 
ATOM      6  H   LIG d   1       7.805  -5.181  -4.254  0.00  0.00     0.060 H 
ATOM      7  C   LIG d   1       7.084  -5.377  -6.275  0.00  0.00    -0.020 C 
ATOM      8  C   LIG d   1       5.722  -5.916  -5.826  0.00  0.00     0.009 C 
ATOM      9  C   LIG d   1       4.876  -4.760  -5.334  0.00  0.00     0.140 C 
ATOM     10  O   LIG d   1       3.755  -4.587  -5.746  0.00  0.00    -0.297 OA
ATOM     11  C   LIG d   1       5.483  -3.831  -4.309  0.00  0.00     0.052 C 
ATOM     12  H   LIG d   1       5.627  -4.366  -3.370  0.00  0.00     0.041 H 
ATOM     13  C   LIG d   1       4.578  -2.621  -4.083  0.00  0.00     0.076 C 
ATOM     14  H   LIG d   1       3.606  -2.955  -3.721  0.00  0.00     0.061 H 
ATOM     15  C   LIG d   1       5.226  -1.703  -3.043  0.00  0.00     0.054 C 
ATOM     16  H   LIG d   1       5.343  -2.245  -2.105  0.00  0.00     0.041 H 
ATOM     17  H   LIG d   1       8.467  -2.120  -4.152  0.00  0.00     0.031 H 
ATOM     18  H   LIG d   1       7.624  -3.012  -2.862  0.00  0.00     0.031 H 
ATOM     19  H   LIG d   1       6.951  -4.742  -7.151  0.00  0.00     0.029 H 
ATOM     20  H   LIG d   1       7.738  -6.211  -6.531  0.00  0.00     0.029 H 
ATOM     21  H   LIG d   1       5.226  -6.399  -6.667  0.00  0.00     0.034 H 
ATOM     22  H   LIG d   1       5.863  -6.635  -5.019  0.00  0.00     0.034 H 
ENDROOT
BRANCH   1  23
ATOM     23  O   LIG d   1       6.439  -0.505  -4.752  0.00  0.00    -0.457 OA
BRANCH  23  24
ATOM     24  C   LIG d   1       7.117   0.656  -4.858  0.00  0.00     0.335 C 
ATOM     25  O   LIG d   1       6.865   1.577  -4.106  0.00  0.00    -0.245 OA
BRANCH  24  26
ATOM     26  C   LIG d   1       8.161   0.807  -5.881  0.00  0.00     0.033 C 
ATOM     27  C   LIG d   1       7.829   0.853  -7.169  0.00  0.00    -0.037 C 
ATOM     28  H   LIG d   1       8.600   0.869  -7.925  0.00  0.00     0.061 H 
BRANCH  26  29
ATOM     29  C   LIG d   1       9.607   0.909  -5.472  0.00  0.00    -0.033 C 
ATOM     30  H   LIG d   1      10.129   1.586  -6.149  0.00  0.00     0.028 H 
ATOM     31  H   LIG d   1       9.671   1.292  -4.454  0.00  0.00     0.028 H 
ATOM     32  H   LIG d   1      10.068  -0.078  -5.518  0.00  0.00     0.028 H 
ENDBRANCH  26  29
BRANCH  27  33
ATOM     33  C   LIG d   1       6.377   0.884  -7.571  0.00  0.00     0.111 C 
ATOM     34  H   LIG d   1       6.121  -0.048  -8.078  0.00  0.00     0.074 H 
ATOM     35  H   LIG d   1       5.755   0.997  -6.683  0.00  0.00     0.074 H 
BRANCH  33  36
ATOM     36  O   LIG d   1       6.151   1.984  -8.455  0.00  0.00    -0.461 OA
BRANCH  36  37
ATOM     37  C   LIG d   1       5.156   1.854  -9.348  0.00  0.00     0.304 C 
ATOM     38  O   LIG d   1       5.330   1.214 -10.358  0.00  0.00    -0.251 OA
BRANCH  37  39
ATOM     39  C   LIG d   1       3.821   2.503  -9.089  0.00  0.00     0.033 C 
ATOM     40  H   LIG d   1       3.710   2.691  -8.020  0.00  0.00     0.034 H 
ATOM     41  H   LIG d   1       3.766   3.448  -9.630  0.00  0.00     0.034 H 
ATOM     42  H   LIG d   1       3.024   1.843  -9.427  0.00  0.00     0.034 H 
ENDBRANCH  37  39
ENDBRANCH  36  37
ENDBRANCH  33  36
ENDBRANCH  27  33
ENDBRANCH  24  26
ENDBRANCH  23  24
ENDBRANCH   1  23
BRANCH  15  43
ATOM     43  C   LIG d   1       4.342  -0.503  -2.820  0.00  0.00     0.039 C 
ATOM     44  C   LIG d   1       4.564   0.303  -1.786  0.00  0.00    -0.088 C 
ATOM     45  H   LIG d   1       3.917   1.152  -1.614  0.00  0.00     0.054 H 
ATOM     46  H   LIG d   1       5.392   0.112  -1.119  0.00  0.00     0.054 H 
BRANCH  43  47
ATOM     47  C   LIG d   1       3.233  -0.226  -3.743  0.00  0.00     0.335 C 
ATOM     48  O   LIG d   1       2.151  -0.753  -3.570  0.00  0.00    -0.245 OA
BRANCH  47  49
ATOM     49  O   LIG d   1       3.414   0.615  -4.782  0.00  0.00    -0.465 OA
BRANCH  49  50
ATOM     50  C   LIG d   1       2.412   0.613  -5.800  0.00  0.00     0.082 C 
ATOM     51  H   LIG d   1       1.788   1.501  -5.697  0.00  0.00     0.066 H 
ATOM     52  H   LIG d   1       2.889   0.614  -6.779  0.00  0.00     0.066 H 
ATOM     53  H   LIG d   1       1.792  -0.278  -5.698  0.00  0.00     0.066 H 
ENDBRANCH  49  50
ENDBRANCH  47  49
ENDBRANCH  43  47
ENDBRANCH  15  43
BRANCH  13  54
ATOM     54  O   LIG d   1       4.412  -1.911  -5.312  0.00  0.00    -0.390 OA
ATOM     55  H   LIG d   1       3.499  -1.651  -5.496  0.00  0.00     0.210 HD
ENDBRANCH  13  54
BRANCH   4  56
ATOM     56  C   LIG d   1       6.624  -2.550  -6.126  0.00  0.00    -0.056 C 
ATOM     57  H   LIG d   1       6.310  -3.224  -6.923  0.00  0.00     0.024 H 
ATOM     58  H   LIG d   1       5.855  -1.796  -5.962  0.00  0.00     0.024 H 
ATOM     59  H   LIG d   1       7.557  -2.063  -6.409  0.00  0.00     0.024 H 
ENDBRANCH   4  56
BRANCH   5  60
ATOM     60  O   LIG d   1       9.015  -4.117  -5.549  0.00  0.00    -0.391 OA
ATOM     61  H   LIG d   1       9.029  -3.221  -5.912  0.00  0.00     0.210 HD
ENDBRANCH   5  60
TORSDOF 15
ENDMDL
MODEL 7
REMARK VINA RESULT:      -5.3      2.018      6.319
REMARK  15 active torsions:
REMARK  status: ('A' for Active; 'I' for Inactive)
REMARK    1  A    between atoms: C_1  and  C_2 
REMARK    2  A    between atoms: C_2  and  C_9 
REMARK    3  A    between atoms: C_3  and  C_4 
REMARK    4  A    between atoms: C_4  and  O_5 
REMARK    5  A    between atoms: O_5  and  C_6 
REMARK    6  A    between atoms: C_6  and  C_8 
REMARK    7  A    between atoms: C_9  and  O_11 
REMARK    8  A    between atoms: O_11  and  C_12 
REMARK    9  A    between atoms: C_15  and  C_36 
REMARK   10  A    between atoms: C_16  and  O_35 
REMARK   11  A    between atoms: C_24  and  O_34 
REMARK   12  A    between atoms: C_26  and  C_28 
REMARK   13  A    between atoms: C_28  and  C_30 
REMARK   14  A    between atoms: C_30  and  O_32 
REMARK   15  A    between atoms: O_32  and  C_33 
ROOT
ATOM      1  C   LIG d   1       5.566  -0.871  -6.138  0.00  0.00     0.113 C 
ATOM      2  H   LIG d   1       6.265  -0.603  -5.346  0.00  0.00     0.074 H 
ATOM      3  C   LIG d   1       5.552   0.235  -7.199  0.00  0.00    -0.006 C 
ATOM      4  C   LIG d   1       4.577  -0.155  -8.309  0.00  0.00     0.009 C 
ATOM      5  C   LIG d   1       4.506   0.935  -9.376  0.00  0.00     0.062 C 
ATOM      6  H   LIG d   1       5.476   1.028  -9.865  0.00  0.00     0.060 H 
ATOM      7  C   LIG d   1       3.445   0.564 -10.415  0.00  0.00    -0.020 C 
ATOM      8  C   LIG d   1       3.845  -0.732 -11.127  0.00  0.00     0.009 C 
ATOM      9  C   LIG d   1       4.108  -1.801 -10.087  0.00  0.00     0.140 C 
ATOM     10  O   LIG d   1       3.584  -2.886 -10.160  0.00  0.00    -0.297 OA
ATOM     11  C   LIG d   1       5.049  -1.463  -8.954  0.00  0.00     0.052 C 
ATOM     12  H   LIG d   1       6.060  -1.334  -9.345  0.00  0.00     0.041 H 
ATOM     13  C   LIG d   1       5.038  -2.570  -7.902  0.00  0.00     0.076 C 
ATOM     14  H   LIG d   1       5.358  -3.509  -8.355  0.00  0.00     0.061 H 
ATOM     15  C   LIG d   1       5.999  -2.193  -6.772  0.00  0.00     0.054 C 
ATOM     16  H   LIG d   1       7.007  -2.089  -7.174  0.00  0.00     0.041 H 
ATOM     17  H   LIG d   1       5.231   1.171  -6.745  0.00  0.00     0.031 H 
ATOM     18  H   LIG d   1       6.551   0.353  -7.616  0.00  0.00     0.031 H 
ATOM     19  H   LIG d   1       2.485   0.423  -9.918  0.00  0.00     0.029 H 
ATOM     20  H   LIG d   1       3.357   1.368 -11.147  0.00  0.00     0.029 H 
ATOM     21  H   LIG d   1       3.036  -1.052 -11.782  0.00  0.00     0.034 H 
ATOM     22  H   LIG d   1       4.748  -0.562 -11.713  0.00  0.00     0.034 H 
ENDROOT
BRANCH   1  23
ATOM     23  O   LIG d   1       4.256  -1.016  -5.587  0.00  0.00    -0.457 OA
BRANCH  23  24
ATOM     24  C   LIG d   1       3.992  -0.341  -4.449  0.00  0.00     0.335 C 
ATOM     25  O   LIG d   1       3.357   0.694  -4.491  0.00  0.00    -0.245 OA
BRANCH  24  26
ATOM     26  C   LIG d   1       4.474  -0.857  -3.160  0.00  0.00     0.033 C 
ATOM     27  C   LIG d   1       5.508  -0.278  -2.557  0.00  0.00    -0.037 C 
ATOM     28  H   LIG d   1       5.922  -0.712  -1.658  0.00  0.00     0.061 H 
BRANCH  26  29
ATOM     29  C   LIG d   1       3.796  -2.042  -2.523  0.00  0.00    -0.033 C 
ATOM     30  H   LIG d   1       2.861  -1.721  -2.063  0.00  0.00     0.028 H 
ATOM     31  H   LIG d   1       3.588  -2.794  -3.283  0.00  0.00     0.028 H 
ATOM     32  H   LIG d   1       4.449  -2.467  -1.760  0.00  0.00     0.028 H 
ENDBRANCH  26  29
BRANCH  27  33
ATOM     33  C   LIG d   1       6.103   0.985  -3.126  0.00  0.00     0.111 C 
ATOM     34  H   LIG d   1       5.445   1.377  -3.903  0.00  0.00     0.074 H 
ATOM     35  H   LIG d   1       6.211   1.725  -2.333  0.00  0.00     0.074 H 
BRANCH  33  36
ATOM     36  O   LIG d   1       7.384   0.697  -3.688  0.00  0.00    -0.461 OA
BRANCH  36  37
ATOM     37  C   LIG d   1       8.114   1.742  -4.109  0.00  0.00     0.304 C 
ATOM     38  O   LIG d   1       8.598   2.504  -3.305  0.00  0.00    -0.251 OA
BRANCH  37  39
ATOM     39  C   LIG d   1       8.332   1.964  -5.583  0.00  0.00     0.033 C 
ATOM     40  H   LIG d   1       9.305   1.565  -5.871  0.00  0.00     0.034 H 
ATOM     41  H   LIG d   1       7.550   1.455  -6.146  0.00  0.00     0.034 H 
ATOM     42  H   LIG d   1       8.298   3.032  -5.799  0.00  0.00     0.034 H 
ENDBRANCH  37  39
ENDBRANCH  36  37
ENDBRANCH  33  36
ENDBRANCH  27  33
ENDBRANCH  24  26
ENDBRANCH  23  24
ENDBRANCH   1  23
BRANCH  15  43
ATOM     43  C   LIG d   1       5.988  -3.278  -5.727  0.00  0.00     0.039 C 
ATOM     44  C   LIG d   1       6.776  -3.181  -4.659  0.00  0.00    -0.088 C 
ATOM     45  H   LIG d   1       6.784  -3.969  -3.920  0.00  0.00     0.054 H 
ATOM     46  H   LIG d   1       7.408  -2.315  -4.530  0.00  0.00     0.054 H 
BRANCH  43  47
ATOM     47  C   LIG d   1       5.108  -4.443  -5.887  0.00  0.00     0.335 C 
ATOM     48  O   LIG d   1       4.118  -4.558  -5.191  0.00  0.00    -0.245 OA
BRANCH  47  49
ATOM     49  O   LIG d   1       5.397  -5.385  -6.807  0.00  0.00    -0.465 OA
BRANCH  49  50
ATOM     50  C   LIG d   1       4.412  -6.395  -7.033  0.00  0.00     0.082 C 
ATOM     51  H   LIG d   1       4.899  -7.366  -7.118  0.00  0.00     0.066 H 
ATOM     52  H   LIG d   1       3.710  -6.411  -6.199  0.00  0.00     0.066 H 
ATOM     53  H   LIG d   1       3.874  -6.178  -7.956  0.00  0.00     0.066 H 
ENDBRANCH  49  50
ENDBRANCH  47  49
ENDBRANCH  43  47
ENDBRANCH  15  43
BRANCH  13  54
ATOM     54  O   LIG d   1       3.717  -2.719  -7.378  0.00  0.00    -0.390 OA
ATOM     55  H   LIG d   1       3.241  -1.884  -7.268  0.00  0.00     0.210 HD
ENDBRANCH  13  54
BRANCH   4  56
ATOM     56  C   LIG d   1       3.183  -0.359  -7.713  0.00  0.00    -0.056 C 
ATOM     57  H   LIG d   1       3.219  -1.155  -6.969  0.00  0.00     0.024 H 
ATOM     58  H   LIG d   1       2.850   0.565  -7.241  0.00  0.00     0.024 H 
ATOM     59  H   LIG d   1       2.487  -0.635  -8.505  0.00  0.00     0.024 H 
ENDBRANCH   4  56
BRANCH   5  60
ATOM     60  O   LIG d   1       4.160   2.179  -8.764  0.00  0.00    -0.391 OA
ATOM     61  H   LIG d   1       4.862   2.842  -8.797  0.00  0.00     0.210 HD
ENDBRANCH   5  60
TORSDOF 15
ENDMDL
MODEL 8
REMARK VINA RESULT:      -4.9      2.817      6.028
REMARK  15 active torsions:
REMARK  status: ('A' for Active; 'I' for Inactive)
REMARK    1  A    between atoms: C_1  and  C_2 
REMARK    2  A    between atoms: C_2  and  C_9 
REMARK    3  A    between atoms: C_3  and  C_4 
REMARK    4  A    between atoms: C_4  and  O_5 
REMARK    5  A    between atoms: O_5  and  C_6 
REMARK    6  A    between atoms: C_6  and  C_8 
REMARK    7  A    between atoms: C_9  and  O_11 
REMARK    8  A    between atoms: O_11  and  C_12 
REMARK    9  A    between atoms: C_15  and  C_36 
REMARK   10  A    between atoms: C_16  and  O_35 
REMARK   11  A    between atoms: C_24  and  O_34 
REMARK   12  A    between atoms: C_26  and  C_28 
REMARK   13  A    between atoms: C_28  and  C_30 
REMARK   14  A    between atoms: C_30  and  O_32 
REMARK   15  A    between atoms: O_32  and  C_33 
ROOT
ATOM      1  C   LIG d   1       6.523  -1.881  -6.107  0.00  0.00     0.113 C 
ATOM      2  H   LIG d   1       7.032  -1.847  -7.070  0.00  0.00     0.074 H 
ATOM      3  C   LIG d   1       6.488  -0.475  -5.500  0.00  0.00    -0.006 C 
ATOM      4  C   LIG d   1       5.763  -0.532  -4.156  0.00  0.00     0.009 C 
ATOM      5  C   LIG d   1       5.732   0.846  -3.497  0.00  0.00     0.062 C 
ATOM      6  H   LIG d   1       5.144   1.528  -4.111  0.00  0.00     0.060 H 
ATOM      7  C   LIG d   1       5.096   0.734  -2.109  0.00  0.00    -0.020 C 
ATOM      8  C   LIG d   1       3.643   0.267  -2.239  0.00  0.00     0.009 C 
ATOM      9  C   LIG d   1       3.609  -1.010  -3.052  0.00  0.00     0.140 C 
ATOM     10  O   LIG d   1       3.029  -1.990  -2.651  0.00  0.00    -0.297 OA
ATOM     11  C   LIG d   1       4.327  -1.016  -4.381  0.00  0.00     0.052 C 
ATOM     12  H   LIG d   1       3.818  -0.344  -5.074  0.00  0.00     0.041 H 
ATOM     13  C   LIG d   1       4.363  -2.429  -4.962  0.00  0.00     0.076 C 
ATOM     14  H   LIG d   1       3.344  -2.788  -5.111  0.00  0.00     0.061 H 
ATOM     15  C   LIG d   1       5.097  -2.396  -6.304  0.00  0.00     0.054 C 
ATOM     16  H   LIG d   1       4.566  -1.738  -6.991  0.00  0.00     0.041 H 
ATOM     17  H   LIG d   1       7.505  -0.117  -5.350  0.00  0.00     0.031 H 
ATOM     18  H   LIG d   1       5.957   0.199  -6.172  0.00  0.00     0.031 H 
ATOM     19  H   LIG d   1       5.656   0.013  -1.512  0.00  0.00     0.029 H 
ATOM     20  H   LIG d   1       5.123   1.707  -1.619  0.00  0.00     0.029 H 
ATOM     21  H   LIG d   1       3.231   0.080  -1.248  0.00  0.00     0.034 H 
ATOM     22  H   LIG d   1       3.058   1.037  -2.742  0.00  0.00     0.034 H 
ENDROOT
BRANCH   1  23
ATOM     23  O   LIG d   1       7.227  -2.760  -5.228  0.00  0.00    -0.457 OA
BRANCH  23  24
ATOM     24  C   LIG d   1       8.536  -2.959  -5.482  0.00  0.00     0.335 C 
ATOM     25  O   LIG d   1       9.374  -2.276  -4.926  0.00  0.00    -0.245 OA
BRANCH  24  26
ATOM     26  C   LIG d   1       8.951  -4.002  -6.430  0.00  0.00     0.033 C 
ATOM     27  C   LIG d   1       9.048  -5.267  -6.028  0.00  0.00    -0.037 C 
ATOM     28  H   LIG d   1       9.443  -6.018  -6.697  0.00  0.00     0.061 H 
BRANCH  26  29
ATOM     29  C   LIG d   1       9.267  -3.639  -7.857  0.00  0.00    -0.033 C 
ATOM     30  H   LIG d   1       8.403  -3.851  -8.486  0.00  0.00     0.028 H 
ATOM     31  H   LIG d   1       9.509  -2.579  -7.918  0.00  0.00     0.028 H 
ATOM     32  H   LIG d   1      10.120  -4.225  -8.201  0.00  0.00     0.028 H 
ENDBRANCH  26  29
BRANCH  27  33
ATOM     33  C   LIG d   1       8.607  -5.652  -4.639  0.00  0.00     0.111 C 
ATOM     34  H   LIG d   1       8.066  -4.820  -4.186  0.00  0.00     0.074 H 
ATOM     35  H   LIG d   1       7.954  -6.523  -4.694  0.00  0.00     0.074 H 
BRANCH  33  36
ATOM     36  O   LIG d   1       9.753  -5.963  -3.844  0.00  0.00    -0.461 OA
BRANCH  36  37
ATOM     37  C   LIG d   1       9.687  -5.663  -2.537  0.00  0.00     0.304 C 
ATOM     38  O   LIG d   1       9.670  -6.548  -1.714  0.00  0.00    -0.251 OA
BRANCH  37  39
ATOM     39  C   LIG d   1       9.637  -4.223  -2.096  0.00  0.00     0.033 C 
ATOM     40  H   LIG d   1       8.898  -4.112  -1.302  0.00  0.00     0.034 H 
ATOM     41  H   LIG d   1      10.617  -3.924  -1.723  0.00  0.00     0.034 H 
ATOM     42  H   LIG d   1       9.361  -3.594  -2.941  0.00  0.00     0.034 H 
ENDBRANCH  37  39
ENDBRANCH  36  37
ENDBRANCH  33  36
ENDBRANCH  27  33
ENDBRANCH  24  26
ENDBRANCH  23  24
ENDBRANCH   1  23
BRANCH  15  43
ATOM     43  C   LIG d   1       5.142  -3.788  -6.880  0.00  0.00     0.039 C 
ATOM     44  C   LIG d   1       5.701  -3.998  -8.069  0.00  0.00    -0.088 C 
ATOM     45  H   LIG d   1       5.714  -4.993  -8.491  0.00  0.00     0.054 H 
ATOM     46  H   LIG d   1       6.142  -3.176  -8.612  0.00  0.00     0.054 H 
BRANCH  43  47
ATOM     47  C   LIG d   1       4.568  -4.913  -6.129  0.00  0.00     0.335 C 
ATOM     48  O   LIG d   1       3.373  -5.129  -6.177  0.00  0.00    -0.245 OA
BRANCH  47  49
ATOM     49  O   LIG d   1       5.367  -5.706  -5.387  0.00  0.00    -0.465 OA
BRANCH  49  50
ATOM     50  C   LIG d   1       5.205  -7.117  -5.543  0.00  0.00     0.082 C 
ATOM     51  H   LIG d   1       5.965  -7.497  -6.226  0.00  0.00     0.066 H 
ATOM     52  H   LIG d   1       5.309  -7.605  -4.574  0.00  0.00     0.066 H 
ATOM     53  H   LIG d   1       4.215  -7.327  -5.950  0.00  0.00     0.066 H 
ENDBRANCH  49  50
ENDBRANCH  47  49
ENDBRANCH  43  47
ENDBRANCH  15  43
BRANCH  13  54
ATOM     54  O   LIG d   1       5.049  -3.300  -4.060  0.00  0.00    -0.390 OA
ATOM     55  H   LIG d   1       4.473  -3.932  -3.608  0.00  0.00     0.210 HD
ENDBRANCH  13  54
BRANCH   4  56
ATOM     56  C   LIG d   1       6.488  -1.510  -3.229  0.00  0.00    -0.056 C 
ATOM     57  H   LIG d   1       6.332  -2.529  -3.583  0.00  0.00     0.024 H 
ATOM     58  H   LIG d   1       7.555  -1.286  -3.225  0.00  0.00     0.024 H 
ATOM     59  H   LIG d   1       6.092  -1.412  -2.219  0.00  0.00     0.024 H 
ENDBRANCH   4  56
BRANCH   5  60
ATOM     60  O   LIG d   1       7.065   1.344  -3.373  0.00  0.00    -0.391 OA
ATOM     61  H   LIG d   1       7.749   0.671  -3.488  0.00  0.00     0.210 HD
ENDBRANCH   5  60
TORSDOF 15
ENDMDL
MODEL 9
REMARK VINA RESULT:      -4.9      2.273      6.142
REMARK  15 active torsions:
REMARK  status: ('A' for Active; 'I' for Inactive)
REMARK    1  A    between atoms: C_1  and  C_2 
REMARK    2  A    between atoms: C_2  and  C_9 
REMARK    3  A    between atoms: C_3  and  C_4 
REMARK    4  A    between atoms: C_4  and  O_5 
REMARK    5  A    between atoms: O_5  and  C_6 
REMARK    6  A    between atoms: C_6  and  C_8 
REMARK    7  A    between atoms: C_9  and  O_11 
REMARK    8  A    between atoms: O_11  and  C_12 
REMARK    9  A    between atoms: C_15  and  C_36 
REMARK   10  A    between atoms: C_16  and  O_35 
REMARK   11  A    between atoms: C_24  and  O_34 
REMARK   12  A    between atoms: C_26  and  C_28 
REMARK   13  A    between atoms: C_28  and  C_30 
REMARK   14  A    between atoms: C_30  and  O_32 
REMARK   15  A    between atoms: O_32  and  C_33 
ROOT
ATOM      1  C   LIG d   1       6.736  -1.101  -3.621  0.00  0.00     0.113 C 
ATOM      2  H   LIG d   1       7.200  -0.446  -2.885  0.00  0.00     0.074 H 
ATOM      3  C   LIG d   1       7.635  -2.318  -3.860  0.00  0.00    -0.006 C 
ATOM      4  C   LIG d   1       6.970  -3.234  -4.886  0.00  0.00     0.009 C 
ATOM      5  C   LIG d   1       7.849  -4.448  -5.180  0.00  0.00     0.062 C 
ATOM      6  H   LIG d   1       7.947  -5.051  -4.278  0.00  0.00     0.060 H 
ATOM      7  C   LIG d   1       7.206  -5.287  -6.287  0.00  0.00    -0.020 C 
ATOM      8  C   LIG d   1       5.850  -5.821  -5.814  0.00  0.00     0.009 C 
ATOM      9  C   LIG d   1       5.006  -4.658  -5.334  0.00  0.00     0.140 C 
ATOM     10  O   LIG d   1       3.880  -4.496  -5.738  0.00  0.00    -0.297 OA
ATOM     11  C   LIG d   1       5.621  -3.708  -4.334  0.00  0.00     0.052 C 
ATOM     12  H   LIG d   1       5.776  -4.226  -3.386  0.00  0.00     0.041 H 
ATOM     13  C   LIG d   1       4.716  -2.497  -4.121  0.00  0.00     0.076 C 
ATOM     14  H   LIG d   1       3.748  -2.826  -3.742  0.00  0.00     0.061 H 
ATOM     15  C   LIG d   1       5.371  -1.558  -3.105  0.00  0.00     0.054 C 
ATOM     16  H   LIG d   1       5.499  -2.083  -2.158  0.00  0.00     0.041 H 
ATOM     17  H   LIG d   1       8.602  -1.988  -4.239  0.00  0.00     0.031 H 
ATOM     18  H   LIG d   1       7.774  -2.858  -2.924  0.00  0.00     0.031 H 
ATOM     19  H   LIG d   1       7.062  -4.668  -7.173  0.00  0.00     0.029 H 
ATOM     20  H   LIG d   1       7.859  -6.124  -6.534  0.00  0.00     0.029 H 
ATOM     21  H   LIG d   1       5.347  -6.321  -6.641  0.00  0.00     0.034 H 
ATOM     22  H   LIG d   1       6.001  -6.525  -4.996  0.00  0.00     0.034 H 
ENDROOT
BRANCH   1  23
ATOM     23  O   LIG d   1       6.564  -0.389  -4.848  0.00  0.00    -0.457 OA
BRANCH  23  24
ATOM     24  C   LIG d   1       7.288   0.737  -5.009  0.00  0.00     0.335 C 
ATOM     25  O   LIG d   1       7.307   1.577  -4.130  0.00  0.00    -0.245 OA
BRANCH  24  26
ATOM     26  C   LIG d   1       8.052   0.950  -6.245  0.00  0.00     0.033 C 
ATOM     27  C   LIG d   1       9.362   0.717  -6.266  0.00  0.00    -0.037 C 
ATOM     28  H   LIG d   1       9.941   0.963  -7.145  0.00  0.00     0.061 H 
BRANCH  26  29
ATOM     29  C   LIG d   1       7.353   1.433  -7.489  0.00  0.00    -0.033 C 
ATOM     30  H   LIG d   1       8.072   1.507  -8.305  0.00  0.00     0.028 H 
ATOM     31  H   LIG d   1       6.566   0.731  -7.760  0.00  0.00     0.028 H 
ATOM     32  H   LIG d   1       6.915   2.414  -7.301  0.00  0.00     0.028 H 
ENDBRANCH  26  29
BRANCH  27  33
ATOM     33  C   LIG d   1      10.038   0.110  -5.064  0.00  0.00     0.111 C 
ATOM     34  H   LIG d   1      10.917   0.701  -4.804  0.00  0.00     0.074 H 
ATOM     35  H   LIG d   1       9.345   0.100  -4.223  0.00  0.00     0.074 H 
BRANCH  33  36
ATOM     36  O   LIG d   1      10.438  -1.228  -5.368  0.00  0.00    -0.461 OA
BRANCH  36  37
ATOM     37  C   LIG d   1      11.564  -1.674  -4.786  0.00  0.00     0.304 C 
ATOM     38  O   LIG d   1      11.767  -2.863  -4.696  0.00  0.00    -0.251 OA
BRANCH  37  39
ATOM     39  C   LIG d   1      12.574  -0.694  -4.249  0.00  0.00     0.033 C 
ATOM     40  H   LIG d   1      13.578  -1.101  -4.376  0.00  0.00     0.034 H 
ATOM     41  H   LIG d   1      12.492   0.246  -4.794  0.00  0.00     0.034 H 
ATOM     42  H   LIG d   1      12.384  -0.519  -3.191  0.00  0.00     0.034 H 
ENDBRANCH  37  39
ENDBRANCH  36  37
ENDBRANCH  33  36
ENDBRANCH  27  33
ENDBRANCH  24  26
ENDBRANCH  23  24
ENDBRANCH   1  23
BRANCH  15  43
ATOM     43  C   LIG d   1       4.486  -0.357  -2.895  0.00  0.00     0.039 C 
ATOM     44  C   LIG d   1       4.757   0.506  -1.918  0.00  0.00    -0.088 C 
ATOM     45  H   LIG d   1       4.110   1.356  -1.754  0.00  0.00     0.054 H 
ATOM     46  H   LIG d   1       5.622   0.358  -1.290  0.00  0.00     0.054 H 
BRANCH  43  47
ATOM     47  C   LIG d   1       3.324  -0.139  -3.767  0.00  0.00     0.335 C 
ATOM     48  O   LIG d   1       2.266  -0.684  -3.518  0.00  0.00    -0.245 OA
BRANCH  47  49
ATOM     49  O   LIG d   1       3.430   0.667  -4.843  0.00  0.00    -0.465 OA
BRANCH  49  50
ATOM     50  C   LIG d   1       2.353   0.640  -5.781  0.00  0.00     0.082 C 
ATOM     51  H   LIG d   1       1.834   1.598  -5.767  0.00  0.00     0.066 H 
ATOM     52  H   LIG d   1       2.746   0.453  -6.780  0.00  0.00     0.066 H 
ATOM     53  H   LIG d   1       1.656  -0.154  -5.512  0.00  0.00     0.066 H 
ENDBRANCH  49  50
ENDBRANCH  47  49
ENDBRANCH  43  47
ENDBRANCH  15  43
BRANCH  13  54
ATOM     54  O   LIG d   1       4.535  -1.810  -5.361  0.00  0.00    -0.390 OA
ATOM     55  H   LIG d   1       3.622  -1.805  -5.678  0.00  0.00     0.210 HD
ENDBRANCH  13  54
BRANCH   4  56
ATOM     56  C   LIG d   1       6.740  -2.459  -6.186  0.00  0.00    -0.056 C 
ATOM     57  H   LIG d   1       6.162  -1.560  -5.975  0.00  0.00     0.024 H 
ATOM     58  H   LIG d   1       7.702  -2.180  -6.617  0.00  0.00     0.024 H 
ATOM     59  H   LIG d   1       6.194  -3.086  -6.889  0.00  0.00     0.024 H 
ENDBRANCH   4  56
BRANCH   5  60
ATOM     60  O   LIG d   1       9.141  -4.009  -5.604  0.00  0.00    -0.391 OA
ATOM     61  H   LIG d   1       9.353  -4.237  -6.519  0.00  0.00     0.210 HD
ENDBRANCH   5  60
TORSDOF 15
ENDMDL
MODEL 10
REMARK VINA RESULT:      -4.8      6.917     10.631
REMARK  15 active torsions:
REMARK  status: ('A' for Active; 'I' for Inactive)
REMARK    1  A    between atoms: C_1  and  C_2 
REMARK    2  A    between atoms: C_2  and  C_9 
REMARK    3  A    between atoms: C_3  and  C_4 
REMARK    4  A    between atoms: C_4  and  O_5 
REMARK    5  A    between atoms: O_5  and  C_6 
REMARK    6  A    between atoms: C_6  and  C_8 
REMARK    7  A    between atoms: C_9  and  O_11 
REMARK    8  A    between atoms: O_11  and  C_12 
REMARK    9  A    between atoms: C_15  and  C_36 
REMARK   10  A    between atoms: C_16  and  O_35 
REMARK   11  A    between atoms: C_24  and  O_34 
REMARK   12  A    between atoms: C_26  and  C_28 
REMARK   13  A    between atoms: C_28  and  C_30 
REMARK   14  A    between atoms: C_30  and  O_32 
REMARK   15  A    between atoms: O_32  and  C_33 
ROOT
ATOM      1  C   LIG d   1      10.478   6.570  -2.553  0.00  0.00     0.113 C 
ATOM      2  H   LIG d   1       9.902   5.835  -3.116  0.00  0.00     0.074 H 
ATOM      3  C   LIG d   1       9.522   7.561  -1.882  0.00  0.00    -0.006 C 
ATOM      4  C   LIG d   1      10.339   8.579  -1.088  0.00  0.00     0.009 C 
ATOM      5  C   LIG d   1       9.427   9.609  -0.426  0.00  0.00     0.062 C 
ATOM      6  H   LIG d   1       8.793   9.113   0.309  0.00  0.00     0.060 H 
ATOM      7  C   LIG d   1      10.279  10.673   0.270  0.00  0.00    -0.020 C 
ATOM      8  C   LIG d   1      11.107  10.028   1.386  0.00  0.00     0.009 C 
ATOM      9  C   LIG d   1      11.894   8.871   0.805  0.00  0.00     0.140 C 
ATOM     10  O   LIG d   1      13.084   8.773   0.984  0.00  0.00    -0.297 OA
ATOM     11  C   LIG d   1      11.140   7.845  -0.007  0.00  0.00     0.052 C 
ATOM     12  H   LIG d   1      10.458   7.295   0.643  0.00  0.00     0.041 H 
ATOM     13  C   LIG d   1      12.111   6.875  -0.678  0.00  0.00     0.076 C 
ATOM     14  H   LIG d   1      12.697   6.359   0.084  0.00  0.00     0.061 H 
ATOM     15  C   LIG d   1      11.313   5.854  -1.490  0.00  0.00     0.054 C 
ATOM     16  H   LIG d   1      10.652   5.298  -0.825  0.00  0.00     0.041 H 
ATOM     17  H   LIG d   1       8.938   8.077  -2.644  0.00  0.00     0.031 H 
ATOM     18  H   LIG d   1       8.854   7.025  -1.209  0.00  0.00     0.031 H 
ATOM     19  H   LIG d   1      10.948  11.134  -0.457  0.00  0.00     0.029 H 
ATOM     20  H   LIG d   1       9.628  11.437   0.697  0.00  0.00     0.029 H 
ATOM     21  H   LIG d   1      11.794  10.764   1.802  0.00  0.00     0.034 H 
ATOM     22  H   LIG d   1      10.442   9.661   2.167  0.00  0.00     0.034 H 
ENDROOT
BRANCH   1  23
ATOM     23  O   LIG d   1      11.346   7.275  -3.442  0.00  0.00    -0.457 OA
BRANCH  23  24
ATOM     24  C   LIG d   1      11.304   6.926  -4.744  0.00  0.00     0.335 C 
ATOM     25  O   LIG d   1      12.337   6.781  -5.368  0.00  0.00    -0.245 OA
BRANCH  24  26
ATOM     26  C   LIG d   1      10.010   6.720  -5.408  0.00  0.00     0.033 C 
ATOM     27  C   LIG d   1       9.288   7.768  -5.798  0.00  0.00    -0.037 C 
ATOM     28  H   LIG d   1       8.296   7.621  -6.201  0.00  0.00     0.061 H 
BRANCH  26  29
ATOM     29  C   LIG d   1       9.500   5.323  -5.647  0.00  0.00    -0.033 C 
ATOM     30  H   LIG d   1       8.863   5.315  -6.532  0.00  0.00     0.028 H 
ATOM     31  H   LIG d   1      10.342   4.649  -5.799  0.00  0.00     0.028 H 
ATOM     32  H   LIG d   1       8.924   4.994  -4.782  0.00  0.00     0.028 H 
ENDBRANCH  26  29
BRANCH  27  33
ATOM     33  C   LIG d   1       9.855   9.159  -5.679  0.00  0.00     0.111 C 
ATOM     34  H   LIG d   1      10.933   9.100  -5.527  0.00  0.00     0.074 H 
ATOM     35  H   LIG d   1       9.647   9.716  -6.593  0.00  0.00     0.074 H 
BRANCH  33  36
ATOM     36  O   LIG d   1       9.253   9.825  -4.568  0.00  0.00    -0.461 OA
BRANCH  36  37
ATOM     37  C   LIG d   1       9.056  11.149  -4.684  0.00  0.00     0.304 C 
ATOM     38  O   LIG d   1       8.370  11.731  -3.877  0.00  0.00    -0.251 OA
BRANCH  37  39
ATOM     39  C   LIG d   1       9.692  11.908  -5.819  0.00  0.00     0.033 C 
ATOM     40  H   LIG d   1       9.954  11.214  -6.619  0.00  0.00     0.034 H 
ATOM     41  H   LIG d   1       8.989  12.650  -6.199  0.00  0.00     0.034 H 
ATOM     42  H   LIG d   1      10.591  12.409  -5.463  0.00  0.00     0.034 H 
ENDBRANCH  37  39
ENDBRANCH  36  37
ENDBRANCH  33  36
ENDBRANCH  27  33
ENDBRANCH  24  26
ENDBRANCH  23  24
ENDBRANCH   1  23
BRANCH  15  43
ATOM     43  C   LIG d   1      12.265   4.898  -2.161  0.00  0.00     0.039 C 
ATOM     44  C   LIG d   1      13.578   5.059  -2.020  0.00  0.00    -0.088 C 
ATOM     45  H   LIG d   1      14.261   4.385  -2.519  0.00  0.00     0.054 H 
ATOM     46  H   LIG d   1      13.962   5.860  -1.408  0.00  0.00     0.054 H 
BRANCH  43  47
ATOM     47  C   LIG d   1      11.743   3.789  -2.973  0.00  0.00     0.335 C 
ATOM     48  O   LIG d   1      12.193   3.584  -4.083  0.00  0.00    -0.245 OA
BRANCH  47  49
ATOM     49  O   LIG d   1      10.767   2.998  -2.485  0.00  0.00    -0.465 OA
BRANCH  49  50
ATOM     50  C   LIG d   1       9.890   2.389  -3.435  0.00  0.00     0.082 C 
ATOM     51  H   LIG d   1       9.981   1.305  -3.371  0.00  0.00     0.066 H 
ATOM     52  H   LIG d   1       8.863   2.683  -3.221  0.00  0.00     0.066 H 
ATOM     53  H   LIG d   1      10.160   2.716  -4.439  0.00  0.00     0.066 H 
ENDBRANCH  49  50
ENDBRANCH  47  49
ENDBRANCH  43  47
ENDBRANCH  15  43
BRANCH  13  54
ATOM     54  O   LIG d   1      12.987   7.599  -1.544  0.00  0.00    -0.390 OA
ATOM     55  H   LIG d   1      13.906   7.299  -1.515  0.00  0.00     0.210 HD
ENDBRANCH  13  54
BRANCH   4  56
ATOM     56  C   LIG d   1      11.305   9.301  -2.030  0.00  0.00    -0.056 C 
ATOM     57  H   LIG d   1      11.680  10.202  -1.544  0.00  0.00     0.024 H 
ATOM     58  H   LIG d   1      12.140   8.643  -2.270  0.00  0.00     0.024 H 
ATOM     59  H   LIG d   1      10.781   9.574  -2.946  0.00  0.00     0.024 H 
ENDBRANCH   4  56
BRANCH   5  60
ATOM     60  O   LIG d   1       8.609  10.229  -1.420  0.00  0.00    -0.391 OA
ATOM     61  H   LIG d   1       8.644  11.195  -1.412  0.00  0.00     0.210 HD
ENDBRANCH   5  60
TORSDOF 15
ENDMDL
