MODEL 1
REMARK VINA RESULT:      -7.6      0.000      0.000
REMARK  5 active torsions:
REMARK  status: ('A' for Active; 'I' for Inactive)
REMARK    1  A    between atoms: C_5  and  C_7 
REMARK    2  A    between atoms: C_7  and  N_8 
REMARK    3  A    between atoms: C_13  and  C_30 
REMARK    4  A    between atoms: C_30  and  C_31 
REMARK    5  A    between atoms: C_31  and  C_32 
ROOT
ATOM      1  N   LIG d   1       6.654  -2.534  -5.497  0.00  0.00    -0.237 N 
ATOM      2  C   LIG d   1       6.668  -3.853  -5.716  0.00  0.00     0.232 A 
ATOM      3  O   LIG d   1       6.938  -4.698  -4.890  0.00  0.00    -0.275 OA
ATOM      4  C   LIG d   1       6.292  -4.127  -7.154  0.00  0.00     0.096 A 
ATOM      5  H   LIG d   1       7.066  -4.676  -7.693  0.00  0.00     0.046 H 
ATOM      6  C   LIG d   1       4.922  -4.836  -7.200  0.00  0.00    -0.009 C 
ATOM      7  H   LIG d   1       4.833  -5.431  -8.108  0.00  0.00     0.086 H 
ATOM      8  N   LIG d   1       3.923  -3.734  -7.203  0.00  0.00     0.245 N 
ATOM      9  C   LIG d   1       4.529  -2.700  -8.061  0.00  0.00     0.106 A 
ATOM     10  C   LIG d   1       6.044  -2.708  -7.738  0.00  0.00     0.111 A 
ATOM     11  H   LIG d   1       6.669  -2.492  -8.605  0.00  0.00     0.047 H 
ATOM     12  C   LIG d   1       6.315  -1.797  -6.562  0.00  0.00     0.233 A 
ATOM     13  O   LIG d   1       6.240  -0.588  -6.581  0.00  0.00    -0.275 OA
ATOM     14  C   LIG d   1       3.917  -1.351  -7.817  0.00  0.00     0.034 A 
ATOM     15  C   LIG d   1       3.810  -0.544  -6.705  0.00  0.00    -0.051 A 
ATOM     16  C   LIG d   1       3.169   0.678  -6.796  0.00  0.00    -0.061 A 
ATOM     17  C   LIG d   1       2.635   1.088  -8.005  0.00  0.00    -0.060 A 
ATOM     18  C   LIG d   1       2.740   0.284  -9.121  0.00  0.00    -0.040 A 
ATOM     19  C   LIG d   1       3.385  -0.949  -9.038  0.00  0.00     0.043 A 
ATOM     20  N   LIG d   1       3.616  -1.924 -10.011  0.00  0.00    -0.280 N 
ATOM     21  C   LIG d   1       4.285  -2.984  -9.518  0.00  0.00     0.274 A 
ATOM     22  O   LIG d   1       4.623  -3.975 -10.130  0.00  0.00    -0.269 OA
ATOM     23  H   LIG d   1       3.049  -4.052  -7.596  0.00  0.00     0.203 HD
ATOM     24  H   LIG d   1       4.227  -0.866  -5.763  0.00  0.00     0.062 H 
ATOM     25  H   LIG d   1       3.085   1.311  -5.926  0.00  0.00     0.062 H 
ATOM     26  H   LIG d   1       2.133   2.042  -8.075  0.00  0.00     0.062 H 
ATOM     27  H   LIG d   1       2.322   0.611 -10.061  0.00  0.00     0.064 H 
ATOM     28  H   LIG d   1       3.330  -1.846 -10.934  0.00  0.00     0.155 HD
ATOM     29  H   LIG d   1       3.784  -3.382  -6.268  0.00  0.00     0.203 HD
ENDROOT
BRANCH   1  30
ATOM     30  C   LIG d   1       6.978  -1.943  -4.195  0.00  0.00     0.049 C 
ATOM     31  H   LIG d   1       7.696  -1.136  -4.332  0.00  0.00     0.052 H 
ATOM     32  H   LIG d   1       7.408  -2.707  -3.547  0.00  0.00     0.052 H 
BRANCH  30  33
ATOM     33  C   LIG d   1       5.723  -1.398  -3.565  0.00  0.00    -0.011 A 
ATOM     34  C   LIG d   1       5.632  -0.052  -3.253  0.00  0.00     0.046 A 
ATOM     35  C   LIG d   1       4.480   0.446  -2.674  0.00  0.00    -0.043 A 
ATOM     36 CL   LIG d   1       6.965   1.007  -3.591  0.00  0.00    -0.083 Cl
ATOM     37  C   LIG d   1       3.420  -0.398  -2.406  0.00  0.00    -0.060 A 
ATOM     38  H   LIG d   1       4.408   1.496  -2.431  0.00  0.00     0.063 H 
ATOM     39  C   LIG d   1       3.510  -1.742  -2.717  0.00  0.00    -0.061 A 
ATOM     40  H   LIG d   1       2.520  -0.009  -1.954  0.00  0.00     0.062 H 
ATOM     41  C   LIG d   1       4.662  -2.242  -3.296  0.00  0.00    -0.056 A 
ATOM     42  H   LIG d   1       2.683  -2.403  -2.504  0.00  0.00     0.062 H 
ATOM     43  H   LIG d   1       4.732  -3.292  -3.539  0.00  0.00     0.062 H 
ENDBRANCH  30  33
ENDBRANCH   1  30
BRANCH   6  44
ATOM     44  C   LIG d   1       4.739  -5.720  -5.965  0.00  0.00    -0.004 C 
ATOM     45  H   LIG d   1       5.582  -5.578  -5.288  0.00  0.00     0.032 H 
ATOM     46  H   LIG d   1       3.815  -5.446  -5.456  0.00  0.00     0.032 H 
BRANCH  44  47
ATOM     47  C   LIG d   1       4.672  -7.187  -6.394  0.00  0.00    -0.008 C 
ATOM     48  H   LIG d   1       3.655  -7.428  -6.704  0.00  0.00     0.033 H 
ATOM     49  H   LIG d   1       5.355  -7.354  -7.226  0.00  0.00     0.033 H 
BRANCH  47  50
ATOM     50  C   LIG d   1       5.066  -8.067  -5.235  0.00  0.00     0.042 C 
ATOM     51  O   LIG d   1       6.216  -8.068  -4.834  0.00  0.00    -0.550 OA
ATOM     52  O   LIG d   1       4.232  -8.778  -4.700  0.00  0.00    -0.550 OA
ENDBRANCH  47  50
ENDBRANCH  44  47
ENDBRANCH   6  44
TORSDOF 5
ENDMDL
MODEL 2
REMARK VINA RESULT:      -7.5      2.638      6.440
REMARK  5 active torsions:
REMARK  status: ('A' for Active; 'I' for Inactive)
REMARK    1  A    between atoms: C_5  and  C_7 
REMARK    2  A    between atoms: C_7  and  N_8 
REMARK    3  A    between atoms: C_13  and  C_30 
REMARK    4  A    between atoms: C_30  and  C_31 
REMARK    5  A    between atoms: C_31  and  C_32 
ROOT
ATOM      1  N   LIG d   1       3.879  -1.119  -6.812  0.00  0.00    -0.237 N 
ATOM      2  C   LIG d   1       4.138  -0.548  -5.631  0.00  0.00     0.232 A 
ATOM      3  O   LIG d   1       3.462   0.311  -5.105  0.00  0.00    -0.275 OA
ATOM      4  C   LIG d   1       5.401  -1.140  -5.051  0.00  0.00     0.096 A 
ATOM      5  H   LIG d   1       6.169  -0.389  -4.860  0.00  0.00     0.046 H 
ATOM      6  C   LIG d   1       5.051  -1.963  -3.794  0.00  0.00    -0.009 C 
ATOM      7  H   LIG d   1       5.910  -2.014  -3.124  0.00  0.00     0.086 H 
ATOM      8  N   LIG d   1       4.713  -3.317  -4.306  0.00  0.00     0.245 N 
ATOM      9  C   LIG d   1       5.679  -3.542  -5.396  0.00  0.00     0.106 A 
ATOM     10  C   LIG d   1       5.833  -2.182  -6.121  0.00  0.00     0.111 A 
ATOM     11  H   LIG d   1       6.842  -2.009  -6.498  0.00  0.00     0.047 H 
ATOM     12  C   LIG d   1       4.765  -2.052  -7.183  0.00  0.00     0.233 A 
ATOM     13  O   LIG d   1       4.720  -2.690  -8.212  0.00  0.00    -0.275 OA
ATOM     14  C   LIG d   1       5.215  -4.621  -6.332  0.00  0.00     0.034 A 
ATOM     15  C   LIG d   1       4.096  -4.775  -7.122  0.00  0.00    -0.051 A 
ATOM     16  C   LIG d   1       3.946  -5.912  -7.895  0.00  0.00    -0.061 A 
ATOM     17  C   LIG d   1       4.920  -6.894  -7.872  0.00  0.00    -0.060 A 
ATOM     18  C   LIG d   1       6.042  -6.744  -7.083  0.00  0.00    -0.040 A 
ATOM     19  C   LIG d   1       6.201  -5.601  -6.302  0.00  0.00     0.043 A 
ATOM     20  N   LIG d   1       7.231  -5.225  -5.437  0.00  0.00    -0.280 N 
ATOM     21  C   LIG d   1       7.001  -4.026  -4.866  0.00  0.00     0.274 A 
ATOM     22  O   LIG d   1       7.721  -3.451  -4.078  0.00  0.00    -0.269 OA
ATOM     23  H   LIG d   1       4.832  -4.009  -3.580  0.00  0.00     0.203 HD
ATOM     24  H   LIG d   1       3.337  -4.007  -7.138  0.00  0.00     0.062 H 
ATOM     25  H   LIG d   1       3.070  -6.034  -8.514  0.00  0.00     0.062 H 
ATOM     26  H   LIG d   1       4.802  -7.783  -8.474  0.00  0.00     0.062 H 
ATOM     27  H   LIG d   1       6.798  -7.514  -7.071  0.00  0.00     0.064 H 
ATOM     28  H   LIG d   1       8.020  -5.762  -5.268  0.00  0.00     0.155 HD
ATOM     29  H   LIG d   1       3.768  -3.335  -4.660  0.00  0.00     0.203 HD
ENDROOT
BRANCH   1  30
ATOM     30  C   LIG d   1       2.719  -0.758  -7.631  0.00  0.00     0.049 C 
ATOM     31  H   LIG d   1       1.939  -0.346  -6.992  0.00  0.00     0.052 H 
ATOM     32  H   LIG d   1       2.342  -1.646  -8.138  0.00  0.00     0.052 H 
BRANCH  30  33
ATOM     33  C   LIG d   1       3.127   0.270  -8.654  0.00  0.00    -0.011 A 
ATOM     34  C   LIG d   1       3.210  -0.078  -9.991  0.00  0.00     0.046 A 
ATOM     35  C   LIG d   1       3.584   0.867 -10.929  0.00  0.00    -0.043 A 
ATOM     36 CL   LIG d   1       2.844  -1.700 -10.489  0.00  0.00    -0.083 Cl
ATOM     37  C   LIG d   1       3.875   2.157 -10.532  0.00  0.00    -0.060 A 
ATOM     38  H   LIG d   1       3.649   0.595 -11.973  0.00  0.00     0.063 H 
ATOM     39  C   LIG d   1       3.792   2.506  -9.197  0.00  0.00    -0.061 A 
ATOM     40  H   LIG d   1       4.167   2.895 -11.264  0.00  0.00     0.062 H 
ATOM     41  C   LIG d   1       3.418   1.562  -8.258  0.00  0.00    -0.056 A 
ATOM     42  H   LIG d   1       4.023   3.514  -8.886  0.00  0.00     0.062 H 
ATOM     43  H   LIG d   1       3.353   1.834  -7.215  0.00  0.00     0.062 H 
ENDBRANCH  30  33
ENDBRANCH   1  30
BRANCH   6  44
ATOM     44  C   LIG d   1       3.850  -1.348  -3.073  0.00  0.00    -0.004 C 
ATOM     45  H   LIG d   1       3.381  -0.605  -3.717  0.00  0.00     0.032 H 
ATOM     46  H   LIG d   1       3.129  -2.130  -2.836  0.00  0.00     0.032 H 
BRANCH  44  47
ATOM     47  C   LIG d   1       4.320  -0.678  -1.780  0.00  0.00    -0.008 C 
ATOM     48  H   LIG d   1       3.603  -0.882  -0.984  0.00  0.00     0.033 H 
ATOM     49  H   LIG d   1       5.297  -1.072  -1.500  0.00  0.00     0.033 H 
BRANCH  47  50
ATOM     50  C   LIG d   1       4.422   0.811  -1.994  0.00  0.00     0.042 C 
ATOM     51  O   LIG d   1       5.506   1.323  -2.210  0.00  0.00    -0.550 OA
ATOM     52  O   LIG d   1       3.418   1.502  -1.952  0.00  0.00    -0.550 OA
ENDBRANCH  47  50
ENDBRANCH  44  47
ENDBRANCH   6  44
TORSDOF 5
ENDMDL
MODEL 3
REMARK VINA RESULT:      -7.4      3.065      6.479
REMARK  5 active torsions:
REMARK  status: ('A' for Active; 'I' for Inactive)
REMARK    1  A    between atoms: C_5  and  C_7 
REMARK    2  A    between atoms: C_7  and  N_8 
REMARK    3  A    between atoms: C_13  and  C_30 
REMARK    4  A    between atoms: C_30  and  C_31 
REMARK    5  A    between atoms: C_31  and  C_32 
ROOT
ATOM      1  N   LIG d   1       8.034  -2.592  -6.318  0.00  0.00    -0.237 N 
ATOM      2  C   LIG d   1       8.436  -1.574  -7.087  0.00  0.00     0.232 A 
ATOM      3  O   LIG d   1       8.732  -1.657  -8.261  0.00  0.00    -0.275 OA
ATOM      4  C   LIG d   1       8.464  -0.304  -6.268  0.00  0.00     0.096 A 
ATOM      5  H   LIG d   1       9.450   0.161  -6.246  0.00  0.00     0.046 H 
ATOM      6  C   LIG d   1       7.367   0.656  -6.775  0.00  0.00    -0.009 C 
ATOM      7  H   LIG d   1       7.633   1.688  -6.549  0.00  0.00     0.086 H 
ATOM      8  N   LIG d   1       6.142   0.263  -6.030  0.00  0.00     0.245 N 
ATOM      9  C   LIG d   1       6.630  -0.053  -4.674  0.00  0.00     0.106 A 
ATOM     10  C   LIG d   1       7.988  -0.773  -4.864  0.00  0.00     0.111 A 
ATOM     11  H   LIG d   1       8.707  -0.546  -4.076  0.00  0.00     0.047 H 
ATOM     12  C   LIG d   1       7.754  -2.254  -5.053  0.00  0.00     0.233 A 
ATOM     13  O   LIG d   1       7.374  -3.018  -4.193  0.00  0.00    -0.275 OA
ATOM     14  C   LIG d   1       5.651  -0.906  -3.919  0.00  0.00     0.034 A 
ATOM     15  C   LIG d   1       5.101  -2.149  -4.147  0.00  0.00    -0.051 A 
ATOM     16  C   LIG d   1       4.201  -2.684  -3.244  0.00  0.00    -0.061 A 
ATOM     17  C   LIG d   1       3.853  -1.969  -2.113  0.00  0.00    -0.060 A 
ATOM     18  C   LIG d   1       4.400  -0.723  -1.880  0.00  0.00    -0.040 A 
ATOM     19  C   LIG d   1       5.309  -0.178  -2.784  0.00  0.00     0.043 A 
ATOM     20  N   LIG d   1       5.988   1.042  -2.769  0.00  0.00    -0.280 N 
ATOM     21  C   LIG d   1       6.787   1.191  -3.845  0.00  0.00     0.274 A 
ATOM     22  O   LIG d   1       7.494   2.145  -4.094  0.00  0.00    -0.269 OA
ATOM     23  H   LIG d   1       5.486   1.030  -5.999  0.00  0.00     0.203 HD
ATOM     24  H   LIG d   1       5.375  -2.705  -5.032  0.00  0.00     0.062 H 
ATOM     25  H   LIG d   1       3.770  -3.658  -3.422  0.00  0.00     0.062 H 
ATOM     26  H   LIG d   1       3.148  -2.386  -1.408  0.00  0.00     0.062 H 
ATOM     27  H   LIG d   1       4.124  -0.172  -0.994  0.00  0.00     0.064 H 
ATOM     28  H   LIG d   1       5.898   1.704  -2.066  0.00  0.00     0.155 HD
ATOM     29  H   LIG d   1       5.717  -0.550  -6.451  0.00  0.00     0.203 HD
ENDROOT
BRANCH   1  30
ATOM     30  C   LIG d   1       7.906  -3.962  -6.820  0.00  0.00     0.049 C 
ATOM     31  H   LIG d   1       8.472  -4.637  -6.179  0.00  0.00     0.052 H 
ATOM     32  H   LIG d   1       8.294  -4.014  -7.837  0.00  0.00     0.052 H 
BRANCH  30  33
ATOM     33  C   LIG d   1       6.454  -4.365  -6.816  0.00  0.00    -0.011 A 
ATOM     34  C   LIG d   1       6.049  -5.490  -6.119  0.00  0.00     0.046 A 
ATOM     35  C   LIG d   1       4.716  -5.858  -6.116  0.00  0.00    -0.043 A 
ATOM     36 CL   LIG d   1       7.215  -6.436  -5.248  0.00  0.00    -0.083 Cl
ATOM     37  C   LIG d   1       3.789  -5.104  -6.810  0.00  0.00    -0.060 A 
ATOM     38  H   LIG d   1       4.399  -6.736  -5.571  0.00  0.00     0.063 H 
ATOM     39  C   LIG d   1       4.193  -3.980  -7.506  0.00  0.00    -0.061 A 
ATOM     40  H   LIG d   1       2.748  -5.391  -6.807  0.00  0.00     0.062 H 
ATOM     41  C   LIG d   1       5.526  -3.611  -7.509  0.00  0.00    -0.056 A 
ATOM     42  H   LIG d   1       3.469  -3.393  -8.051  0.00  0.00     0.062 H 
ATOM     43  H   LIG d   1       5.842  -2.733  -8.053  0.00  0.00     0.062 H 
ENDBRANCH  30  33
ENDBRANCH   1  30
BRANCH   6  44
ATOM     44  C   LIG d   1       7.158   0.478  -8.279  0.00  0.00    -0.004 C 
ATOM     45  H   LIG d   1       8.103   0.203  -8.748  0.00  0.00     0.032 H 
ATOM     46  H   LIG d   1       6.424  -0.309  -8.454  0.00  0.00     0.032 H 
BRANCH  44  47
ATOM     47  C   LIG d   1       6.652   1.790  -8.883  0.00  0.00    -0.008 C 
ATOM     48  H   LIG d   1       6.821   2.603  -8.176  0.00  0.00     0.033 H 
ATOM     49  H   LIG d   1       7.189   1.995  -9.808  0.00  0.00     0.033 H 
BRANCH  47  50
ATOM     50  C   LIG d   1       5.178   1.674  -9.172  0.00  0.00     0.042 C 
ATOM     51  O   LIG d   1       4.781   1.677 -10.325  0.00  0.00    -0.550 OA
ATOM     52  O   LIG d   1       4.382   1.577  -8.253  0.00  0.00    -0.550 OA
ENDBRANCH  47  50
ENDBRANCH  44  47
ENDBRANCH   6  44
TORSDOF 5
ENDMDL
MODEL 4
REMARK VINA RESULT:      -6.9      2.575      4.469
REMARK  5 active torsions:
REMARK  status: ('A' for Active; 'I' for Inactive)
REMARK    1  A    between atoms: C_5  and  C_7 
REMARK    2  A    between atoms: C_7  and  N_8 
REMARK    3  A    between atoms: C_13  and  C_30 
REMARK    4  A    between atoms: C_30  and  C_31 
REMARK    5  A    between atoms: C_31  and  C_32 
ROOT
ATOM      1  N   LIG d   1       7.480  -0.896  -6.888  0.00  0.00    -0.237 N 
ATOM      2  C   LIG d   1       6.895  -1.588  -7.872  0.00  0.00     0.232 A 
ATOM      3  O   LIG d   1       7.417  -2.479  -8.507  0.00  0.00    -0.275 OA
ATOM      4  C   LIG d   1       5.483  -1.087  -8.068  0.00  0.00     0.096 A 
ATOM      5  H   LIG d   1       5.302  -0.726  -9.081  0.00  0.00     0.046 H 
ATOM      6  C   LIG d   1       4.486  -2.187  -7.644  0.00  0.00    -0.009 C 
ATOM      7  H   LIG d   1       3.539  -2.063  -8.169  0.00  0.00     0.086 H 
ATOM      8  N   LIG d   1       4.298  -1.989  -6.183  0.00  0.00     0.245 N 
ATOM      9  C   LIG d   1       4.282  -0.524  -6.017  0.00  0.00     0.106 A 
ATOM     10  C   LIG d   1       5.345   0.031  -6.998  0.00  0.00     0.111 A 
ATOM     11  H   LIG d   1       5.072   0.996  -7.426  0.00  0.00     0.047 H 
ATOM     12  C   LIG d   1       6.700   0.036  -6.325  0.00  0.00     0.233 A 
ATOM     13  O   LIG d   1       7.029   0.771  -5.420  0.00  0.00    -0.275 OA
ATOM     14  C   LIG d   1       4.574  -0.125  -4.599  0.00  0.00     0.034 A 
ATOM     15  C   LIG d   1       5.642  -0.335  -3.754  0.00  0.00    -0.051 A 
ATOM     16  C   LIG d   1       5.617   0.170  -2.467  0.00  0.00    -0.061 A 
ATOM     17  C   LIG d   1       4.516   0.885  -2.029  0.00  0.00    -0.060 A 
ATOM     18  C   LIG d   1       3.444   1.097  -2.871  0.00  0.00    -0.040 A 
ATOM     19  C   LIG d   1       3.463   0.593  -4.170  0.00  0.00     0.043 A 
ATOM     20  N   LIG d   1       2.516   0.676  -5.193  0.00  0.00    -0.280 N 
ATOM     21  C   LIG d   1       2.923   0.046  -6.313  0.00  0.00     0.274 A 
ATOM     22  O   LIG d   1       2.310  -0.043  -7.355  0.00  0.00    -0.269 OA
ATOM     23  H   LIG d   1       3.421  -2.388  -5.883  0.00  0.00     0.203 HD
ATOM     24  H   LIG d   1       6.500  -0.894  -4.098  0.00  0.00     0.062 H 
ATOM     25  H   LIG d   1       6.453   0.006  -1.804  0.00  0.00     0.062 H 
ATOM     26  H   LIG d   1       4.495   1.277  -1.023  0.00  0.00     0.062 H 
ATOM     27  H   LIG d   1       2.589   1.657  -2.522  0.00  0.00     0.064 H 
ATOM     28  H   LIG d   1       1.666   1.135  -5.108  0.00  0.00     0.155 HD
ATOM     29  H   LIG d   1       5.067  -2.395  -5.670  0.00  0.00     0.203 HD
ENDROOT
BRANCH   1  30
ATOM     30  C   LIG d   1       8.858  -1.141  -6.457  0.00  0.00     0.049 C 
ATOM     31  H   LIG d   1       9.209  -0.296  -5.865  0.00  0.00     0.052 H 
ATOM     32  H   LIG d   1       9.496  -1.261  -7.332  0.00  0.00     0.052 H 
BRANCH  30  33
ATOM     33  C   LIG d   1       8.908  -2.394  -5.622  0.00  0.00    -0.011 A 
ATOM     34  C   LIG d   1       9.656  -3.479  -6.045  0.00  0.00     0.046 A 
ATOM     35  C   LIG d   1       9.701  -4.629  -5.278  0.00  0.00    -0.043 A 
ATOM     36 CL   LIG d   1      10.538  -3.394  -7.539  0.00  0.00    -0.083 Cl
ATOM     37  C   LIG d   1       9.000  -4.695  -4.090  0.00  0.00    -0.060 A 
ATOM     38  H   LIG d   1      10.286  -5.475  -5.608  0.00  0.00     0.063 H 
ATOM     39  C   LIG d   1       8.253  -3.611  -3.667  0.00  0.00    -0.061 A 
ATOM     40  H   LIG d   1       9.035  -5.592  -3.491  0.00  0.00     0.062 H 
ATOM     41  C   LIG d   1       8.207  -2.461  -4.433  0.00  0.00    -0.056 A 
ATOM     42  H   LIG d   1       7.701  -3.664  -2.740  0.00  0.00     0.062 H 
ATOM     43  H   LIG d   1       7.623  -1.615  -4.103  0.00  0.00     0.062 H 
ENDBRANCH  30  33
ENDBRANCH   1  30
BRANCH   6  44
ATOM     44  C   LIG d   1       5.072  -3.572  -7.925  0.00  0.00    -0.004 C 
ATOM     45  H   LIG d   1       5.794  -3.504  -8.739  0.00  0.00     0.032 H 
ATOM     46  H   LIG d   1       5.569  -3.945  -7.029  0.00  0.00     0.032 H 
BRANCH  44  47
ATOM     47  C   LIG d   1       3.947  -4.531  -8.321  0.00  0.00    -0.008 C 
ATOM     48  H   LIG d   1       3.022  -3.969  -8.459  0.00  0.00     0.033 H 
ATOM     49  H   LIG d   1       4.209  -5.034  -9.251  0.00  0.00     0.033 H 
BRANCH  47  50
ATOM     50  C   LIG d   1       3.754  -5.555  -7.232  0.00  0.00     0.042 C 
ATOM     51  O   LIG d   1       3.905  -6.739  -7.475  0.00  0.00    -0.550 OA
ATOM     52  O   LIG d   1       3.447  -5.197  -6.107  0.00  0.00    -0.550 OA
ENDBRANCH  47  50
ENDBRANCH  44  47
ENDBRANCH   6  44
TORSDOF 5
ENDMDL
MODEL 5
REMARK VINA RESULT:      -6.8      3.664      7.380
REMARK  5 active torsions:
REMARK  status: ('A' for Active; 'I' for Inactive)
REMARK    1  A    between atoms: C_5  and  C_7 
REMARK    2  A    between atoms: C_7  and  N_8 
REMARK    3  A    between atoms: C_13  and  C_30 
REMARK    4  A    between atoms: C_30  and  C_31 
REMARK    5  A    between atoms: C_31  and  C_32 
ROOT
ATOM      1  N   LIG d   1       5.221   0.453  -8.069  0.00  0.00    -0.237 N 
ATOM      2  C   LIG d   1       6.508   0.786  -8.219  0.00  0.00     0.232 A 
ATOM      3  O   LIG d   1       6.924   1.667  -8.940  0.00  0.00    -0.275 OA
ATOM      4  C   LIG d   1       7.362  -0.106  -7.348  0.00  0.00     0.096 A 
ATOM      5  H   LIG d   1       8.103  -0.666  -7.919  0.00  0.00     0.046 H 
ATOM      6  C   LIG d   1       7.995   0.735  -6.219  0.00  0.00    -0.009 C 
ATOM      7  H   LIG d   1       8.920   0.271  -5.875  0.00  0.00     0.086 H 
ATOM      8  N   LIG d   1       6.982   0.739  -5.132  0.00  0.00     0.245 N 
ATOM      9  C   LIG d   1       6.424  -0.626  -5.153  0.00  0.00     0.106 A 
ATOM     10  C   LIG d   1       6.323  -1.025  -6.646  0.00  0.00     0.111 A 
ATOM     11  H   LIG d   1       6.510  -2.085  -6.820  0.00  0.00     0.047 H 
ATOM     12  C   LIG d   1       5.003  -0.548  -7.208  0.00  0.00     0.233 A 
ATOM     13  O   LIG d   1       3.916  -1.005  -6.926  0.00  0.00    -0.275 OA
ATOM     14  C   LIG d   1       5.089  -0.689  -4.470  0.00  0.00     0.034 A 
ATOM     15  C   LIG d   1       3.882  -0.058  -4.684  0.00  0.00    -0.051 A 
ATOM     16  C   LIG d   1       2.804  -0.329  -3.862  0.00  0.00    -0.061 A 
ATOM     17  C   LIG d   1       2.939  -1.233  -2.825  0.00  0.00    -0.060 A 
ATOM     18  C   LIG d   1       4.144  -1.868  -2.606  0.00  0.00    -0.040 A 
ATOM     19  C   LIG d   1       5.235  -1.601  -3.430  0.00  0.00     0.043 A 
ATOM     20  N   LIG d   1       6.537  -2.108  -3.412  0.00  0.00    -0.280 N 
ATOM     21  C   LIG d   1       7.298  -1.587  -4.394  0.00  0.00     0.274 A 
ATOM     22  O   LIG d   1       8.461  -1.843  -4.620  0.00  0.00    -0.269 OA
ATOM     23  H   LIG d   1       7.420   0.927  -4.242  0.00  0.00     0.203 HD
ATOM     24  H   LIG d   1       3.780   0.648  -5.495  0.00  0.00     0.062 H 
ATOM     25  H   LIG d   1       1.858   0.165  -4.029  0.00  0.00     0.062 H 
ATOM     26  H   LIG d   1       2.097  -1.444  -2.181  0.00  0.00     0.062 H 
ATOM     27  H   LIG d   1       4.241  -2.573  -1.795  0.00  0.00     0.064 H 
ATOM     28  H   LIG d   1       6.855  -2.761  -2.769  0.00  0.00     0.155 HD
ATOM     29  H   LIG d   1       6.261   1.418  -5.323  0.00  0.00     0.203 HD
ENDROOT
BRANCH   1  30
ATOM     30  C   LIG d   1       4.138   1.133  -8.784  0.00  0.00     0.049 C 
ATOM     31  H   LIG d   1       4.435   2.159  -9.001  0.00  0.00     0.052 H 
ATOM     32  H   LIG d   1       3.241   1.138  -8.165  0.00  0.00     0.052 H 
BRANCH  30  33
ATOM     33  C   LIG d   1       3.854   0.409 -10.074  0.00  0.00    -0.011 A 
ATOM     34  C   LIG d   1       2.693  -0.332 -10.212  0.00  0.00     0.046 A 
ATOM     35  C   LIG d   1       2.434  -0.996 -11.397  0.00  0.00    -0.043 A 
ATOM     36 CL   LIG d   1       1.562  -0.423  -8.898  0.00  0.00    -0.083 Cl
ATOM     37  C   LIG d   1       3.334  -0.922 -12.442  0.00  0.00    -0.060 A 
ATOM     38  H   LIG d   1       1.527  -1.573 -11.505  0.00  0.00     0.063 H 
ATOM     39  C   LIG d   1       4.495  -0.183 -12.305  0.00  0.00    -0.061 A 
ATOM     40  H   LIG d   1       3.132  -1.441 -13.367  0.00  0.00     0.062 H 
ATOM     41  C   LIG d   1       4.754   0.482 -11.120  0.00  0.00    -0.056 A 
ATOM     42  H   LIG d   1       5.200  -0.128 -13.120  0.00  0.00     0.062 H 
ATOM     43  H   LIG d   1       5.661   1.059 -11.013  0.00  0.00     0.062 H 
ENDBRANCH  30  33
ENDBRANCH   1  30
BRANCH   6  44
ATOM     44  C   LIG d   1       8.264   2.160  -6.705  0.00  0.00    -0.004 C 
ATOM     45  H   LIG d   1       8.382   2.159  -7.788  0.00  0.00     0.032 H 
ATOM     46  H   LIG d   1       7.426   2.801  -6.432  0.00  0.00     0.032 H 
BRANCH  44  47
ATOM     47  C   LIG d   1       9.544   2.688  -6.053  0.00  0.00    -0.008 C 
ATOM     48  H   LIG d   1      10.174   1.849  -5.757  0.00  0.00     0.033 H 
ATOM     49  H   LIG d   1      10.082   3.314  -6.764  0.00  0.00     0.033 H 
BRANCH  47  50
ATOM     50  C   LIG d   1       9.188   3.502  -4.835  0.00  0.00     0.042 C 
ATOM     51  O   LIG d   1       8.881   2.943  -3.797  0.00  0.00    -0.550 OA
ATOM     52  O   LIG d   1       9.209   4.720  -4.890  0.00  0.00    -0.550 OA
ENDBRANCH  47  50
ENDBRANCH  44  47
ENDBRANCH   6  44
TORSDOF 5
ENDMDL
MODEL 6
REMARK VINA RESULT:      -6.8      3.533      5.561
REMARK  5 active torsions:
REMARK  status: ('A' for Active; 'I' for Inactive)
REMARK    1  A    between atoms: C_5  and  C_7 
REMARK    2  A    between atoms: C_7  and  N_8 
REMARK    3  A    between atoms: C_13  and  C_30 
REMARK    4  A    between atoms: C_30  and  C_31 
REMARK    5  A    between atoms: C_31  and  C_32 
ROOT
ATOM      1  N   LIG d   1       8.730  -0.125  -5.189  0.00  0.00    -0.237 N 
ATOM      2  C   LIG d   1       9.266  -1.338  -5.362  0.00  0.00     0.232 A 
ATOM      3  O   LIG d   1      10.452  -1.589  -5.342  0.00  0.00    -0.275 OA
ATOM      4  C   LIG d   1       8.164  -2.348  -5.584  0.00  0.00     0.096 A 
ATOM      5  H   LIG d   1       8.260  -2.873  -6.535  0.00  0.00     0.046 H 
ATOM      6  C   LIG d   1       8.101  -3.310  -4.379  0.00  0.00    -0.009 C 
ATOM      7  H   LIG d   1       7.674  -4.267  -4.681  0.00  0.00     0.086 H 
ATOM      8  N   LIG d   1       7.213  -2.634  -3.397  0.00  0.00     0.245 N 
ATOM      9  C   LIG d   1       6.161  -2.019  -4.225  0.00  0.00     0.106 A 
ATOM     10  C   LIG d   1       6.869  -1.491  -5.498  0.00  0.00     0.111 A 
ATOM     11  H   LIG d   1       6.252  -1.565  -6.394  0.00  0.00     0.047 H 
ATOM     12  C   LIG d   1       7.393  -0.096  -5.243  0.00  0.00     0.233 A 
ATOM     13  O   LIG d   1       6.708   0.895  -5.112  0.00  0.00    -0.275 OA
ATOM     14  C   LIG d   1       5.450  -0.919  -3.489  0.00  0.00     0.034 A 
ATOM     15  C   LIG d   1       5.867   0.263  -2.917  0.00  0.00    -0.051 A 
ATOM     16  C   LIG d   1       4.951   1.089  -2.291  0.00  0.00    -0.061 A 
ATOM     17  C   LIG d   1       3.618   0.726  -2.240  0.00  0.00    -0.060 A 
ATOM     18  C   LIG d   1       3.196  -0.458  -2.811  0.00  0.00    -0.040 A 
ATOM     19  C   LIG d   1       4.111  -1.295  -3.445  0.00  0.00     0.043 A 
ATOM     20  N   LIG d   1       3.932  -2.522  -4.087  0.00  0.00    -0.280 N 
ATOM     21  C   LIG d   1       5.088  -3.013  -4.576  0.00  0.00     0.274 A 
ATOM     22  O   LIG d   1       5.233  -4.054  -5.179  0.00  0.00    -0.269 OA
ATOM     23  H   LIG d   1       6.813  -3.309  -2.760  0.00  0.00     0.203 HD
ATOM     24  H   LIG d   1       6.908   0.544  -2.959  0.00  0.00     0.062 H 
ATOM     25  H   LIG d   1       5.276   2.016  -1.843  0.00  0.00     0.062 H 
ATOM     26  H   LIG d   1       2.903   1.370  -1.749  0.00  0.00     0.062 H 
ATOM     27  H   LIG d   1       2.153  -0.734  -2.768  0.00  0.00     0.064 H 
ATOM     28  H   LIG d   1       3.075  -2.967  -4.174  0.00  0.00     0.155 HD
ATOM     29  H   LIG d   1       7.723  -1.927  -2.889  0.00  0.00     0.203 HD
ENDROOT
BRANCH   1  30
ATOM     30  C   LIG d   1       9.539   1.073  -4.954  0.00  0.00     0.049 C 
ATOM     31  H   LIG d   1      10.535   0.779  -4.623  0.00  0.00     0.052 H 
ATOM     32  H   LIG d   1       9.068   1.685  -4.185  0.00  0.00     0.052 H 
BRANCH  30  33
ATOM     33  C   LIG d   1       9.647   1.866  -6.230  0.00  0.00    -0.011 A 
ATOM     34  C   LIG d   1       9.479   3.240  -6.209  0.00  0.00     0.046 A 
ATOM     35  C   LIG d   1       9.577   3.966  -7.382  0.00  0.00    -0.043 A 
ATOM     36 CL   LIG d   1       9.144   4.049  -4.711  0.00  0.00    -0.083 Cl
ATOM     37  C   LIG d   1       9.844   3.321  -8.574  0.00  0.00    -0.060 A 
ATOM     38  H   LIG d   1       9.447   5.038  -7.366  0.00  0.00     0.063 H 
ATOM     39  C   LIG d   1      10.012   1.949  -8.596  0.00  0.00    -0.061 A 
ATOM     40  H   LIG d   1       9.921   3.888  -9.490  0.00  0.00     0.062 H 
ATOM     41  C   LIG d   1       9.913   1.222  -7.424  0.00  0.00    -0.056 A 
ATOM     42  H   LIG d   1      10.217   1.444  -9.528  0.00  0.00     0.062 H 
ATOM     43  H   LIG d   1      10.045   0.150  -7.440  0.00  0.00     0.062 H 
ENDBRANCH  30  33
ENDBRANCH   1  30
BRANCH   6  44
ATOM     44  C   LIG d   1       9.497  -3.514  -3.788  0.00  0.00    -0.004 C 
ATOM     45  H   LIG d   1      10.054  -4.219  -4.405  0.00  0.00     0.032 H 
ATOM     46  H   LIG d   1      10.023  -2.559  -3.762  0.00  0.00     0.032 H 
BRANCH  44  47
ATOM     47  C   LIG d   1       9.373  -4.067  -2.367  0.00  0.00    -0.008 C 
ATOM     48  H   LIG d   1       9.940  -3.437  -1.681  0.00  0.00     0.033 H 
ATOM     49  H   LIG d   1       8.324  -4.075  -2.070  0.00  0.00     0.033 H 
BRANCH  47  50
ATOM     50  C   LIG d   1       9.918  -5.472  -2.326  0.00  0.00     0.042 C 
ATOM     51  O   LIG d   1       9.939  -6.087  -1.274  0.00  0.00    -0.550 OA
ATOM     52  O   LIG d   1      10.337  -5.992  -3.345  0.00  0.00    -0.550 OA
ENDBRANCH  47  50
ENDBRANCH  44  47
ENDBRANCH   6  44
TORSDOF 5
ENDMDL
MODEL 7
REMARK VINA RESULT:      -6.7      2.686      4.572
REMARK  5 active torsions:
REMARK  status: ('A' for Active; 'I' for Inactive)
REMARK    1  A    between atoms: C_5  and  C_7 
REMARK    2  A    between atoms: C_7  and  N_8 
REMARK    3  A    between atoms: C_13  and  C_30 
REMARK    4  A    between atoms: C_30  and  C_31 
REMARK    5  A    between atoms: C_31  and  C_32 
ROOT
ATOM      1  N   LIG d   1       7.443  -3.525  -5.635  0.00  0.00    -0.237 N 
ATOM      2  C   LIG d   1       7.123  -3.812  -6.902  0.00  0.00     0.232 A 
ATOM      3  O   LIG d   1       7.393  -4.845  -7.476  0.00  0.00    -0.275 OA
ATOM      4  C   LIG d   1       6.371  -2.649  -7.506  0.00  0.00     0.096 A 
ATOM      5  H   LIG d   1       6.861  -2.247  -8.394  0.00  0.00     0.046 H 
ATOM      6  C   LIG d   1       4.910  -3.067  -7.773  0.00  0.00    -0.009 C 
ATOM      7  H   LIG d   1       4.485  -2.468  -8.579  0.00  0.00     0.086 H 
ATOM      8  N   LIG d   1       4.196  -2.799  -6.497  0.00  0.00     0.245 N 
ATOM      9  C   LIG d   1       4.790  -1.540  -6.009  0.00  0.00     0.106 A 
ATOM     10  C   LIG d   1       6.301  -1.622  -6.341  0.00  0.00     0.111 A 
ATOM     11  H   LIG d   1       6.735  -0.656  -6.601  0.00  0.00     0.047 H 
ATOM     12  C   LIG d   1       7.028  -2.324  -5.216  0.00  0.00     0.233 A 
ATOM     13  O   LIG d   1       7.210  -1.868  -4.108  0.00  0.00    -0.275 OA
ATOM     14  C   LIG d   1       4.553  -1.351  -4.539  0.00  0.00     0.034 A 
ATOM     15  C   LIG d   1       4.885  -2.087  -3.422  0.00  0.00    -0.051 A 
ATOM     16  C   LIG d   1       4.517  -1.642  -2.166  0.00  0.00    -0.061 A 
ATOM     17  C   LIG d   1       3.814  -0.458  -2.033  0.00  0.00    -0.060 A 
ATOM     18  C   LIG d   1       3.479   0.282  -3.148  0.00  0.00    -0.040 A 
ATOM     19  C   LIG d   1       3.848  -0.158  -4.417  0.00  0.00     0.043 A 
ATOM     20  N   LIG d   1       3.631   0.405  -5.677  0.00  0.00    -0.280 N 
ATOM     21  C   LIG d   1       4.155  -0.345  -6.665  0.00  0.00     0.274 A 
ATOM     22  O   LIG d   1       4.121  -0.102  -7.853  0.00  0.00    -0.269 OA
ATOM     23  H   LIG d   1       3.207  -2.682  -6.663  0.00  0.00     0.203 HD
ATOM     24  H   LIG d   1       5.433  -3.011  -3.528  0.00  0.00     0.062 H 
ATOM     25  H   LIG d   1       4.776  -2.217  -1.289  0.00  0.00     0.062 H 
ATOM     26  H   LIG d   1       3.524  -0.111  -1.051  0.00  0.00     0.062 H 
ATOM     27  H   LIG d   1       2.932   1.206  -3.036  0.00  0.00     0.064 H 
ATOM     28  H   LIG d   1       3.159   1.240  -5.822  0.00  0.00     0.155 HD
ATOM     29  H   LIG d   1       4.359  -3.546  -5.838  0.00  0.00     0.203 HD
ENDROOT
BRANCH   1  30
ATOM     30  C   LIG d   1       8.181  -4.453  -4.775  0.00  0.00     0.049 C 
ATOM     31  H   LIG d   1       8.080  -5.466  -5.163  0.00  0.00     0.052 H 
ATOM     32  H   LIG d   1       7.778  -4.409  -3.763  0.00  0.00     0.052 H 
BRANCH  30  33
ATOM     33  C   LIG d   1       9.637  -4.067  -4.751  0.00  0.00    -0.011 A 
ATOM     34  C   LIG d   1      10.290  -3.895  -3.543  0.00  0.00     0.046 A 
ATOM     35  C   LIG d   1      11.626  -3.540  -3.523  0.00  0.00    -0.043 A 
ATOM     36 CL   LIG d   1       9.429  -4.127  -2.053  0.00  0.00    -0.083 Cl
ATOM     37  C   LIG d   1      12.310  -3.356  -4.709  0.00  0.00    -0.060 A 
ATOM     38  H   LIG d   1      12.136  -3.408  -2.580  0.00  0.00     0.063 H 
ATOM     39  C   LIG d   1      11.659  -3.527  -5.917  0.00  0.00    -0.061 A 
ATOM     40  H   LIG d   1      13.353  -3.080  -4.694  0.00  0.00     0.062 H 
ATOM     41  C   LIG d   1      10.322  -3.882  -5.937  0.00  0.00    -0.056 A 
ATOM     42  H   LIG d   1      12.192  -3.380  -6.844  0.00  0.00     0.062 H 
ATOM     43  H   LIG d   1       9.813  -4.016  -6.881  0.00  0.00     0.062 H 
ENDBRANCH  30  33
ENDBRANCH   1  30
BRANCH   6  44
ATOM     44  C   LIG d   1       4.838  -4.555  -8.124  0.00  0.00    -0.004 C 
ATOM     45  H   LIG d   1       4.645  -4.668  -9.190  0.00  0.00     0.032 H 
ATOM     46  H   LIG d   1       5.786  -5.033  -7.874  0.00  0.00     0.032 H 
BRANCH  44  47
ATOM     47  C   LIG d   1       3.709  -5.212  -7.328  0.00  0.00    -0.008 C 
ATOM     48  H   LIG d   1       3.049  -4.441  -6.929  0.00  0.00     0.033 H 
ATOM     49  H   LIG d   1       3.142  -5.874  -7.981  0.00  0.00     0.033 H 
BRANCH  47  50
ATOM     50  C   LIG d   1       4.295  -6.009  -6.190  0.00  0.00     0.042 C 
ATOM     51  O   LIG d   1       4.162  -5.622  -5.043  0.00  0.00    -0.550 OA
ATOM     52  O   LIG d   1       4.901  -7.042  -6.420  0.00  0.00    -0.550 OA
ENDBRANCH  47  50
ENDBRANCH  44  47
ENDBRANCH   6  44
TORSDOF 5
ENDMDL
MODEL 8
REMARK VINA RESULT:      -6.4      2.944      6.408
REMARK  5 active torsions:
REMARK  status: ('A' for Active; 'I' for Inactive)
REMARK    1  A    between atoms: C_5  and  C_7 
REMARK    2  A    between atoms: C_7  and  N_8 
REMARK    3  A    between atoms: C_13  and  C_30 
REMARK    4  A    between atoms: C_30  and  C_31 
REMARK    5  A    between atoms: C_31  and  C_32 
ROOT
ATOM      1  N   LIG d   1       5.146  -3.205  -6.459  0.00  0.00    -0.237 N 
ATOM      2  C   LIG d   1       6.098  -2.925  -7.355  0.00  0.00     0.232 A 
ATOM      3  O   LIG d   1       6.094  -3.278  -8.516  0.00  0.00    -0.275 OA
ATOM      4  C   LIG d   1       7.179  -2.097  -6.699  0.00  0.00     0.096 A 
ATOM      5  H   LIG d   1       8.161  -2.569  -6.755  0.00  0.00     0.046 H 
ATOM      6  C   LIG d   1       7.170  -0.675  -7.297  0.00  0.00    -0.009 C 
ATOM      7  H   LIG d   1       8.156  -0.219  -7.206  0.00  0.00     0.086 H 
ATOM      8  N   LIG d   1       6.175   0.074  -6.484  0.00  0.00     0.245 N 
ATOM      9  C   LIG d   1       6.387  -0.419  -5.111  0.00  0.00     0.106 A 
ATOM     10  C   LIG d   1       6.672  -1.936  -5.239  0.00  0.00     0.111 A 
ATOM     11  H   LIG d   1       7.385  -2.302  -4.500  0.00  0.00     0.047 H 
ATOM     12  C   LIG d   1       5.365  -2.697  -5.240  0.00  0.00     0.233 A 
ATOM     13  O   LIG d   1       4.632  -2.830  -4.284  0.00  0.00    -0.275 OA
ATOM     14  C   LIG d   1       5.197  -0.149  -4.237  0.00  0.00     0.034 A 
ATOM     15  C   LIG d   1       3.870  -0.518  -4.299  0.00  0.00    -0.051 A 
ATOM     16  C   LIG d   1       2.989  -0.101  -3.319  0.00  0.00    -0.061 A 
ATOM     17  C   LIG d   1       3.441   0.689  -2.277  0.00  0.00    -0.060 A 
ATOM     18  C   LIG d   1       4.768   1.061  -2.210  0.00  0.00    -0.040 A 
ATOM     19  C   LIG d   1       5.663   0.644  -3.193  0.00  0.00     0.043 A 
ATOM     20  N   LIG d   1       7.031   0.884  -3.342  0.00  0.00    -0.280 N 
ATOM     21  C   LIG d   1       7.532   0.292  -4.444  0.00  0.00     0.274 A 
ATOM     22  O   LIG d   1       8.684   0.328  -4.823  0.00  0.00    -0.269 OA
ATOM     23  H   LIG d   1       6.354   1.067  -6.535  0.00  0.00     0.203 HD
ATOM     24  H   LIG d   1       3.520  -1.134  -5.113  0.00  0.00     0.062 H 
ATOM     25  H   LIG d   1       1.950  -0.389  -3.366  0.00  0.00     0.062 H 
ATOM     26  H   LIG d   1       2.753   1.017  -1.512  0.00  0.00     0.062 H 
ATOM     27  H   LIG d   1       5.114   1.677  -1.393  0.00  0.00     0.064 H 
ATOM     28  H   LIG d   1       7.558   1.413  -2.724  0.00  0.00     0.155 HD
ATOM     29  H   LIG d   1       5.238  -0.134  -6.794  0.00  0.00     0.203 HD
ENDROOT
BRANCH   1  30
ATOM     30  C   LIG d   1       3.958  -3.997  -6.785  0.00  0.00     0.049 C 
ATOM     31  H   LIG d   1       3.627  -3.755  -7.794  0.00  0.00     0.052 H 
ATOM     32  H   LIG d   1       3.162  -3.768  -6.076  0.00  0.00     0.052 H 
BRANCH  30  33
ATOM     33  C   LIG d   1       4.294  -5.464  -6.705  0.00  0.00    -0.011 A 
ATOM     34  C   LIG d   1       4.165  -6.267  -7.825  0.00  0.00     0.046 A 
ATOM     35  C   LIG d   1       4.474  -7.613  -7.750  0.00  0.00    -0.043 A 
ATOM     36 CL   LIG d   1       3.616  -5.583  -9.323  0.00  0.00    -0.083 Cl
ATOM     37  C   LIG d   1       4.911  -8.156  -6.557  0.00  0.00    -0.060 A 
ATOM     38  H   LIG d   1       4.373  -8.239  -8.624  0.00  0.00     0.063 H 
ATOM     39  C   LIG d   1       5.041  -7.354  -5.438  0.00  0.00    -0.061 A 
ATOM     40  H   LIG d   1       5.152  -9.206  -6.498  0.00  0.00     0.062 H 
ATOM     41  C   LIG d   1       4.732  -6.008  -5.512  0.00  0.00    -0.056 A 
ATOM     42  H   LIG d   1       5.379  -7.779  -4.505  0.00  0.00     0.062 H 
ATOM     43  H   LIG d   1       4.833  -5.382  -4.638  0.00  0.00     0.062 H 
ENDBRANCH  30  33
ENDBRANCH   1  30
BRANCH   6  44
ATOM     44  C   LIG d   1       6.738  -0.717  -8.764  0.00  0.00    -0.004 C 
ATOM     45  H   LIG d   1       7.573  -1.052  -9.380  0.00  0.00     0.032 H 
ATOM     46  H   LIG d   1       5.904  -1.410  -8.878  0.00  0.00     0.032 H 
BRANCH  44  47
ATOM     47  C   LIG d   1       6.305   0.681  -9.209  0.00  0.00    -0.008 C 
ATOM     48  H   LIG d   1       6.125   1.302  -8.331  0.00  0.00     0.033 H 
ATOM     49  H   LIG d   1       7.090   1.128  -9.817  0.00  0.00     0.033 H 
BRANCH  47  50
ATOM     50  C   LIG d   1       5.038   0.579 -10.019  0.00  0.00     0.042 C 
ATOM     51  O   LIG d   1       4.491  -0.500 -10.163  0.00  0.00    -0.550 OA
ATOM     52  O   LIG d   1       4.560   1.578 -10.530  0.00  0.00    -0.550 OA
ENDBRANCH  47  50
ENDBRANCH  44  47
ENDBRANCH   6  44
TORSDOF 5
ENDMDL
MODEL 9
REMARK VINA RESULT:      -6.3     11.572     14.598
REMARK  5 active torsions:
REMARK  status: ('A' for Active; 'I' for Inactive)
REMARK    1  A    between atoms: C_5  and  C_7 
REMARK    2  A    between atoms: C_7  and  N_8 
REMARK    3  A    between atoms: C_13  and  C_30 
REMARK    4  A    between atoms: C_30  and  C_31 
REMARK    5  A    between atoms: C_31  and  C_32 
ROOT
ATOM      1  N   LIG d   1      10.551   7.082  -0.223  0.00  0.00    -0.237 N 
ATOM      2  C   LIG d   1      11.120   7.938   0.633  0.00  0.00     0.232 A 
ATOM      3  O   LIG d   1      11.874   7.632   1.533  0.00  0.00    -0.275 OA
ATOM      4  C   LIG d   1      10.681   9.346   0.304  0.00  0.00     0.096 A 
ATOM      5  H   LIG d   1      10.182   9.837   1.141  0.00  0.00     0.046 H 
ATOM      6  C   LIG d   1      11.888  10.150  -0.221  0.00  0.00    -0.009 C 
ATOM      7  H   LIG d   1      11.742  11.215  -0.039  0.00  0.00     0.086 H 
ATOM      8  N   LIG d   1      11.924   9.875  -1.682  0.00  0.00     0.245 N 
ATOM      9  C   LIG d   1      10.504   9.852  -2.079  0.00  0.00     0.106 A 
ATOM     10  C   LIG d   1       9.746   9.153  -0.923  0.00  0.00     0.111 A 
ATOM     11  H   LIG d   1       8.746   9.555  -0.761  0.00  0.00     0.047 H 
ATOM     12  C   LIG d   1       9.763   7.656  -1.140  0.00  0.00     0.233 A 
ATOM     13  O   LIG d   1       9.154   7.068  -2.006  0.00  0.00    -0.275 OA
ATOM     14  C   LIG d   1      10.307   9.137  -3.384  0.00  0.00     0.034 A 
ATOM     15  C   LIG d   1      10.578   7.857  -3.816  0.00  0.00    -0.051 A 
ATOM     16  C   LIG d   1      10.275   7.484  -5.113  0.00  0.00    -0.061 A 
ATOM     17  C   LIG d   1       9.700   8.400  -5.976  0.00  0.00    -0.060 A 
ATOM     18  C   LIG d   1       9.427   9.683  -5.549  0.00  0.00    -0.040 A 
ATOM     19  C   LIG d   1       9.728  10.065  -4.243  0.00  0.00     0.043 A 
ATOM     20  N   LIG d   1       9.548  11.285  -3.586  0.00  0.00    -0.280 N 
ATOM     21  C   LIG d   1       9.976  11.241  -2.310  0.00  0.00     0.274 A 
ATOM     22  O   LIG d   1       9.943  12.148  -1.505  0.00  0.00    -0.269 OA
ATOM     23  H   LIG d   1      12.414  10.612  -2.168  0.00  0.00     0.203 HD
ATOM     24  H   LIG d   1      11.027   7.144  -3.140  0.00  0.00     0.062 H 
ATOM     25  H   LIG d   1      10.487   6.481  -5.452  0.00  0.00     0.062 H 
ATOM     26  H   LIG d   1       9.465   8.110  -6.989  0.00  0.00     0.062 H 
ATOM     27  H   LIG d   1       8.977  10.391  -6.228  0.00  0.00     0.064 H 
ATOM     28  H   LIG d   1       9.158  12.070  -4.000  0.00  0.00     0.155 HD
ATOM     29  H   LIG d   1      12.356   8.982  -1.862  0.00  0.00     0.203 HD
ENDROOT
BRANCH   1  30
ATOM     30  C   LIG d   1      10.777   5.636  -0.166  0.00  0.00     0.049 C 
ATOM     31  H   LIG d   1       9.863   5.115  -0.448  0.00  0.00     0.052 H 
ATOM     32  H   LIG d   1      11.059   5.352   0.848  0.00  0.00     0.052 H 
BRANCH  30  33
ATOM     33  C   LIG d   1      11.884   5.262  -1.117  0.00  0.00    -0.011 A 
ATOM     34  C   LIG d   1      11.594   4.561  -2.275  0.00  0.00     0.046 A 
ATOM     35  C   LIG d   1      12.611   4.218  -3.148  0.00  0.00    -0.043 A 
ATOM     36 CL   LIG d   1       9.955   4.114  -2.632  0.00  0.00    -0.083 Cl
ATOM     37  C   LIG d   1      13.915   4.574  -2.863  0.00  0.00    -0.060 A 
ATOM     38  H   LIG d   1      12.386   3.672  -4.052  0.00  0.00     0.063 H 
ATOM     39  C   LIG d   1      14.205   5.275  -1.707  0.00  0.00    -0.061 A 
ATOM     40  H   LIG d   1      14.709   4.307  -3.544  0.00  0.00     0.062 H 
ATOM     41  C   LIG d   1      13.189   5.618  -0.834  0.00  0.00    -0.056 A 
ATOM     42  H   LIG d   1      15.225   5.550  -1.483  0.00  0.00     0.062 H 
ATOM     43  H   LIG d   1      13.415   6.164   0.070  0.00  0.00     0.062 H 
ENDBRANCH  30  33
ENDBRANCH   1  30
BRANCH   6  44
ATOM     44  C   LIG d   1      13.178   9.669   0.445  0.00  0.00    -0.004 C 
ATOM     45  H   LIG d   1      12.979   8.758   1.009  0.00  0.00     0.032 H 
ATOM     46  H   LIG d   1      13.928   9.465  -0.320  0.00  0.00     0.032 H 
BRANCH  44  47
ATOM     47  C   LIG d   1      13.698  10.752   1.393  0.00  0.00    -0.008 C 
ATOM     48  H   LIG d   1      14.788  10.743   1.393  0.00  0.00     0.033 H 
ATOM     49  H   LIG d   1      13.342  11.727   1.060  0.00  0.00     0.033 H 
BRANCH  47  50
ATOM     50  C   LIG d   1      13.194  10.483   2.788  0.00  0.00     0.042 C 
ATOM     51  O   LIG d   1      12.271  11.138   3.239  0.00  0.00    -0.550 OA
ATOM     52  O   LIG d   1      13.709   9.609   3.463  0.00  0.00    -0.550 OA
ENDBRANCH  47  50
ENDBRANCH  44  47
ENDBRANCH   6  44
TORSDOF 5
ENDMDL
