MODEL 1
REMARK VINA RESULT:      -4.5      0.000      0.000
REMARK  7 active torsions:
REMARK  status: ('A' for Active; 'I' for Inactive)
REMARK    1  A    between atoms: C_1  and  C_2 
REMARK    2  A    between atoms: C_2  and  O_3 
REMARK    3  A    between atoms: O_3  and  C_4 
REMARK    4  A    between atoms: C_4  and  C_5 
REMARK    5  A    between atoms: C_8  and  O_13 
REMARK    6  A    between atoms: C_9  and  O_11 
REMARK    7  A    between atoms: O_11  and  C_12 
ROOT
ATOM      1  C   LIG d   1       5.036  -1.925  -4.066  0.00  0.00    -0.018 A 
ATOM      2  C   LIG d   1       4.292  -2.118  -2.918  0.00  0.00    -0.053 A 
ATOM      3  C   LIG d   1       4.198  -1.113  -1.973  0.00  0.00    -0.016 A 
ATOM      4  C   LIG d   1       4.845   0.095  -2.182  0.00  0.00     0.159 A 
ATOM      5  C   LIG d   1       5.589   0.292  -3.341  0.00  0.00     0.162 A 
ATOM      6  C   LIG d   1       5.682  -0.722  -4.280  0.00  0.00    -0.011 A 
ATOM      7  H   LIG d   1       3.784  -3.058  -2.756  0.00  0.00     0.062 H 
ATOM      8  H   LIG d   1       3.620  -1.268  -1.074  0.00  0.00     0.066 H 
ATOM      9  H   LIG d   1       6.260  -0.573  -5.181  0.00  0.00     0.066 H 
ENDROOT
BRANCH   1  10
ATOM     10  C   LIG d   1       5.139  -3.027  -5.089  0.00  0.00     0.073 C 
ATOM     11  H   LIG d   1       6.184  -3.311  -5.214  0.00  0.00     0.061 H 
ATOM     12  H   LIG d   1       4.742  -2.676  -6.042  0.00  0.00     0.061 H 
BRANCH  10  13
ATOM     13  O   LIG d   1       4.387  -4.159  -4.649  0.00  0.00    -0.376 OA
BRANCH  13  14
ATOM     14  C   LIG d   1       4.670  -5.361  -5.367  0.00  0.00     0.045 C 
ATOM     15  H   LIG d   1       4.446  -6.222  -4.737  0.00  0.00     0.056 H 
ATOM     16  H   LIG d   1       4.057  -5.400  -6.267  0.00  0.00     0.056 H 
BRANCH  14  17
ATOM     17  C   LIG d   1       6.150  -5.386  -5.757  0.00  0.00    -0.042 C 
ATOM     18  H   LIG d   1       6.412  -4.448  -6.246  0.00  0.00     0.025 H 
ATOM     19  H   LIG d   1       6.759  -5.512  -4.862  0.00  0.00     0.025 H 
ATOM     20  H   LIG d   1       6.331  -6.215  -6.440  0.00  0.00     0.025 H 
ENDBRANCH  14  17
ENDBRANCH  13  14
ENDBRANCH  10  13
ENDBRANCH   1  10
BRANCH   5  21
ATOM     21  O   LIG d   1       6.225   1.476  -3.550  0.00  0.00    -0.491 OA
BRANCH  21  22
ATOM     22  C   LIG d   1       7.609   1.416  -3.903  0.00  0.00     0.079 C 
ATOM     23  H   LIG d   1       7.795   0.518  -4.492  0.00  0.00     0.066 H 
ATOM     24  H   LIG d   1       7.872   2.296  -4.490  0.00  0.00     0.066 H 
ATOM     25  H   LIG d   1       8.214   1.389  -2.998  0.00  0.00     0.066 H 
ENDBRANCH  21  22
ENDBRANCH   5  21
BRANCH   4  26
ATOM     26  O   LIG d   1       4.751   1.087  -1.256  0.00  0.00    -0.503 OA
ATOM     27  H   LIG d   1       5.455   1.747  -1.314  0.00  0.00     0.292 HD
ENDBRANCH   4  26
TORSDOF 7
ENDMDL
MODEL 2
REMARK VINA RESULT:      -4.4      3.424      4.521
REMARK  7 active torsions:
REMARK  status: ('A' for Active; 'I' for Inactive)
REMARK    1  A    between atoms: C_1  and  C_2 
REMARK    2  A    between atoms: C_2  and  O_3 
REMARK    3  A    between atoms: O_3  and  C_4 
REMARK    4  A    between atoms: C_4  and  C_5 
REMARK    5  A    between atoms: C_8  and  O_13 
REMARK    6  A    between atoms: C_9  and  O_11 
REMARK    7  A    between atoms: O_11  and  C_12 
ROOT
ATOM      1  C   LIG d   1       3.332  -0.111  -5.516  0.00  0.00    -0.018 A 
ATOM      2  C   LIG d   1       2.430   0.145  -4.501  0.00  0.00    -0.053 A 
ATOM      3  C   LIG d   1       2.776  -0.102  -3.185  0.00  0.00    -0.016 A 
ATOM      4  C   LIG d   1       4.034  -0.598  -2.882  0.00  0.00     0.159 A 
ATOM      5  C   LIG d   1       4.945  -0.849  -3.903  0.00  0.00     0.162 A 
ATOM      6  C   LIG d   1       4.589  -0.604  -5.220  0.00  0.00    -0.011 A 
ATOM      7  H   LIG d   1       1.451   0.535  -4.736  0.00  0.00     0.062 H 
ATOM      8  H   LIG d   1       2.068   0.094  -2.394  0.00  0.00     0.066 H 
ATOM      9  H   LIG d   1       5.294  -0.799  -6.015  0.00  0.00     0.066 H 
ENDROOT
BRANCH   1  10
ATOM     10  C   LIG d   1       2.948   0.155  -6.949  0.00  0.00     0.073 C 
ATOM     11  H   LIG d   1       1.901  -0.111  -7.099  0.00  0.00     0.061 H 
ATOM     12  H   LIG d   1       3.573  -0.445  -7.610  0.00  0.00     0.061 H 
BRANCH  10  13
ATOM     13  O   LIG d   1       3.134   1.541  -7.244  0.00  0.00    -0.376 OA
BRANCH  13  14
ATOM     14  C   LIG d   1       2.800   1.899  -8.586  0.00  0.00     0.045 C 
ATOM     15  H   LIG d   1       2.582   0.998  -9.159  0.00  0.00     0.056 H 
ATOM     16  H   LIG d   1       1.924   2.547  -8.582  0.00  0.00     0.056 H 
BRANCH  14  17
ATOM     17  C   LIG d   1       3.978   2.638  -9.225  0.00  0.00    -0.042 C 
ATOM     18  H   LIG d   1       4.835   2.604  -8.554  0.00  0.00     0.025 H 
ATOM     19  H   LIG d   1       4.237   2.161 -10.170  0.00  0.00     0.025 H 
ATOM     20  H   LIG d   1       3.699   3.676  -9.406  0.00  0.00     0.025 H 
ENDBRANCH  14  17
ENDBRANCH  13  14
ENDBRANCH  10  13
ENDBRANCH   1  10
BRANCH   5  21
ATOM     21  O   LIG d   1       6.181  -1.335  -3.610  0.00  0.00    -0.491 OA
BRANCH  21  22
ATOM     22  C   LIG d   1       6.538  -2.592  -4.190  0.00  0.00     0.079 C 
ATOM     23  H   LIG d   1       7.572  -2.828  -3.940  0.00  0.00     0.066 H 
ATOM     24  H   LIG d   1       5.883  -3.372  -3.800  0.00  0.00     0.066 H 
ATOM     25  H   LIG d   1       6.430  -2.536  -5.273  0.00  0.00     0.066 H 
ENDBRANCH  21  22
ENDBRANCH   5  21
BRANCH   4  26
ATOM     26  O   LIG d   1       4.378  -0.837  -1.588  0.00  0.00    -0.503 OA
ATOM     27  H   LIG d   1       3.757  -1.409  -1.116  0.00  0.00     0.292 HD
ENDBRANCH   4  26
TORSDOF 7
ENDMDL
MODEL 3
REMARK VINA RESULT:      -4.2      2.643      3.939
REMARK  7 active torsions:
REMARK  status: ('A' for Active; 'I' for Inactive)
REMARK    1  A    between atoms: C_1  and  C_2 
REMARK    2  A    between atoms: C_2  and  O_3 
REMARK    3  A    between atoms: O_3  and  C_4 
REMARK    4  A    between atoms: C_4  and  C_5 
REMARK    5  A    between atoms: C_8  and  O_13 
REMARK    6  A    between atoms: C_9  and  O_11 
REMARK    7  A    between atoms: O_11  and  C_12 
ROOT
ATOM      1  C   LIG d   1       4.822   0.229  -3.014  0.00  0.00    -0.018 A 
ATOM      2  C   LIG d   1       4.781  -1.128  -2.753  0.00  0.00    -0.053 A 
ATOM      3  C   LIG d   1       5.903  -1.909  -2.958  0.00  0.00    -0.016 A 
ATOM      4  C   LIG d   1       7.075  -1.330  -3.418  0.00  0.00     0.159 A 
ATOM      5  C   LIG d   1       7.119   0.036  -3.675  0.00  0.00     0.162 A 
ATOM      6  C   LIG d   1       5.989   0.812  -3.471  0.00  0.00    -0.011 A 
ATOM      7  H   LIG d   1       3.869  -1.580  -2.390  0.00  0.00     0.062 H 
ATOM      8  H   LIG d   1       5.867  -2.970  -2.758  0.00  0.00     0.066 H 
ATOM      9  H   LIG d   1       6.019   1.873  -3.671  0.00  0.00     0.066 H 
ENDROOT
BRANCH   1  10
ATOM     10  C   LIG d   1       3.594   1.074  -2.794  0.00  0.00     0.073 C 
ATOM     11  H   LIG d   1       3.855   1.944  -2.190  0.00  0.00     0.061 H 
ATOM     12  H   LIG d   1       2.836   0.487  -2.275  0.00  0.00     0.061 H 
BRANCH  10  13
ATOM     13  O   LIG d   1       3.081   1.507  -4.055  0.00  0.00    -0.376 OA
BRANCH  13  14
ATOM     14  C   LIG d   1       2.330   0.510  -4.750  0.00  0.00     0.045 C 
ATOM     15  H   LIG d   1       2.388  -0.433  -4.206  0.00  0.00     0.056 H 
ATOM     16  H   LIG d   1       1.290   0.824  -4.824  0.00  0.00     0.056 H 
BRANCH  14  17
ATOM     17  C   LIG d   1       2.908   0.324  -6.155  0.00  0.00    -0.042 C 
ATOM     18  H   LIG d   1       2.534   1.112  -6.809  0.00  0.00     0.025 H 
ATOM     19  H   LIG d   1       3.996   0.375  -6.111  0.00  0.00     0.025 H 
ATOM     20  H   LIG d   1       2.605  -0.647  -6.546  0.00  0.00     0.025 H 
ENDBRANCH  14  17
ENDBRANCH  13  14
ENDBRANCH  10  13
ENDBRANCH   1  10
BRANCH   5  21
ATOM     21  O   LIG d   1       8.266   0.609  -4.126  0.00  0.00    -0.491 OA
BRANCH  21  22
ATOM     22  C   LIG d   1       8.476   1.985  -3.801  0.00  0.00     0.079 C 
ATOM     23  H   LIG d   1       7.579   2.389  -3.333  0.00  0.00     0.066 H 
ATOM     24  H   LIG d   1       9.316   2.072  -3.112  0.00  0.00     0.066 H 
ATOM     25  H   LIG d   1       8.694   2.544  -4.711  0.00  0.00     0.066 H 
ENDBRANCH  21  22
ENDBRANCH   5  21
BRANCH   4  26
ATOM     26  O   LIG d   1       8.181  -2.097  -3.616  0.00  0.00    -0.503 OA
ATOM     27  H   LIG d   1       8.995  -1.588  -3.738  0.00  0.00     0.292 HD
ENDBRANCH   4  26
TORSDOF 7
ENDMDL
MODEL 4
REMARK VINA RESULT:      -4.2      2.808      3.233
REMARK  7 active torsions:
REMARK  status: ('A' for Active; 'I' for Inactive)
REMARK    1  A    between atoms: C_1  and  C_2 
REMARK    2  A    between atoms: C_2  and  O_3 
REMARK    3  A    between atoms: O_3  and  C_4 
REMARK    4  A    between atoms: C_4  and  C_5 
REMARK    5  A    between atoms: C_8  and  O_13 
REMARK    6  A    between atoms: C_9  and  O_11 
REMARK    7  A    between atoms: O_11  and  C_12 
ROOT
ATOM      1  C   LIG d   1       5.608  -1.443  -3.421  0.00  0.00    -0.018 A 
ATOM      2  C   LIG d   1       4.600  -1.782  -2.538  0.00  0.00    -0.053 A 
ATOM      3  C   LIG d   1       3.292  -1.423  -2.806  0.00  0.00    -0.016 A 
ATOM      4  C   LIG d   1       2.988  -0.730  -3.967  0.00  0.00     0.159 A 
ATOM      5  C   LIG d   1       4.001  -0.393  -4.859  0.00  0.00     0.162 A 
ATOM      6  C   LIG d   1       5.311  -0.753  -4.581  0.00  0.00    -0.011 A 
ATOM      7  H   LIG d   1       4.835  -2.326  -1.635  0.00  0.00     0.062 H 
ATOM      8  H   LIG d   1       2.507  -1.685  -2.112  0.00  0.00     0.066 H 
ATOM      9  H   LIG d   1       6.100  -0.492  -5.272  0.00  0.00     0.066 H 
ENDROOT
BRANCH   1  10
ATOM     10  C   LIG d   1       7.032  -1.832  -3.121  0.00  0.00     0.073 C 
ATOM     11  H   LIG d   1       7.042  -2.661  -2.414  0.00  0.00     0.061 H 
ATOM     12  H   LIG d   1       7.559  -0.980  -2.690  0.00  0.00     0.061 H 
BRANCH  10  13
ATOM     13  O   LIG d   1       7.683  -2.230  -4.330  0.00  0.00    -0.376 OA
BRANCH  13  14
ATOM     14  C   LIG d   1       8.040  -3.613  -4.370  0.00  0.00     0.045 C 
ATOM     15  H   LIG d   1       7.156  -4.222  -4.180  0.00  0.00     0.056 H 
ATOM     16  H   LIG d   1       8.445  -3.856  -5.351  0.00  0.00     0.056 H 
BRANCH  14  17
ATOM     17  C   LIG d   1       9.095  -3.898  -3.298  0.00  0.00    -0.042 C 
ATOM     18  H   LIG d   1       8.708  -4.634  -2.595  0.00  0.00     0.025 H 
ATOM     19  H   LIG d   1       9.997  -4.286  -3.770  0.00  0.00     0.025 H 
ATOM     20  H   LIG d   1       9.329  -2.976  -2.767  0.00  0.00     0.025 H 
ENDBRANCH  14  17
ENDBRANCH  13  14
ENDBRANCH  10  13
ENDBRANCH   1  10
BRANCH   5  21
ATOM     21  O   LIG d   1       3.708   0.286  -5.999  0.00  0.00    -0.491 OA
BRANCH  21  22
ATOM     22  C   LIG d   1       3.655  -0.471  -7.210  0.00  0.00     0.079 C 
ATOM     23  H   LIG d   1       3.054  -1.367  -7.053  0.00  0.00     0.066 H 
ATOM     24  H   LIG d   1       3.205   0.135  -7.998  0.00  0.00     0.066 H 
ATOM     25  H   LIG d   1       4.664  -0.757  -7.505  0.00  0.00     0.066 H 
ENDBRANCH  21  22
ENDBRANCH   5  21
BRANCH   4  26
ATOM     26  O   LIG d   1       1.701  -0.380  -4.234  0.00  0.00    -0.503 OA
ATOM     27  H   LIG d   1       1.056  -1.073  -4.037  0.00  0.00     0.292 HD
ENDBRANCH   4  26
TORSDOF 7
ENDMDL
MODEL 5
REMARK VINA RESULT:      -4.1      3.911      5.207
REMARK  7 active torsions:
REMARK  status: ('A' for Active; 'I' for Inactive)
REMARK    1  A    between atoms: C_1  and  C_2 
REMARK    2  A    between atoms: C_2  and  O_3 
REMARK    3  A    between atoms: O_3  and  C_4 
REMARK    4  A    between atoms: C_4  and  C_5 
REMARK    5  A    between atoms: C_8  and  O_13 
REMARK    6  A    between atoms: C_9  and  O_11 
REMARK    7  A    between atoms: O_11  and  C_12 
ROOT
ATOM      1  C   LIG d   1       3.298   0.018  -6.874  0.00  0.00    -0.018 A 
ATOM      2  C   LIG d   1       4.189  -1.032  -6.988  0.00  0.00    -0.053 A 
ATOM      3  C   LIG d   1       4.655  -1.674  -5.855  0.00  0.00    -0.016 A 
ATOM      4  C   LIG d   1       4.220  -1.270  -4.603  0.00  0.00     0.159 A 
ATOM      5  C   LIG d   1       3.318  -0.217  -4.488  0.00  0.00     0.162 A 
ATOM      6  C   LIG d   1       2.859   0.425  -5.628  0.00  0.00    -0.011 A 
ATOM      7  H   LIG d   1       4.526  -1.350  -7.964  0.00  0.00     0.062 H 
ATOM      8  H   LIG d   1       5.355  -2.490  -5.946  0.00  0.00     0.066 H 
ATOM      9  H   LIG d   1       2.160   1.243  -5.542  0.00  0.00     0.066 H 
ENDROOT
BRANCH   1  10
ATOM     10  C   LIG d   1       2.798   0.717  -8.112  0.00  0.00     0.073 C 
ATOM     11  H   LIG d   1       1.713   0.624  -8.169  0.00  0.00     0.061 H 
ATOM     12  H   LIG d   1       3.248   0.262  -8.994  0.00  0.00     0.061 H 
BRANCH  10  13
ATOM     13  O   LIG d   1       3.155   2.100  -8.056  0.00  0.00    -0.376 OA
BRANCH  13  14
ATOM     14  C   LIG d   1       3.975   2.534  -9.142  0.00  0.00     0.045 C 
ATOM     15  H   LIG d   1       3.715   3.560  -9.406  0.00  0.00     0.056 H 
ATOM     16  H   LIG d   1       5.023   2.489  -8.847  0.00  0.00     0.056 H 
BRANCH  14  17
ATOM     17  C   LIG d   1       3.745   1.623 -10.350  0.00  0.00    -0.042 C 
ATOM     18  H   LIG d   1       4.658   1.068 -10.565  0.00  0.00     0.025 H 
ATOM     19  H   LIG d   1       2.938   0.924 -10.130  0.00  0.00     0.025 H 
ATOM     20  H   LIG d   1       3.476   2.229 -11.215  0.00  0.00     0.025 H 
ENDBRANCH  14  17
ENDBRANCH  13  14
ENDBRANCH  10  13
ENDBRANCH   1  10
BRANCH   5  21
ATOM     21  O   LIG d   1       2.889   0.182  -3.262  0.00  0.00    -0.491 OA
BRANCH  21  22
ATOM     22  C   LIG d   1       3.590   1.268  -2.650  0.00  0.00     0.079 C 
ATOM     23  H   LIG d   1       3.167   1.465  -1.665  0.00  0.00     0.066 H 
ATOM     24  H   LIG d   1       4.644   1.007  -2.547  0.00  0.00     0.066 H 
ATOM     25  H   LIG d   1       3.495   2.158  -3.271  0.00  0.00     0.066 H 
ENDBRANCH  21  22
ENDBRANCH   5  21
BRANCH   4  26
ATOM     26  O   LIG d   1       4.674  -1.903  -3.488  0.00  0.00    -0.503 OA
ATOM     27  H   LIG d   1       4.095  -2.612  -3.175  0.00  0.00     0.292 HD
ENDBRANCH   4  26
TORSDOF 7
ENDMDL
MODEL 6
REMARK VINA RESULT:      -4.0      2.095      5.201
REMARK  7 active torsions:
REMARK  status: ('A' for Active; 'I' for Inactive)
REMARK    1  A    between atoms: C_1  and  C_2 
REMARK    2  A    between atoms: C_2  and  O_3 
REMARK    3  A    between atoms: O_3  and  C_4 
REMARK    4  A    between atoms: C_4  and  C_5 
REMARK    5  A    between atoms: C_8  and  O_13 
REMARK    6  A    between atoms: C_9  and  O_11 
REMARK    7  A    between atoms: O_11  and  C_12 
ROOT
ATOM      1  C   LIG d   1       5.002  -2.128  -3.197  0.00  0.00    -0.018 A 
ATOM      2  C   LIG d   1       6.327  -1.757  -3.078  0.00  0.00    -0.053 A 
ATOM      3  C   LIG d   1       7.282  -2.310  -3.911  0.00  0.00    -0.016 A 
ATOM      4  C   LIG d   1       6.907  -3.233  -4.875  0.00  0.00     0.159 A 
ATOM      5  C   LIG d   1       5.572  -3.602  -5.000  0.00  0.00     0.162 A 
ATOM      6  C   LIG d   1       4.622  -3.047  -4.158  0.00  0.00    -0.011 A 
ATOM      7  H   LIG d   1       6.620  -1.035  -2.330  0.00  0.00     0.062 H 
ATOM      8  H   LIG d   1       8.318  -2.022  -3.813  0.00  0.00     0.066 H 
ATOM      9  H   LIG d   1       3.584  -3.332  -4.251  0.00  0.00     0.066 H 
ENDROOT
BRANCH   1  10
ATOM     10  C   LIG d   1       3.967  -1.526  -2.282  0.00  0.00     0.073 C 
ATOM     11  H   LIG d   1       4.433  -0.764  -1.658  0.00  0.00     0.061 H 
ATOM     12  H   LIG d   1       3.544  -2.305  -1.649  0.00  0.00     0.061 H 
BRANCH  10  13
ATOM     13  O   LIG d   1       2.928  -0.931  -3.063  0.00  0.00    -0.376 OA
BRANCH  13  14
ATOM     14  C   LIG d   1       3.157   0.443  -3.385  0.00  0.00     0.045 C 
ATOM     15  H   LIG d   1       3.792   0.507  -4.269  0.00  0.00     0.056 H 
ATOM     16  H   LIG d   1       2.205   0.933  -3.586  0.00  0.00     0.056 H 
BRANCH  14  17
ATOM     17  C   LIG d   1       3.849   1.134  -2.209  0.00  0.00    -0.042 C 
ATOM     18  H   LIG d   1       3.985   0.421  -1.397  0.00  0.00     0.025 H 
ATOM     19  H   LIG d   1       4.820   1.511  -2.529  0.00  0.00     0.025 H 
ATOM     20  H   LIG d   1       3.233   1.964  -1.863  0.00  0.00     0.025 H 
ENDBRANCH  14  17
ENDBRANCH  13  14
ENDBRANCH  10  13
ENDBRANCH   1  10
BRANCH   5  21
ATOM     21  O   LIG d   1       5.200  -4.507  -5.944  0.00  0.00    -0.491 OA
BRANCH  21  22
ATOM     22  C   LIG d   1       4.644  -5.739  -5.480  0.00  0.00     0.079 C 
ATOM     23  H   LIG d   1       4.822  -6.520  -6.219  0.00  0.00     0.066 H 
ATOM     24  H   LIG d   1       5.115  -6.017  -4.537  0.00  0.00     0.066 H 
ATOM     25  H   LIG d   1       3.572  -5.619  -5.328  0.00  0.00     0.066 H 
ENDBRANCH  21  22
ENDBRANCH   5  21
BRANCH   4  26
ATOM     26  O   LIG d   1       7.844  -3.775  -5.699  0.00  0.00    -0.503 OA
ATOM     27  H   LIG d   1       8.525  -3.150  -5.985  0.00  0.00     0.292 HD
ENDBRANCH   4  26
TORSDOF 7
ENDMDL
MODEL 7
REMARK VINA RESULT:      -3.8     10.859     13.729
REMARK  7 active torsions:
REMARK  status: ('A' for Active; 'I' for Inactive)
REMARK    1  A    between atoms: C_1  and  C_2 
REMARK    2  A    between atoms: C_2  and  O_3 
REMARK    3  A    between atoms: O_3  and  C_4 
REMARK    4  A    between atoms: C_4  and  C_5 
REMARK    5  A    between atoms: C_8  and  O_13 
REMARK    6  A    between atoms: C_9  and  O_11 
REMARK    7  A    between atoms: O_11  and  C_12 
ROOT
ATOM      1  C   LIG d   1      11.188  10.065   0.517  0.00  0.00    -0.018 A 
ATOM      2  C   LIG d   1      10.131  10.678  -0.129  0.00  0.00    -0.053 A 
ATOM      3  C   LIG d   1       9.152   9.915  -0.737  0.00  0.00    -0.016 A 
ATOM      4  C   LIG d   1       9.224   8.532  -0.691  0.00  0.00     0.159 A 
ATOM      5  C   LIG d   1      10.284   7.914  -0.036  0.00  0.00     0.162 A 
ATOM      6  C   LIG d   1      11.265   8.686   0.567  0.00  0.00    -0.011 A 
ATOM      7  H   LIG d   1      10.072  11.756  -0.162  0.00  0.00     0.062 H 
ATOM      8  H   LIG d   1       8.329  10.397  -1.246  0.00  0.00     0.066 H 
ATOM      9  H   LIG d   1      12.090   8.210   1.076  0.00  0.00     0.066 H 
ENDROOT
BRANCH   1  10
ATOM     10  C   LIG d   1      12.256  10.902   1.173  0.00  0.00     0.073 C 
ATOM     11  H   LIG d   1      12.379  11.833   0.619  0.00  0.00     0.061 H 
ATOM     12  H   LIG d   1      13.198  10.354   1.174  0.00  0.00     0.061 H 
BRANCH  10  13
ATOM     13  O   LIG d   1      11.873  11.195   2.518  0.00  0.00    -0.376 OA
BRANCH  13  14
ATOM     14  C   LIG d   1      12.856  10.841   3.493  0.00  0.00     0.045 C 
ATOM     15  H   LIG d   1      13.816  10.683   3.000  0.00  0.00     0.056 H 
ATOM     16  H   LIG d   1      12.951  11.645   4.222  0.00  0.00     0.056 H 
BRANCH  14  17
ATOM     17  C   LIG d   1      12.429   9.555   4.203  0.00  0.00    -0.042 C 
ATOM     18  H   LIG d   1      12.250   8.775   3.465  0.00  0.00     0.025 H 
ATOM     19  H   LIG d   1      13.219   9.237   4.884  0.00  0.00     0.025 H 
ATOM     20  H   LIG d   1      11.516   9.739   4.767  0.00  0.00     0.025 H 
ENDBRANCH  14  17
ENDBRANCH  13  14
ENDBRANCH  10  13
ENDBRANCH   1  10
BRANCH   5  21
ATOM     21  O   LIG d   1      10.359   6.558   0.012  0.00  0.00    -0.491 OA
BRANCH  21  22
ATOM     22  C   LIG d   1      11.108   5.987   1.088  0.00  0.00     0.079 C 
ATOM     23  H   LIG d   1      10.721   4.994   1.314  0.00  0.00     0.066 H 
ATOM     24  H   LIG d   1      12.157   5.911   0.799  0.00  0.00     0.066 H 
ATOM     25  H   LIG d   1      11.019   6.621   1.969  0.00  0.00     0.066 H 
ENDBRANCH  21  22
ENDBRANCH   5  21
BRANCH   4  26
ATOM     26  O   LIG d   1       8.259   7.780  -1.285  0.00  0.00    -0.503 OA
ATOM     27  H   LIG d   1       7.534   7.533  -0.694  0.00  0.00     0.292 HD
ENDBRANCH   4  26
TORSDOF 7
ENDMDL
MODEL 8
REMARK VINA RESULT:      -3.7      3.329      4.859
REMARK  7 active torsions:
REMARK  status: ('A' for Active; 'I' for Inactive)
REMARK    1  A    between atoms: C_1  and  C_2 
REMARK    2  A    between atoms: C_2  and  O_3 
REMARK    3  A    between atoms: O_3  and  C_4 
REMARK    4  A    between atoms: C_4  and  C_5 
REMARK    5  A    between atoms: C_8  and  O_13 
REMARK    6  A    between atoms: C_9  and  O_11 
REMARK    7  A    between atoms: O_11  and  C_12 
ROOT
ATOM      1  C   LIG d   1       4.510  -0.397  -6.221  0.00  0.00    -0.018 A 
ATOM      2  C   LIG d   1       5.831  -0.248  -6.601  0.00  0.00    -0.053 A 
ATOM      3  C   LIG d   1       6.846  -0.493  -5.695  0.00  0.00    -0.016 A 
ATOM      4  C   LIG d   1       6.540  -0.898  -4.405  0.00  0.00     0.159 A 
ATOM      5  C   LIG d   1       5.211  -1.054  -4.024  0.00  0.00     0.162 A 
ATOM      6  C   LIG d   1       4.199  -0.802  -4.937  0.00  0.00    -0.011 A 
ATOM      7  H   LIG d   1       6.071   0.064  -7.606  0.00  0.00     0.062 H 
ATOM      8  H   LIG d   1       7.877  -0.371  -5.992  0.00  0.00     0.066 H 
ATOM      9  H   LIG d   1       3.166  -0.922  -4.644  0.00  0.00     0.066 H 
ENDROOT
BRANCH   1  10
ATOM     10  C   LIG d   1       3.408  -0.123  -7.211  0.00  0.00     0.073 C 
ATOM     11  H   LIG d   1       2.491  -0.610  -6.878  0.00  0.00     0.061 H 
ATOM     12  H   LIG d   1       3.692  -0.514  -8.189  0.00  0.00     0.061 H 
BRANCH  10  13
ATOM     13  O   LIG d   1       3.192   1.286  -7.307  0.00  0.00    -0.376 OA
BRANCH  13  14
ATOM     14  C   LIG d   1       2.848   1.734  -8.619  0.00  0.00     0.045 C 
ATOM     15  H   LIG d   1       2.688   0.871  -9.267  0.00  0.00     0.056 H 
ATOM     16  H   LIG d   1       1.936   2.328  -8.573  0.00  0.00     0.056 H 
BRANCH  14  17
ATOM     17  C   LIG d   1       3.986   2.589  -9.181  0.00  0.00    -0.042 C 
ATOM     18  H   LIG d   1       4.273   3.340  -8.445  0.00  0.00     0.025 H 
ATOM     19  H   LIG d   1       4.842   1.953  -9.405  0.00  0.00     0.025 H 
ATOM     20  H   LIG d   1       3.651   3.084 -10.092  0.00  0.00     0.025 H 
ENDBRANCH  14  17
ENDBRANCH  13  14
ENDBRANCH  10  13
ENDBRANCH   1  10
BRANCH   5  21
ATOM     21  O   LIG d   1       4.906  -1.452  -2.761  0.00  0.00    -0.491 OA
BRANCH  21  22
ATOM     22  C   LIG d   1       4.371  -0.462  -1.880  0.00  0.00     0.079 C 
ATOM     23  H   LIG d   1       3.469  -0.035  -2.318  0.00  0.00     0.066 H 
ATOM     24  H   LIG d   1       4.127  -0.921  -0.922  0.00  0.00     0.066 H 
ATOM     25  H   LIG d   1       5.109   0.325  -1.727  0.00  0.00     0.066 H 
ENDBRANCH  21  22
ENDBRANCH   5  21
BRANCH   4  26
ATOM     26  O   LIG d   1       7.538  -1.144  -3.514  0.00  0.00    -0.503 OA
ATOM     27  H   LIG d   1       7.243  -1.176  -2.593  0.00  0.00     0.292 HD
ENDBRANCH   4  26
TORSDOF 7
ENDMDL
MODEL 9
REMARK VINA RESULT:      -3.7      3.240      5.548
REMARK  7 active torsions:
REMARK  status: ('A' for Active; 'I' for Inactive)
REMARK    1  A    between atoms: C_1  and  C_2 
REMARK    2  A    between atoms: C_2  and  O_3 
REMARK    3  A    between atoms: O_3  and  C_4 
REMARK    4  A    between atoms: C_4  and  C_5 
REMARK    5  A    between atoms: C_8  and  O_13 
REMARK    6  A    between atoms: C_9  and  O_11 
REMARK    7  A    between atoms: O_11  and  C_12 
ROOT
ATOM      1  C   LIG d   1       3.228   0.005  -5.979  0.00  0.00    -0.018 A 
ATOM      2  C   LIG d   1       2.816   0.307  -7.263  0.00  0.00    -0.053 A 
ATOM      3  C   LIG d   1       3.473  -0.241  -8.350  0.00  0.00    -0.016 A 
ATOM      4  C   LIG d   1       4.541  -1.101  -8.151  0.00  0.00     0.159 A 
ATOM      5  C   LIG d   1       4.952  -1.410  -6.859  0.00  0.00     0.162 A 
ATOM      6  C   LIG d   1       4.292  -0.854  -5.775  0.00  0.00    -0.011 A 
ATOM      7  H   LIG d   1       1.982   0.974  -7.419  0.00  0.00     0.062 H 
ATOM      8  H   LIG d   1       3.152   0.001  -9.353  0.00  0.00     0.066 H 
ATOM      9  H   LIG d   1       4.609  -1.091  -4.770  0.00  0.00     0.066 H 
ENDROOT
BRANCH   1  10
ATOM     10  C   LIG d   1       2.512   0.609  -4.798  0.00  0.00     0.073 C 
ATOM     11  H   LIG d   1       1.909  -0.156  -4.308  0.00  0.00     0.061 H 
ATOM     12  H   LIG d   1       1.865   1.417  -5.140  0.00  0.00     0.061 H 
BRANCH  10  13
ATOM     13  O   LIG d   1       3.470   1.125  -3.872  0.00  0.00    -0.376 OA
BRANCH  13  14
ATOM     14  C   LIG d   1       3.334   0.611  -2.546  0.00  0.00     0.045 C 
ATOM     15  H   LIG d   1       2.485   1.089  -2.057  0.00  0.00     0.056 H 
ATOM     16  H   LIG d   1       3.169  -0.466  -2.589  0.00  0.00     0.056 H 
BRANCH  14  17
ATOM     17  C   LIG d   1       4.609   0.900  -1.753  0.00  0.00    -0.042 C 
ATOM     18  H   LIG d   1       4.870   1.953  -1.855  0.00  0.00     0.025 H 
ATOM     19  H   LIG d   1       4.444   0.667  -0.701  0.00  0.00     0.025 H 
ATOM     20  H   LIG d   1       5.423   0.286  -2.138  0.00  0.00     0.025 H 
ENDBRANCH  14  17
ENDBRANCH  13  14
ENDBRANCH  10  13
ENDBRANCH   1  10
BRANCH   5  21
ATOM     21  O   LIG d   1       5.998  -2.254  -6.660  0.00  0.00    -0.491 OA
BRANCH  21  22
ATOM     22  C   LIG d   1       6.663  -2.178  -5.396  0.00  0.00     0.079 C 
ATOM     23  H   LIG d   1       5.927  -2.019  -4.608  0.00  0.00     0.066 H 
ATOM     24  H   LIG d   1       7.199  -3.109  -5.211  0.00  0.00     0.066 H 
ATOM     25  H   LIG d   1       7.369  -1.348  -5.407  0.00  0.00     0.066 H 
ENDBRANCH  21  22
ENDBRANCH   5  21
BRANCH   4  26
ATOM     26  O   LIG d   1       5.185  -1.644  -9.219  0.00  0.00    -0.503 OA
ATOM     27  H   LIG d   1       5.664  -0.999  -9.759  0.00  0.00     0.292 HD
ENDBRANCH   4  26
TORSDOF 7
ENDMDL
MODEL 10
REMARK VINA RESULT:      -3.7      9.103     11.840
REMARK  7 active torsions:
REMARK  status: ('A' for Active; 'I' for Inactive)
REMARK    1  A    between atoms: C_1  and  C_2 
REMARK    2  A    between atoms: C_2  and  O_3 
REMARK    3  A    between atoms: O_3  and  C_4 
REMARK    4  A    between atoms: C_4  and  C_5 
REMARK    5  A    between atoms: C_8  and  O_13 
REMARK    6  A    between atoms: C_9  and  O_11 
REMARK    7  A    between atoms: O_11  and  C_12 
ROOT
ATOM      1  C   LIG d   1      10.188   8.426  -0.370  0.00  0.00    -0.018 A 
ATOM      2  C   LIG d   1      11.014   7.921   0.616  0.00  0.00    -0.053 A 
ATOM      3  C   LIG d   1      11.412   6.597   0.579  0.00  0.00    -0.016 A 
ATOM      4  C   LIG d   1      10.989   5.777  -0.455  0.00  0.00     0.159 A 
ATOM      5  C   LIG d   1      10.163   6.286  -1.452  0.00  0.00     0.162 A 
ATOM      6  C   LIG d   1       9.765   7.613  -1.404  0.00  0.00    -0.011 A 
ATOM      7  H   LIG d   1      11.347   8.560   1.421  0.00  0.00     0.062 H 
ATOM      8  H   LIG d   1      12.053   6.203   1.353  0.00  0.00     0.066 H 
ATOM      9  H   LIG d   1       9.123   8.012  -2.176  0.00  0.00     0.066 H 
ENDROOT
BRANCH   1  10
ATOM     10  C   LIG d   1       9.753   9.868  -0.321  0.00  0.00     0.073 C 
ATOM     11  H   LIG d   1      10.633  10.512  -0.294  0.00  0.00     0.061 H 
ATOM     12  H   LIG d   1       9.153  10.036   0.574  0.00  0.00     0.061 H 
BRANCH  10  13
ATOM     13  O   LIG d   1       8.976  10.172  -1.480  0.00  0.00    -0.376 OA
BRANCH  13  14
ATOM     14  C   LIG d   1       9.502  11.240  -2.270  0.00  0.00     0.045 C 
ATOM     15  H   LIG d   1       9.790  12.065  -1.617  0.00  0.00     0.056 H 
ATOM     16  H   LIG d   1      10.374  10.891  -2.820  0.00  0.00     0.056 H 
BRANCH  14  17
ATOM     17  C   LIG d   1       8.434  11.719  -3.256  0.00  0.00    -0.042 C 
ATOM     18  H   LIG d   1       7.760  10.896  -3.489  0.00  0.00     0.025 H 
ATOM     19  H   LIG d   1       7.869  12.538  -2.810  0.00  0.00     0.025 H 
ATOM     20  H   LIG d   1       8.915  12.066  -4.170  0.00  0.00     0.025 H 
ENDBRANCH  14  17
ENDBRANCH  13  14
ENDBRANCH  10  13
ENDBRANCH   1  10
BRANCH   5  21
ATOM     21  O   LIG d   1       9.747   5.486  -2.468  0.00  0.00    -0.491 OA
BRANCH  21  22
ATOM     22  C   LIG d   1       9.600   6.093  -3.754  0.00  0.00     0.079 C 
ATOM     23  H   LIG d   1       9.474   7.168  -3.636  0.00  0.00     0.066 H 
ATOM     24  H   LIG d   1      10.489   5.894  -4.353  0.00  0.00     0.066 H 
ATOM     25  H   LIG d   1       8.726   5.677  -4.254  0.00  0.00     0.066 H 
ENDBRANCH  21  22
ENDBRANCH   5  21
BRANCH   4  26
ATOM     26  O   LIG d   1      11.383   4.475  -0.496  0.00  0.00    -0.503 OA
ATOM     27  H   LIG d   1      12.229   4.307  -0.059  0.00  0.00     0.292 HD
ENDBRANCH   4  26
TORSDOF 7
ENDMDL
