MODEL 1
REMARK VINA RESULT:      -5.4      0.000      0.000
REMARK  7 active torsions:
REMARK  status: ('A' for Active; 'I' for Inactive)
REMARK    1  A    between atoms: C_1  and  C_2 
REMARK    2  A    between atoms: C_2  and  C_13 
REMARK    3  A    between atoms: C_3  and  C_4 
REMARK    4  A    between atoms: C_4  and  C_5 
REMARK    5  A    between atoms: C_5  and  C_6 
REMARK    6  A    between atoms: C_6  and  C_12 
REMARK    7  A    between atoms: N_7  and  N_8 
REMARK       I    between atoms: N_8  and  C_9 
REMARK       I    between atoms: C_9  and  N_11 
ROOT
ATOM      1  C   LIG d   1       3.543   1.393  -2.608  0.00  0.00    -0.010 C 
ATOM      2  H   LIG d   1       3.698   2.379  -3.044  0.00  0.00     0.033 H 
ATOM      3  H   LIG d   1       2.791   1.458  -1.821  0.00  0.00     0.033 H 
ENDROOT
BRANCH   1   4
ATOM      4  C   LIG d   1       4.859   0.885  -2.015  0.00  0.00    -0.029 C 
ATOM      5  H   LIG d   1       5.029   1.358  -1.049  0.00  0.00     0.031 H 
ATOM      6  H   LIG d   1       4.806  -0.196  -1.887  0.00  0.00     0.031 H 
BRANCH   4   7
ATOM      7  C   LIG d   1       5.994   1.224  -2.946  0.00  0.00    -0.085 C 
ATOM      8  C   LIG d   1       6.731   0.269  -3.457  0.00  0.00    -0.080 C 
ATOM      9  H   LIG d   1       6.201   2.256  -3.191  0.00  0.00     0.057 H 
BRANCH   8  10
ATOM     10  C   LIG d   1       6.370  -1.174  -3.211  0.00  0.00    -0.044 C 
ATOM     11  H   LIG d   1       6.354  -1.366  -2.138  0.00  0.00     0.027 H 
ATOM     12  H   LIG d   1       5.387  -1.379  -3.632  0.00  0.00     0.027 H 
ATOM     13  H   LIG d   1       7.110  -1.819  -3.684  0.00  0.00     0.027 H 
ENDBRANCH   8  10
BRANCH   8  14
ATOM     14  C   LIG d   1       7.937   0.612  -4.291  0.00  0.00    -0.044 C 
ATOM     15  H   LIG d   1       7.724   0.410  -5.341  0.00  0.00     0.027 H 
ATOM     16  H   LIG d   1       8.176   1.669  -4.167  0.00  0.00     0.027 H 
ATOM     17  H   LIG d   1       8.785   0.008  -3.970  0.00  0.00     0.027 H 
ENDBRANCH   8  14
ENDBRANCH   4   7
ENDBRANCH   1   4
BRANCH   1  18
ATOM     18  C   LIG d   1       3.072   0.440  -3.675  0.00  0.00     0.034 C 
ATOM     19  N   LIG d   1       3.082   0.798  -4.904  0.00  0.00    -0.188 NA
BRANCH  19  20
ATOM     20  N   LIG d   1       2.643  -0.089  -5.896  0.00  0.00    -0.191 N 
ATOM     21  C   LIG d   1       2.756   0.246  -7.197  0.00  0.00     0.317 C 
ATOM     22  O   LIG d   1       2.380  -0.527  -8.058  0.00  0.00    -0.251 OA
ATOM     23  N   LIG d   1       3.286   1.436  -7.543  0.00  0.00    -0.312 N 
ATOM     24  H   LIG d   1       3.585   2.051  -6.856  0.00  0.00     0.146 HD
ATOM     25  H   LIG d   1       3.366   1.676  -8.479  0.00  0.00     0.146 HD
ATOM     26  H   LIG d   1       2.263  -0.945  -5.647  0.00  0.00     0.179 HD
ENDBRANCH  19  20
BRANCH  18  27
ATOM     27  C   LIG d   1       2.588  -0.937  -3.296  0.00  0.00    -0.025 C 
ATOM     28  H   LIG d   1       1.653  -0.853  -2.743  0.00  0.00     0.029 H 
ATOM     29  H   LIG d   1       2.424  -1.525  -4.199  0.00  0.00     0.029 H 
ATOM     30  H   LIG d   1       3.336  -1.427  -2.673  0.00  0.00     0.029 H 
ENDBRANCH  18  27
ENDBRANCH   1  18
TORSDOF 7
ENDMDL
MODEL 2
REMARK VINA RESULT:      -5.2      1.529      2.422
REMARK  7 active torsions:
REMARK  status: ('A' for Active; 'I' for Inactive)
REMARK    1  A    between atoms: C_1  and  C_2 
REMARK    2  A    between atoms: C_2  and  C_13 
REMARK    3  A    between atoms: C_3  and  C_4 
REMARK    4  A    between atoms: C_4  and  C_5 
REMARK    5  A    between atoms: C_5  and  C_6 
REMARK    6  A    between atoms: C_6  and  C_12 
REMARK    7  A    between atoms: N_7  and  N_8 
REMARK       I    between atoms: N_8  and  C_9 
REMARK       I    between atoms: C_9  and  N_11 
ROOT
ATOM      1  C   LIG d   1       2.728  -0.999  -2.648  0.00  0.00    -0.010 C 
ATOM      2  H   LIG d   1       2.198  -0.605  -1.782  0.00  0.00     0.033 H 
ATOM      3  H   LIG d   1       2.114  -1.757  -3.137  0.00  0.00     0.033 H 
ENDROOT
BRANCH   1   4
ATOM      4  C   LIG d   1       4.047  -1.629  -2.195  0.00  0.00    -0.029 C 
ATOM      5  H   LIG d   1       4.790  -0.847  -2.044  0.00  0.00     0.031 H 
ATOM      6  H   LIG d   1       3.891  -2.167  -1.260  0.00  0.00     0.031 H 
BRANCH   4   7
ATOM      7  C   LIG d   1       4.535  -2.588  -3.251  0.00  0.00    -0.085 C 
ATOM      8  C   LIG d   1       5.704  -2.404  -3.813  0.00  0.00    -0.080 C 
ATOM      9  H   LIG d   1       3.920  -3.426  -3.544  0.00  0.00     0.057 H 
BRANCH   8  10
ATOM     10  C   LIG d   1       6.612  -1.305  -3.322  0.00  0.00    -0.044 C 
ATOM     11  H   LIG d   1       6.615  -0.487  -4.043  0.00  0.00     0.027 H 
ATOM     12  H   LIG d   1       6.254  -0.941  -2.360  0.00  0.00     0.027 H 
ATOM     13  H   LIG d   1       7.624  -1.694  -3.210  0.00  0.00     0.027 H 
ENDBRANCH   8  10
BRANCH   8  14
ATOM     14  C   LIG d   1       6.140  -3.291  -4.950  0.00  0.00    -0.044 C 
ATOM     15  H   LIG d   1       6.977  -2.826  -5.473  0.00  0.00     0.027 H 
ATOM     16  H   LIG d   1       6.452  -4.259  -4.557  0.00  0.00     0.027 H 
ATOM     17  H   LIG d   1       5.310  -3.430  -5.642  0.00  0.00     0.027 H 
ENDBRANCH   8  14
ENDBRANCH   4   7
ENDBRANCH   1   4
BRANCH   1  18
ATOM     18  C   LIG d   1       3.012   0.119  -3.617  0.00  0.00     0.034 C 
ATOM     19  N   LIG d   1       2.666   0.006  -4.844  0.00  0.00    -0.188 NA
BRANCH  19  20
ATOM     20  N   LIG d   1       2.929   1.047  -5.744  0.00  0.00    -0.191 N 
ATOM     21  C   LIG d   1       2.920   0.808  -7.071  0.00  0.00     0.317 C 
ATOM     22  O   LIG d   1       3.144   1.713  -7.853  0.00  0.00    -0.251 OA
ATOM     23  N   LIG d   1       2.662  -0.433  -7.531  0.00  0.00    -0.312 N 
ATOM     24  H   LIG d   1       2.484  -1.154  -6.907  0.00  0.00     0.146 HD
ATOM     25  H   LIG d   1       2.656  -0.604  -8.486  0.00  0.00     0.146 HD
ATOM     26  H   LIG d   1       3.114   1.939  -5.414  0.00  0.00     0.179 HD
ENDBRANCH  19  20
BRANCH  18  27
ATOM     27  C   LIG d   1       3.703   1.371  -3.141  0.00  0.00    -0.025 C 
ATOM     28  H   LIG d   1       4.331   1.136  -2.283  0.00  0.00     0.029 H 
ATOM     29  H   LIG d   1       4.323   1.771  -3.945  0.00  0.00     0.029 H 
ATOM     30  H   LIG d   1       2.958   2.112  -2.854  0.00  0.00     0.029 H 
ENDBRANCH  18  27
ENDBRANCH   1  18
TORSDOF 7
ENDMDL
MODEL 3
REMARK VINA RESULT:      -5.2      3.809      4.821
REMARK  7 active torsions:
REMARK  status: ('A' for Active; 'I' for Inactive)
REMARK    1  A    between atoms: C_1  and  C_2 
REMARK    2  A    between atoms: C_2  and  C_13 
REMARK    3  A    between atoms: C_3  and  C_4 
REMARK    4  A    between atoms: C_4  and  C_5 
REMARK    5  A    between atoms: C_5  and  C_6 
REMARK    6  A    between atoms: C_6  and  C_12 
REMARK    7  A    between atoms: N_7  and  N_8 
REMARK       I    between atoms: N_8  and  C_9 
REMARK       I    between atoms: C_9  and  N_11 
ROOT
ATOM      1  C   LIG d   1       5.308  -2.647  -3.683  0.00  0.00    -0.010 C 
ATOM      2  H   LIG d   1       5.931  -3.467  -3.329  0.00  0.00     0.033 H 
ATOM      3  H   LIG d   1       5.919  -1.751  -3.801  0.00  0.00     0.033 H 
ENDROOT
BRANCH   1   4
ATOM      4  C   LIG d   1       4.197  -2.375  -2.667  0.00  0.00    -0.029 C 
ATOM      5  H   LIG d   1       3.227  -2.498  -3.146  0.00  0.00     0.031 H 
ATOM      6  H   LIG d   1       4.285  -3.076  -1.836  0.00  0.00     0.031 H 
BRANCH   4   7
ATOM      7  C   LIG d   1       4.325  -0.965  -2.148  0.00  0.00    -0.085 C 
ATOM      8  C   LIG d   1       3.541  -0.023  -2.612  0.00  0.00    -0.080 C 
ATOM      9  H   LIG d   1       5.062  -0.732  -1.395  0.00  0.00     0.057 H 
BRANCH   8  10
ATOM     10  C   LIG d   1       2.435  -0.370  -3.575  0.00  0.00    -0.044 C 
ATOM     11  H   LIG d   1       1.489   0.018  -3.196  0.00  0.00     0.027 H 
ATOM     12  H   LIG d   1       2.647   0.075  -4.547  0.00  0.00     0.027 H 
ATOM     13  H   LIG d   1       2.369  -1.453  -3.678  0.00  0.00     0.027 H 
ENDBRANCH   8  10
BRANCH   8  14
ATOM     14  C   LIG d   1       3.747   1.407  -2.183  0.00  0.00    -0.044 C 
ATOM     15  H   LIG d   1       3.080   1.636  -1.352  0.00  0.00     0.027 H 
ATOM     16  H   LIG d   1       4.781   1.545  -1.867  0.00  0.00     0.027 H 
ATOM     17  H   LIG d   1       3.530   2.072  -3.018  0.00  0.00     0.027 H 
ENDBRANCH   8  14
ENDBRANCH   4   7
ENDBRANCH   1   4
BRANCH   1  18
ATOM     18  C   LIG d   1       4.696  -3.016  -5.009  0.00  0.00     0.034 C 
ATOM     19  N   LIG d   1       4.185  -4.177  -5.178  0.00  0.00    -0.188 NA
BRANCH  19  20
ATOM     20  N   LIG d   1       3.617  -4.520  -6.412  0.00  0.00    -0.191 N 
ATOM     21  C   LIG d   1       3.923  -5.698  -6.990  0.00  0.00     0.317 C 
ATOM     22  O   LIG d   1       3.425  -5.998  -8.059  0.00  0.00    -0.251 OA
ATOM     23  N   LIG d   1       4.779  -6.545  -6.385  0.00  0.00    -0.312 N 
ATOM     24  H   LIG d   1       5.176  -6.305  -5.533  0.00  0.00     0.146 HD
ATOM     25  H   LIG d   1       4.999  -7.392  -6.802  0.00  0.00     0.146 HD
ATOM     26  H   LIG d   1       3.000  -3.912  -6.847  0.00  0.00     0.179 HD
ENDBRANCH  19  20
BRANCH  18  27
ATOM     27  C   LIG d   1       4.686  -2.018  -6.138  0.00  0.00    -0.025 C 
ATOM     28  H   LIG d   1       4.960  -2.517  -7.067  0.00  0.00     0.029 H 
ATOM     29  H   LIG d   1       3.688  -1.590  -6.236  0.00  0.00     0.029 H 
ATOM     30  H   LIG d   1       5.402  -1.224  -5.929  0.00  0.00     0.029 H 
ENDBRANCH  18  27
ENDBRANCH   1  18
TORSDOF 7
ENDMDL
MODEL 4
REMARK VINA RESULT:      -4.7      2.304      3.384
REMARK  7 active torsions:
REMARK  status: ('A' for Active; 'I' for Inactive)
REMARK    1  A    between atoms: C_1  and  C_2 
REMARK    2  A    between atoms: C_2  and  C_13 
REMARK    3  A    between atoms: C_3  and  C_4 
REMARK    4  A    between atoms: C_4  and  C_5 
REMARK    5  A    between atoms: C_5  and  C_6 
REMARK    6  A    between atoms: C_6  and  C_12 
REMARK    7  A    between atoms: N_7  and  N_8 
REMARK       I    between atoms: N_8  and  C_9 
REMARK       I    between atoms: C_9  and  N_11 
ROOT
ATOM      1  C   LIG d   1       2.230   0.320  -5.490  0.00  0.00    -0.010 C 
ATOM      2  H   LIG d   1       1.548   1.082  -5.865  0.00  0.00     0.033 H 
ATOM      3  H   LIG d   1       1.696  -0.625  -5.381  0.00  0.00     0.033 H 
ENDROOT
BRANCH   1   4
ATOM      4  C   LIG d   1       2.780   0.754  -4.130  0.00  0.00    -0.029 C 
ATOM      5  H   LIG d   1       3.673   1.361  -4.276  0.00  0.00     0.031 H 
ATOM      6  H   LIG d   1       2.026   1.337  -3.602  0.00  0.00     0.031 H 
BRANCH   4   7
ATOM      7  C   LIG d   1       3.131  -0.466  -3.317  0.00  0.00    -0.085 C 
ATOM      8  C   LIG d   1       4.006  -0.378  -2.346  0.00  0.00    -0.080 C 
ATOM      9  H   LIG d   1       2.661  -1.414  -3.536  0.00  0.00     0.057 H 
BRANCH   8  10
ATOM     10  C   LIG d   1       4.573   0.965  -1.964  0.00  0.00    -0.044 C 
ATOM     11  H   LIG d   1       5.181   0.860  -1.064  0.00  0.00     0.027 H 
ATOM     12  H   LIG d   1       5.191   1.344  -2.778  0.00  0.00     0.027 H 
ATOM     13  H   LIG d   1       3.758   1.663  -1.772  0.00  0.00     0.027 H 
ENDBRANCH   8  10
BRANCH   8  14
ATOM     14  C   LIG d   1       4.445  -1.618  -1.613  0.00  0.00    -0.044 C 
ATOM     15  H   LIG d   1       5.091  -1.339  -0.780  0.00  0.00     0.027 H 
ATOM     16  H   LIG d   1       3.569  -2.143  -1.231  0.00  0.00     0.027 H 
ATOM     17  H   LIG d   1       4.991  -2.270  -2.294  0.00  0.00     0.027 H 
ENDBRANCH   8  14
ENDBRANCH   4   7
ENDBRANCH   1   4
BRANCH   1  18
ATOM     18  C   LIG d   1       3.370   0.144  -6.460  0.00  0.00     0.034 C 
ATOM     19  N   LIG d   1       3.592   1.030  -7.356  0.00  0.00    -0.188 NA
BRANCH  19  20
ATOM     20  N   LIG d   1       4.651   0.865  -8.257  0.00  0.00    -0.191 N 
ATOM     21  C   LIG d   1       4.977   1.863  -9.104  0.00  0.00     0.317 C 
ATOM     22  O   LIG d   1       5.901   1.721  -9.883  0.00  0.00    -0.251 OA
ATOM     23  N   LIG d   1       4.281   3.017  -9.085  0.00  0.00    -0.312 N 
ATOM     24  H   LIG d   1       3.544   3.129  -8.464  0.00  0.00     0.146 HD
ATOM     25  H   LIG d   1       4.516   3.734  -9.695  0.00  0.00     0.146 HD
ATOM     26  H   LIG d   1       5.153   0.036  -8.270  0.00  0.00     0.179 HD
ENDBRANCH  19  20
BRANCH  18  27
ATOM     27  C   LIG d   1       4.248  -1.078  -6.376  0.00  0.00    -0.025 C 
ATOM     28  H   LIG d   1       4.723  -1.252  -7.341  0.00  0.00     0.029 H 
ATOM     29  H   LIG d   1       5.016  -0.922  -5.617  0.00  0.00     0.029 H 
ATOM     30  H   LIG d   1       3.643  -1.944  -6.107  0.00  0.00     0.029 H 
ENDBRANCH  18  27
ENDBRANCH   1  18
TORSDOF 7
ENDMDL
MODEL 5
REMARK VINA RESULT:      -4.6      2.415      3.511
REMARK  7 active torsions:
REMARK  status: ('A' for Active; 'I' for Inactive)
REMARK    1  A    between atoms: C_1  and  C_2 
REMARK    2  A    between atoms: C_2  and  C_13 
REMARK    3  A    between atoms: C_3  and  C_4 
REMARK    4  A    between atoms: C_4  and  C_5 
REMARK    5  A    between atoms: C_5  and  C_6 
REMARK    6  A    between atoms: C_6  and  C_12 
REMARK    7  A    between atoms: N_7  and  N_8 
REMARK       I    between atoms: N_8  and  C_9 
REMARK       I    between atoms: C_9  and  N_11 
ROOT
ATOM      1  C   LIG d   1       2.671   0.896  -5.988  0.00  0.00    -0.010 C 
ATOM      2  H   LIG d   1       3.478   1.620  -5.889  0.00  0.00     0.033 H 
ATOM      3  H   LIG d   1       1.776   1.397  -6.359  0.00  0.00     0.033 H 
ENDROOT
BRANCH   1   4
ATOM      4  C   LIG d   1       2.375   0.272  -4.623  0.00  0.00    -0.029 C 
ATOM      5  H   LIG d   1       1.338   0.466  -4.352  0.00  0.00     0.031 H 
ATOM      6  H   LIG d   1       2.544  -0.804  -4.670  0.00  0.00     0.031 H 
BRANCH   4   7
ATOM      7  C   LIG d   1       3.285   0.878  -3.585  0.00  0.00    -0.085 C 
ATOM      8  C   LIG d   1       3.774   0.131  -2.626  0.00  0.00    -0.080 C 
ATOM      9  H   LIG d   1       3.534   1.928  -3.633  0.00  0.00     0.057 H 
BRANCH   8  10
ATOM     10  C   LIG d   1       3.523  -1.355  -2.626  0.00  0.00    -0.044 C 
ATOM     11  H   LIG d   1       4.415  -1.874  -2.273  0.00  0.00     0.027 H 
ATOM     12  H   LIG d   1       2.685  -1.582  -1.968  0.00  0.00     0.027 H 
ATOM     13  H   LIG d   1       3.289  -1.684  -3.639  0.00  0.00     0.027 H 
ENDBRANCH   8  10
BRANCH   8  14
ATOM     14  C   LIG d   1       4.586   0.759  -1.523  0.00  0.00    -0.044 C 
ATOM     15  H   LIG d   1       5.076  -0.024  -0.942  0.00  0.00     0.027 H 
ATOM     16  H   LIG d   1       5.341   1.415  -1.956  0.00  0.00     0.027 H 
ATOM     17  H   LIG d   1       3.930   1.337  -0.873  0.00  0.00     0.027 H 
ENDBRANCH   8  14
ENDBRANCH   4   7
ENDBRANCH   1   4
BRANCH   1  18
ATOM     18  C   LIG d   1       3.079  -0.184  -6.955  0.00  0.00     0.034 C 
ATOM     19  N   LIG d   1       2.408  -0.370  -8.029  0.00  0.00    -0.188 NA
BRANCH  19  20
ATOM     20  N   LIG d   1       2.789  -1.374  -8.929  0.00  0.00    -0.191 N 
ATOM     21  C   LIG d   1       2.013  -1.651  -9.996  0.00  0.00     0.317 C 
ATOM     22  O   LIG d   1       2.347  -2.520 -10.780  0.00  0.00    -0.251 OA
ATOM     23  N   LIG d   1       0.870  -0.965 -10.196  0.00  0.00    -0.312 N 
ATOM     24  H   LIG d   1       0.605  -0.273  -9.570  0.00  0.00     0.146 HD
ATOM     25  H   LIG d   1       0.313  -1.166 -10.964  0.00  0.00     0.146 HD
ATOM     26  H   LIG d   1       3.611  -1.866  -8.786  0.00  0.00     0.179 HD
ENDBRANCH  19  20
BRANCH  18  27
ATOM     27  C   LIG d   1       4.279  -1.047  -6.659  0.00  0.00    -0.025 C 
ATOM     28  H   LIG d   1       3.969  -1.912  -6.074  0.00  0.00     0.029 H 
ATOM     29  H   LIG d   1       4.725  -1.383  -7.596  0.00  0.00     0.029 H 
ATOM     30  H   LIG d   1       5.012  -0.470  -6.095  0.00  0.00     0.029 H 
ENDBRANCH  18  27
ENDBRANCH   1  18
TORSDOF 7
ENDMDL
MODEL 6
REMARK VINA RESULT:      -4.6      3.040      5.558
REMARK  7 active torsions:
REMARK  status: ('A' for Active; 'I' for Inactive)
REMARK    1  A    between atoms: C_1  and  C_2 
REMARK    2  A    between atoms: C_2  and  C_13 
REMARK    3  A    between atoms: C_3  and  C_4 
REMARK    4  A    between atoms: C_4  and  C_5 
REMARK    5  A    between atoms: C_5  and  C_6 
REMARK    6  A    between atoms: C_6  and  C_12 
REMARK    7  A    between atoms: N_7  and  N_8 
REMARK       I    between atoms: N_8  and  C_9 
REMARK       I    between atoms: C_9  and  N_11 
ROOT
ATOM      1  C   LIG d   1       3.833  -0.662  -6.742  0.00  0.00    -0.010 C 
ATOM      2  H   LIG d   1       4.819  -0.334  -7.071  0.00  0.00     0.033 H 
ATOM      3  H   LIG d   1       3.772  -1.749  -6.803  0.00  0.00     0.033 H 
ENDROOT
BRANCH   1   4
ATOM      4  C   LIG d   1       2.763  -0.041  -7.642  0.00  0.00    -0.029 C 
ATOM      5  H   LIG d   1       1.844  -0.621  -7.567  0.00  0.00     0.031 H 
ATOM      6  H   LIG d   1       2.573   0.985  -7.326  0.00  0.00     0.031 H 
BRANCH   4   7
ATOM      7  C   LIG d   1       3.243  -0.044  -9.071  0.00  0.00    -0.085 C 
ATOM      8  C   LIG d   1       3.511   1.087  -9.675  0.00  0.00    -0.080 C 
ATOM      9  H   LIG d   1       3.366  -0.980  -9.596  0.00  0.00     0.057 H 
BRANCH   8  10
ATOM     10  C   LIG d   1       3.454   2.383  -8.907  0.00  0.00    -0.044 C 
ATOM     11  H   LIG d   1       3.843   2.226  -7.901  0.00  0.00     0.027 H 
ATOM     12  H   LIG d   1       4.056   3.134  -9.417  0.00  0.00     0.027 H 
ATOM     13  H   LIG d   1       2.421   2.725  -8.848  0.00  0.00     0.027 H 
ENDBRANCH   8  10
BRANCH   8  14
ATOM     14  C   LIG d   1       3.876   1.092 -11.136  0.00  0.00    -0.044 C 
ATOM     15  H   LIG d   1       3.921   0.066 -11.504  0.00  0.00     0.027 H 
ATOM     16  H   LIG d   1       3.121   1.644 -11.696  0.00  0.00     0.027 H 
ATOM     17  H   LIG d   1       4.847   1.569 -11.267  0.00  0.00     0.027 H 
ENDBRANCH   8  14
ENDBRANCH   4   7
ENDBRANCH   1   4
BRANCH   1  18
ATOM     18  C   LIG d   1       3.607  -0.226  -5.318  0.00  0.00     0.034 C 
ATOM     19  N   LIG d   1       4.495  -0.463  -4.427  0.00  0.00    -0.188 NA
BRANCH  19  20
ATOM     20  N   LIG d   1       4.284  -0.057  -3.103  0.00  0.00    -0.191 N 
ATOM     21  C   LIG d   1       5.080   0.881  -2.551  0.00  0.00     0.317 C 
ATOM     22  O   LIG d   1       4.893   1.237  -1.403  0.00  0.00    -0.251 OA
ATOM     23  N   LIG d   1       6.081   1.424  -3.271  0.00  0.00    -0.312 N 
ATOM     24  H   LIG d   1       6.230   1.139  -4.186  0.00  0.00     0.146 HD
ATOM     25  H   LIG d   1       6.654   2.098  -2.873  0.00  0.00     0.146 HD
ATOM     26  H   LIG d   1       3.563  -0.447  -2.585  0.00  0.00     0.179 HD
ENDBRANCH  19  20
BRANCH  18  27
ATOM     27  C   LIG d   1       2.334   0.489  -4.942  0.00  0.00    -0.025 C 
ATOM     28  H   LIG d   1       2.386   0.797  -3.898  0.00  0.00     0.029 H 
ATOM     29  H   LIG d   1       2.212   1.370  -5.574  0.00  0.00     0.029 H 
ATOM     30  H   LIG d   1       1.486  -0.180  -5.082  0.00  0.00     0.029 H 
ENDBRANCH  18  27
ENDBRANCH   1  18
TORSDOF 7
ENDMDL
MODEL 7
REMARK VINA RESULT:      -4.6      1.558      2.765
REMARK  7 active torsions:
REMARK  status: ('A' for Active; 'I' for Inactive)
REMARK    1  A    between atoms: C_1  and  C_2 
REMARK    2  A    between atoms: C_2  and  C_13 
REMARK    3  A    between atoms: C_3  and  C_4 
REMARK    4  A    between atoms: C_4  and  C_5 
REMARK    5  A    between atoms: C_5  and  C_6 
REMARK    6  A    between atoms: C_6  and  C_12 
REMARK    7  A    between atoms: N_7  and  N_8 
REMARK       I    between atoms: N_8  and  C_9 
REMARK       I    between atoms: C_9  and  N_11 
ROOT
ATOM      1  C   LIG d   1       6.930  -0.697  -4.823  0.00  0.00    -0.010 C 
ATOM      2  H   LIG d   1       7.741  -1.378  -5.078  0.00  0.00     0.033 H 
ATOM      3  H   LIG d   1       7.175   0.307  -5.173  0.00  0.00     0.033 H 
ENDROOT
BRANCH   1   4
ATOM      4  C   LIG d   1       6.740  -0.675  -3.305  0.00  0.00    -0.029 C 
ATOM      5  H   LIG d   1       6.296  -1.616  -2.981  0.00  0.00     0.031 H 
ATOM      6  H   LIG d   1       7.707  -0.543  -2.820  0.00  0.00     0.031 H 
BRANCH   4   7
ATOM      7  C   LIG d   1       5.830   0.465  -2.929  0.00  0.00    -0.085 C 
ATOM      8  C   LIG d   1       4.683   0.223  -2.343  0.00  0.00    -0.080 C 
ATOM      9  H   LIG d   1       6.123   1.483  -3.142  0.00  0.00     0.057 H 
BRANCH   8  10
ATOM     10  C   LIG d   1       4.326  -1.184  -1.939  0.00  0.00    -0.044 C 
ATOM     11  H   LIG d   1       5.232  -1.725  -1.665  0.00  0.00     0.027 H 
ATOM     12  H   LIG d   1       3.647  -1.156  -1.087  0.00  0.00     0.027 H 
ATOM     13  H   LIG d   1       3.840  -1.690  -2.774  0.00  0.00     0.027 H 
ENDBRANCH   8  10
BRANCH   8  14
ATOM     14  C   LIG d   1       3.721   1.351  -2.075  0.00  0.00    -0.044 C 
ATOM     15  H   LIG d   1       2.701   0.967  -2.077  0.00  0.00     0.027 H 
ATOM     16  H   LIG d   1       3.941   1.792  -1.103  0.00  0.00     0.027 H 
ATOM     17  H   LIG d   1       3.825   2.110  -2.850  0.00  0.00     0.027 H 
ENDBRANCH   8  14
ENDBRANCH   4   7
ENDBRANCH   1   4
BRANCH   1  18
ATOM     18  C   LIG d   1       5.657  -1.161  -5.482  0.00  0.00     0.034 C 
ATOM     19  N   LIG d   1       4.950  -0.337  -6.161  0.00  0.00    -0.188 NA
BRANCH  19  20
ATOM     20  N   LIG d   1       3.767  -0.770  -6.774  0.00  0.00    -0.191 N 
ATOM     21  C   LIG d   1       3.117   0.042  -7.632  0.00  0.00     0.317 C 
ATOM     22  O   LIG d   1       2.093  -0.335  -8.169  0.00  0.00    -0.251 OA
ATOM     23  N   LIG d   1       3.604   1.271  -7.898  0.00  0.00    -0.312 N 
ATOM     24  H   LIG d   1       4.421   1.571  -7.469  0.00  0.00     0.146 HD
ATOM     25  H   LIG d   1       3.136   1.854  -8.515  0.00  0.00     0.146 HD
ATOM     26  H   LIG d   1       3.417  -1.653  -6.584  0.00  0.00     0.179 HD
ENDBRANCH  19  20
BRANCH  18  27
ATOM     27  C   LIG d   1       5.215  -2.595  -5.342  0.00  0.00    -0.025 C 
ATOM     28  H   LIG d   1       5.907  -3.243  -5.879  0.00  0.00     0.029 H 
ATOM     29  H   LIG d   1       5.205  -2.871  -4.287  0.00  0.00     0.029 H 
ATOM     30  H   LIG d   1       4.214  -2.710  -5.756  0.00  0.00     0.029 H 
ENDBRANCH  18  27
ENDBRANCH   1  18
TORSDOF 7
ENDMDL
MODEL 8
REMARK VINA RESULT:      -4.5      3.403      4.470
REMARK  7 active torsions:
REMARK  status: ('A' for Active; 'I' for Inactive)
REMARK    1  A    between atoms: C_1  and  C_2 
REMARK    2  A    between atoms: C_2  and  C_13 
REMARK    3  A    between atoms: C_3  and  C_4 
REMARK    4  A    between atoms: C_4  and  C_5 
REMARK    5  A    between atoms: C_5  and  C_6 
REMARK    6  A    between atoms: C_6  and  C_12 
REMARK    7  A    between atoms: N_7  and  N_8 
REMARK       I    between atoms: N_8  and  C_9 
REMARK       I    between atoms: C_9  and  N_11 
ROOT
ATOM      1  C   LIG d   1       3.730  -0.696  -2.262  0.00  0.00    -0.010 C 
ATOM      2  H   LIG d   1       3.438  -0.544  -1.223  0.00  0.00     0.033 H 
ATOM      3  H   LIG d   1       2.841  -0.885  -2.865  0.00  0.00     0.033 H 
ENDROOT
BRANCH   1   4
ATOM      4  C   LIG d   1       4.673  -1.897  -2.356  0.00  0.00    -0.029 C 
ATOM      5  H   LIG d   1       5.693  -1.546  -2.509  0.00  0.00     0.031 H 
ATOM      6  H   LIG d   1       4.621  -2.473  -1.432  0.00  0.00     0.031 H 
BRANCH   4   7
ATOM      7  C   LIG d   1       4.263  -2.769  -3.515  0.00  0.00    -0.085 C 
ATOM      8  C   LIG d   1       5.154  -3.146  -4.399  0.00  0.00    -0.080 C 
ATOM      9  H   LIG d   1       3.235  -3.083  -3.617  0.00  0.00     0.057 H 
BRANCH   8  10
ATOM     10  C   LIG d   1       6.609  -2.807  -4.194  0.00  0.00    -0.044 C 
ATOM     11  H   LIG d   1       6.690  -1.895  -3.602  0.00  0.00     0.027 H 
ATOM     12  H   LIG d   1       7.101  -3.626  -3.670  0.00  0.00     0.027 H 
ATOM     13  H   LIG d   1       7.086  -2.656  -5.162  0.00  0.00     0.027 H 
ENDBRANCH   8  10
BRANCH   8  14
ATOM     14  C   LIG d   1       4.724  -3.916  -5.620  0.00  0.00    -0.044 C 
ATOM     15  H   LIG d   1       3.766  -4.400  -5.426  0.00  0.00     0.027 H 
ATOM     16  H   LIG d   1       4.621  -3.232  -6.463  0.00  0.00     0.027 H 
ATOM     17  H   LIG d   1       5.472  -4.672  -5.855  0.00  0.00     0.027 H 
ENDBRANCH   8  14
ENDBRANCH   4   7
ENDBRANCH   1   4
BRANCH   1  18
ATOM     18  C   LIG d   1       4.431   0.535  -2.773  0.00  0.00     0.034 C 
ATOM     19  N   LIG d   1       5.687   0.504  -3.014  0.00  0.00    -0.188 NA
BRANCH  19  20
ATOM     20  N   LIG d   1       6.338   1.650  -3.489  0.00  0.00    -0.191 N 
ATOM     21  C   LIG d   1       7.614   1.570  -3.918  0.00  0.00     0.317 C 
ATOM     22  O   LIG d   1       8.178   2.565  -4.336  0.00  0.00    -0.251 OA
ATOM     23  N   LIG d   1       8.264   0.390  -3.886  0.00  0.00    -0.312 N 
ATOM     24  H   LIG d   1       7.814  -0.402  -3.553  0.00  0.00     0.146 HD
ATOM     25  H   LIG d   1       9.182   0.334  -4.195  0.00  0.00     0.146 HD
ATOM     26  H   LIG d   1       5.871   2.498  -3.512  0.00  0.00     0.179 HD
ENDBRANCH  19  20
BRANCH  18  27
ATOM     27  C   LIG d   1       3.652   1.806  -3.000  0.00  0.00    -0.025 C 
ATOM     28  H   LIG d   1       4.326   2.660  -2.940  0.00  0.00     0.029 H 
ATOM     29  H   LIG d   1       3.189   1.777  -3.987  0.00  0.00     0.029 H 
ATOM     30  H   LIG d   1       2.878   1.900  -2.239  0.00  0.00     0.029 H 
ENDBRANCH  18  27
ENDBRANCH   1  18
TORSDOF 7
ENDMDL
MODEL 9
REMARK VINA RESULT:      -4.5      2.999      5.364
REMARK  7 active torsions:
REMARK  status: ('A' for Active; 'I' for Inactive)
REMARK    1  A    between atoms: C_1  and  C_2 
REMARK    2  A    between atoms: C_2  and  C_13 
REMARK    3  A    between atoms: C_3  and  C_4 
REMARK    4  A    between atoms: C_4  and  C_5 
REMARK    5  A    between atoms: C_5  and  C_6 
REMARK    6  A    between atoms: C_6  and  C_12 
REMARK    7  A    between atoms: N_7  and  N_8 
REMARK       I    between atoms: N_8  and  C_9 
REMARK       I    between atoms: C_9  and  N_11 
ROOT
ATOM      1  C   LIG d   1       4.281  -0.942  -6.736  0.00  0.00    -0.010 C 
ATOM      2  H   LIG d   1       5.112  -0.502  -7.285  0.00  0.00     0.033 H 
ATOM      3  H   LIG d   1       4.162  -1.986  -7.031  0.00  0.00     0.033 H 
ENDROOT
BRANCH   1   4
ATOM      4  C   LIG d   1       2.996  -0.174  -7.054  0.00  0.00    -0.029 C 
ATOM      5  H   LIG d   1       2.334  -0.804  -7.647  0.00  0.00     0.031 H 
ATOM      6  H   LIG d   1       2.499   0.103  -6.124  0.00  0.00     0.031 H 
BRANCH   4   7
ATOM      7  C   LIG d   1       3.335   1.071  -7.832  0.00  0.00    -0.085 C 
ATOM      8  C   LIG d   1       3.036   1.150  -9.105  0.00  0.00    -0.080 C 
ATOM      9  H   LIG d   1       3.825   1.898  -7.340  0.00  0.00     0.057 H 
BRANCH   8  10
ATOM     10  C   LIG d   1       2.248   0.047  -9.764  0.00  0.00    -0.044 C 
ATOM     11  H   LIG d   1       1.229   0.046  -9.375  0.00  0.00     0.027 H 
ATOM     12  H   LIG d   1       2.226   0.209 -10.841  0.00  0.00     0.027 H 
ATOM     13  H   LIG d   1       2.719  -0.913  -9.551  0.00  0.00     0.027 H 
ENDBRANCH   8  10
BRANCH   8  14
ATOM     14  C   LIG d   1       3.480   2.344  -9.910  0.00  0.00    -0.044 C 
ATOM     15  H   LIG d   1       3.201   2.201 -10.955  0.00  0.00     0.027 H 
ATOM     16  H   LIG d   1       2.996   3.241  -9.525  0.00  0.00     0.027 H 
ATOM     17  H   LIG d   1       4.561   2.452  -9.834  0.00  0.00     0.027 H 
ENDBRANCH   8  14
ENDBRANCH   4   7
ENDBRANCH   1   4
BRANCH   1  18
ATOM     18  C   LIG d   1       4.558  -0.868  -5.257  0.00  0.00     0.034 C 
ATOM     19  N   LIG d   1       5.048   0.200  -4.750  0.00  0.00    -0.188 NA
BRANCH  19  20
ATOM     20  N   LIG d   1       5.306   0.269  -3.375  0.00  0.00    -0.191 N 
ATOM     21  C   LIG d   1       4.645   1.161  -2.609  0.00  0.00     0.317 C 
ATOM     22  O   LIG d   1       4.865   1.217  -1.414  0.00  0.00    -0.251 OA
ATOM     23  N   LIG d   1       3.741   1.989  -3.168  0.00  0.00    -0.312 N 
ATOM     24  H   LIG d   1       3.566   1.945  -4.121  0.00  0.00     0.146 HD
ATOM     25  H   LIG d   1       3.266   2.631  -2.617  0.00  0.00     0.146 HD
ATOM     26  H   LIG d   1       5.956  -0.327  -2.973  0.00  0.00     0.179 HD
ENDBRANCH  19  20
BRANCH  18  27
ATOM     27  C   LIG d   1       4.259  -2.052  -4.373  0.00  0.00    -0.025 C 
ATOM     28  H   LIG d   1       4.667  -2.955  -4.826  0.00  0.00     0.029 H 
ATOM     29  H   LIG d   1       4.714  -1.898  -3.394  0.00  0.00     0.029 H 
ATOM     30  H   LIG d   1       3.180  -2.158  -4.259  0.00  0.00     0.029 H 
ENDBRANCH  18  27
ENDBRANCH   1  18
TORSDOF 7
ENDMDL
