MODEL 1
REMARK VINA RESULT:      -5.7      0.000      0.000
REMARK  6 active torsions:
REMARK  status: ('A' for Active; 'I' for Inactive)
REMARK    1  A    between atoms: C_1  and  C_2 
REMARK    2  A    between atoms: C_2  and  C_4 
REMARK    3  A    between atoms: C_2  and  O_18 
REMARK    4  A    between atoms: C_4  and  C_6 
REMARK    5  A    between atoms: C_6  and  C_7 
REMARK    6  A    between atoms: C_13  and  O_17 
ROOT
ATOM      1  C   LIG d   1       5.168  -2.284  -4.984  0.00  0.00     0.091 C 
ATOM      2  H   LIG d   1       6.227  -2.151  -5.246  0.00  0.00     0.065 H 
ATOM      3  C   LIG d   1       4.716  -1.328  -3.905  0.00  0.00    -0.010 A 
ATOM      4  C   LIG d   1       4.873  -1.325  -2.533  0.00  0.00    -0.056 A 
ATOM      5  C   LIG d   1       4.340  -0.295  -1.779  0.00  0.00    -0.058 A 
ATOM      6  C   LIG d   1       3.653   0.732  -2.396  0.00  0.00    -0.020 A 
ATOM      7  C   LIG d   1       3.495   0.732  -3.775  0.00  0.00     0.123 A 
ATOM      8  C   LIG d   1       4.029  -0.300  -4.527  0.00  0.00     0.025 A 
ATOM      9  C   LIG d   1       4.033  -0.590  -6.010  0.00  0.00     0.077 C 
ATOM     10  O   LIG d   1       4.364  -1.986  -6.140  0.00  0.00    -0.367 OA
ATOM     11  H   LIG d   1       5.409  -2.128  -2.049  0.00  0.00     0.062 H 
ATOM     12  H   LIG d   1       4.464  -0.293  -0.706  0.00  0.00     0.062 H 
ATOM     13  H   LIG d   1       3.239   1.536  -1.805  0.00  0.00     0.065 H 
ATOM     14  H   LIG d   1       3.038  -0.378  -6.428  0.00  0.00     0.061 H 
ATOM     15  H   LIG d   1       4.782   0.044  -6.506  0.00  0.00     0.061 H 
ENDROOT
BRANCH   1  16
ATOM     16  C   LIG d   1       4.934  -3.730  -4.539  0.00  0.00     0.039 C 
ATOM     17  H   LIG d   1       3.855  -3.910  -4.429  0.00  0.00     0.037 H 
ATOM     18  H   LIG d   1       5.435  -3.902  -3.575  0.00  0.00     0.037 H 
BRANCH  16  19
ATOM     19  C   LIG d   1       5.497  -4.671  -5.572  0.00  0.00     0.164 C 
ATOM     20  O   LIG d   1       6.692  -4.761  -5.720  0.00  0.00    -0.295 OA
BRANCH  19  21
ATOM     21  C   LIG d   1       4.568  -5.493  -6.427  0.00  0.00     0.110 C 
ATOM     22  H   LIG d   1       4.775  -5.324  -7.494  0.00  0.00     0.067 H 
BRANCH  21  23
ATOM     23  C   LIG d   1       4.703  -6.971  -6.052  0.00  0.00    -0.032 C 
ATOM     24  H   LIG d   1       3.800  -7.513  -6.370  0.00  0.00     0.026 H 
ATOM     25  H   LIG d   1       4.822  -7.064  -4.963  0.00  0.00     0.026 H 
ATOM     26  H   LIG d   1       5.583  -7.397  -6.556  0.00  0.00     0.026 H 
ENDBRANCH  21  23
BRANCH  21  27
ATOM     27  O   LIG d   1       3.220  -5.068  -6.211  0.00  0.00    -0.385 OA
ATOM     28  H   LIG d   1       2.901  -4.741  -5.210  0.00  0.00     0.210 HD
ENDBRANCH  21  27
ENDBRANCH  19  21
ENDBRANCH  16  19
ENDBRANCH   1  16
BRANCH   7  29
ATOM     29  O   LIG d   1       2.821   1.742  -4.384  0.00  0.00    -0.506 OA
ATOM     30  H   LIG d   1       3.374   2.550  -4.886  0.00  0.00     0.292 HD
ENDBRANCH   7  29
TORSDOF 6
ENDMDL
MODEL 2
REMARK VINA RESULT:      -5.4      3.772      6.633
REMARK  6 active torsions:
REMARK  status: ('A' for Active; 'I' for Inactive)
REMARK    1  A    between atoms: C_1  and  C_2 
REMARK    2  A    between atoms: C_2  and  C_4 
REMARK    3  A    between atoms: C_2  and  O_18 
REMARK    4  A    between atoms: C_4  and  C_6 
REMARK    5  A    between atoms: C_6  and  C_7 
REMARK    6  A    between atoms: C_13  and  O_17 
ROOT
ATOM      1  C   LIG d   1       3.034   0.766  -7.720  0.00  0.00     0.091 C 
ATOM      2  H   LIG d   1       2.460   1.674  -7.487  0.00  0.00     0.065 H 
ATOM      3  C   LIG d   1       2.641   0.159  -9.047  0.00  0.00    -0.010 A 
ATOM      4  C   LIG d   1       1.576  -0.628  -9.435  0.00  0.00    -0.056 A 
ATOM      5  C   LIG d   1       1.469  -1.046 -10.750  0.00  0.00    -0.058 A 
ATOM      6  C   LIG d   1       2.425  -0.676 -11.675  0.00  0.00    -0.020 A 
ATOM      7  C   LIG d   1       3.497   0.117 -11.287  0.00  0.00     0.123 A 
ATOM      8  C   LIG d   1       3.602   0.533  -9.971  0.00  0.00     0.025 A 
ATOM      9  C   LIG d   1       4.619   1.381  -9.244  0.00  0.00     0.077 C 
ATOM     10  O   LIG d   1       4.425   1.117  -7.841  0.00  0.00    -0.367 OA
ATOM     11  H   LIG d   1       0.828  -0.919  -8.714  0.00  0.00     0.062 H 
ATOM     12  H   LIG d   1       0.635  -1.662 -11.054  0.00  0.00     0.062 H 
ATOM     13  H   LIG d   1       2.339  -1.003 -12.701  0.00  0.00     0.065 H 
ATOM     14  H   LIG d   1       5.632   1.095  -9.565  0.00  0.00     0.061 H 
ATOM     15  H   LIG d   1       4.446   2.442  -9.476  0.00  0.00     0.061 H 
ENDROOT
BRANCH   1  16
ATOM     16  C   LIG d   1       2.845  -0.257  -6.596  0.00  0.00     0.039 C 
ATOM     17  H   LIG d   1       3.632  -1.022  -6.661  0.00  0.00     0.037 H 
ATOM     18  H   LIG d   1       1.859  -0.733  -6.698  0.00  0.00     0.037 H 
BRANCH  16  19
ATOM     19  C   LIG d   1       2.932   0.441  -5.264  0.00  0.00     0.164 C 
ATOM     20  O   LIG d   1       2.516   1.568  -5.143  0.00  0.00    -0.295 OA
BRANCH  19  21
ATOM     21  C   LIG d   1       3.546  -0.266  -4.083  0.00  0.00     0.110 C 
ATOM     22  H   LIG d   1       4.616  -0.448  -4.257  0.00  0.00     0.067 H 
BRANCH  21  23
ATOM     23  C   LIG d   1       3.311   0.559  -2.815  0.00  0.00    -0.032 C 
ATOM     24  H   LIG d   1       3.666   1.587  -2.976  0.00  0.00     0.026 H 
ATOM     25  H   LIG d   1       3.861   0.108  -1.977  0.00  0.00     0.026 H 
ATOM     26  H   LIG d   1       2.236   0.575  -2.583  0.00  0.00     0.026 H 
ENDBRANCH  21  23
BRANCH  21  27
ATOM     27  O   LIG d   1       2.943  -1.553  -3.932  0.00  0.00    -0.385 OA
ATOM     28  H   LIG d   1       2.414  -2.014  -4.779  0.00  0.00     0.210 HD
ENDBRANCH  21  27
ENDBRANCH  19  21
ENDBRANCH  16  19
ENDBRANCH   1  16
BRANCH   7  29
ATOM     29  O   LIG d   1       4.438   0.483 -12.195  0.00  0.00    -0.506 OA
ATOM     30  H   LIG d   1       5.336   1.029 -11.869  0.00  0.00     0.292 HD
ENDBRANCH   7  29
TORSDOF 6
ENDMDL
MODEL 3
REMARK VINA RESULT:      -5.3      1.869      2.280
REMARK  6 active torsions:
REMARK  status: ('A' for Active; 'I' for Inactive)
REMARK    1  A    between atoms: C_1  and  C_2 
REMARK    2  A    between atoms: C_2  and  C_4 
REMARK    3  A    between atoms: C_2  and  O_18 
REMARK    4  A    between atoms: C_4  and  C_6 
REMARK    5  A    between atoms: C_6  and  C_7 
REMARK    6  A    between atoms: C_13  and  O_17 
ROOT
ATOM      1  C   LIG d   1       4.582  -2.594  -4.379  0.00  0.00     0.091 C 
ATOM      2  H   LIG d   1       3.804  -2.486  -5.148  0.00  0.00     0.065 H 
ATOM      3  C   LIG d   1       5.338  -1.307  -4.139  0.00  0.00    -0.010 A 
ATOM      4  C   LIG d   1       6.355  -0.679  -4.829  0.00  0.00    -0.056 A 
ATOM      5  C   LIG d   1       6.866   0.521  -4.366  0.00  0.00    -0.058 A 
ATOM      6  C   LIG d   1       6.359   1.092  -3.216  0.00  0.00    -0.020 A 
ATOM      7  C   LIG d   1       5.334   0.463  -2.521  0.00  0.00     0.123 A 
ATOM      8  C   LIG d   1       4.825  -0.737  -2.986  0.00  0.00     0.025 A 
ATOM      9  C   LIG d   1       3.738  -1.654  -2.476  0.00  0.00     0.077 C 
ATOM     10  O   LIG d   1       3.952  -2.922  -3.127  0.00  0.00    -0.367 OA
ATOM     11  H   LIG d   1       6.755  -1.124  -5.728  0.00  0.00     0.062 H 
ATOM     12  H   LIG d   1       7.662   1.012  -4.906  0.00  0.00     0.062 H 
ATOM     13  H   LIG d   1       6.758   2.029  -2.857  0.00  0.00     0.065 H 
ATOM     14  H   LIG d   1       3.822  -1.751  -1.384  0.00  0.00     0.061 H 
ATOM     15  H   LIG d   1       2.755  -1.236  -2.734  0.00  0.00     0.061 H 
ENDROOT
BRANCH   1  16
ATOM     16  C   LIG d   1       5.551  -3.706  -4.788  0.00  0.00     0.039 C 
ATOM     17  H   LIG d   1       5.420  -4.570  -4.121  0.00  0.00     0.037 H 
ATOM     18  H   LIG d   1       6.584  -3.337  -4.713  0.00  0.00     0.037 H 
BRANCH  16  19
ATOM     19  C   LIG d   1       5.267  -4.120  -6.209  0.00  0.00     0.164 C 
ATOM     20  O   LIG d   1       5.664  -3.443  -7.127  0.00  0.00    -0.295 OA
BRANCH  19  21
ATOM     21  C   LIG d   1       4.481  -5.375  -6.484  0.00  0.00     0.110 C 
ATOM     22  H   LIG d   1       4.607  -5.687  -7.531  0.00  0.00     0.067 H 
BRANCH  21  23
ATOM     23  C   LIG d   1       4.916  -6.473  -5.510  0.00  0.00    -0.032 C 
ATOM     24  H   LIG d   1       6.007  -6.433  -5.376  0.00  0.00     0.026 H 
ATOM     25  H   LIG d   1       4.632  -7.456  -5.915  0.00  0.00     0.026 H 
ATOM     26  H   LIG d   1       4.421  -6.319  -4.540  0.00  0.00     0.026 H 
ENDBRANCH  21  23
BRANCH  21  27
ATOM     27  O   LIG d   1       3.087  -5.112  -6.312  0.00  0.00    -0.385 OA
ATOM     28  H   LIG d   1       2.645  -4.196  -6.731  0.00  0.00     0.210 HD
ENDBRANCH  21  27
ENDBRANCH  19  21
ENDBRANCH  16  19
ENDBRANCH   1  16
BRANCH   7  29
ATOM     29  O   LIG d   1       4.833   1.024  -1.390  0.00  0.00    -0.506 OA
ATOM     30  H   LIG d   1       5.228   1.985  -1.030  0.00  0.00     0.292 HD
ENDBRANCH   7  29
TORSDOF 6
ENDMDL
MODEL 4
REMARK VINA RESULT:      -5.3      3.216      4.703
REMARK  6 active torsions:
REMARK  status: ('A' for Active; 'I' for Inactive)
REMARK    1  A    between atoms: C_1  and  C_2 
REMARK    2  A    between atoms: C_2  and  C_4 
REMARK    3  A    between atoms: C_2  and  O_18 
REMARK    4  A    between atoms: C_4  and  C_6 
REMARK    5  A    between atoms: C_6  and  C_7 
REMARK    6  A    between atoms: C_13  and  O_17 
ROOT
ATOM      1  C   LIG d   1       3.786  -0.605  -6.029  0.00  0.00     0.091 C 
ATOM      2  H   LIG d   1       3.407  -1.637  -6.036  0.00  0.00     0.065 H 
ATOM      3  C   LIG d   1       4.016  -0.085  -4.629  0.00  0.00    -0.010 A 
ATOM      4  C   LIG d   1       3.163   0.409  -3.663  0.00  0.00    -0.056 A 
ATOM      5  C   LIG d   1       3.665   0.821  -2.441  0.00  0.00    -0.058 A 
ATOM      6  C   LIG d   1       5.020   0.738  -2.186  0.00  0.00    -0.020 A 
ATOM      7  C   LIG d   1       5.880   0.241  -3.155  0.00  0.00     0.123 A 
ATOM      8  C   LIG d   1       5.375  -0.171  -4.377  0.00  0.00     0.025 A 
ATOM      9  C   LIG d   1       6.026  -0.745  -5.613  0.00  0.00     0.077 C 
ATOM     10  O   LIG d   1       5.070  -0.578  -6.678  0.00  0.00    -0.367 OA
ATOM     11  H   LIG d   1       2.103   0.475  -3.861  0.00  0.00     0.062 H 
ATOM     12  H   LIG d   1       2.997   1.207  -1.686  0.00  0.00     0.062 H 
ATOM     13  H   LIG d   1       5.410   1.059  -1.231  0.00  0.00     0.065 H 
ATOM     14  H   LIG d   1       6.956  -0.196  -5.826  0.00  0.00     0.061 H 
ATOM     15  H   LIG d   1       6.256  -1.807  -5.447  0.00  0.00     0.061 H 
ENDROOT
BRANCH   1  16
ATOM     16  C   LIG d   1       2.801   0.302  -6.772  0.00  0.00     0.039 C 
ATOM     17  H   LIG d   1       3.098   1.352  -6.638  0.00  0.00     0.037 H 
ATOM     18  H   LIG d   1       1.789   0.152  -6.369  0.00  0.00     0.037 H 
BRANCH  16  19
ATOM     19  C   LIG d   1       2.814  -0.041  -8.239  0.00  0.00     0.164 C 
ATOM     20  O   LIG d   1       2.372  -1.099  -8.617  0.00  0.00    -0.295 OA
BRANCH  19  21
ATOM     21  C   LIG d   1       3.386   0.935  -9.235  0.00  0.00     0.110 C 
ATOM     22  H   LIG d   1       2.942   0.775 -10.228  0.00  0.00     0.067 H 
BRANCH  21  23
ATOM     23  C   LIG d   1       3.160   2.364  -8.737  0.00  0.00    -0.032 C 
ATOM     24  H   LIG d   1       4.129   2.872  -8.628  0.00  0.00     0.026 H 
ATOM     25  H   LIG d   1       2.649   2.337  -7.764  0.00  0.00     0.026 H 
ATOM     26  H   LIG d   1       2.539   2.911  -9.463  0.00  0.00     0.026 H 
ENDBRANCH  21  23
BRANCH  21  27
ATOM     27  O   LIG d   1       4.788   0.698  -9.383  0.00  0.00    -0.385 OA
ATOM     28  H   LIG d   1       5.376   1.304 -10.087  0.00  0.00     0.210 HD
ENDBRANCH  21  27
ENDBRANCH  19  21
ENDBRANCH  16  19
ENDBRANCH   1  16
BRANCH   7  29
ATOM     29  O   LIG d   1       7.213   0.157  -2.906  0.00  0.00    -0.506 OA
ATOM     30  H   LIG d   1       7.582  -0.477  -2.087  0.00  0.00     0.292 HD
ENDBRANCH   7  29
TORSDOF 6
ENDMDL
MODEL 5
REMARK VINA RESULT:      -5.2      2.996      3.850
REMARK  6 active torsions:
REMARK  status: ('A' for Active; 'I' for Inactive)
REMARK    1  A    between atoms: C_1  and  C_2 
REMARK    2  A    between atoms: C_2  and  C_4 
REMARK    3  A    between atoms: C_2  and  O_18 
REMARK    4  A    between atoms: C_4  and  C_6 
REMARK    5  A    between atoms: C_6  and  C_7 
REMARK    6  A    between atoms: C_13  and  O_17 
ROOT
ATOM      1  C   LIG d   1       6.689  -0.788  -5.174  0.00  0.00     0.091 C 
ATOM      2  H   LIG d   1       7.677  -1.245  -5.016  0.00  0.00     0.065 H 
ATOM      3  C   LIG d   1       5.723  -1.103  -4.055  0.00  0.00    -0.010 A 
ATOM      4  C   LIG d   1       4.964  -2.218  -3.763  0.00  0.00    -0.056 A 
ATOM      5  C   LIG d   1       4.149  -2.226  -2.644  0.00  0.00    -0.058 A 
ATOM      6  C   LIG d   1       4.095  -1.119  -1.819  0.00  0.00    -0.020 A 
ATOM      7  C   LIG d   1       4.858   0.003  -2.111  0.00  0.00     0.123 A 
ATOM      8  C   LIG d   1       5.672   0.008  -3.230  0.00  0.00     0.025 A 
ATOM      9  C   LIG d   1       6.605   1.044  -3.814  0.00  0.00     0.077 C 
ATOM     10  O   LIG d   1       6.838   0.644  -5.178  0.00  0.00    -0.367 OA
ATOM     11  H   LIG d   1       5.004  -3.083  -4.407  0.00  0.00     0.062 H 
ATOM     12  H   LIG d   1       3.556  -3.098  -2.415  0.00  0.00     0.062 H 
ATOM     13  H   LIG d   1       3.459  -1.128  -0.946  0.00  0.00     0.065 H 
ATOM     14  H   LIG d   1       6.127   2.035  -3.768  0.00  0.00     0.061 H 
ATOM     15  H   LIG d   1       7.541   1.061  -3.239  0.00  0.00     0.061 H 
ENDROOT
BRANCH   1  16
ATOM     16  C   LIG d   1       6.119  -1.262  -6.513  0.00  0.00     0.039 C 
ATOM     17  H   LIG d   1       5.730  -2.284  -6.404  0.00  0.00     0.037 H 
ATOM     18  H   LIG d   1       6.913  -1.249  -7.274  0.00  0.00     0.037 H 
BRANCH  16  19
ATOM     19  C   LIG d   1       5.002  -0.342  -6.936  0.00  0.00     0.164 C 
ATOM     20  O   LIG d   1       5.255   0.696  -7.497  0.00  0.00    -0.295 OA
BRANCH  19  21
ATOM     21  C   LIG d   1       3.571  -0.716  -6.651  0.00  0.00     0.110 C 
ATOM     22  H   LIG d   1       3.521  -1.690  -6.142  0.00  0.00     0.067 H 
BRANCH  21  23
ATOM     23  C   LIG d   1       2.910   0.389  -5.823  0.00  0.00    -0.032 C 
ATOM     24  H   LIG d   1       3.684   0.961  -5.291  0.00  0.00     0.026 H 
ATOM     25  H   LIG d   1       2.220  -0.061  -5.094  0.00  0.00     0.026 H 
ATOM     26  H   LIG d   1       2.351   1.061  -6.491  0.00  0.00     0.026 H 
ENDBRANCH  21  23
BRANCH  21  27
ATOM     27  O   LIG d   1       2.865  -0.874  -7.884  0.00  0.00    -0.385 OA
ATOM     28  H   LIG d   1       1.773  -1.006  -7.879  0.00  0.00     0.210 HD
ENDBRANCH  21  27
ENDBRANCH  19  21
ENDBRANCH  16  19
ENDBRANCH   1  16
BRANCH   7  29
ATOM     29  O   LIG d   1       4.808   1.092  -1.300  0.00  0.00    -0.506 OA
ATOM     30  H   LIG d   1       4.816   0.966  -0.207  0.00  0.00     0.292 HD
ENDBRANCH   7  29
TORSDOF 6
ENDMDL
MODEL 6
REMARK VINA RESULT:      -5.2      9.566     12.670
REMARK  6 active torsions:
REMARK  status: ('A' for Active; 'I' for Inactive)
REMARK    1  A    between atoms: C_1  and  C_2 
REMARK    2  A    between atoms: C_2  and  C_4 
REMARK    3  A    between atoms: C_2  and  O_18 
REMARK    4  A    between atoms: C_4  and  C_6 
REMARK    5  A    between atoms: C_6  and  C_7 
REMARK    6  A    between atoms: C_13  and  O_17 
ROOT
ATOM      1  C   LIG d   1      10.106   7.664  -1.111  0.00  0.00     0.091 C 
ATOM      2  H   LIG d   1      10.988   8.304  -1.256  0.00  0.00     0.065 H 
ATOM      3  C   LIG d   1       9.965   6.622  -2.196  0.00  0.00    -0.010 A 
ATOM      4  C   LIG d   1       9.492   6.679  -3.491  0.00  0.00    -0.056 A 
ATOM      5  C   LIG d   1       9.482   5.539  -4.275  0.00  0.00    -0.058 A 
ATOM      6  C   LIG d   1       9.948   4.343  -3.765  0.00  0.00    -0.020 A 
ATOM      7  C   LIG d   1      10.426   4.283  -2.463  0.00  0.00     0.123 A 
ATOM      8  C   LIG d   1      10.434   5.425  -1.680  0.00  0.00     0.025 A 
ATOM      9  C   LIG d   1      10.877   5.690  -0.260  0.00  0.00     0.077 C 
ATOM     10  O   LIG d   1      10.260   6.935   0.121  0.00  0.00    -0.367 OA
ATOM     11  H   LIG d   1       9.126   7.613  -3.892  0.00  0.00     0.062 H 
ATOM     12  H   LIG d   1       9.112   5.585  -5.289  0.00  0.00     0.062 H 
ATOM     13  H   LIG d   1       9.941   3.455  -4.379  0.00  0.00     0.065 H 
ATOM     14  H   LIG d   1      10.542   4.867   0.388  0.00  0.00     0.061 H 
ATOM     15  H   LIG d   1      11.973   5.763  -0.225  0.00  0.00     0.061 H 
ENDROOT
BRANCH   1  16
ATOM     16  C   LIG d   1       8.849   8.536  -1.052  0.00  0.00     0.039 C 
ATOM     17  H   LIG d   1       8.237   8.241  -0.188  0.00  0.00     0.037 H 
ATOM     18  H   LIG d   1       8.268   8.403  -1.976  0.00  0.00     0.037 H 
BRANCH  16  19
ATOM     19  C   LIG d   1       9.249   9.982  -0.914  0.00  0.00     0.164 C 
ATOM     20  O   LIG d   1       9.716  10.384   0.124  0.00  0.00    -0.295 OA
BRANCH  19  21
ATOM     21  C   LIG d   1       9.058  10.929  -2.071  0.00  0.00     0.110 C 
ATOM     22  H   LIG d   1       9.387  11.942  -1.798  0.00  0.00     0.067 H 
BRANCH  21  23
ATOM     23  C   LIG d   1       9.812  10.400  -3.294  0.00  0.00    -0.032 C 
ATOM     24  H   LIG d   1       9.266   9.546  -3.720  0.00  0.00     0.026 H 
ATOM     25  H   LIG d   1      10.819  10.077  -2.992  0.00  0.00     0.026 H 
ATOM     26  H   LIG d   1       9.892  11.197  -4.047  0.00  0.00     0.026 H 
ENDBRANCH  21  23
BRANCH  21  27
ATOM     27  O   LIG d   1       7.666  11.031  -2.379  0.00  0.00    -0.385 OA
ATOM     28  H   LIG d   1       6.981  11.517  -1.669  0.00  0.00     0.210 HD
ENDBRANCH  21  27
ENDBRANCH  19  21
ENDBRANCH  16  19
ENDBRANCH   1  16
BRANCH   7  29
ATOM     29  O   LIG d   1      10.886   3.109  -1.959  0.00  0.00    -0.506 OA
ATOM     30  H   LIG d   1      10.999   2.234  -2.616  0.00  0.00     0.292 HD
ENDBRANCH   7  29
TORSDOF 6
ENDMDL
MODEL 7
REMARK VINA RESULT:      -5.1      1.922      2.046
REMARK  6 active torsions:
REMARK  status: ('A' for Active; 'I' for Inactive)
REMARK    1  A    between atoms: C_1  and  C_2 
REMARK    2  A    between atoms: C_2  and  C_4 
REMARK    3  A    between atoms: C_2  and  O_18 
REMARK    4  A    between atoms: C_4  and  C_6 
REMARK    5  A    between atoms: C_6  and  C_7 
REMARK    6  A    between atoms: C_13  and  O_17 
ROOT
ATOM      1  C   LIG d   1       5.972  -2.725  -4.129  0.00  0.00     0.091 C 
ATOM      2  H   LIG d   1       6.694  -3.359  -3.594  0.00  0.00     0.065 H 
ATOM      3  C   LIG d   1       5.482  -1.572  -3.284  0.00  0.00    -0.010 A 
ATOM      4  C   LIG d   1       4.544  -1.485  -2.276  0.00  0.00    -0.056 A 
ATOM      5  C   LIG d   1       4.295  -0.269  -1.665  0.00  0.00    -0.058 A 
ATOM      6  C   LIG d   1       4.986   0.859  -2.062  0.00  0.00    -0.020 A 
ATOM      7  C   LIG d   1       5.931   0.774  -3.075  0.00  0.00     0.123 A 
ATOM      8  C   LIG d   1       6.177  -0.444  -3.685  0.00  0.00     0.025 A 
ATOM      9  C   LIG d   1       7.118  -0.865  -4.790  0.00  0.00     0.077 C 
ATOM     10  O   LIG d   1       6.629  -2.134  -5.265  0.00  0.00    -0.367 OA
ATOM     11  H   LIG d   1       4.001  -2.366  -1.964  0.00  0.00     0.062 H 
ATOM     12  H   LIG d   1       3.561  -0.202  -0.876  0.00  0.00     0.062 H 
ATOM     13  H   LIG d   1       4.792   1.808  -1.583  0.00  0.00     0.065 H 
ATOM     14  H   LIG d   1       7.104  -0.110  -5.590  0.00  0.00     0.061 H 
ATOM     15  H   LIG d   1       8.137  -0.956  -4.389  0.00  0.00     0.061 H 
ENDROOT
BRANCH   1  16
ATOM     16  C   LIG d   1       4.789  -3.581  -4.590  0.00  0.00     0.039 C 
ATOM     17  H   LIG d   1       3.944  -2.928  -4.851  0.00  0.00     0.037 H 
ATOM     18  H   LIG d   1       4.491  -4.261  -3.779  0.00  0.00     0.037 H 
BRANCH  16  19
ATOM     19  C   LIG d   1       5.194  -4.386  -5.798  0.00  0.00     0.164 C 
ATOM     20  O   LIG d   1       5.927  -5.337  -5.673  0.00  0.00    -0.295 OA
BRANCH  19  21
ATOM     21  C   LIG d   1       4.690  -3.998  -7.164  0.00  0.00     0.110 C 
ATOM     22  H   LIG d   1       5.529  -3.877  -7.864  0.00  0.00     0.067 H 
BRANCH  21  23
ATOM     23  C   LIG d   1       3.690  -5.047  -7.656  0.00  0.00    -0.032 C 
ATOM     24  H   LIG d   1       4.151  -5.646  -8.455  0.00  0.00     0.026 H 
ATOM     25  H   LIG d   1       2.793  -4.545  -8.045  0.00  0.00     0.026 H 
ATOM     26  H   LIG d   1       3.409  -5.705  -6.820  0.00  0.00     0.026 H 
ENDBRANCH  21  23
BRANCH  21  27
ATOM     27  O   LIG d   1       4.046  -2.724  -7.090  0.00  0.00    -0.385 OA
ATOM     28  H   LIG d   1       3.301  -2.441  -7.848  0.00  0.00     0.210 HD
ENDBRANCH  21  27
ENDBRANCH  19  21
ENDBRANCH  16  19
ENDBRANCH   1  16
BRANCH   7  29
ATOM     29  O   LIG d   1       6.613   1.882  -3.467  0.00  0.00    -0.506 OA
ATOM     30  H   LIG d   1       7.509   1.783  -4.097  0.00  0.00     0.292 HD
ENDBRANCH   7  29
TORSDOF 6
ENDMDL
MODEL 8
REMARK VINA RESULT:      -5.0     10.536     13.600
REMARK  6 active torsions:
REMARK  status: ('A' for Active; 'I' for Inactive)
REMARK    1  A    between atoms: C_1  and  C_2 
REMARK    2  A    between atoms: C_2  and  C_4 
REMARK    3  A    between atoms: C_2  and  O_18 
REMARK    4  A    between atoms: C_4  and  C_6 
REMARK    5  A    between atoms: C_6  and  C_7 
REMARK    6  A    between atoms: C_13  and  O_17 
ROOT
ATOM      1  C   LIG d   1      10.489   9.148  -1.068  0.00  0.00     0.091 C 
ATOM      2  H   LIG d   1      11.365   9.680  -1.464  0.00  0.00     0.065 H 
ATOM      3  C   LIG d   1      10.331   7.771  -1.672  0.00  0.00    -0.010 A 
ATOM      4  C   LIG d   1       9.831   7.333  -2.881  0.00  0.00    -0.056 A 
ATOM      5  C   LIG d   1       9.810   5.981  -3.172  0.00  0.00    -0.058 A 
ATOM      6  C   LIG d   1      10.291   5.067  -2.254  0.00  0.00    -0.020 A 
ATOM      7  C   LIG d   1      10.795   5.506  -1.037  0.00  0.00     0.123 A 
ATOM      8  C   LIG d   1      10.814   6.859  -0.749  0.00  0.00     0.025 A 
ATOM      9  C   LIG d   1      11.285   7.643   0.454  0.00  0.00     0.077 C 
ATOM     10  O   LIG d   1      10.671   8.942   0.345  0.00  0.00    -0.367 OA
ATOM     11  H   LIG d   1       9.454   8.045  -3.600  0.00  0.00     0.062 H 
ATOM     12  H   LIG d   1       9.419   5.639  -4.119  0.00  0.00     0.062 H 
ATOM     13  H   LIG d   1      10.275   4.012  -2.483  0.00  0.00     0.065 H 
ATOM     14  H   LIG d   1      10.966   7.131   1.374  0.00  0.00     0.061 H 
ATOM     15  H   LIG d   1      12.382   7.719   0.437  0.00  0.00     0.061 H 
ENDROOT
BRANCH   1  16
ATOM     16  C   LIG d   1       9.230   9.982  -1.321  0.00  0.00     0.039 C 
ATOM     17  H   LIG d   1       8.756  10.229  -0.361  0.00  0.00     0.037 H 
ATOM     18  H   LIG d   1       8.528   9.405  -1.940  0.00  0.00     0.037 H 
BRANCH  16  19
ATOM     19  C   LIG d   1       9.607  11.252  -2.038  0.00  0.00     0.164 C 
ATOM     20  O   LIG d   1      10.518  11.931  -1.628  0.00  0.00    -0.295 OA
BRANCH  19  21
ATOM     21  C   LIG d   1       8.840  11.680  -3.263  0.00  0.00     0.110 C 
ATOM     22  H   LIG d   1       9.014  12.745  -3.473  0.00  0.00     0.067 H 
BRANCH  21  23
ATOM     23  C   LIG d   1       9.238  10.798  -4.448  0.00  0.00    -0.032 C 
ATOM     24  H   LIG d   1      10.097  10.171  -4.166  0.00  0.00     0.026 H 
ATOM     25  H   LIG d   1       9.514  11.433  -5.303  0.00  0.00     0.026 H 
ATOM     26  H   LIG d   1       8.390  10.155  -4.726  0.00  0.00     0.026 H 
ENDBRANCH  21  23
BRANCH  21  27
ATOM     27  O   LIG d   1       7.439  11.545  -3.019  0.00  0.00    -0.385 OA
ATOM     28  H   LIG d   1       6.810  12.442  -2.916  0.00  0.00     0.210 HD
ENDBRANCH  21  27
ENDBRANCH  19  21
ENDBRANCH  16  19
ENDBRANCH   1  16
BRANCH   7  29
ATOM     29  O   LIG d   1      11.269   4.609  -0.133  0.00  0.00    -0.506 OA
ATOM     30  H   LIG d   1      11.695   3.654  -0.475  0.00  0.00     0.292 HD
ENDBRANCH   7  29
TORSDOF 6
ENDMDL
MODEL 9
REMARK VINA RESULT:      -4.7     10.904     13.604
REMARK  6 active torsions:
REMARK  status: ('A' for Active; 'I' for Inactive)
REMARK    1  A    between atoms: C_1  and  C_2 
REMARK    2  A    between atoms: C_2  and  C_4 
REMARK    3  A    between atoms: C_2  and  O_18 
REMARK    4  A    between atoms: C_4  and  C_6 
REMARK    5  A    between atoms: C_6  and  C_7 
REMARK    6  A    between atoms: C_13  and  O_17 
ROOT
ATOM      1  C   LIG d   1       9.811   8.309  -2.447  0.00  0.00     0.091 C 
ATOM      2  H   LIG d   1       8.739   8.555  -2.440  0.00  0.00     0.065 H 
ATOM      3  C   LIG d   1      10.388   8.213  -1.053  0.00  0.00    -0.010 A 
ATOM      4  C   LIG d   1      10.793   9.167  -0.142  0.00  0.00    -0.056 A 
ATOM      5  C   LIG d   1      11.293   8.779   1.088  0.00  0.00    -0.058 A 
ATOM      6  C   LIG d   1      11.388   7.438   1.407  0.00  0.00    -0.020 A 
ATOM      7  C   LIG d   1      10.980   6.477   0.492  0.00  0.00     0.123 A 
ATOM      8  C   LIG d   1      10.480   6.867  -0.738  0.00  0.00     0.025 A 
ATOM      9  C   LIG d   1       9.963   6.091  -1.927  0.00  0.00     0.077 C 
ATOM     10  O   LIG d   1       9.983   7.008  -3.038  0.00  0.00    -0.367 OA
ATOM     11  H   LIG d   1      10.721  10.215  -0.389  0.00  0.00     0.062 H 
ATOM     12  H   LIG d   1      11.610   9.526   1.801  0.00  0.00     0.062 H 
ATOM     13  H   LIG d   1      11.778   7.138   2.368  0.00  0.00     0.065 H 
ATOM     14  H   LIG d   1      10.619   5.228  -2.114  0.00  0.00     0.061 H 
ATOM     15  H   LIG d   1       8.943   5.739  -1.720  0.00  0.00     0.061 H 
ENDROOT
BRANCH   1  16
ATOM     16  C   LIG d   1      10.569   9.361  -3.260  0.00  0.00     0.039 C 
ATOM     17  H   LIG d   1      11.018   8.888  -4.144  0.00  0.00     0.037 H 
ATOM     18  H   LIG d   1      11.360   9.804  -2.638  0.00  0.00     0.037 H 
BRANCH  16  19
ATOM     19  C   LIG d   1       9.612  10.440  -3.699  0.00  0.00     0.164 C 
ATOM     20  O   LIG d   1       9.397  10.615  -4.874  0.00  0.00    -0.295 OA
BRANCH  19  21
ATOM     21  C   LIG d   1       8.931  11.305  -2.670  0.00  0.00     0.110 C 
ATOM     22  H   LIG d   1       8.847  10.771  -1.713  0.00  0.00     0.067 H 
BRANCH  21  23
ATOM     23  C   LIG d   1       9.698  12.621  -2.520  0.00  0.00    -0.032 C 
ATOM     24  H   LIG d   1      10.610  12.447  -1.929  0.00  0.00     0.026 H 
ATOM     25  H   LIG d   1       9.064  13.359  -2.009  0.00  0.00     0.026 H 
ATOM     26  H   LIG d   1       9.974  12.999  -3.516  0.00  0.00     0.026 H 
ENDBRANCH  21  23
BRANCH  21  27
ATOM     27  O   LIG d   1       7.593  11.580  -3.091  0.00  0.00    -0.385 OA
ATOM     28  H   LIG d   1       7.009  10.805  -3.609  0.00  0.00     0.210 HD
ENDBRANCH  21  27
ENDBRANCH  19  21
ENDBRANCH  16  19
ENDBRANCH   1  16
BRANCH   7  29
ATOM     29  O   LIG d   1      11.071   5.158   0.803  0.00  0.00    -0.506 OA
ATOM     30  H   LIG d   1      11.809   4.521   0.293  0.00  0.00     0.292 HD
ENDBRANCH   7  29
TORSDOF 6
ENDMDL
