MODEL 1
REMARK VINA RESULT:      -4.3      0.000      0.000
REMARK  12 active torsions:
REMARK  status: ('A' for Active; 'I' for Inactive)
REMARK    1  A    between atoms: C_1  and  C_2 
REMARK    2  A    between atoms: C_1  and  O_19 
REMARK    3  A    between atoms: C_2  and  C_4 
REMARK    4  A    between atoms: C_2  and  O_18 
REMARK    5  A    between atoms: C_4  and  C_6 
REMARK    6  A    between atoms: C_4  and  O_17 
REMARK    7  A    between atoms: C_6  and  C_8 
REMARK    8  A    between atoms: C_6  and  O_16 
REMARK    9  A    between atoms: C_8  and  C_10 
REMARK   10  A    between atoms: C_8  and  O_15 
REMARK   11  A    between atoms: C_10  and  C_12 
REMARK   12  A    between atoms: C_10  and  O_14 
ROOT
ATOM      1  C   LIG d   1      10.510   9.259  -1.141  0.00  0.00     0.112 C 
ATOM      2  H   LIG d   1      10.468   8.852  -2.152  0.00  0.00     0.065 H 
ENDROOT
BRANCH   1   3
ATOM      3  C   LIG d   1       9.486  10.388  -1.004  0.00  0.00     0.112 C 
ATOM      4  H   LIG d   1       9.578  10.844  -0.019  0.00  0.00     0.065 H 
BRANCH   3   5
ATOM      5  C   LIG d   1       9.744  11.445  -2.081  0.00  0.00     0.106 C 
ATOM      6  H   LIG d   1      10.793  11.415  -2.376  0.00  0.00     0.064 H 
BRANCH   5   7
ATOM      7  C   LIG d   1       8.863  11.158  -3.297  0.00  0.00     0.073 C 
ATOM      8  H   LIG d   1       9.298  11.629  -4.180  0.00  0.00     0.058 H 
ATOM      9  H   LIG d   1       8.798  10.082  -3.454  0.00  0.00     0.058 H 
BRANCH   7  10
ATOM     10  O   LIG d   1       7.554  11.686  -3.073  0.00  0.00    -0.392 OA
ATOM     11  H   LIG d   1       7.126  12.028  -3.870  0.00  0.00     0.209 HD
ENDBRANCH   7  10
ENDBRANCH   5   7
BRANCH   5  12
ATOM     12  O   LIG d   1       9.432  12.739  -1.561  0.00  0.00    -0.387 OA
ATOM     13  H   LIG d   1       8.775  13.223  -2.080  0.00  0.00     0.210 HD
ENDBRANCH   5  12
ENDBRANCH   3   5
BRANCH   3  14
ATOM     14  O   LIG d   1       8.169   9.858  -1.163  0.00  0.00    -0.387 OA
ATOM     15  H   LIG d   1       7.582  10.032  -0.415  0.00  0.00     0.210 HD
ENDBRANCH   3  14
ENDBRANCH   1   3
BRANCH   1  16
ATOM     16  C   LIG d   1      10.190   8.155  -0.132  0.00  0.00     0.115 C 
ATOM     17  H   LIG d   1       9.603   8.569   0.686  0.00  0.00     0.065 H 
BRANCH  16  18
ATOM     18  C   LIG d   1      11.494   7.575   0.419  0.00  0.00     0.122 C 
ATOM     19  H   LIG d   1      12.298   7.737  -0.300  0.00  0.00     0.068 H 
BRANCH  18  20
ATOM     20  C   LIG d   1      11.325   6.097   0.659  0.00  0.00     0.073 C 
ATOM     21  O   LIG d   1      11.770   5.301  -0.133  0.00  0.00    -0.547 OA
ATOM     22  O   LIG d   1      10.678   5.665   1.753  0.00  0.00    -0.547 OA
ENDBRANCH  18  20
BRANCH  18  23
ATOM     23  O   LIG d   1      11.821   8.223   1.650  0.00  0.00    -0.383 OA
ATOM     24  H   LIG d   1      12.735   8.088   1.935  0.00  0.00     0.210 HD
ENDBRANCH  18  23
ENDBRANCH  16  18
BRANCH  16  25
ATOM     25  O   LIG d   1       9.446   7.120  -0.778  0.00  0.00    -0.386 OA
ATOM     26  H   LIG d   1       9.058   6.477  -0.170  0.00  0.00     0.210 HD
ENDBRANCH  16  25
ENDBRANCH   1  16
BRANCH   1  27
ATOM     27  O   LIG d   1      11.820   9.771  -0.888  0.00  0.00    -0.387 OA
ATOM     28  H   LIG d   1      12.503   9.089  -0.821  0.00  0.00     0.210 HD
ENDBRANCH   1  27
TORSDOF 12
ENDMDL
MODEL 2
REMARK VINA RESULT:      -4.3      2.779      6.801
REMARK  12 active torsions:
REMARK  status: ('A' for Active; 'I' for Inactive)
REMARK    1  A    between atoms: C_1  and  C_2 
REMARK    2  A    between atoms: C_1  and  O_19 
REMARK    3  A    between atoms: C_2  and  C_4 
REMARK    4  A    between atoms: C_2  and  O_18 
REMARK    5  A    between atoms: C_4  and  C_6 
REMARK    6  A    between atoms: C_4  and  O_17 
REMARK    7  A    between atoms: C_6  and  C_8 
REMARK    8  A    between atoms: C_6  and  O_16 
REMARK    9  A    between atoms: C_8  and  C_10 
REMARK   10  A    between atoms: C_8  and  O_15 
REMARK   11  A    between atoms: C_10  and  C_12 
REMARK   12  A    between atoms: C_10  and  O_14 
ROOT
ATOM      1  C   LIG d   1       8.696  11.243  -3.902  0.00  0.00     0.112 C 
ATOM      2  H   LIG d   1       8.330  10.654  -4.744  0.00  0.00     0.065 H 
ENDROOT
BRANCH   1   3
ATOM      3  C   LIG d   1       9.610  10.376  -3.033  0.00  0.00     0.112 C 
ATOM      4  H   LIG d   1      10.606  10.815  -3.003  0.00  0.00     0.065 H 
BRANCH   3   5
ATOM      5  C   LIG d   1       9.043  10.300  -1.614  0.00  0.00     0.106 C 
ATOM      6  H   LIG d   1       7.959  10.411  -1.649  0.00  0.00     0.064 H 
BRANCH   5   7
ATOM      7  C   LIG d   1       9.397   8.948  -0.995  0.00  0.00     0.073 C 
ATOM      8  H   LIG d   1      10.197   8.482  -1.572  0.00  0.00     0.058 H 
ATOM      9  H   LIG d   1       9.729   9.094   0.033  0.00  0.00     0.058 H 
BRANCH   7  10
ATOM     10  O   LIG d   1       8.246   8.101  -1.008  0.00  0.00    -0.392 OA
ATOM     11  H   LIG d   1       8.325   7.321  -0.442  0.00  0.00     0.209 HD
ENDBRANCH   7  10
ENDBRANCH   5   7
BRANCH   5  12
ATOM     12  O   LIG d   1       9.603  11.348  -0.820  0.00  0.00    -0.387 OA
ATOM     13  H   LIG d   1      10.080  11.038  -0.039  0.00  0.00     0.210 HD
ENDBRANCH   5  12
ENDBRANCH   3   5
BRANCH   3  14
ATOM     14  O   LIG d   1       9.685   9.061  -3.587  0.00  0.00    -0.387 OA
ATOM     15  H   LIG d   1       9.182   8.397  -3.094  0.00  0.00     0.210 HD
ENDBRANCH   3  14
ENDBRANCH   1   3
BRANCH   1  16
ATOM     16  C   LIG d   1       9.481  12.448  -4.423  0.00  0.00     0.115 C 
ATOM     17  H   LIG d   1       8.848  13.334  -4.395  0.00  0.00     0.065 H 
BRANCH  16  18
ATOM     18  C   LIG d   1       9.925  12.184  -5.863  0.00  0.00     0.122 C 
ATOM     19  H   LIG d   1      11.014  12.160  -5.909  0.00  0.00     0.068 H 
BRANCH  18  20
ATOM     20  C   LIG d   1       9.408  13.281  -6.758  0.00  0.00     0.073 C 
ATOM     21  O   LIG d   1       9.307  14.409  -6.335  0.00  0.00    -0.547 OA
ATOM     22  O   LIG d   1       9.059  13.006  -8.024  0.00  0.00    -0.547 OA
ENDBRANCH  18  20
BRANCH  18  23
ATOM     23  O   LIG d   1       9.402  10.928  -6.300  0.00  0.00    -0.383 OA
ATOM     24  H   LIG d   1      10.077  10.250  -6.441  0.00  0.00     0.210 HD
ENDBRANCH  18  23
ENDBRANCH  16  18
BRANCH  16  25
ATOM     25  O   LIG d   1      10.631  12.658  -3.602  0.00  0.00    -0.386 OA
ATOM     26  H   LIG d   1      10.837  11.917  -3.015  0.00  0.00     0.210 HD
ENDBRANCH  16  25
ENDBRANCH   1  16
BRANCH   1  27
ATOM     27  O   LIG d   1       7.588  11.697  -3.122  0.00  0.00    -0.387 OA
ATOM     28  H   LIG d   1       7.830  12.012  -2.240  0.00  0.00     0.210 HD
ENDBRANCH   1  27
TORSDOF 12
ENDMDL
MODEL 3
REMARK VINA RESULT:      -4.2     10.318     12.023
REMARK  12 active torsions:
REMARK  status: ('A' for Active; 'I' for Inactive)
REMARK    1  A    between atoms: C_1  and  C_2 
REMARK    2  A    between atoms: C_1  and  O_19 
REMARK    3  A    between atoms: C_2  and  C_4 
REMARK    4  A    between atoms: C_2  and  O_18 
REMARK    5  A    between atoms: C_4  and  C_6 
REMARK    6  A    between atoms: C_4  and  O_17 
REMARK    7  A    between atoms: C_6  and  C_8 
REMARK    8  A    between atoms: C_6  and  O_16 
REMARK    9  A    between atoms: C_8  and  C_10 
REMARK   10  A    between atoms: C_8  and  O_15 
REMARK   11  A    between atoms: C_10  and  C_12 
REMARK   12  A    between atoms: C_10  and  O_14 
ROOT
ATOM      1  C   LIG d   1       6.058  -2.208  -4.385  0.00  0.00     0.112 C 
ATOM      2  H   LIG d   1       6.012  -3.271  -4.147  0.00  0.00     0.065 H 
ENDROOT
BRANCH   1   3
ATOM      3  C   LIG d   1       4.785  -1.797  -5.128  0.00  0.00     0.112 C 
ATOM      4  H   LIG d   1       4.185  -1.150  -4.490  0.00  0.00     0.065 H 
BRANCH   3   5
ATOM      5  C   LIG d   1       5.161  -1.045  -6.407  0.00  0.00     0.106 C 
ATOM      6  H   LIG d   1       5.918  -1.610  -6.952  0.00  0.00     0.064 H 
BRANCH   5   7
ATOM      7  C   LIG d   1       3.919  -0.879  -7.284  0.00  0.00     0.073 C 
ATOM      8  H   LIG d   1       4.125  -0.153  -8.072  0.00  0.00     0.058 H 
ATOM      9  H   LIG d   1       3.660  -1.838  -7.733  0.00  0.00     0.058 H 
BRANCH   7  10
ATOM     10  O   LIG d   1       2.829  -0.417  -6.484  0.00  0.00    -0.392 OA
ATOM     11  H   LIG d   1       2.832  -0.760  -5.580  0.00  0.00     0.209 HD
ENDBRANCH   7  10
ENDBRANCH   5   7
BRANCH   5  12
ATOM     12  O   LIG d   1       5.680   0.242  -6.068  0.00  0.00    -0.387 OA
ATOM     13  H   LIG d   1       5.906   0.341  -5.133  0.00  0.00     0.210 HD
ENDBRANCH   5  12
ENDBRANCH   3   5
BRANCH   3  14
ATOM     14  O   LIG d   1       4.033  -2.964  -5.466  0.00  0.00    -0.387 OA
ATOM     15  H   LIG d   1       3.672  -3.434  -4.701  0.00  0.00     0.210 HD
ENDBRANCH   3  14
ENDBRANCH   1   3
BRANCH   1  16
ATOM     16  C   LIG d   1       6.178  -1.400  -3.093  0.00  0.00     0.115 C 
ATOM     17  H   LIG d   1       6.509  -2.051  -2.285  0.00  0.00     0.065 H 
BRANCH  16  18
ATOM     18  C   LIG d   1       4.817  -0.799  -2.738  0.00  0.00     0.122 C 
ATOM     19  H   LIG d   1       4.125  -0.950  -3.567  0.00  0.00     0.068 H 
BRANCH  18  20
ATOM     20  C   LIG d   1       4.971   0.676  -2.474  0.00  0.00     0.073 C 
ATOM     21  O   LIG d   1       4.983   1.090  -1.339  0.00  0.00    -0.547 OA
ATOM     22  O   LIG d   1       5.094   1.532  -3.500  0.00  0.00    -0.547 OA
ENDBRANCH  18  20
BRANCH  18  23
ATOM     23  O   LIG d   1       4.303  -1.441  -1.568  0.00  0.00    -0.383 OA
ATOM     24  H   LIG d   1       3.490  -1.045  -1.228  0.00  0.00     0.210 HD
ENDBRANCH  18  23
ENDBRANCH  16  18
BRANCH  16  25
ATOM     25  O   LIG d   1       7.128  -0.347  -3.276  0.00  0.00    -0.386 OA
ATOM     26  H   LIG d   1       7.642  -0.139  -2.484  0.00  0.00     0.210 HD
ENDBRANCH  16  25
ENDBRANCH   1  16
BRANCH   1  27
ATOM     27  O   LIG d   1       7.195  -1.956  -5.213  0.00  0.00    -0.387 OA
ATOM     28  H   LIG d   1       7.661  -1.134  -5.002  0.00  0.00     0.210 HD
ENDBRANCH   1  27
TORSDOF 12
ENDMDL
MODEL 4
REMARK VINA RESULT:      -4.2      1.545      2.036
REMARK  12 active torsions:
REMARK  status: ('A' for Active; 'I' for Inactive)
REMARK    1  A    between atoms: C_1  and  C_2 
REMARK    2  A    between atoms: C_1  and  O_19 
REMARK    3  A    between atoms: C_2  and  C_4 
REMARK    4  A    between atoms: C_2  and  O_18 
REMARK    5  A    between atoms: C_4  and  C_6 
REMARK    6  A    between atoms: C_4  and  O_17 
REMARK    7  A    between atoms: C_6  and  C_8 
REMARK    8  A    between atoms: C_6  and  O_16 
REMARK    9  A    between atoms: C_8  and  C_10 
REMARK   10  A    between atoms: C_8  and  O_15 
REMARK   11  A    between atoms: C_10  and  C_12 
REMARK   12  A    between atoms: C_10  and  O_14 
ROOT
ATOM      1  C   LIG d   1      10.143   9.078  -1.735  0.00  0.00     0.112 C 
ATOM      2  H   LIG d   1       9.899   8.923  -2.786  0.00  0.00     0.065 H 
ENDROOT
BRANCH   1   3
ATOM      3  C   LIG d   1       9.487  10.371  -1.245  0.00  0.00     0.112 C 
ATOM      4  H   LIG d   1       9.919  10.657  -0.286  0.00  0.00     0.065 H 
BRANCH   3   5
ATOM      5  C   LIG d   1       9.730  11.485  -2.266  0.00  0.00     0.106 C 
ATOM      6  H   LIG d   1      10.772  11.464  -2.585  0.00  0.00     0.064 H 
BRANCH   5   7
ATOM      7  C   LIG d   1       8.821  11.274  -3.477  0.00  0.00     0.073 C 
ATOM      8  H   LIG d   1       9.228  11.810  -4.335  0.00  0.00     0.058 H 
ATOM      9  H   LIG d   1       8.762  10.211  -3.706  0.00  0.00     0.058 H 
BRANCH   7  10
ATOM     10  O   LIG d   1       7.513  11.772  -3.183  0.00  0.00    -0.392 OA
ATOM     11  H   LIG d   1       7.389  12.705  -3.402  0.00  0.00     0.209 HD
ENDBRANCH   7  10
ENDBRANCH   5   7
BRANCH   5  12
ATOM     12  O   LIG d   1       9.441  12.750  -1.667  0.00  0.00    -0.387 OA
ATOM     13  H   LIG d   1      10.226  13.249  -1.403  0.00  0.00     0.210 HD
ENDBRANCH   5  12
ENDBRANCH   3   5
BRANCH   3  14
ATOM     14  O   LIG d   1       8.082  10.164  -1.092  0.00  0.00    -0.387 OA
ATOM     15  H   LIG d   1       7.560  10.978  -1.105  0.00  0.00     0.210 HD
ENDBRANCH   3  14
ENDBRANCH   1   3
BRANCH   1  16
ATOM     16  C   LIG d   1       9.625   7.899  -0.910  0.00  0.00     0.115 C 
ATOM     17  H   LIG d   1       9.458   8.219   0.118  0.00  0.00     0.065 H 
BRANCH  16  18
ATOM     18  C   LIG d   1      10.656   6.769  -0.931  0.00  0.00     0.122 C 
ATOM     19  H   LIG d   1      11.652   7.183  -0.774  0.00  0.00     0.068 H 
BRANCH  18  20
ATOM     20  C   LIG d   1      10.607   6.068  -2.264  0.00  0.00     0.073 C 
ATOM     21  O   LIG d   1       9.796   5.194  -2.458  0.00  0.00    -0.547 OA
ATOM     22  O   LIG d   1      11.465   6.415  -3.236  0.00  0.00    -0.547 OA
ENDBRANCH  18  20
BRANCH  18  23
ATOM     23  O   LIG d   1      10.360   5.835   0.110  0.00  0.00    -0.383 OA
ATOM     24  H   LIG d   1      10.067   6.246   0.934  0.00  0.00     0.210 HD
ENDBRANCH  18  23
ENDBRANCH  16  18
BRANCH  16  25
ATOM     25  O   LIG d   1       8.395   7.431  -1.468  0.00  0.00    -0.386 OA
ATOM     26  H   LIG d   1       8.476   6.601  -1.957  0.00  0.00     0.210 HD
ENDBRANCH  16  25
ENDBRANCH   1  16
BRANCH   1  27
ATOM     27  O   LIG d   1      11.561   9.177  -1.585  0.00  0.00    -0.387 OA
ATOM     28  H   LIG d   1      11.946   9.962  -1.999  0.00  0.00     0.210 HD
ENDBRANCH   1  27
TORSDOF 12
ENDMDL
MODEL 5
REMARK VINA RESULT:      -4.2      2.518      3.048
REMARK  12 active torsions:
REMARK  status: ('A' for Active; 'I' for Inactive)
REMARK    1  A    between atoms: C_1  and  C_2 
REMARK    2  A    between atoms: C_1  and  O_19 
REMARK    3  A    between atoms: C_2  and  C_4 
REMARK    4  A    between atoms: C_2  and  O_18 
REMARK    5  A    between atoms: C_4  and  C_6 
REMARK    6  A    between atoms: C_4  and  O_17 
REMARK    7  A    between atoms: C_6  and  C_8 
REMARK    8  A    between atoms: C_6  and  O_16 
REMARK    9  A    between atoms: C_8  and  C_10 
REMARK   10  A    between atoms: C_8  and  O_15 
REMARK   11  A    between atoms: C_10  and  C_12 
REMARK   12  A    between atoms: C_10  and  O_14 
ROOT
ATOM      1  C   LIG d   1      10.320   7.857  -1.445  0.00  0.00     0.112 C 
ATOM      2  H   LIG d   1      10.756   8.396  -2.286  0.00  0.00     0.065 H 
ENDROOT
BRANCH   1   3
ATOM      3  C   LIG d   1       9.260   8.732  -0.773  0.00  0.00     0.112 C 
ATOM      4  H   LIG d   1       9.486   8.825   0.288  0.00  0.00     0.065 H 
BRANCH   3   5
ATOM      5  C   LIG d   1       9.260  10.119  -1.418  0.00  0.00     0.106 C 
ATOM      6  H   LIG d   1       9.695  10.841  -0.727  0.00  0.00     0.064 H 
BRANCH   5   7
ATOM      7  C   LIG d   1      10.084  10.083  -2.706  0.00  0.00     0.073 C 
ATOM      8  H   LIG d   1      10.617  11.028  -2.823  0.00  0.00     0.058 H 
ATOM      9  H   LIG d   1      10.801   9.265  -2.656  0.00  0.00     0.058 H 
BRANCH   7  10
ATOM     10  O   LIG d   1       9.214   9.887  -3.823  0.00  0.00    -0.392 OA
ATOM     11  H   LIG d   1       8.281  10.053  -3.629  0.00  0.00     0.209 HD
ENDBRANCH   7  10
ENDBRANCH   5   7
BRANCH   5  12
ATOM     12  O   LIG d   1       7.917  10.502  -1.723  0.00  0.00    -0.387 OA
ATOM     13  H   LIG d   1       7.576  10.122  -2.544  0.00  0.00     0.210 HD
ENDBRANCH   5  12
ENDBRANCH   3   5
BRANCH   3  14
ATOM     14  O   LIG d   1       7.974   8.130  -0.936  0.00  0.00    -0.387 OA
ATOM     15  H   LIG d   1       7.448   8.514  -1.651  0.00  0.00     0.210 HD
ENDBRANCH   3  14
ENDBRANCH   1   3
BRANCH   1  16
ATOM     16  C   LIG d   1       9.673   6.565  -1.947  0.00  0.00     0.115 C 
ATOM     17  H   LIG d   1       8.902   6.248  -1.245  0.00  0.00     0.065 H 
BRANCH  16  18
ATOM     18  C   LIG d   1      10.737   5.472  -2.063  0.00  0.00     0.122 C 
ATOM     19  H   LIG d   1      11.700   5.926  -2.297  0.00  0.00     0.068 H 
BRANCH  18  20
ATOM     20  C   LIG d   1      10.354   4.512  -3.160  0.00  0.00     0.073 C 
ATOM     21  O   LIG d   1      10.931   4.544  -4.220  0.00  0.00    -0.547 OA
ATOM     22  O   LIG d   1       9.370   3.622  -2.959  0.00  0.00    -0.547 OA
ENDBRANCH  18  20
BRANCH  18  23
ATOM     23  O   LIG d   1      10.833   4.766  -0.824  0.00  0.00    -0.383 OA
ATOM     24  H   LIG d   1      10.416   3.894  -0.836  0.00  0.00     0.210 HD
ENDBRANCH  18  23
ENDBRANCH  16  18
BRANCH  16  25
ATOM     25  O   LIG d   1       9.084   6.794  -3.229  0.00  0.00    -0.386 OA
ATOM     26  H   LIG d   1       9.659   7.264  -3.847  0.00  0.00     0.210 HD
ENDBRANCH  16  25
ENDBRANCH   1  16
BRANCH   1  27
ATOM     27  O   LIG d   1      11.345   7.540  -0.501  0.00  0.00    -0.387 OA
ATOM     28  H   LIG d   1      11.811   8.312  -0.153  0.00  0.00     0.210 HD
ENDBRANCH   1  27
TORSDOF 12
ENDMDL
MODEL 6
REMARK VINA RESULT:      -4.2     11.003     12.765
REMARK  12 active torsions:
REMARK  status: ('A' for Active; 'I' for Inactive)
REMARK    1  A    between atoms: C_1  and  C_2 
REMARK    2  A    between atoms: C_1  and  O_19 
REMARK    3  A    between atoms: C_2  and  C_4 
REMARK    4  A    between atoms: C_2  and  O_18 
REMARK    5  A    between atoms: C_4  and  C_6 
REMARK    6  A    between atoms: C_4  and  O_17 
REMARK    7  A    between atoms: C_6  and  C_8 
REMARK    8  A    between atoms: C_6  and  O_16 
REMARK    9  A    between atoms: C_8  and  C_10 
REMARK   10  A    between atoms: C_8  and  O_15 
REMARK   11  A    between atoms: C_10  and  C_12 
REMARK   12  A    between atoms: C_10  and  O_14 
ROOT
ATOM      1  C   LIG d   1       4.153  -0.406  -5.143  0.00  0.00     0.112 C 
ATOM      2  H   LIG d   1       4.899   0.384  -5.060  0.00  0.00     0.065 H 
ENDROOT
BRANCH   1   3
ATOM      3  C   LIG d   1       3.464  -0.602  -3.791  0.00  0.00     0.112 C 
ATOM      4  H   LIG d   1       3.733  -1.576  -3.384  0.00  0.00     0.065 H 
BRANCH   3   5
ATOM      5  C   LIG d   1       3.916   0.496  -2.825  0.00  0.00     0.106 C 
ATOM      6  H   LIG d   1       3.430   0.353  -1.859  0.00  0.00     0.064 H 
BRANCH   5   7
ATOM      7  C   LIG d   1       5.433   0.428  -2.648  0.00  0.00     0.073 C 
ATOM      8  H   LIG d   1       5.668   0.241  -1.599  0.00  0.00     0.058 H 
ATOM      9  H   LIG d   1       5.834  -0.380  -3.260  0.00  0.00     0.058 H 
BRANCH   7  10
ATOM     10  O   LIG d   1       6.017   1.667  -3.053  0.00  0.00    -0.392 OA
ATOM     11  H   LIG d   1       6.894   1.829  -2.680  0.00  0.00     0.209 HD
ENDBRANCH   7  10
ENDBRANCH   5   7
BRANCH   5  12
ATOM     12  O   LIG d   1       3.556   1.774  -3.355  0.00  0.00    -0.387 OA
ATOM     13  H   LIG d   1       2.798   1.751  -3.955  0.00  0.00     0.210 HD
ENDBRANCH   5  12
ENDBRANCH   3   5
BRANCH   3  14
ATOM     14  O   LIG d   1       2.047  -0.531  -3.963  0.00  0.00    -0.387 OA
ATOM     15  H   LIG d   1       1.754   0.213  -4.505  0.00  0.00     0.210 HD
ENDBRANCH   3  14
ENDBRANCH   1   3
BRANCH   1  16
ATOM     16  C   LIG d   1       3.111  -0.018  -6.194  0.00  0.00     0.115 C 
ATOM     17  H   LIG d   1       2.206  -0.606  -6.044  0.00  0.00     0.065 H 
BRANCH  16  18
ATOM     18  C   LIG d   1       3.670  -0.291  -7.592  0.00  0.00     0.122 C 
ATOM     19  H   LIG d   1       4.742  -0.482  -7.524  0.00  0.00     0.068 H 
BRANCH  18  20
ATOM     20  C   LIG d   1       3.428   0.907  -8.473  0.00  0.00     0.073 C 
ATOM     21  O   LIG d   1       2.409   0.986  -9.119  0.00  0.00    -0.547 OA
ATOM     22  O   LIG d   1       4.343   1.885  -8.542  0.00  0.00    -0.547 OA
ENDBRANCH  18  20
BRANCH  18  23
ATOM     23  O   LIG d   1       3.019  -1.434  -8.150  0.00  0.00    -0.383 OA
ATOM     24  H   LIG d   1       2.252  -1.735  -7.644  0.00  0.00     0.210 HD
ENDBRANCH  18  23
ENDBRANCH  16  18
BRANCH  16  25
ATOM     25  O   LIG d   1       2.803   1.372  -6.069  0.00  0.00    -0.386 OA
ATOM     26  H   LIG d   1       3.449   1.957  -6.487  0.00  0.00     0.210 HD
ENDBRANCH  16  25
ENDBRANCH   1  16
BRANCH   1  27
ATOM     27  O   LIG d   1       4.791  -1.624  -5.533  0.00  0.00    -0.387 OA
ATOM     28  H   LIG d   1       5.717  -1.517  -5.792  0.00  0.00     0.210 HD
ENDBRANCH   1  27
TORSDOF 12
ENDMDL
MODEL 7
REMARK VINA RESULT:      -4.2      1.491      2.291
REMARK  12 active torsions:
REMARK  status: ('A' for Active; 'I' for Inactive)
REMARK    1  A    between atoms: C_1  and  C_2 
REMARK    2  A    between atoms: C_1  and  O_19 
REMARK    3  A    between atoms: C_2  and  C_4 
REMARK    4  A    between atoms: C_2  and  O_18 
REMARK    5  A    between atoms: C_4  and  C_6 
REMARK    6  A    between atoms: C_4  and  O_17 
REMARK    7  A    between atoms: C_6  and  C_8 
REMARK    8  A    between atoms: C_6  and  O_16 
REMARK    9  A    between atoms: C_8  and  C_10 
REMARK   10  A    between atoms: C_8  and  O_15 
REMARK   11  A    between atoms: C_10  and  C_12 
REMARK   12  A    between atoms: C_10  and  O_14 
ROOT
ATOM      1  C   LIG d   1       9.124   9.103  -0.394  0.00  0.00     0.112 C 
ATOM      2  H   LIG d   1       8.757   9.345   0.603  0.00  0.00     0.065 H 
ENDROOT
BRANCH   1   3
ATOM      3  C   LIG d   1       9.225  10.384  -1.225  0.00  0.00     0.112 C 
ATOM      4  H   LIG d   1       9.384  11.235  -0.563  0.00  0.00     0.065 H 
BRANCH   3   5
ATOM      5  C   LIG d   1      10.399  10.270  -2.200  0.00  0.00     0.106 C 
ATOM      6  H   LIG d   1      11.051   9.453  -1.889  0.00  0.00     0.064 H 
BRANCH   5   7
ATOM      7  C   LIG d   1       9.868   9.992  -3.607  0.00  0.00     0.073 C 
ATOM      8  H   LIG d   1       8.966  10.580  -3.778  0.00  0.00     0.058 H 
ATOM      9  H   LIG d   1      10.625  10.265  -4.342  0.00  0.00     0.058 H 
BRANCH   7  10
ATOM     10  O   LIG d   1       9.561   8.602  -3.734  0.00  0.00    -0.392 OA
ATOM     11  H   LIG d   1      10.165   8.020  -3.253  0.00  0.00     0.209 HD
ENDBRANCH   7  10
ENDBRANCH   5   7
BRANCH   5  12
ATOM     12  O   LIG d   1      11.137  11.494  -2.203  0.00  0.00    -0.387 OA
ATOM     13  H   LIG d   1      11.864  11.516  -1.566  0.00  0.00     0.210 HD
ENDBRANCH   5  12
ENDBRANCH   3   5
BRANCH   3  14
ATOM     14  O   LIG d   1       8.013  10.572  -1.959  0.00  0.00    -0.387 OA
ATOM     15  H   LIG d   1       7.574  11.416  -1.785  0.00  0.00     0.210 HD
ENDBRANCH   3  14
ENDBRANCH   1   3
BRANCH   1  16
ATOM     16  C   LIG d   1      10.505   8.455  -0.287  0.00  0.00     0.115 C 
ATOM     17  H   LIG d   1      11.158   8.859  -1.060  0.00  0.00     0.065 H 
BRANCH  16  18
ATOM     18  C   LIG d   1      10.375   6.942  -0.470  0.00  0.00     0.122 C 
ATOM     19  H   LIG d   1       9.334   6.647  -0.333  0.00  0.00     0.068 H 
BRANCH  18  20
ATOM     20  C   LIG d   1      11.235   6.236   0.547  0.00  0.00     0.073 C 
ATOM     21  O   LIG d   1      10.728   5.730   1.520  0.00  0.00    -0.547 OA
ATOM     22  O   LIG d   1      12.564   6.171   0.372  0.00  0.00    -0.547 OA
ENDBRANCH  18  20
BRANCH  18  23
ATOM     23  O   LIG d   1      10.801   6.582  -1.786  0.00  0.00    -0.383 OA
ATOM     24  H   LIG d   1      11.604   7.037  -2.076  0.00  0.00     0.210 HD
ENDBRANCH  18  23
ENDBRANCH  16  18
BRANCH  16  25
ATOM     25  O   LIG d   1      11.062   8.732   1.000  0.00  0.00    -0.386 OA
ATOM     26  H   LIG d   1      10.460   8.556   1.735  0.00  0.00     0.210 HD
ENDBRANCH  16  25
ENDBRANCH   1  16
BRANCH   1  27
ATOM     27  O   LIG d   1       8.220   8.195  -1.027  0.00  0.00    -0.387 OA
ATOM     28  H   LIG d   1       7.362   8.583  -1.246  0.00  0.00     0.210 HD
ENDBRANCH   1  27
TORSDOF 12
ENDMDL
MODEL 8
REMARK VINA RESULT:      -4.2     11.307     13.104
REMARK  12 active torsions:
REMARK  status: ('A' for Active; 'I' for Inactive)
REMARK    1  A    between atoms: C_1  and  C_2 
REMARK    2  A    between atoms: C_1  and  O_19 
REMARK    3  A    between atoms: C_2  and  C_4 
REMARK    4  A    between atoms: C_2  and  O_18 
REMARK    5  A    between atoms: C_4  and  C_6 
REMARK    6  A    between atoms: C_4  and  O_17 
REMARK    7  A    between atoms: C_6  and  C_8 
REMARK    8  A    between atoms: C_6  and  O_16 
REMARK    9  A    between atoms: C_8  and  C_10 
REMARK   10  A    between atoms: C_8  and  O_15 
REMARK   11  A    between atoms: C_10  and  C_12 
REMARK   12  A    between atoms: C_10  and  O_14 
ROOT
ATOM      1  C   LIG d   1       4.077  -0.164  -6.134  0.00  0.00     0.112 C 
ATOM      2  H   LIG d   1       4.424   0.803  -6.499  0.00  0.00     0.065 H 
ENDROOT
BRANCH   1   3
ATOM      3  C   LIG d   1       4.641  -1.275  -7.023  0.00  0.00     0.112 C 
ATOM      4  H   LIG d   1       5.254  -0.835  -7.808  0.00  0.00     0.065 H 
BRANCH   3   5
ATOM      5  C   LIG d   1       5.496  -2.221  -6.177  0.00  0.00     0.106 C 
ATOM      6  H   LIG d   1       5.457  -1.911  -5.133  0.00  0.00     0.064 H 
BRANCH   5   7
ATOM      7  C   LIG d   1       4.958  -3.647  -6.307  0.00  0.00     0.073 C 
ATOM      8  H   LIG d   1       4.561  -3.796  -7.312  0.00  0.00     0.058 H 
ATOM      9  H   LIG d   1       5.764  -4.357  -6.125  0.00  0.00     0.058 H 
BRANCH   7  10
ATOM     10  O   LIG d   1       3.917  -3.852  -5.349  0.00  0.00    -0.392 OA
ATOM     11  H   LIG d   1       3.463  -3.041  -5.082  0.00  0.00     0.209 HD
ENDBRANCH   7  10
ENDBRANCH   5   7
BRANCH   5  12
ATOM     12  O   LIG d   1       6.848  -2.179  -6.636  0.00  0.00    -0.387 OA
ATOM     13  H   LIG d   1       7.202  -1.285  -6.737  0.00  0.00     0.210 HD
ENDBRANCH   5  12
ENDBRANCH   3   5
BRANCH   3  14
ATOM     14  O   LIG d   1       3.563  -2.005  -7.613  0.00  0.00    -0.387 OA
ATOM     15  H   LIG d   1       3.122  -1.540  -8.336  0.00  0.00     0.210 HD
ENDBRANCH   3  14
ENDBRANCH   1   3
BRANCH   1  16
ATOM     16  C   LIG d   1       4.555  -0.370  -4.696  0.00  0.00     0.115 C 
ATOM     17  H   LIG d   1       5.101  -1.310  -4.625  0.00  0.00     0.065 H 
BRANCH  16  18
ATOM     18  C   LIG d   1       3.347  -0.410  -3.758  0.00  0.00     0.122 C 
ATOM     19  H   LIG d   1       2.531   0.170  -4.190  0.00  0.00     0.068 H 
BRANCH  18  20
ATOM     20  C   LIG d   1       3.727   0.176  -2.423  0.00  0.00     0.073 C 
ATOM     21  O   LIG d   1       3.346   1.280  -2.116  0.00  0.00    -0.547 OA
ATOM     22  O   LIG d   1       4.492  -0.530  -1.574  0.00  0.00    -0.547 OA
ENDBRANCH  18  20
BRANCH  18  23
ATOM     23  O   LIG d   1       2.926  -1.765  -3.582  0.00  0.00    -0.383 OA
ATOM     24  H   LIG d   1       2.913  -2.281  -4.399  0.00  0.00     0.210 HD
ENDBRANCH  18  23
ENDBRANCH  16  18
BRANCH  16  25
ATOM     25  O   LIG d   1       5.413   0.710  -4.320  0.00  0.00    -0.386 OA
ATOM     26  H   LIG d   1       6.324   0.613  -4.628  0.00  0.00     0.210 HD
ENDBRANCH  16  25
ENDBRANCH   1  16
BRANCH   1  27
ATOM     27  O   LIG d   1       2.649  -0.202  -6.172  0.00  0.00    -0.387 OA
ATOM     28  H   LIG d   1       2.224   0.239  -5.423  0.00  0.00     0.210 HD
ENDBRANCH   1  27
TORSDOF 12
ENDMDL
MODEL 9
REMARK VINA RESULT:      -4.2     11.177     12.378
REMARK  12 active torsions:
REMARK  status: ('A' for Active; 'I' for Inactive)
REMARK    1  A    between atoms: C_1  and  C_2 
REMARK    2  A    between atoms: C_1  and  O_19 
REMARK    3  A    between atoms: C_2  and  C_4 
REMARK    4  A    between atoms: C_2  and  O_18 
REMARK    5  A    between atoms: C_4  and  C_6 
REMARK    6  A    between atoms: C_4  and  O_17 
REMARK    7  A    between atoms: C_6  and  C_8 
REMARK    8  A    between atoms: C_6  and  O_16 
REMARK    9  A    between atoms: C_8  and  C_10 
REMARK   10  A    between atoms: C_8  and  O_15 
REMARK   11  A    between atoms: C_10  and  C_12 
REMARK   12  A    between atoms: C_10  and  O_14 
ROOT
ATOM      1  C   LIG d   1       3.649   0.287  -5.986  0.00  0.00     0.112 C 
ATOM      2  H   LIG d   1       3.551   1.369  -5.891  0.00  0.00     0.065 H 
ENDROOT
BRANCH   1   3
ATOM      3  C   LIG d   1       4.482  -0.042  -7.226  0.00  0.00     0.112 C 
ATOM      4  H   LIG d   1       4.363  -1.096  -7.474  0.00  0.00     0.065 H 
BRANCH   3   5
ATOM      5  C   LIG d   1       4.008   0.814  -8.402  0.00  0.00     0.106 C 
ATOM      6  H   LIG d   1       4.865   1.308  -8.861  0.00  0.00     0.064 H 
BRANCH   5   7
ATOM      7  C   LIG d   1       3.318  -0.076  -9.436  0.00  0.00     0.073 C 
ATOM      8  H   LIG d   1       3.371   0.397 -10.417  0.00  0.00     0.058 H 
ATOM      9  H   LIG d   1       3.816  -1.045  -9.473  0.00  0.00     0.058 H 
BRANCH   7  10
ATOM     10  O   LIG d   1       1.948  -0.259  -9.069  0.00  0.00    -0.392 OA
ATOM     11  H   LIG d   1       1.581   0.467  -8.548  0.00  0.00     0.209 HD
ENDBRANCH   7  10
ENDBRANCH   5   7
BRANCH   5  12
ATOM     12  O   LIG d   1       3.086   1.800  -7.932  0.00  0.00    -0.387 OA
ATOM     13  H   LIG d   1       3.457   2.402  -7.272  0.00  0.00     0.210 HD
ENDBRANCH   5  12
ENDBRANCH   3   5
BRANCH   3  14
ATOM     14  O   LIG d   1       5.859   0.233  -6.961  0.00  0.00    -0.387 OA
ATOM     15  H   LIG d   1       6.021   0.637  -6.098  0.00  0.00     0.210 HD
ENDBRANCH   3  14
ENDBRANCH   1   3
BRANCH   1  16
ATOM     16  C   LIG d   1       4.340  -0.274  -4.743  0.00  0.00     0.115 C 
ATOM     17  H   LIG d   1       4.854  -1.200  -4.999  0.00  0.00     0.065 H 
BRANCH  16  18
ATOM     18  C   LIG d   1       3.296  -0.554  -3.660  0.00  0.00     0.122 C 
ATOM     19  H   LIG d   1       2.345  -0.106  -3.948  0.00  0.00     0.068 H 
BRANCH  18  20
ATOM     20  C   LIG d   1       3.756   0.038  -2.353  0.00  0.00     0.073 C 
ATOM     21  O   LIG d   1       4.419  -0.623  -1.590  0.00  0.00    -0.547 OA
ATOM     22  O   LIG d   1       3.428   1.300  -2.036  0.00  0.00    -0.547 OA
ENDBRANCH  18  20
BRANCH  18  23
ATOM     23  O   LIG d   1       3.131  -1.966  -3.512  0.00  0.00    -0.383 OA
ATOM     24  H   LIG d   1       3.232  -2.462  -4.336  0.00  0.00     0.210 HD
ENDBRANCH  18  23
ENDBRANCH  16  18
BRANCH  16  25
ATOM     25  O   LIG d   1       5.288   0.678  -4.254  0.00  0.00    -0.386 OA
ATOM     26  H   LIG d   1       4.924   1.300  -3.609  0.00  0.00     0.210 HD
ENDBRANCH  16  25
ENDBRANCH   1  16
BRANCH   1  27
ATOM     27  O   LIG d   1       2.351  -0.298  -6.114  0.00  0.00    -0.387 OA
ATOM     28  H   LIG d   1       2.046  -0.382  -7.028  0.00  0.00     0.210 HD
ENDBRANCH   1  27
TORSDOF 12
ENDMDL
