MODEL 1
REMARK VINA RESULT:      -7.4      0.000      0.000
REMARK  8 active torsions:
REMARK  status: ('A' for Active; 'I' for Inactive)
REMARK    1  A    between atoms: C_1  and  C_2 
REMARK    2  A    between atoms: C_3  and  C_21 
REMARK    3  A    between atoms: C_9  and  O_19 
REMARK    4  A    between atoms: C_15  and  C_17 
REMARK    5  A    between atoms: C_15  and  C_18 
REMARK    6  A    between atoms: O_19  and  C_20 
REMARK    7  A    between atoms: C_21  and  C_22 
REMARK    8  A    between atoms: C_22  and  C_23 
REMARK       I    between atoms: C_23  and  N_25 
ROOT
ATOM      1  C   LIG d   1       4.515  -3.279  -8.277  0.00  0.00    -0.026 A 
ATOM      2  C   LIG d   1       4.254  -4.588  -8.025  0.00  0.00     0.041 A 
ATOM      3  C   LIG d   1       4.068  -5.024  -6.698  0.00  0.00     0.341 A 
ATOM      4  O   LIG d   1       3.833  -6.200  -6.481  0.00  0.00    -0.245 OA
ATOM      5  O   LIG d   1       4.143  -4.164  -5.668  0.00  0.00    -0.421 OA
ATOM      6  C   LIG d   1       4.400  -2.853  -5.876  0.00  0.00     0.149 A 
ATOM      7  C   LIG d   1       4.592  -2.376  -7.186  0.00  0.00     0.063 A 
ATOM      8  C   LIG d   1       4.857  -1.012  -7.398  0.00  0.00     0.135 A 
ATOM      9  C   LIG d   1       4.934  -0.159  -6.318  0.00  0.00     0.023 A 
ATOM     10  C   LIG d   1       4.742  -0.636  -5.020  0.00  0.00     0.131 A 
ATOM     11  C   LIG d   1       4.477  -1.977  -4.802  0.00  0.00     0.038 A 
ATOM     12  C   LIG d   1       4.262  -2.520  -3.412  0.00  0.00    -0.017 C 
ATOM     13  C   LIG d   1       4.806  -1.529  -2.379  0.00  0.00    -0.009 C 
ATOM     14  C   LIG d   1       4.280  -0.132  -2.732  0.00  0.00     0.105 C 
ATOM     15  O   LIG d   1       4.829   0.250  -3.994  0.00  0.00    -0.486 OA
ATOM     16  H   LIG d   1       5.141   0.889  -6.477  0.00  0.00     0.069 H 
ATOM     17  H   LIG d   1       3.196  -2.671  -3.242  0.00  0.00     0.032 H 
ATOM     18  H   LIG d   1       4.782  -3.472  -3.309  0.00  0.00     0.032 H 
ATOM     19  H   LIG d   1       4.463  -1.811  -1.384  0.00  0.00     0.031 H 
ATOM     20  H   LIG d   1       5.896  -1.531  -2.407  0.00  0.00     0.031 H 
ENDROOT
BRANCH   2  21
ATOM     21  C   LIG d   1       4.165  -5.573  -9.163  0.00  0.00    -0.012 C 
ATOM     22  H   LIG d   1       5.015  -5.433  -9.831  0.00  0.00     0.032 H 
ATOM     23  H   LIG d   1       4.177  -6.589  -8.766  0.00  0.00     0.032 H 
BRANCH  21  24
ATOM     24  C   LIG d   1       2.864  -5.341  -9.936  0.00  0.00     0.028 C 
ATOM     25  H   LIG d   1       2.338  -4.487  -9.513  0.00  0.00     0.036 H 
ATOM     26  H   LIG d   1       3.094  -5.146 -10.983  0.00  0.00     0.036 H 
BRANCH  24  27
ATOM     27  C   LIG d   1       1.996  -6.569  -9.833  0.00  0.00     0.216 C 
ATOM     28  O   LIG d   1       2.421  -7.571  -9.300  0.00  0.00    -0.276 OA
ATOM     29  N   LIG d   1       0.745  -6.552 -10.334  0.00  0.00    -0.301 N 
ATOM     30  C   LIG d   1      -0.114  -7.741 -10.241  0.00  0.00     0.019 C 
ATOM     31  C   LIG d   1       0.213  -5.342 -10.977  0.00  0.00     0.019 C 
ATOM     32  C   LIG d   1      -1.438  -7.341  -9.581  0.00  0.00     0.017 C 
ATOM     33  H   LIG d   1      -0.307  -8.131 -11.240  0.00  0.00     0.047 H 
ATOM     34  H   LIG d   1       0.380  -8.503  -9.640  0.00  0.00     0.047 H 
ATOM     35  C   LIG d   1      -2.056  -6.173 -10.353  0.00  0.00     0.173 C 
ATOM     36  H   LIG d   1      -2.122  -8.190  -9.597  0.00  0.00     0.033 H 
ATOM     37  H   LIG d   1      -1.255  -7.040  -8.550  0.00  0.00     0.033 H 
ATOM     38  C   LIG d   1      -1.112  -4.969 -10.315  0.00  0.00     0.017 C 
ATOM     39  O   LIG d   1      -2.276  -6.565 -11.718  0.00  0.00    -0.346 OA
ATOM     40  O   LIG d   1      -3.313  -5.818  -9.764  0.00  0.00    -0.346 OA
ATOM     41  H   LIG d   1      -1.566  -4.135 -10.852  0.00  0.00     0.033 H 
ATOM     42  H   LIG d   1      -0.930  -4.681  -9.281  0.00  0.00     0.033 H 
ATOM     43  C   LIG d   1      -3.658  -6.998 -11.759  0.00  0.00     0.074 C 
ATOM     44  C   LIG d   1      -4.327  -6.009 -10.772  0.00  0.00     0.074 C 
ATOM     45  H   LIG d   1      -4.070  -6.888 -12.761  0.00  0.00     0.058 H 
ATOM     46  H   LIG d   1      -3.755  -8.026 -11.409  0.00  0.00     0.058 H 
ATOM     47  H   LIG d   1      -4.559  -5.067 -11.268  0.00  0.00     0.058 H 
ATOM     48  H   LIG d   1      -5.225  -6.449 -10.337  0.00  0.00     0.058 H 
ATOM     49  H   LIG d   1       0.922  -4.524 -10.860  0.00  0.00     0.047 H 
ATOM     50  H   LIG d   1       0.047  -5.536 -12.038  0.00  0.00     0.047 H 
ENDBRANCH  24  27
ENDBRANCH  21  24
ENDBRANCH   2  21
BRANCH   1  51
ATOM     51  C   LIG d   1       4.717  -2.794  -9.689  0.00  0.00    -0.038 C 
ATOM     52  H   LIG d   1       4.145  -3.422 -10.373  0.00  0.00     0.028 H 
ATOM     53  H   LIG d   1       4.375  -1.763  -9.771  0.00  0.00     0.028 H 
ATOM     54  H   LIG d   1       5.775  -2.849  -9.945  0.00  0.00     0.028 H 
ENDBRANCH   1  51
BRANCH   8  55
ATOM     55  O   LIG d   1       5.042  -0.540  -8.656  0.00  0.00    -0.494 OA
BRANCH  55  56
ATOM     56  C   LIG d   1       4.766   0.846  -8.877  0.00  0.00     0.079 C 
ATOM     57  H   LIG d   1       5.303   1.186  -9.762  0.00  0.00     0.066 H 
ATOM     58  H   LIG d   1       5.090   1.422  -8.011  0.00  0.00     0.066 H 
ATOM     59  H   LIG d   1       3.696   0.984  -9.025  0.00  0.00     0.066 H 
ENDBRANCH  55  56
ENDBRANCH   8  55
BRANCH  14  60
ATOM     60  C   LIG d   1       4.715   0.868  -1.658  0.00  0.00    -0.025 C 
ATOM     61  H   LIG d   1       4.623   0.408  -0.674  0.00  0.00     0.027 H 
ATOM     62  H   LIG d   1       5.752   1.156  -1.829  0.00  0.00     0.027 H 
ATOM     63  H   LIG d   1       4.079   1.751  -1.707  0.00  0.00     0.027 H 
ENDBRANCH  14  60
BRANCH  14  64
ATOM     64  C   LIG d   1       2.753  -0.162  -2.823  0.00  0.00    -0.025 C 
ATOM     65  H   LIG d   1       2.452  -0.153  -3.871  0.00  0.00     0.027 H 
ATOM     66  H   LIG d   1       2.378  -1.067  -2.345  0.00  0.00     0.027 H 
ATOM     67  H   LIG d   1       2.343   0.713  -2.319  0.00  0.00     0.027 H 
ENDBRANCH  14  64
TORSDOF 8
ENDMDL
MODEL 2
REMARK VINA RESULT:      -7.1      4.763      7.546
REMARK  8 active torsions:
REMARK  status: ('A' for Active; 'I' for Inactive)
REMARK    1  A    between atoms: C_1  and  C_2 
REMARK    2  A    between atoms: C_3  and  C_21 
REMARK    3  A    between atoms: C_9  and  O_19 
REMARK    4  A    between atoms: C_15  and  C_17 
REMARK    5  A    between atoms: C_15  and  C_18 
REMARK    6  A    between atoms: O_19  and  C_20 
REMARK    7  A    between atoms: C_21  and  C_22 
REMARK    8  A    between atoms: C_22  and  C_23 
REMARK       I    between atoms: C_23  and  N_25 
ROOT
ATOM      1  C   LIG d   1       5.786  -4.209  -7.265  0.00  0.00    -0.026 A 
ATOM      2  C   LIG d   1       5.297  -5.426  -6.913  0.00  0.00     0.041 A 
ATOM      3  C   LIG d   1       4.658  -5.593  -5.669  0.00  0.00     0.341 A 
ATOM      4  O   LIG d   1       4.221  -6.689  -5.361  0.00  0.00    -0.245 OA
ATOM      5  O   LIG d   1       4.520  -4.564  -4.816  0.00  0.00    -0.421 OA
ATOM      6  C   LIG d   1       4.991  -3.336  -5.128  0.00  0.00     0.149 A 
ATOM      7  C   LIG d   1       5.636  -3.126  -6.361  0.00  0.00     0.063 A 
ATOM      8  C   LIG d   1       6.123  -1.847  -6.682  0.00  0.00     0.135 A 
ATOM      9  C   LIG d   1       5.970  -0.815  -5.781  0.00  0.00     0.023 A 
ATOM     10  C   LIG d   1       5.329  -1.028  -4.559  0.00  0.00     0.131 A 
ATOM     11  C   LIG d   1       4.843  -2.283  -4.236  0.00  0.00     0.038 A 
ATOM     12  C   LIG d   1       4.143  -2.541  -2.926  0.00  0.00    -0.017 C 
ATOM     13  C   LIG d   1       4.463  -1.416  -1.938  0.00  0.00    -0.009 C 
ATOM     14  C   LIG d   1       4.252  -0.076  -2.653  0.00  0.00     0.105 C 
ATOM     15  O   LIG d   1       5.207   0.025  -3.711  0.00  0.00    -0.486 OA
ATOM     16  H   LIG d   1       6.347   0.168  -6.023  0.00  0.00     0.069 H 
ATOM     17  H   LIG d   1       3.066  -2.583  -3.091  0.00  0.00     0.032 H 
ATOM     18  H   LIG d   1       4.482  -3.492  -2.514  0.00  0.00     0.032 H 
ATOM     19  H   LIG d   1       3.797  -1.482  -1.078  0.00  0.00     0.031 H 
ATOM     20  H   LIG d   1       5.498  -1.499  -1.609  0.00  0.00     0.031 H 
ENDROOT
BRANCH   2  21
ATOM     21  C   LIG d   1       5.440  -6.596  -7.852  0.00  0.00    -0.012 C 
ATOM     22  H   LIG d   1       4.471  -7.075  -7.987  0.00  0.00     0.032 H 
ATOM     23  H   LIG d   1       5.811  -6.246  -8.816  0.00  0.00     0.032 H 
BRANCH  21  24
ATOM     24  C   LIG d   1       6.430  -7.604  -7.262  0.00  0.00     0.028 C 
ATOM     25  H   LIG d   1       6.306  -7.645  -6.180  0.00  0.00     0.036 H 
ATOM     26  H   LIG d   1       6.241  -8.590  -7.687  0.00  0.00     0.036 H 
BRANCH  24  27
ATOM     27  C   LIG d   1       7.837  -7.177  -7.591  0.00  0.00     0.216 C 
ATOM     28  O   LIG d   1       8.231  -7.215  -8.736  0.00  0.00    -0.276 OA
ATOM     29  N   LIG d   1       8.658  -6.750  -6.610  0.00  0.00    -0.301 N 
ATOM     30  C   LIG d   1      10.033  -6.329  -6.916  0.00  0.00     0.019 C 
ATOM     31  C   LIG d   1       8.192  -6.691  -5.218  0.00  0.00     0.019 C 
ATOM     32  C   LIG d   1      10.252  -4.921  -6.354  0.00  0.00     0.017 C 
ATOM     33  H   LIG d   1      10.737  -7.021  -6.454  0.00  0.00     0.047 H 
ATOM     34  H   LIG d   1      10.181  -6.322  -7.995  0.00  0.00     0.047 H 
ATOM     35  C   LIG d   1       9.904  -4.911  -4.863  0.00  0.00     0.173 C 
ATOM     36  H   LIG d   1      11.297  -4.637  -6.485  0.00  0.00     0.033 H 
ATOM     37  H   LIG d   1       9.614  -4.214  -6.882  0.00  0.00     0.033 H 
ATOM     38  C   LIG d   1       8.433  -5.285  -4.672  0.00  0.00     0.017 C 
ATOM     39  O   LIG d   1      10.733  -5.860  -4.173  0.00  0.00    -0.346 OA
ATOM     40  O   LIG d   1      10.144  -3.606  -4.323  0.00  0.00    -0.346 OA
ATOM     41  H   LIG d   1       8.187  -5.259  -3.609  0.00  0.00     0.033 H 
ATOM     42  H   LIG d   1       7.804  -4.577  -5.209  0.00  0.00     0.033 H 
ATOM     43  C   LIG d   1      11.842  -5.080  -3.664  0.00  0.00     0.074 C 
ATOM     44  C   LIG d   1      11.145  -3.746  -3.295  0.00  0.00     0.074 C 
ATOM     45  H   LIG d   1      12.277  -5.550  -2.782  0.00  0.00     0.058 H 
ATOM     46  H   LIG d   1      12.597  -4.926  -4.435  0.00  0.00     0.058 H 
ATOM     47  H   LIG d   1      10.681  -3.813  -2.311  0.00  0.00     0.058 H 
ATOM     48  H   LIG d   1      11.855  -2.918  -3.332  0.00  0.00     0.058 H 
ATOM     49  H   LIG d   1       7.128  -6.920  -5.178  0.00  0.00     0.047 H 
ATOM     50  H   LIG d   1       8.746  -7.414  -4.617  0.00  0.00     0.047 H 
ENDBRANCH  24  27
ENDBRANCH  21  24
ENDBRANCH   2  21
BRANCH   1  51
ATOM     51  C   LIG d   1       6.473  -4.010  -8.591  0.00  0.00    -0.038 C 
ATOM     52  H   LIG d   1       5.782  -3.539  -9.291  0.00  0.00     0.028 H 
ATOM     53  H   LIG d   1       7.345  -3.371  -8.457  0.00  0.00     0.028 H 
ATOM     54  H   LIG d   1       6.786  -4.977  -8.986  0.00  0.00     0.028 H 
ENDBRANCH   1  51
BRANCH   8  55
ATOM     55  O   LIG d   1       6.745  -1.632  -7.869  0.00  0.00    -0.494 OA
BRANCH  55  56
ATOM     56  C   LIG d   1       7.077  -0.279  -8.191  0.00  0.00     0.079 C 
ATOM     57  H   LIG d   1       6.546   0.396  -7.520  0.00  0.00     0.066 H 
ATOM     58  H   LIG d   1       6.788  -0.069  -9.221  0.00  0.00     0.066 H 
ATOM     59  H   LIG d   1       8.152  -0.132  -8.079  0.00  0.00     0.066 H 
ENDBRANCH  55  56
ENDBRANCH   8  55
BRANCH  14  60
ATOM     60  C   LIG d   1       4.456   1.074  -1.663  0.00  0.00    -0.025 C 
ATOM     61  H   LIG d   1       3.611   1.118  -0.977  0.00  0.00     0.027 H 
ATOM     62  H   LIG d   1       5.374   0.908  -1.099  0.00  0.00     0.027 H 
ATOM     63  H   LIG d   1       4.531   2.014  -2.209  0.00  0.00     0.027 H 
ENDBRANCH  14  60
BRANCH  14  64
ATOM     64  C   LIG d   1       2.836  -0.015  -3.230  0.00  0.00    -0.025 C 
ATOM     65  H   LIG d   1       2.857  -0.322  -4.276  0.00  0.00     0.027 H 
ATOM     66  H   LIG d   1       2.185  -0.684  -2.668  0.00  0.00     0.027 H 
ATOM     67  H   LIG d   1       2.459   1.005  -3.159  0.00  0.00     0.027 H 
ENDBRANCH  14  64
TORSDOF 8
ENDMDL
MODEL 3
REMARK VINA RESULT:      -7.1      3.560      4.734
REMARK  8 active torsions:
REMARK  status: ('A' for Active; 'I' for Inactive)
REMARK    1  A    between atoms: C_1  and  C_2 
REMARK    2  A    between atoms: C_3  and  C_21 
REMARK    3  A    between atoms: C_9  and  O_19 
REMARK    4  A    between atoms: C_15  and  C_17 
REMARK    5  A    between atoms: C_15  and  C_18 
REMARK    6  A    between atoms: O_19  and  C_20 
REMARK    7  A    between atoms: C_21  and  C_22 
REMARK    8  A    between atoms: C_22  and  C_23 
REMARK       I    between atoms: C_23  and  N_25 
ROOT
ATOM      1  C   LIG d   1       7.163  -5.004  -5.814  0.00  0.00    -0.026 A 
ATOM      2  C   LIG d   1       6.147  -5.844  -6.142  0.00  0.00     0.041 A 
ATOM      3  C   LIG d   1       4.838  -5.566  -5.704  0.00  0.00     0.341 A 
ATOM      4  O   LIG d   1       3.932  -6.325  -6.003  0.00  0.00    -0.245 OA
ATOM      5  O   LIG d   1       4.570  -4.478  -4.963  0.00  0.00    -0.421 OA
ATOM      6  C   LIG d   1       5.553  -3.616  -4.616  0.00  0.00     0.149 A 
ATOM      7  C   LIG d   1       6.875  -3.856  -5.033  0.00  0.00     0.063 A 
ATOM      8  C   LIG d   1       7.892  -2.957  -4.671  0.00  0.00     0.135 A 
ATOM      9  C   LIG d   1       7.584  -1.853  -3.904  0.00  0.00     0.023 A 
ATOM     10  C   LIG d   1       6.271  -1.618  -3.493  0.00  0.00     0.131 A 
ATOM     11  C   LIG d   1       5.261  -2.497  -3.847  0.00  0.00     0.038 A 
ATOM     12  C   LIG d   1       3.833  -2.266  -3.421  0.00  0.00    -0.017 C 
ATOM     13  C   LIG d   1       3.795  -1.269  -2.260  0.00  0.00    -0.009 C 
ATOM     14  C   LIG d   1       4.673  -0.068  -2.630  0.00  0.00     0.105 C 
ATOM     15  O   LIG d   1       6.025  -0.516  -2.739  0.00  0.00    -0.486 OA
ATOM     16  H   LIG d   1       8.365  -1.163  -3.622  0.00  0.00     0.069 H 
ATOM     17  H   LIG d   1       3.263  -1.868  -4.260  0.00  0.00     0.032 H 
ATOM     18  H   LIG d   1       3.393  -3.212  -3.102  0.00  0.00     0.032 H 
ATOM     19  H   LIG d   1       2.770  -0.939  -2.094  0.00  0.00     0.031 H 
ATOM     20  H   LIG d   1       4.179  -1.743  -1.356  0.00  0.00     0.031 H 
ENDROOT
BRANCH   2  21
ATOM     21  C   LIG d   1       6.422  -7.072  -6.972  0.00  0.00    -0.012 C 
ATOM     22  H   LIG d   1       7.298  -7.587  -6.580  0.00  0.00     0.032 H 
ATOM     23  H   LIG d   1       5.560  -7.739  -6.931  0.00  0.00     0.032 H 
BRANCH  21  24
ATOM     24  C   LIG d   1       6.679  -6.659  -8.423  0.00  0.00     0.028 C 
ATOM     25  H   LIG d   1       7.272  -5.745  -8.441  0.00  0.00     0.036 H 
ATOM     26  H   LIG d   1       7.219  -7.454  -8.937  0.00  0.00     0.036 H 
BRANCH  24  27
ATOM     27  C   LIG d   1       5.362  -6.418  -9.116  0.00  0.00     0.216 C 
ATOM     28  O   LIG d   1       4.626  -7.349  -9.362  0.00  0.00    -0.276 OA
ATOM     29  N   LIG d   1       5.003  -5.165  -9.461  0.00  0.00    -0.301 N 
ATOM     30  C   LIG d   1       3.722  -4.915 -10.137  0.00  0.00     0.019 C 
ATOM     31  C   LIG d   1       5.881  -4.026  -9.164  0.00  0.00     0.019 C 
ATOM     32  C   LIG d   1       2.948  -3.856  -9.347  0.00  0.00     0.017 C 
ATOM     33  H   LIG d   1       3.907  -4.554 -11.149  0.00  0.00     0.047 H 
ATOM     34  H   LIG d   1       3.144  -5.838 -10.179  0.00  0.00     0.047 H 
ATOM     35  C   LIG d   1       3.824  -2.613  -9.172  0.00  0.00     0.173 C 
ATOM     36  H   LIG d   1       2.041  -3.587  -9.890  0.00  0.00     0.033 H 
ATOM     37  H   LIG d   1       2.681  -4.254  -8.368  0.00  0.00     0.033 H 
ATOM     38  C   LIG d   1       5.087  -2.976  -8.389  0.00  0.00     0.017 C 
ATOM     39  O   LIG d   1       4.193  -2.104 -10.464  0.00  0.00    -0.346 OA
ATOM     40  O   LIG d   1       3.093  -1.604  -8.466  0.00  0.00    -0.346 OA
ATOM     41  H   LIG d   1       5.699  -2.083  -8.253  0.00  0.00     0.033 H 
ATOM     42  H   LIG d   1       4.810  -3.379  -7.415  0.00  0.00     0.033 H 
ATOM     43  C   LIG d   1       3.217  -1.070 -10.744  0.00  0.00     0.074 C 
ATOM     44  C   LIG d   1       2.993  -0.459  -9.338  0.00  0.00     0.074 C 
ATOM     45  H   LIG d   1       3.623  -0.328 -11.431  0.00  0.00     0.058 H 
ATOM     46  H   LIG d   1       2.295  -1.499 -11.136  0.00  0.00     0.058 H 
ATOM     47  H   LIG d   1       3.768   0.271  -9.106  0.00  0.00     0.058 H 
ATOM     48  H   LIG d   1       2.003  -0.007  -9.269  0.00  0.00     0.058 H 
ATOM     49  H   LIG d   1       6.725  -4.362  -8.563  0.00  0.00     0.047 H 
ATOM     50  H   LIG d   1       6.244  -3.591 -10.096  0.00  0.00     0.047 H 
ENDBRANCH  24  27
ENDBRANCH  21  24
ENDBRANCH   2  21
BRANCH   1  51
ATOM     51  C   LIG d   1       8.571  -5.285  -6.274  0.00  0.00    -0.038 C 
ATOM     52  H   LIG d   1       8.634  -6.308  -6.644  0.00  0.00     0.028 H 
ATOM     53  H   LIG d   1       8.837  -4.592  -7.073  0.00  0.00     0.028 H 
ATOM     54  H   LIG d   1       9.258  -5.158  -5.437  0.00  0.00     0.028 H 
ENDBRANCH   1  51
BRANCH   8  55
ATOM     55  O   LIG d   1       9.171  -3.177  -5.069  0.00  0.00    -0.494 OA
BRANCH  55  56
ATOM     56  C   LIG d   1       9.993  -2.025  -5.278  0.00  0.00     0.079 C 
ATOM     57  H   LIG d   1       9.546  -1.394  -6.045  0.00  0.00     0.066 H 
ATOM     58  H   LIG d   1      10.985  -2.341  -5.598  0.00  0.00     0.066 H 
ATOM     59  H   LIG d   1      10.074  -1.464  -4.347  0.00  0.00     0.066 H 
ENDBRANCH  55  56
ENDBRANCH   8  55
BRANCH  14  60
ATOM     60  C   LIG d   1       4.571   1.000  -1.538  0.00  0.00    -0.025 C 
ATOM     61  H   LIG d   1       3.633   1.543  -1.647  0.00  0.00     0.027 H 
ATOM     62  H   LIG d   1       4.602   0.522  -0.559  0.00  0.00     0.027 H 
ATOM     63  H   LIG d   1       5.406   1.694  -1.631  0.00  0.00     0.027 H 
ENDBRANCH  14  60
BRANCH  14  64
ATOM     64  C   LIG d   1       4.214   0.515  -3.968  0.00  0.00    -0.025 C 
ATOM     65  H   LIG d   1       5.046   1.041  -4.439  0.00  0.00     0.027 H 
ATOM     66  H   LIG d   1       3.878  -0.290  -4.620  0.00  0.00     0.027 H 
ATOM     67  H   LIG d   1       3.394   1.212  -3.797  0.00  0.00     0.027 H 
ENDBRANCH  14  64
TORSDOF 8
ENDMDL
MODEL 4
REMARK VINA RESULT:      -7.1      5.239      7.460
REMARK  8 active torsions:
REMARK  status: ('A' for Active; 'I' for Inactive)
REMARK    1  A    between atoms: C_1  and  C_2 
REMARK    2  A    between atoms: C_3  and  C_21 
REMARK    3  A    between atoms: C_9  and  O_19 
REMARK    4  A    between atoms: C_15  and  C_17 
REMARK    5  A    between atoms: C_15  and  C_18 
REMARK    6  A    between atoms: O_19  and  C_20 
REMARK    7  A    between atoms: C_21  and  C_22 
REMARK    8  A    between atoms: C_22  and  C_23 
REMARK       I    between atoms: C_23  and  N_25 
ROOT
ATOM      1  C   LIG d   1       6.937  -4.619  -6.345  0.00  0.00    -0.026 A 
ATOM      2  C   LIG d   1       6.013  -5.613  -6.401  0.00  0.00     0.041 A 
ATOM      3  C   LIG d   1       4.839  -5.525  -5.628  0.00  0.00     0.341 A 
ATOM      4  O   LIG d   1       4.015  -6.420  -5.684  0.00  0.00    -0.245 OA
ATOM      5  O   LIG d   1       4.613  -4.468  -4.829  0.00  0.00    -0.421 OA
ATOM      6  C   LIG d   1       5.507  -3.457  -4.745  0.00  0.00     0.149 A 
ATOM      7  C   LIG d   1       6.692  -3.505  -5.501  0.00  0.00     0.063 A 
ATOM      8  C   LIG d   1       7.617  -2.451  -5.413  0.00  0.00     0.135 A 
ATOM      9  C   LIG d   1       7.356  -1.385  -4.579  0.00  0.00     0.023 A 
ATOM     10  C   LIG d   1       6.178  -1.341  -3.830  0.00  0.00     0.131 A 
ATOM     11  C   LIG d   1       5.259  -2.372  -3.914  0.00  0.00     0.038 A 
ATOM     12  C   LIG d   1       3.977  -2.349  -3.121  0.00  0.00    -0.017 C 
ATOM     13  C   LIG d   1       4.093  -1.336  -1.979  0.00  0.00    -0.009 C 
ATOM     14  C   LIG d   1       4.646  -0.027  -2.556  0.00  0.00     0.105 C 
ATOM     15  O   LIG d   1       5.973  -0.266  -3.026  0.00  0.00    -0.486 OA
ATOM     16  H   LIG d   1       8.067  -0.576  -4.506  0.00  0.00     0.069 H 
ATOM     17  H   LIG d   1       3.151  -2.067  -3.773  0.00  0.00     0.032 H 
ATOM     18  H   LIG d   1       3.788  -3.340  -2.707  0.00  0.00     0.032 H 
ATOM     19  H   LIG d   1       3.110  -1.160  -1.543  0.00  0.00     0.031 H 
ATOM     20  H   LIG d   1       4.771  -1.718  -1.216  0.00  0.00     0.031 H 
ENDROOT
BRANCH   2  21
ATOM     21  C   LIG d   1       6.245  -6.809  -7.288  0.00  0.00    -0.012 C 
ATOM     22  H   LIG d   1       5.287  -7.244  -7.571  0.00  0.00     0.032 H 
ATOM     23  H   LIG d   1       6.782  -6.498  -8.185  0.00  0.00     0.032 H 
BRANCH  21  24
ATOM     24  C   LIG d   1       7.075  -7.850  -6.533  0.00  0.00     0.028 C 
ATOM     25  H   LIG d   1       7.857  -8.235  -7.186  0.00  0.00     0.036 H 
ATOM     26  H   LIG d   1       7.528  -7.386  -5.657  0.00  0.00     0.036 H 
BRANCH  24  27
ATOM     27  C   LIG d   1       6.182  -8.982  -6.096  0.00  0.00     0.216 C 
ATOM     28  O   LIG d   1       5.382  -9.459  -6.872  0.00  0.00    -0.276 OA
ATOM     29  N   LIG d   1       6.272  -9.465  -4.840  0.00  0.00    -0.301 N 
ATOM     30  C   LIG d   1       5.408 -10.569  -4.400  0.00  0.00     0.019 C 
ATOM     31  C   LIG d   1       7.241  -8.901  -3.890  0.00  0.00     0.019 C 
ATOM     32  C   LIG d   1       6.289 -11.686  -3.832  0.00  0.00     0.017 C 
ATOM     33  H   LIG d   1       4.726 -10.213  -3.628  0.00  0.00     0.047 H 
ATOM     34  H   LIG d   1       4.836 -10.946  -5.247  0.00  0.00     0.047 H 
ATOM     35  C   LIG d   1       7.191 -11.113  -2.736  0.00  0.00     0.173 C 
ATOM     36  H   LIG d   1       5.656 -12.469  -3.410  0.00  0.00     0.033 H 
ATOM     37  H   LIG d   1       6.904 -12.106  -4.628  0.00  0.00     0.033 H 
ATOM     38  C   LIG d   1       8.099 -10.032  -3.325  0.00  0.00     0.017 C 
ATOM     39  O   LIG d   1       6.377 -10.541  -1.699  0.00  0.00    -0.346 OA
ATOM     40  O   LIG d   1       7.990 -12.161  -2.174  0.00  0.00    -0.346 OA
ATOM     41  H   LIG d   1       8.751  -9.640  -2.543  0.00  0.00     0.033 H 
ATOM     42  H   LIG d   1       8.704 -10.459  -4.124  0.00  0.00     0.033 H 
ATOM     43  C   LIG d   1       6.257 -11.588  -0.705  0.00  0.00     0.074 C 
ATOM     44  C   LIG d   1       7.656 -12.250  -0.774  0.00  0.00     0.074 C 
ATOM     45  H   LIG d   1       6.072 -11.168   0.283  0.00  0.00     0.058 H 
ATOM     46  H   LIG d   1       5.475 -12.298  -0.978  0.00  0.00     0.058 H 
ATOM     47  H   LIG d   1       8.375 -11.696  -0.171  0.00  0.00     0.058 H 
ATOM     48  H   LIG d   1       7.605 -13.291  -0.456  0.00  0.00     0.058 H 
ATOM     49  H   LIG d   1       7.878  -8.181  -4.402  0.00  0.00     0.047 H 
ATOM     50  H   LIG d   1       6.708  -8.408  -3.076  0.00  0.00     0.047 H 
ENDBRANCH  24  27
ENDBRANCH  21  24
ENDBRANCH   2  21
BRANCH   1  51
ATOM     51  C   LIG d   1       8.199  -4.696  -7.166  0.00  0.00    -0.038 C 
ATOM     52  H   LIG d   1       8.560  -5.724  -7.181  0.00  0.00     0.028 H 
ATOM     53  H   LIG d   1       7.990  -4.369  -8.185  0.00  0.00     0.028 H 
ATOM     54  H   LIG d   1       8.959  -4.051  -6.725  0.00  0.00     0.028 H 
ENDBRANCH   1  51
BRANCH   8  55
ATOM     55  O   LIG d   1       8.763  -2.486  -6.139  0.00  0.00    -0.494 OA
BRANCH  55  56
ATOM     56  C   LIG d   1       9.870  -1.731  -5.641  0.00  0.00     0.079 C 
ATOM     57  H   LIG d   1      10.298  -1.136  -6.448  0.00  0.00     0.066 H 
ATOM     58  H   LIG d   1      10.627  -2.411  -5.250  0.00  0.00     0.066 H 
ATOM     59  H   LIG d   1       9.530  -1.070  -4.843  0.00  0.00     0.066 H 
ENDBRANCH  55  56
ENDBRANCH   8  55
BRANCH  14  60
ATOM     60  C   LIG d   1       4.672   1.046  -1.463  0.00  0.00    -0.025 C 
ATOM     61  H   LIG d   1       5.678   1.456  -1.380  0.00  0.00     0.027 H 
ATOM     62  H   LIG d   1       3.976   1.844  -1.721  0.00  0.00     0.027 H 
ATOM     63  H   LIG d   1       4.380   0.602  -0.512  0.00  0.00     0.027 H 
ENDBRANCH  14  60
BRANCH  14  64
ATOM     64  C   LIG d   1       3.765   0.440  -3.716  0.00  0.00    -0.025 C 
ATOM     65  H   LIG d   1       4.316   0.342  -4.652  0.00  0.00     0.027 H 
ATOM     66  H   LIG d   1       2.865  -0.172  -3.759  0.00  0.00     0.027 H 
ATOM     67  H   LIG d   1       3.489   1.484  -3.565  0.00  0.00     0.027 H 
ENDBRANCH  14  64
TORSDOF 8
ENDMDL
MODEL 5
REMARK VINA RESULT:      -7.0      4.376      6.778
REMARK  8 active torsions:
REMARK  status: ('A' for Active; 'I' for Inactive)
REMARK    1  A    between atoms: C_1  and  C_2 
REMARK    2  A    between atoms: C_3  and  C_21 
REMARK    3  A    between atoms: C_9  and  O_19 
REMARK    4  A    between atoms: C_15  and  C_17 
REMARK    5  A    between atoms: C_15  and  C_18 
REMARK    6  A    between atoms: O_19  and  C_20 
REMARK    7  A    between atoms: C_21  and  C_22 
REMARK    8  A    between atoms: C_22  and  C_23 
REMARK       I    between atoms: C_23  and  N_25 
ROOT
ATOM      1  C   LIG d   1       6.360  -2.173  -4.518  0.00  0.00    -0.026 A 
ATOM      2  C   LIG d   1       7.077  -3.010  -5.312  0.00  0.00     0.041 A 
ATOM      3  C   LIG d   1       8.286  -2.569  -5.885  0.00  0.00     0.341 A 
ATOM      4  O   LIG d   1       8.924  -3.326  -6.596  0.00  0.00    -0.245 OA
ATOM      5  O   LIG d   1       8.747  -1.327  -5.661  0.00  0.00    -0.421 OA
ATOM      6  C   LIG d   1       8.064  -0.464  -4.876  0.00  0.00     0.149 A 
ATOM      7  C   LIG d   1       6.853  -0.864  -4.284  0.00  0.00     0.063 A 
ATOM      8  C   LIG d   1       6.147   0.036  -3.467  0.00  0.00     0.135 A 
ATOM      9  C   LIG d   1       6.646   1.305  -3.263  0.00  0.00     0.023 A 
ATOM     10  C   LIG d   1       7.849   1.698  -3.853  0.00  0.00     0.131 A 
ATOM     11  C   LIG d   1       8.553   0.817  -4.656  0.00  0.00     0.038 A 
ATOM     12  C   LIG d   1       9.857   1.213  -5.301  0.00  0.00    -0.017 C 
ATOM     13  C   LIG d   1       9.992   2.738  -5.302  0.00  0.00    -0.009 C 
ATOM     14  C   LIG d   1       9.665   3.248  -3.893  0.00  0.00     0.105 C 
ATOM     15  O   LIG d   1       8.293   2.959  -3.617  0.00  0.00    -0.486 OA
ATOM     16  H   LIG d   1       6.104   2.000  -2.640  0.00  0.00     0.069 H 
ATOM     17  H   LIG d   1      10.686   0.776  -4.745  0.00  0.00     0.032 H 
ATOM     18  H   LIG d   1       9.878   0.847  -6.329  0.00  0.00     0.032 H 
ATOM     19  H   LIG d   1      11.012   3.016  -5.565  0.00  0.00     0.031 H 
ATOM     20  H   LIG d   1       9.296   3.169  -6.021  0.00  0.00     0.031 H 
ENDROOT
BRANCH   2  21
ATOM     21  C   LIG d   1       6.579  -4.407  -5.579  0.00  0.00    -0.012 C 
ATOM     22  H   LIG d   1       7.353  -5.126  -5.313  0.00  0.00     0.032 H 
ATOM     23  H   LIG d   1       5.686  -4.595  -4.982  0.00  0.00     0.032 H 
BRANCH  21  24
ATOM     24  C   LIG d   1       6.239  -4.550  -7.065  0.00  0.00     0.028 C 
ATOM     25  H   LIG d   1       7.000  -4.049  -7.662  0.00  0.00     0.036 H 
ATOM     26  H   LIG d   1       6.206  -5.607  -7.330  0.00  0.00     0.036 H 
BRANCH  24  27
ATOM     27  C   LIG d   1       4.895  -3.924  -7.334  0.00  0.00     0.216 C 
ATOM     28  O   LIG d   1       3.888  -4.434  -6.892  0.00  0.00    -0.276 OA
ATOM     29  N   LIG d   1       4.813  -2.795  -8.066  0.00  0.00    -0.301 N 
ATOM     30  C   LIG d   1       3.509  -2.172  -8.336  0.00  0.00     0.019 C 
ATOM     31  C   LIG d   1       6.025  -2.161  -8.603  0.00  0.00     0.019 C 
ATOM     32  C   LIG d   1       3.565  -0.705  -7.899  0.00  0.00     0.017 C 
ATOM     33  H   LIG d   1       3.292  -2.228  -9.402  0.00  0.00     0.047 H 
ATOM     34  H   LIG d   1       2.732  -2.693  -7.777  0.00  0.00     0.047 H 
ATOM     35  C   LIG d   1       4.749  -0.017  -8.584  0.00  0.00     0.173 C 
ATOM     36  H   LIG d   1       2.639  -0.205  -8.185  0.00  0.00     0.033 H 
ATOM     37  H   LIG d   1       3.688  -0.651  -6.817  0.00  0.00     0.033 H 
ATOM     38  C   LIG d   1       6.055  -0.697  -8.168  0.00  0.00     0.017 C 
ATOM     39  O   LIG d   1       4.594  -0.109 -10.009  0.00  0.00    -0.346 OA
ATOM     40  O   LIG d   1       4.784   1.365  -8.209  0.00  0.00    -0.346 OA
ATOM     41  H   LIG d   1       6.895  -0.191  -8.646  0.00  0.00     0.033 H 
ATOM     42  H   LIG d   1       6.165  -0.644  -7.086  0.00  0.00     0.033 H 
ATOM     43  C   LIG d   1       3.968   1.139 -10.394  0.00  0.00     0.074 C 
ATOM     44  C   LIG d   1       4.634   2.140  -9.416  0.00  0.00     0.074 C 
ATOM     45  H   LIG d   1       4.202   1.390 -11.428  0.00  0.00     0.058 H 
ATOM     46  H   LIG d   1       2.890   1.099 -10.238  0.00  0.00     0.058 H 
ATOM     47  H   LIG d   1       5.606   2.458  -9.793  0.00  0.00     0.058 H 
ATOM     48  H   LIG d   1       3.985   2.999  -9.245  0.00  0.00     0.058 H 
ATOM     49  H   LIG d   1       6.906  -2.673  -8.218  0.00  0.00     0.047 H 
ATOM     50  H   LIG d   1       6.014  -2.216  -9.692  0.00  0.00     0.047 H 
ENDBRANCH  24  27
ENDBRANCH  21  24
ENDBRANCH   2  21
BRANCH   1  51
ATOM     51  C   LIG d   1       5.065  -2.627  -3.895  0.00  0.00    -0.038 C 
ATOM     52  H   LIG d   1       4.540  -3.285  -4.588  0.00  0.00     0.028 H 
ATOM     53  H   LIG d   1       5.275  -3.166  -2.971  0.00  0.00     0.028 H 
ATOM     54  H   LIG d   1       4.442  -1.759  -3.677  0.00  0.00     0.028 H 
ENDBRANCH   1  51
BRANCH   8  55
ATOM     55  O   LIG d   1       4.978  -0.339  -2.888  0.00  0.00    -0.494 OA
BRANCH  55  56
ATOM     56  C   LIG d   1       4.489   0.479  -1.823  0.00  0.00     0.079 C 
ATOM     57  H   LIG d   1       3.476   0.810  -2.054  0.00  0.00     0.066 H 
ATOM     58  H   LIG d   1       5.137   1.347  -1.705  0.00  0.00     0.066 H 
ATOM     59  H   LIG d   1       4.481  -0.096  -0.897  0.00  0.00     0.066 H 
ENDBRANCH  55  56
ENDBRANCH   8  55
BRANCH  14  60
ATOM     60  C   LIG d   1       9.897   4.760  -3.826  0.00  0.00    -0.025 C 
ATOM     61  H   LIG d   1      10.331   5.019  -2.861  0.00  0.00     0.027 H 
ATOM     62  H   LIG d   1      10.579   5.057  -4.622  0.00  0.00     0.027 H 
ATOM     63  H   LIG d   1       8.946   5.278  -3.949  0.00  0.00     0.027 H 
ENDBRANCH  14  60
BRANCH  14  64
ATOM     64  C   LIG d   1      10.555   2.543  -2.868  0.00  0.00    -0.025 C 
ATOM     65  H   LIG d   1      10.811   3.241  -2.069  0.00  0.00     0.027 H 
ATOM     66  H   LIG d   1      10.022   1.690  -2.448  0.00  0.00     0.027 H 
ATOM     67  H   LIG d   1      11.467   2.199  -3.355  0.00  0.00     0.027 H 
ENDBRANCH  14  64
TORSDOF 8
ENDMDL
MODEL 6
REMARK VINA RESULT:      -6.9      7.110     12.712
REMARK  8 active torsions:
REMARK  status: ('A' for Active; 'I' for Inactive)
REMARK    1  A    between atoms: C_1  and  C_2 
REMARK    2  A    between atoms: C_3  and  C_21 
REMARK    3  A    between atoms: C_9  and  O_19 
REMARK    4  A    between atoms: C_15  and  C_17 
REMARK    5  A    between atoms: C_15  and  C_18 
REMARK    6  A    between atoms: O_19  and  C_20 
REMARK    7  A    between atoms: C_21  and  C_22 
REMARK    8  A    between atoms: C_22  and  C_23 
REMARK       I    between atoms: C_23  and  N_25 
ROOT
ATOM      1  C   LIG d   1       9.191   1.237  -5.707  0.00  0.00    -0.026 A 
ATOM      2  C   LIG d   1       9.780   2.163  -4.906  0.00  0.00     0.041 A 
ATOM      3  C   LIG d   1       9.125   2.600  -3.738  0.00  0.00     0.341 A 
ATOM      4  O   LIG d   1       9.660   3.430  -3.025  0.00  0.00    -0.245 OA
ATOM      5  O   LIG d   1       7.919   2.115  -3.397  0.00  0.00    -0.421 OA
ATOM      6  C   LIG d   1       7.299   1.191  -4.166  0.00  0.00     0.149 A 
ATOM      7  C   LIG d   1       7.919   0.728  -5.340  0.00  0.00     0.063 A 
ATOM      8  C   LIG d   1       7.272  -0.234  -6.136  0.00  0.00     0.135 A 
ATOM      9  C   LIG d   1       6.032  -0.705  -5.759  0.00  0.00     0.023 A 
ATOM     10  C   LIG d   1       5.421  -0.243  -4.592  0.00  0.00     0.131 A 
ATOM     11  C   LIG d   1       6.052   0.701  -3.801  0.00  0.00     0.038 A 
ATOM     12  C   LIG d   1       5.418   1.215  -2.533  0.00  0.00    -0.017 C 
ATOM     13  C   LIG d   1       3.919   0.902  -2.541  0.00  0.00    -0.009 C 
ATOM     14  C   LIG d   1       3.740  -0.571  -2.929  0.00  0.00     0.105 C 
ATOM     15  O   LIG d   1       4.200  -0.742  -4.270  0.00  0.00    -0.486 OA
ATOM     16  H   LIG d   1       5.531  -1.441  -6.370  0.00  0.00     0.069 H 
ATOM     17  H   LIG d   1       5.884   0.736  -1.673  0.00  0.00     0.032 H 
ATOM     18  H   LIG d   1       5.562   2.294  -2.467  0.00  0.00     0.032 H 
ATOM     19  H   LIG d   1       3.503   1.074  -1.548  0.00  0.00     0.031 H 
ATOM     20  H   LIG d   1       3.414   1.539  -3.267  0.00  0.00     0.031 H 
ENDROOT
BRANCH   2  21
ATOM     21  C   LIG d   1      11.132   2.723  -5.268  0.00  0.00    -0.012 C 
ATOM     22  H   LIG d   1      11.664   3.005  -4.360  0.00  0.00     0.032 H 
ATOM     23  H   LIG d   1      11.706   1.968  -5.806  0.00  0.00     0.032 H 
BRANCH  21  24
ATOM     24  C   LIG d   1      10.950   3.955  -6.158  0.00  0.00     0.028 C 
ATOM     25  H   LIG d   1      11.227   3.708  -7.182  0.00  0.00     0.036 H 
ATOM     26  H   LIG d   1       9.909   4.274  -6.128  0.00  0.00     0.036 H 
BRANCH  24  27
ATOM     27  C   LIG d   1      11.830   5.070  -5.654  0.00  0.00     0.216 C 
ATOM     28  O   LIG d   1      13.036   4.974  -5.732  0.00  0.00    -0.276 OA
ATOM     29  N   LIG d   1      11.276   6.176  -5.118  0.00  0.00    -0.301 N 
ATOM     30  C   LIG d   1      12.121   7.272  -4.624  0.00  0.00     0.019 C 
ATOM     31  C   LIG d   1       9.816   6.310  -5.023  0.00  0.00     0.019 C 
ATOM     32  C   LIG d   1      11.675   8.576  -5.291  0.00  0.00     0.017 C 
ATOM     33  H   LIG d   1      12.012   7.358  -3.543  0.00  0.00     0.047 H 
ATOM     34  H   LIG d   1      13.163   7.070  -4.871  0.00  0.00     0.047 H 
ATOM     35  C   LIG d   1      10.176   8.778  -5.057  0.00  0.00     0.173 C 
ATOM     36  H   LIG d   1      12.227   9.412  -4.859  0.00  0.00     0.033 H 
ATOM     37  H   LIG d   1      11.873   8.525  -6.361  0.00  0.00     0.033 H 
ATOM     38  C   LIG d   1       9.393   7.622  -5.681  0.00  0.00     0.017 C 
ATOM     39  O   LIG d   1       9.916   8.824  -3.644  0.00  0.00    -0.346 OA
ATOM     40  O   LIG d   1       9.760  10.016  -5.646  0.00  0.00    -0.346 OA
ATOM     41  H   LIG d   1       8.325   7.781  -5.526  0.00  0.00     0.033 H 
ATOM     42  H   LIG d   1       9.603   7.575  -6.749  0.00  0.00     0.033 H 
ATOM     43  C   LIG d   1       9.904  10.236  -3.317  0.00  0.00     0.074 C 
ATOM     44  C   LIG d   1       9.250  10.846  -4.582  0.00  0.00     0.074 C 
ATOM     45  H   LIG d   1       9.296  10.425  -2.433  0.00  0.00     0.058 H 
ATOM     46  H   LIG d   1      10.917  10.613  -3.180  0.00  0.00     0.058 H 
ATOM     47  H   LIG d   1       8.164  10.777  -4.526  0.00  0.00     0.058 H 
ATOM     48  H   LIG d   1       9.565  11.881  -4.716  0.00  0.00     0.058 H 
ATOM     49  H   LIG d   1       9.338   5.475  -5.535  0.00  0.00     0.047 H 
ATOM     50  H   LIG d   1       9.517   6.317  -3.974  0.00  0.00     0.047 H 
ENDBRANCH  24  27
ENDBRANCH  21  24
ENDBRANCH   2  21
BRANCH   1  51
ATOM     51  C   LIG d   1       9.877   0.757  -6.960  0.00  0.00    -0.038 C 
ATOM     52  H   LIG d   1      10.686   0.077  -6.693  0.00  0.00     0.028 H 
ATOM     53  H   LIG d   1       9.157   0.236  -7.591  0.00  0.00     0.028 H 
ATOM     54  H   LIG d   1      10.284   1.612  -7.501  0.00  0.00     0.028 H 
ENDBRANCH   1  51
BRANCH   8  55
ATOM     55  O   LIG d   1       7.861  -0.690  -7.270  0.00  0.00    -0.494 OA
BRANCH  55  56
ATOM     56  C   LIG d   1       7.224  -1.782  -7.938  0.00  0.00     0.079 C 
ATOM     57  H   LIG d   1       7.980  -2.413  -8.405  0.00  0.00     0.066 H 
ATOM     58  H   LIG d   1       6.549  -1.397  -8.702  0.00  0.00     0.066 H 
ATOM     59  H   LIG d   1       6.657  -2.369  -7.215  0.00  0.00     0.066 H 
ENDBRANCH  55  56
ENDBRANCH   8  55
BRANCH  14  60
ATOM     60  C   LIG d   1       2.259  -0.950  -2.840  0.00  0.00    -0.025 C 
ATOM     61  H   LIG d   1       1.859  -0.629  -1.879  0.00  0.00     0.027 H 
ATOM     62  H   LIG d   1       1.710  -0.459  -3.644  0.00  0.00     0.027 H 
ATOM     63  H   LIG d   1       2.155  -2.030  -2.936  0.00  0.00     0.027 H 
ENDBRANCH  14  60
BRANCH  14  64
ATOM     64  C   LIG d   1       4.557  -1.457  -1.987  0.00  0.00    -0.025 C 
ATOM     65  H   LIG d   1       5.586  -1.514  -2.344  0.00  0.00     0.027 H 
ATOM     66  H   LIG d   1       4.543  -1.031  -0.984  0.00  0.00     0.027 H 
ATOM     67  H   LIG d   1       4.124  -2.457  -1.964  0.00  0.00     0.027 H 
ENDBRANCH  14  64
TORSDOF 8
ENDMDL
MODEL 7
REMARK VINA RESULT:      -6.9      4.670      7.584
REMARK  8 active torsions:
REMARK  status: ('A' for Active; 'I' for Inactive)
REMARK    1  A    between atoms: C_1  and  C_2 
REMARK    2  A    between atoms: C_3  and  C_21 
REMARK    3  A    between atoms: C_9  and  O_19 
REMARK    4  A    between atoms: C_15  and  C_17 
REMARK    5  A    between atoms: C_15  and  C_18 
REMARK    6  A    between atoms: O_19  and  C_20 
REMARK    7  A    between atoms: C_21  and  C_22 
REMARK    8  A    between atoms: C_22  and  C_23 
REMARK       I    between atoms: C_23  and  N_25 
ROOT
ATOM      1  C   LIG d   1       7.226  -0.962  -3.787  0.00  0.00    -0.026 A 
ATOM      2  C   LIG d   1       6.129  -0.441  -3.178  0.00  0.00     0.041 A 
ATOM      3  C   LIG d   1       5.987   0.955  -3.062  0.00  0.00     0.341 A 
ATOM      4  O   LIG d   1       5.000   1.415  -2.515  0.00  0.00    -0.245 OA
ATOM      5  O   LIG d   1       6.923   1.790  -3.546  0.00  0.00    -0.421 OA
ATOM      6  C   LIG d   1       8.029   1.312  -4.160  0.00  0.00     0.149 A 
ATOM      7  C   LIG d   1       8.209  -0.076  -4.297  0.00  0.00     0.063 A 
ATOM      8  C   LIG d   1       9.359  -0.569  -4.937  0.00  0.00     0.135 A 
ATOM      9  C   LIG d   1      10.302   0.315  -5.416  0.00  0.00     0.023 A 
ATOM     10  C   LIG d   1      10.119   1.693  -5.279  0.00  0.00     0.131 A 
ATOM     11  C   LIG d   1       8.987   2.187  -4.653  0.00  0.00     0.038 A 
ATOM     12  C   LIG d   1       8.761   3.669  -4.495  0.00  0.00    -0.017 C 
ATOM     13  C   LIG d   1      10.082   4.418  -4.693  0.00  0.00    -0.009 C 
ATOM     14  C   LIG d   1      10.744   3.890  -5.972  0.00  0.00     0.105 C 
ATOM     15  O   LIG d   1      11.080   2.517  -5.770  0.00  0.00    -0.486 OA
ATOM     16  H   LIG d   1      11.189  -0.060  -5.905  0.00  0.00     0.069 H 
ATOM     17  H   LIG d   1       8.037   4.008  -5.236  0.00  0.00     0.032 H 
ATOM     18  H   LIG d   1       8.376   3.872  -3.495  0.00  0.00     0.032 H 
ATOM     19  H   LIG d   1       9.886   5.486  -4.794  0.00  0.00     0.031 H 
ATOM     20  H   LIG d   1      10.736   4.243  -3.839  0.00  0.00     0.031 H 
ENDROOT
BRANCH   2  21
ATOM     21  C   LIG d   1       5.067  -1.357  -2.625  0.00  0.00    -0.012 C 
ATOM     22  H   LIG d   1       5.461  -2.369  -2.552  0.00  0.00     0.032 H 
ATOM     23  H   LIG d   1       4.767  -1.010  -1.636  0.00  0.00     0.032 H 
BRANCH  21  24
ATOM     24  C   LIG d   1       3.852  -1.348  -3.558  0.00  0.00     0.028 C 
ATOM     25  H   LIG d   1       2.996  -1.783  -3.043  0.00  0.00     0.036 H 
ATOM     26  H   LIG d   1       3.622  -0.322  -3.844  0.00  0.00     0.036 H 
BRANCH  24  27
ATOM     27  C   LIG d   1       4.162  -2.156  -4.792  0.00  0.00     0.216 C 
ATOM     28  O   LIG d   1       4.293  -3.359  -4.713  0.00  0.00    -0.276 OA
ATOM     29  N   LIG d   1       4.293  -1.541  -5.984  0.00  0.00    -0.301 N 
ATOM     30  C   LIG d   1       4.595  -2.316  -7.196  0.00  0.00     0.019 C 
ATOM     31  C   LIG d   1       4.131  -0.085  -6.096  0.00  0.00     0.019 C 
ATOM     32  C   LIG d   1       3.543  -1.992  -8.261  0.00  0.00     0.017 C 
ATOM     33  H   LIG d   1       5.584  -2.046  -7.565  0.00  0.00     0.047 H 
ATOM     34  H   LIG d   1       4.568  -3.381  -6.965  0.00  0.00     0.047 H 
ATOM     35  C   LIG d   1       3.489  -0.477  -8.475  0.00  0.00     0.173 C 
ATOM     36  H   LIG d   1       3.811  -2.482  -9.198  0.00  0.00     0.033 H 
ATOM     37  H   LIG d   1       2.567  -2.348  -7.930  0.00  0.00     0.033 H 
ATOM     38  C   LIG d   1       3.090   0.217  -7.172  0.00  0.00     0.017 C 
ATOM     39  O   LIG d   1       4.783  -0.008  -8.890  0.00  0.00    -0.346 OA
ATOM     40  O   LIG d   1       2.534  -0.169  -9.498  0.00  0.00    -0.346 OA
ATOM     41  H   LIG d   1       3.037   1.295  -7.336  0.00  0.00     0.033 H 
ATOM     42  H   LIG d   1       2.117  -0.150  -6.847  0.00  0.00     0.033 H 
ATOM     43  C   LIG d   1       4.713   0.036 -10.336  0.00  0.00     0.074 C 
ATOM     44  C   LIG d   1       3.248   0.485 -10.567  0.00  0.00     0.074 C 
ATOM     45  H   LIG d   1       5.413   0.768 -10.738  0.00  0.00     0.058 H 
ATOM     46  H   LIG d   1       4.892  -0.950 -10.766  0.00  0.00     0.058 H 
ATOM     47  H   LIG d   1       3.159   1.568 -10.484  0.00  0.00     0.058 H 
ATOM     48  H   LIG d   1       2.889   0.140 -11.538  0.00  0.00     0.058 H 
ATOM     49  H   LIG d   1       3.797   0.320  -5.142  0.00  0.00     0.047 H 
ATOM     50  H   LIG d   1       5.083   0.368  -6.375  0.00  0.00     0.047 H 
ENDBRANCH  24  27
ENDBRANCH  21  24
ENDBRANCH   2  21
BRANCH   1  51
ATOM     51  C   LIG d   1       7.395  -2.454  -3.920  0.00  0.00    -0.038 C 
ATOM     52  H   LIG d   1       7.520  -2.713  -4.971  0.00  0.00     0.028 H 
ATOM     53  H   LIG d   1       8.275  -2.771  -3.361  0.00  0.00     0.028 H 
ATOM     54  H   LIG d   1       6.511  -2.956  -3.525  0.00  0.00     0.028 H 
ENDBRANCH   1  51
BRANCH   8  55
ATOM     55  O   LIG d   1       9.543  -1.906  -5.076  0.00  0.00    -0.494 OA
BRANCH  55  56
ATOM     56  C   LIG d   1      10.888  -2.362  -5.248  0.00  0.00     0.079 C 
ATOM     57  H   LIG d   1      11.395  -1.731  -5.979  0.00  0.00     0.066 H 
ATOM     58  H   LIG d   1      10.879  -3.393  -5.602  0.00  0.00     0.066 H 
ATOM     59  H   LIG d   1      11.414  -2.309  -4.295  0.00  0.00     0.066 H 
ENDBRANCH  55  56
ENDBRANCH   8  55
BRANCH  14  60
ATOM     60  C   LIG d   1      12.014   4.694  -6.262  0.00  0.00    -0.025 C 
ATOM     61  H   LIG d   1      12.037   5.580  -5.629  0.00  0.00     0.027 H 
ATOM     62  H   LIG d   1      12.889   4.077  -6.055  0.00  0.00     0.027 H 
ATOM     63  H   LIG d   1      12.021   4.994  -7.310  0.00  0.00     0.027 H 
ENDBRANCH  14  60
BRANCH  14  64
ATOM     64  C   LIG d   1       9.773   4.016  -7.147  0.00  0.00    -0.025 C 
ATOM     65  H   LIG d   1       9.104   4.860  -6.976  0.00  0.00     0.027 H 
ATOM     66  H   LIG d   1      10.335   4.179  -8.067  0.00  0.00     0.027 H 
ATOM     67  H   LIG d   1       9.189   3.100  -7.234  0.00  0.00     0.027 H 
ENDBRANCH  14  64
TORSDOF 8
ENDMDL
MODEL 8
REMARK VINA RESULT:      -6.9      5.331      8.658
REMARK  8 active torsions:
REMARK  status: ('A' for Active; 'I' for Inactive)
REMARK    1  A    between atoms: C_1  and  C_2 
REMARK    2  A    between atoms: C_3  and  C_21 
REMARK    3  A    between atoms: C_9  and  O_19 
REMARK    4  A    between atoms: C_15  and  C_17 
REMARK    5  A    between atoms: C_15  and  C_18 
REMARK    6  A    between atoms: O_19  and  C_20 
REMARK    7  A    between atoms: C_21  and  C_22 
REMARK    8  A    between atoms: C_22  and  C_23 
REMARK       I    between atoms: C_23  and  N_25 
ROOT
ATOM      1  C   LIG d   1       7.187  -5.170  -5.707  0.00  0.00    -0.026 A 
ATOM      2  C   LIG d   1       6.166  -5.995  -6.057  0.00  0.00     0.041 A 
ATOM      3  C   LIG d   1       4.848  -5.684  -5.669  0.00  0.00     0.341 A 
ATOM      4  O   LIG d   1       3.938  -6.429  -5.988  0.00  0.00    -0.245 OA
ATOM      5  O   LIG d   1       4.577  -4.579  -4.954  0.00  0.00    -0.421 OA
ATOM      6  C   LIG d   1       5.565  -3.732  -4.587  0.00  0.00     0.149 A 
ATOM      7  C   LIG d   1       6.895  -4.004  -4.953  0.00  0.00     0.063 A 
ATOM      8  C   LIG d   1       7.918  -3.119  -4.571  0.00  0.00     0.135 A 
ATOM      9  C   LIG d   1       7.605  -1.998  -3.832  0.00  0.00     0.023 A 
ATOM     10  C   LIG d   1       6.284  -1.730  -3.471  0.00  0.00     0.131 A 
ATOM     11  C   LIG d   1       5.269  -2.594  -3.846  0.00  0.00     0.038 A 
ATOM     12  C   LIG d   1       3.833  -2.329  -3.474  0.00  0.00    -0.017 C 
ATOM     13  C   LIG d   1       3.774  -1.312  -2.330  0.00  0.00    -0.009 C 
ATOM     14  C   LIG d   1       4.690  -0.135  -2.688  0.00  0.00     0.105 C 
ATOM     15  O   LIG d   1       6.035  -0.611  -2.743  0.00  0.00    -0.486 OA
ATOM     16  H   LIG d   1       8.390  -1.318  -3.533  0.00  0.00     0.069 H 
ATOM     17  H   LIG d   1       3.300  -1.932  -4.338  0.00  0.00     0.032 H 
ATOM     18  H   LIG d   1       3.363  -3.260  -3.156  0.00  0.00     0.032 H 
ATOM     19  H   LIG d   1       2.751  -0.959  -2.205  0.00  0.00     0.031 H 
ATOM     20  H   LIG d   1       4.118  -1.778  -1.406  0.00  0.00     0.031 H 
ENDROOT
BRANCH   2  21
ATOM     21  C   LIG d   1       6.444  -7.241  -6.857  0.00  0.00    -0.012 C 
ATOM     22  H   LIG d   1       5.643  -7.396  -7.580  0.00  0.00     0.032 H 
ATOM     23  H   LIG d   1       7.393  -7.132  -7.383  0.00  0.00     0.032 H 
BRANCH  21  24
ATOM     24  C   LIG d   1       6.520  -8.445  -5.915  0.00  0.00     0.028 C 
ATOM     25  H   LIG d   1       6.233  -8.138  -4.909  0.00  0.00     0.036 H 
ATOM     26  H   LIG d   1       5.842  -9.224  -6.265  0.00  0.00     0.036 H 
BRANCH  24  27
ATOM     27  C   LIG d   1       7.929  -8.978  -5.895  0.00  0.00     0.216 C 
ATOM     28  O   LIG d   1       8.455  -9.343  -6.925  0.00  0.00    -0.276 OA
ATOM     29  N   LIG d   1       8.606  -9.049  -4.732  0.00  0.00    -0.301 N 
ATOM     30  C   LIG d   1       9.981  -9.566  -4.697  0.00  0.00     0.019 C 
ATOM     31  C   LIG d   1       7.985  -8.604  -3.477  0.00  0.00     0.019 C 
ATOM     32  C   LIG d   1      10.879  -8.531  -4.012  0.00  0.00     0.017 C 
ATOM     33  H   LIG d   1      10.006 -10.500  -4.136  0.00  0.00     0.047 H 
ATOM     34  H   LIG d   1      10.332  -9.741  -5.714  0.00  0.00     0.047 H 
ATOM     35  C   LIG d   1      10.298  -8.186  -2.638  0.00  0.00     0.173 C 
ATOM     36  H   LIG d   1      11.881  -8.943  -3.889  0.00  0.00     0.033 H 
ATOM     37  H   LIG d   1      10.928  -7.630  -4.623  0.00  0.00     0.033 H 
ATOM     38  C   LIG d   1       8.901  -7.584  -2.803  0.00  0.00     0.017 C 
ATOM     39  O   LIG d   1      10.213  -9.380  -1.843  0.00  0.00    -0.346 OA
ATOM     40  O   LIG d   1      11.153  -7.246  -1.976  0.00  0.00    -0.346 OA
ATOM     41  H   LIG d   1       8.499  -7.325  -1.822  0.00  0.00     0.033 H 
ATOM     42  H   LIG d   1       8.960  -6.689  -3.420  0.00  0.00     0.033 H 
ATOM     43  C   LIG d   1      11.427  -9.382  -1.052  0.00  0.00     0.074 C 
ATOM     44  C   LIG d   1      11.617  -7.872  -0.762  0.00  0.00     0.074 C 
ATOM     45  H   LIG d   1      11.288  -9.942  -0.127  0.00  0.00     0.058 H 
ATOM     46  H   LIG d   1      12.265  -9.779  -1.625  0.00  0.00     0.058 H 
ATOM     47  H   LIG d   1      11.009  -7.563   0.088  0.00  0.00     0.058 H 
ATOM     48  H   LIG d   1      12.669  -7.643  -0.589  0.00  0.00     0.058 H 
ATOM     49  H   LIG d   1       7.021  -8.144  -3.689  0.00  0.00     0.047 H 
ATOM     50  H   LIG d   1       7.846  -9.460  -2.815  0.00  0.00     0.047 H 
ENDBRANCH  24  27
ENDBRANCH  21  24
ENDBRANCH   2  21
BRANCH   1  51
ATOM     51  C   LIG d   1       8.603  -5.486  -6.113  0.00  0.00    -0.038 C 
ATOM     52  H   LIG d   1       9.199  -5.691  -5.223  0.00  0.00     0.028 H 
ATOM     53  H   LIG d   1       8.608  -6.361  -6.762  0.00  0.00     0.028 H 
ATOM     54  H   LIG d   1       9.027  -4.634  -6.645  0.00  0.00     0.028 H 
ENDBRANCH   1  51
BRANCH   8  55
ATOM     55  O   LIG d   1       9.204  -3.371  -4.921  0.00  0.00    -0.494 OA
BRANCH  55  56
ATOM     56  C   LIG d   1      10.065  -2.241  -5.087  0.00  0.00     0.079 C 
ATOM     57  H   LIG d   1      10.560  -2.019  -4.142  0.00  0.00     0.066 H 
ATOM     58  H   LIG d   1       9.476  -1.379  -5.400  0.00  0.00     0.066 H 
ATOM     59  H   LIG d   1      10.814  -2.464  -5.846  0.00  0.00     0.066 H 
ENDBRANCH  55  56
ENDBRANCH   8  55
BRANCH  14  60
ATOM     60  C   LIG d   1       4.572   0.952  -1.617  0.00  0.00    -0.025 C 
ATOM     61  H   LIG d   1       4.700   0.508  -0.631  0.00  0.00     0.027 H 
ATOM     62  H   LIG d   1       5.343   1.706  -1.779  0.00  0.00     0.027 H 
ATOM     63  H   LIG d   1       3.589   1.419  -1.681  0.00  0.00     0.027 H 
ENDBRANCH  14  60
BRANCH  14  64
ATOM     64  C   LIG d   1       4.289   0.436  -4.050  0.00  0.00    -0.025 C 
ATOM     65  H   LIG d   1       4.654   1.460  -4.135  0.00  0.00     0.027 H 
ATOM     66  H   LIG d   1       4.725  -0.172  -4.842  0.00  0.00     0.027 H 
ATOM     67  H   LIG d   1       3.203   0.428  -4.141  0.00  0.00     0.027 H 
ENDBRANCH  14  64
TORSDOF 8
ENDMDL
MODEL 9
REMARK VINA RESULT:      -6.9      4.624      9.771
REMARK  8 active torsions:
REMARK  status: ('A' for Active; 'I' for Inactive)
REMARK    1  A    between atoms: C_1  and  C_2 
REMARK    2  A    between atoms: C_3  and  C_21 
REMARK    3  A    between atoms: C_9  and  O_19 
REMARK    4  A    between atoms: C_15  and  C_17 
REMARK    5  A    between atoms: C_15  and  C_18 
REMARK    6  A    between atoms: O_19  and  C_20 
REMARK    7  A    between atoms: C_21  and  C_22 
REMARK    8  A    between atoms: C_22  and  C_23 
REMARK       I    between atoms: C_23  and  N_25 
ROOT
ATOM      1  C   LIG d   1       4.243  -1.934  -5.354  0.00  0.00    -0.026 A 
ATOM      2  C   LIG d   1       3.794  -0.881  -4.624  0.00  0.00     0.041 A 
ATOM      3  C   LIG d   1       3.337   0.281  -5.275  0.00  0.00     0.341 A 
ATOM      4  O   LIG d   1       2.935   1.221  -4.612  0.00  0.00    -0.245 OA
ATOM      5  O   LIG d   1       3.335   0.370  -6.616  0.00  0.00    -0.421 OA
ATOM      6  C   LIG d   1       3.773  -0.656  -7.380  0.00  0.00     0.149 A 
ATOM      7  C   LIG d   1       4.238  -1.835  -6.770  0.00  0.00     0.063 A 
ATOM      8  C   LIG d   1       4.690  -2.900  -7.568  0.00  0.00     0.135 A 
ATOM      9  C   LIG d   1       4.680  -2.773  -8.940  0.00  0.00     0.023 A 
ATOM     10  C   LIG d   1       4.217  -1.601  -9.542  0.00  0.00     0.131 A 
ATOM     11  C   LIG d   1       3.767  -0.548  -8.764  0.00  0.00     0.038 A 
ATOM     12  C   LIG d   1       3.257   0.727  -9.386  0.00  0.00    -0.017 C 
ATOM     13  C   LIG d   1       3.729   0.818 -10.840  0.00  0.00    -0.009 C 
ATOM     14  C   LIG d   1       3.435  -0.523 -11.523  0.00  0.00     0.105 C 
ATOM     15  O   LIG d   1       4.230  -1.531 -10.898  0.00  0.00    -0.486 OA
ATOM     16  H   LIG d   1       5.031  -3.588  -9.556  0.00  0.00     0.069 H 
ATOM     17  H   LIG d   1       2.168   0.736  -9.358  0.00  0.00     0.032 H 
ATOM     18  H   LIG d   1       3.640   1.581  -8.827  0.00  0.00     0.032 H 
ATOM     19  H   LIG d   1       3.192   1.617 -11.351  0.00  0.00     0.031 H 
ATOM     20  H   LIG d   1       4.800   1.018 -10.867  0.00  0.00     0.031 H 
ENDROOT
BRANCH   2  21
ATOM     21  C   LIG d   1       3.788  -0.956  -3.118  0.00  0.00    -0.012 C 
ATOM     22  H   LIG d   1       3.248  -0.100  -2.714  0.00  0.00     0.032 H 
ATOM     23  H   LIG d   1       3.298  -1.878  -2.802  0.00  0.00     0.032 H 
BRANCH  21  24
ATOM     24  C   LIG d   1       5.229  -0.941  -2.602  0.00  0.00     0.028 C 
ATOM     25  H   LIG d   1       5.237  -1.190  -1.541  0.00  0.00     0.036 H 
ATOM     26  H   LIG d   1       5.819  -1.673  -3.152  0.00  0.00     0.036 H 
BRANCH  24  27
ATOM     27  C   LIG d   1       5.818   0.432  -2.800  0.00  0.00     0.216 C 
ATOM     28  O   LIG d   1       5.448   1.357  -2.111  0.00  0.00    -0.276 OA
ATOM     29  N   LIG d   1       6.759   0.629  -3.745  0.00  0.00    -0.301 N 
ATOM     30  C   LIG d   1       7.344   1.962  -3.950  0.00  0.00     0.019 C 
ATOM     31  C   LIG d   1       7.224  -0.484  -4.583  0.00  0.00     0.019 C 
ATOM     32  C   LIG d   1       8.869   1.849  -3.865  0.00  0.00     0.017 C 
ATOM     33  H   LIG d   1       7.060   2.338  -4.933  0.00  0.00     0.047 H 
ATOM     34  H   LIG d   1       6.982   2.643  -3.180  0.00  0.00     0.047 H 
ATOM     35  C   LIG d   1       9.354   0.786  -4.854  0.00  0.00     0.173 C 
ATOM     36  H   LIG d   1       9.320   2.810  -4.114  0.00  0.00     0.033 H 
ATOM     37  H   LIG d   1       9.157   1.564  -2.853  0.00  0.00     0.033 H 
ATOM     38  C   LIG d   1       8.746  -0.571  -4.496  0.00  0.00     0.017 C 
ATOM     39  O   LIG d   1       8.954   1.154  -6.184  0.00  0.00    -0.346 OA
ATOM     40  O   LIG d   1      10.784   0.701  -4.806  0.00  0.00    -0.346 OA
ATOM     41  H   LIG d   1       9.109  -1.327  -5.194  0.00  0.00     0.033 H 
ATOM     42  H   LIG d   1       9.034  -0.844  -3.481  0.00  0.00     0.033 H 
ATOM     43  C   LIG d   1      10.104   1.838  -6.739  0.00  0.00     0.074 C 
ATOM     44  C   LIG d   1      11.276   1.036  -6.120  0.00  0.00     0.074 C 
ATOM     45  H   LIG d   1      10.112   1.764  -7.827  0.00  0.00     0.058 H 
ATOM     46  H   LIG d   1      10.130   2.880  -6.420  0.00  0.00     0.058 H 
ATOM     47  H   LIG d   1      11.475   0.135  -6.698  0.00  0.00     0.058 H 
ATOM     48  H   LIG d   1      12.170   1.656  -6.049  0.00  0.00     0.058 H 
ATOM     49  H   LIG d   1       6.784  -1.416  -4.230  0.00  0.00     0.047 H 
ATOM     50  H   LIG d   1       6.929  -0.309  -5.619  0.00  0.00     0.047 H 
ENDBRANCH  24  27
ENDBRANCH  21  24
ENDBRANCH   2  21
BRANCH   1  51
ATOM     51  C   LIG d   1       4.736  -3.186  -4.676  0.00  0.00    -0.038 C 
ATOM     52  H   LIG d   1       4.943  -3.949  -5.426  0.00  0.00     0.028 H 
ATOM     53  H   LIG d   1       5.649  -2.964  -4.123  0.00  0.00     0.028 H 
ATOM     54  H   LIG d   1       3.973  -3.551  -3.988  0.00  0.00     0.028 H 
ENDBRANCH   1  51
BRANCH   8  55
ATOM     55  O   LIG d   1       5.139  -4.043  -6.990  0.00  0.00    -0.494 OA
BRANCH  55  56
ATOM     56  C   LIG d   1       6.130  -4.785  -7.705  0.00  0.00     0.079 C 
ATOM     57  H   LIG d   1       6.072  -5.836  -7.422  0.00  0.00     0.066 H 
ATOM     58  H   LIG d   1       7.119  -4.397  -7.462  0.00  0.00     0.066 H 
ATOM     59  H   LIG d   1       5.955  -4.687  -8.777  0.00  0.00     0.066 H 
ENDBRANCH  55  56
ENDBRANCH   8  55
BRANCH  14  60
ATOM     60  C   LIG d   1       3.793  -0.433 -13.009  0.00  0.00    -0.025 C 
ATOM     61  H   LIG d   1       2.936  -0.058 -13.568  0.00  0.00     0.027 H 
ATOM     62  H   LIG d   1       4.636   0.246 -13.138  0.00  0.00     0.027 H 
ATOM     63  H   LIG d   1       4.063  -1.422 -13.378  0.00  0.00     0.027 H 
ENDBRANCH  14  60
BRANCH  14  64
ATOM     64  C   LIG d   1       1.953  -0.868 -11.370  0.00  0.00    -0.025 C 
ATOM     65  H   LIG d   1       1.850  -1.761 -10.752  0.00  0.00     0.027 H 
ATOM     66  H   LIG d   1       1.433  -0.036 -10.895  0.00  0.00     0.027 H 
ATOM     67  H   LIG d   1       1.520  -1.054 -12.353  0.00  0.00     0.027 H 
ENDBRANCH  14  64
TORSDOF 8
ENDMDL
MODEL 10
REMARK VINA RESULT:      -6.8      8.113     11.989
REMARK  8 active torsions:
REMARK  status: ('A' for Active; 'I' for Inactive)
REMARK    1  A    between atoms: C_1  and  C_2 
REMARK    2  A    between atoms: C_3  and  C_21 
REMARK    3  A    between atoms: C_9  and  O_19 
REMARK    4  A    between atoms: C_15  and  C_17 
REMARK    5  A    between atoms: C_15  and  C_18 
REMARK    6  A    between atoms: O_19  and  C_20 
REMARK    7  A    between atoms: C_21  and  C_22 
REMARK    8  A    between atoms: C_22  and  C_23 
REMARK       I    between atoms: C_23  and  N_25 
ROOT
ATOM      1  C   LIG d   1       9.945   5.700  -5.289  0.00  0.00    -0.026 A 
ATOM      2  C   LIG d   1      10.209   5.002  -4.155  0.00  0.00     0.041 A 
ATOM      3  C   LIG d   1      10.422   5.686  -2.942  0.00  0.00     0.341 A 
ATOM      4  O   LIG d   1      10.659   5.052  -1.929  0.00  0.00    -0.245 OA
ATOM      5  O   LIG d   1      10.368   7.028  -2.885  0.00  0.00    -0.421 OA
ATOM      6  C   LIG d   1      10.107   7.760  -3.991  0.00  0.00     0.149 A 
ATOM      7  C   LIG d   1       9.888   7.116  -5.222  0.00  0.00     0.063 A 
ATOM      8  C   LIG d   1       9.614   7.881  -6.369  0.00  0.00     0.135 A 
ATOM      9  C   LIG d   1       9.572   9.256  -6.275  0.00  0.00     0.023 A 
ATOM     10  C   LIG d   1       9.789   9.891  -5.051  0.00  0.00     0.131 A 
ATOM     11  C   LIG d   1      10.056   9.146  -3.915  0.00  0.00     0.038 A 
ATOM     12  C   LIG d   1      10.290   9.805  -2.580  0.00  0.00    -0.017 C 
ATOM     13  C   LIG d   1      10.622  11.286  -2.785  0.00  0.00    -0.009 C 
ATOM     14  C   LIG d   1       9.585  11.880  -3.746  0.00  0.00     0.105 C 
ATOM     15  O   LIG d   1       9.736  11.248  -5.018  0.00  0.00    -0.486 OA
ATOM     16  H   LIG d   1       9.366   9.846  -7.155  0.00  0.00     0.069 H 
ATOM     17  H   LIG d   1       9.393   9.716  -1.968  0.00  0.00     0.032 H 
ATOM     18  H   LIG d   1      11.122   9.314  -2.074  0.00  0.00     0.032 H 
ATOM     19  H   LIG d   1      10.578  11.807  -1.829  0.00  0.00     0.031 H 
ATOM     20  H   LIG d   1      11.619  11.383  -3.212  0.00  0.00     0.031 H 
ENDROOT
BRANCH   2  21
ATOM     21  C   LIG d   1      10.277   3.497  -4.194  0.00  0.00    -0.012 C 
ATOM     22  H   LIG d   1      10.516   3.170  -5.205  0.00  0.00     0.032 H 
ATOM     23  H   LIG d   1      11.049   3.149  -3.507  0.00  0.00     0.032 H 
BRANCH  21  24
ATOM     24  C   LIG d   1       8.924   2.915  -3.776  0.00  0.00     0.028 C 
ATOM     25  H   LIG d   1       8.805   3.010  -2.697  0.00  0.00     0.036 H 
ATOM     26  H   LIG d   1       8.124   3.459  -4.280  0.00  0.00     0.036 H 
BRANCH  24  27
ATOM     27  C   LIG d   1       8.862   1.460  -4.163  0.00  0.00     0.216 C 
ATOM     28  O   LIG d   1       9.871   0.878  -4.498  0.00  0.00    -0.276 OA
ATOM     29  N   LIG d   1       7.684   0.805  -4.136  0.00  0.00    -0.301 N 
ATOM     30  C   LIG d   1       7.609  -0.614  -4.510  0.00  0.00     0.019 C 
ATOM     31  C   LIG d   1       6.454   1.496  -3.726  0.00  0.00     0.019 C 
ATOM     32  C   LIG d   1       6.934  -1.387  -3.373  0.00  0.00     0.017 C 
ATOM     33  H   LIG d   1       7.023  -0.720  -5.423  0.00  0.00     0.047 H 
ATOM     34  H   LIG d   1       8.614  -1.003  -4.673  0.00  0.00     0.047 H 
ATOM     35  C   LIG d   1       5.582  -0.744  -3.056  0.00  0.00     0.173 C 
ATOM     36  H   LIG d   1       6.781  -2.423  -3.678  0.00  0.00     0.033 H 
ATOM     37  H   LIG d   1       7.568  -1.359  -2.487  0.00  0.00     0.033 H 
ATOM     38  C   LIG d   1       5.789   0.703  -2.603  0.00  0.00     0.017 C 
ATOM     39  O   LIG d   1       4.757  -0.762  -4.232  0.00  0.00    -0.346 OA
ATOM     40  O   LIG d   1       4.928  -1.485  -2.019  0.00  0.00    -0.346 OA
ATOM     41  H   LIG d   1       4.824   1.150  -2.362  0.00  0.00     0.033 H 
ATOM     42  H   LIG d   1       6.429   0.720  -1.721  0.00  0.00     0.033 H 
ATOM     43  C   LIG d   1       3.942  -1.952  -4.093  0.00  0.00     0.074 C 
ATOM     44  C   LIG d   1       3.689  -1.982  -2.564  0.00  0.00     0.074 C 
ATOM     45  H   LIG d   1       3.006  -1.850  -4.641  0.00  0.00     0.058 H 
ATOM     46  H   LIG d   1       4.488  -2.839  -4.416  0.00  0.00     0.058 H 
ATOM     47  H   LIG d   1       2.860  -1.327  -2.298  0.00  0.00     0.058 H 
ATOM     48  H   LIG d   1       3.501  -3.002  -2.226  0.00  0.00     0.058 H 
ATOM     49  H   LIG d   1       6.697   2.497  -3.371  0.00  0.00     0.047 H 
ATOM     50  H   LIG d   1       5.773   1.563  -4.576  0.00  0.00     0.047 H 
ENDBRANCH  24  27
ENDBRANCH  21  24
ENDBRANCH   2  21
BRANCH   1  51
ATOM     51  C   LIG d   1       9.714   4.985  -6.596  0.00  0.00    -0.038 C 
ATOM     52  H   LIG d   1       9.368   3.970  -6.397  0.00  0.00     0.028 H 
ATOM     53  H   LIG d   1       8.960   5.519  -7.174  0.00  0.00     0.028 H 
ATOM     54  H   LIG d   1      10.647   4.947  -7.159  0.00  0.00     0.028 H 
ENDBRANCH   1  51
BRANCH   8  55
ATOM     55  O   LIG d   1       9.399   7.270  -7.561  0.00  0.00    -0.494 OA
BRANCH  55  56
ATOM     56  C   LIG d   1       9.254   8.115  -8.706  0.00  0.00     0.079 C 
ATOM     57  H   LIG d   1      10.017   8.893  -8.682  0.00  0.00     0.066 H 
ATOM     58  H   LIG d   1       8.266   8.574  -8.696  0.00  0.00     0.066 H 
ATOM     59  H   LIG d   1       9.369   7.521  -9.613  0.00  0.00     0.066 H 
ENDBRANCH  55  56
ENDBRANCH   8  55
BRANCH  14  60
ATOM     60  C   LIG d   1       9.819  13.386  -3.888  0.00  0.00    -0.025 C 
ATOM     61  H   LIG d   1       8.968  13.927  -3.477  0.00  0.00     0.027 H 
ATOM     62  H   LIG d   1      10.723  13.665  -3.346  0.00  0.00     0.027 H 
ATOM     63  H   LIG d   1       9.935  13.637  -4.942  0.00  0.00     0.027 H 
ENDBRANCH  14  60
BRANCH  14  64
ATOM     64  C   LIG d   1       8.176  11.625  -3.208  0.00  0.00    -0.025 C 
ATOM     65  H   LIG d   1       7.444  11.865  -3.980  0.00  0.00     0.027 H 
ATOM     66  H   LIG d   1       8.077  10.577  -2.928  0.00  0.00     0.027 H 
ATOM     67  H   LIG d   1       8.001  12.254  -2.335  0.00  0.00     0.027 H 
ENDBRANCH  14  64
TORSDOF 8
ENDMDL
