MODEL 1
REMARK VINA RESULT:      -6.4      0.000      0.000
REMARK  12 active torsions:
REMARK  status: ('A' for Active; 'I' for Inactive)
REMARK    1  A    between atoms: C_3  and  O_38 
REMARK    2  A    between atoms: C_4  and  O_37 
REMARK    3  A    between atoms: C_6  and  C_7 
REMARK    4  A    between atoms: C_8  and  O_20 
REMARK    5  A    between atoms: C_12  and  O_19 
REMARK    6  A    between atoms: C_14  and  O_18 
REMARK    7  A    between atoms: O_20  and  C_21 
REMARK    8  A    between atoms: C_23  and  O_36 
REMARK    9  A    between atoms: C_25  and  O_35 
REMARK   10  A    between atoms: C_27  and  O_34 
REMARK   11  A    between atoms: C_29  and  C_32 
REMARK   12  A    between atoms: C_32  and  O_33 
ROOT
ATOM      1  C   LIG d   1       7.327  -2.360  -3.893  0.00  0.00     0.181 A 
ATOM      2  C   LIG d   1       7.421  -2.493  -5.246  0.00  0.00     0.214 A 
ATOM      3  C   LIG d   1       8.364  -3.400  -5.794  0.00  0.00     0.238 A 
ATOM      4  O   LIG d   1       8.479  -3.543  -7.001  0.00  0.00    -0.283 OA
ATOM      5  C   LIG d   1       9.197  -4.164  -4.851  0.00  0.00     0.109 A 
ATOM      6  C   LIG d   1      10.153  -5.081  -5.305  0.00  0.00     0.135 A 
ATOM      7  C   LIG d   1      10.917  -5.778  -4.387  0.00  0.00     0.022 A 
ATOM      8  C   LIG d   1      10.734  -5.570  -3.024  0.00  0.00     0.124 A 
ATOM      9  C   LIG d   1       9.790  -4.664  -2.568  0.00  0.00     0.023 A 
ATOM     10  C   LIG d   1       9.015  -3.954  -3.473  0.00  0.00     0.146 A 
ATOM     11  O   LIG d   1       8.093  -3.068  -3.044  0.00  0.00    -0.451 OA
ATOM     12  H   LIG d   1      11.656  -6.488  -4.729  0.00  0.00     0.069 H 
ATOM     13  H   LIG d   1       9.657  -4.510  -1.507  0.00  0.00     0.069 H 
ENDROOT
BRANCH   2  14
ATOM     14  O   LIG d   1       6.622  -1.756  -6.065  0.00  0.00    -0.453 OA
BRANCH  14  15
ATOM     15  C   LIG d   1       5.480  -2.412  -6.619  0.00  0.00     0.231 C 
ATOM     16  H   LIG d   1       5.556  -3.481  -6.365  0.00  0.00     0.108 H 
ATOM     17  O   LIG d   1       4.294  -1.905  -6.005  0.00  0.00    -0.331 OA
ATOM     18  C   LIG d   1       4.113  -0.497  -6.161  0.00  0.00     0.114 C 
ATOM     19  C   LIG d   1       4.001  -0.160  -7.651  0.00  0.00     0.112 C 
ATOM     20  H   LIG d   1       5.000  -0.028  -5.710  0.00  0.00     0.065 H 
ATOM     21  C   LIG d   1       5.260  -0.650  -8.372  0.00  0.00     0.115 C 
ATOM     22  H   LIG d   1       3.090  -0.589  -8.093  0.00  0.00     0.065 H 
ATOM     23  C   LIG d   1       5.423  -2.154  -8.127  0.00  0.00     0.145 C 
ATOM     24  H   LIG d   1       6.152  -0.090  -8.056  0.00  0.00     0.065 H 
ATOM     25  H   LIG d   1       4.617  -2.729  -8.604  0.00  0.00     0.068 H 
BRANCH  18  26
ATOM     26  C   LIG d   1       2.833  -0.063  -5.443  0.00  0.00     0.073 C 
ATOM     27  H   LIG d   1       1.961  -0.308  -6.067  0.00  0.00     0.058 H 
ATOM     28  H   LIG d   1       2.757  -0.591  -4.481  0.00  0.00     0.058 H 
BRANCH  26  29
ATOM     29  O   LIG d   1       2.872   1.347  -5.211  0.00  0.00    -0.392 OA
ATOM     30  H   LIG d   1       2.050   1.838  -4.670  0.00  0.00     0.209 HD
ENDBRANCH  26  29
ENDBRANCH  18  26
BRANCH  19  31
ATOM     31  O   LIG d   1       3.877   1.254  -7.813  0.00  0.00    -0.387 OA
ATOM     32  H   LIG d   1       2.934   1.757  -7.552  0.00  0.00     0.210 HD
ENDBRANCH  19  31
BRANCH  21  33
ATOM     33  O   LIG d   1       5.132  -0.407  -9.774  0.00  0.00    -0.386 OA
ATOM     34  H   LIG d   1       4.163  -0.098 -10.193  0.00  0.00     0.210 HD
ENDBRANCH  21  33
BRANCH  23  35
ATOM     35  O   LIG d   1       6.632  -2.610  -8.735  0.00  0.00    -0.383 OA
ATOM     36  H   LIG d   1       7.327  -1.886  -9.188  0.00  0.00     0.210 HD
ENDBRANCH  23  35
ENDBRANCH  14  15
ENDBRANCH   2  14
BRANCH   1  37
ATOM     37  C   LIG d   1       6.347  -1.408  -3.340  0.00  0.00     0.025 A 
ATOM     38  C   LIG d   1       5.202  -1.879  -2.691  0.00  0.00    -0.047 A 
ATOM     39  C   LIG d   1       4.289  -0.987  -2.169  0.00  0.00    -0.016 A 
ATOM     40  H   LIG d   1       5.035  -2.941  -2.596  0.00  0.00     0.063 H 
ATOM     41  C   LIG d   1       4.498   0.378  -2.296  0.00  0.00     0.158 A 
ATOM     42  H   LIG d   1       3.407  -1.353  -1.665  0.00  0.00     0.066 H 
ATOM     43  C   LIG d   1       5.636   0.856  -2.946  0.00  0.00     0.159 A 
ATOM     44  C   LIG d   1       6.558  -0.032  -3.466  0.00  0.00    -0.006 A 
ATOM     45  H   LIG d   1       7.439   0.338  -3.971  0.00  0.00     0.066 H 
BRANCH  41  46
ATOM     46  O   LIG d   1       3.593   1.253  -1.784  0.00  0.00    -0.503 OA
ATOM     47  H   LIG d   1       3.859   1.878  -0.919  0.00  0.00     0.292 HD
ENDBRANCH  41  46
BRANCH  43  48
ATOM     48  O   LIG d   1       5.837   2.195  -3.068  0.00  0.00    -0.503 OA
ATOM     49  H   LIG d   1       5.554   2.871  -2.248  0.00  0.00     0.292 HD
ENDBRANCH  43  48
ENDBRANCH   1  37
BRANCH   6  50
ATOM     50  O   LIG d   1      10.329  -5.285  -6.635  0.00  0.00    -0.506 OA
ATOM     51  H   LIG d   1      10.085  -6.261  -7.079  0.00  0.00     0.292 HD
ENDBRANCH   6  50
BRANCH   8  52
ATOM     52  O   LIG d   1      11.489  -6.260  -2.131  0.00  0.00    -0.506 OA
ATOM     53  H   LIG d   1      11.183  -6.314  -1.076  0.00  0.00     0.292 HD
ENDBRANCH   8  52
TORSDOF 12
ENDMDL
MODEL 2
REMARK VINA RESULT:      -6.2      3.513      5.116
REMARK  12 active torsions:
REMARK  status: ('A' for Active; 'I' for Inactive)
REMARK    1  A    between atoms: C_3  and  O_38 
REMARK    2  A    between atoms: C_4  and  O_37 
REMARK    3  A    between atoms: C_6  and  C_7 
REMARK    4  A    between atoms: C_8  and  O_20 
REMARK    5  A    between atoms: C_12  and  O_19 
REMARK    6  A    between atoms: C_14  and  O_18 
REMARK    7  A    between atoms: O_20  and  C_21 
REMARK    8  A    between atoms: C_23  and  O_36 
REMARK    9  A    between atoms: C_25  and  O_35 
REMARK   10  A    between atoms: C_27  and  O_34 
REMARK   11  A    between atoms: C_29  and  C_32 
REMARK   12  A    between atoms: C_32  and  O_33 
ROOT
ATOM      1  C   LIG d   1       7.867   1.229  -4.153  0.00  0.00     0.181 A 
ATOM      2  C   LIG d   1       7.806   1.540  -5.478  0.00  0.00     0.214 A 
ATOM      3  C   LIG d   1       8.825   2.341  -6.054  0.00  0.00     0.238 A 
ATOM      4  O   LIG d   1       8.803   2.643  -7.237  0.00  0.00    -0.283 OA
ATOM      5  C   LIG d   1       9.912   2.795  -5.170  0.00  0.00     0.109 A 
ATOM      6  C   LIG d   1      10.958   3.590  -5.655  0.00  0.00     0.135 A 
ATOM      7  C   LIG d   1      11.960   3.996  -4.792  0.00  0.00     0.022 A 
ATOM      8  C   LIG d   1      11.927   3.615  -3.455  0.00  0.00     0.124 A 
ATOM      9  C   LIG d   1      10.895   2.829  -2.969  0.00  0.00     0.023 A 
ATOM     10  C   LIG d   1       9.881   2.412  -3.819  0.00  0.00     0.146 A 
ATOM     11  O   LIG d   1       8.869   1.647  -3.359  0.00  0.00    -0.451 OA
ATOM     12  H   LIG d   1      12.770   4.608  -5.159  0.00  0.00     0.069 H 
ATOM     13  H   LIG d   1      10.880   2.540  -1.928  0.00  0.00     0.069 H 
ENDROOT
BRANCH   2  14
ATOM     14  O   LIG d   1       6.774   1.089  -6.242  0.00  0.00    -0.453 OA
BRANCH  14  15
ATOM     15  C   LIG d   1       7.101   0.226  -7.332  0.00  0.00     0.231 C 
ATOM     16  H   LIG d   1       8.193   0.261  -7.466  0.00  0.00     0.108 H 
ATOM     17  O   LIG d   1       6.750  -1.118  -6.998  0.00  0.00    -0.331 OA
ATOM     18  C   LIG d   1       5.366  -1.300  -6.690  0.00  0.00     0.114 C 
ATOM     19  C   LIG d   1       4.520  -0.927  -7.911  0.00  0.00     0.112 C 
ATOM     20  H   LIG d   1       5.158  -0.634  -5.840  0.00  0.00     0.065 H 
ATOM     21  C   LIG d   1       4.824   0.521  -8.309  0.00  0.00     0.115 C 
ATOM     22  H   LIG d   1       4.693  -1.620  -8.747  0.00  0.00     0.065 H 
ATOM     23  C   LIG d   1       6.326   0.660  -8.579  0.00  0.00     0.145 C 
ATOM     24  H   LIG d   1       4.482   1.231  -7.542  0.00  0.00     0.065 H 
ATOM     25  H   LIG d   1       6.631   0.084  -9.464  0.00  0.00     0.068 H 
BRANCH  18  26
ATOM     26  C   LIG d   1       5.113  -2.763  -6.322  0.00  0.00     0.073 C 
ATOM     27  H   LIG d   1       4.967  -3.353  -7.239  0.00  0.00     0.058 H 
ATOM     28  H   LIG d   1       5.978  -3.156  -5.766  0.00  0.00     0.058 H 
BRANCH  26  29
ATOM     29  O   LIG d   1       3.942  -2.853  -5.507  0.00  0.00    -0.392 OA
ATOM     30  H   LIG d   1       3.161  -3.591  -5.745  0.00  0.00     0.209 HD
ENDBRANCH  26  29
ENDBRANCH  18  26
BRANCH  19  31
ATOM     31  O   LIG d   1       3.134  -1.054  -7.588  0.00  0.00    -0.387 OA
ATOM     32  H   LIG d   1       2.745  -2.006  -7.199  0.00  0.00     0.210 HD
ENDBRANCH  19  31
BRANCH  21  33
ATOM     33  O   LIG d   1       4.094   0.854  -9.491  0.00  0.00    -0.386 OA
ATOM     34  H   LIG d   1       3.033   0.578  -9.578  0.00  0.00     0.210 HD
ENDBRANCH  21  33
BRANCH  23  35
ATOM     35  O   LIG d   1       6.632   2.022  -8.882  0.00  0.00    -0.383 OA
ATOM     36  H   LIG d   1       6.011   2.831  -8.470  0.00  0.00     0.210 HD
ENDBRANCH  23  35
ENDBRANCH  14  15
ENDBRANCH   2  14
BRANCH   1  37
ATOM     37  C   LIG d   1       6.797   0.400  -3.568  0.00  0.00     0.025 A 
ATOM     38  C   LIG d   1       6.939  -0.989  -3.511  0.00  0.00    -0.047 A 
ATOM     39  C   LIG d   1       5.940  -1.762  -2.958  0.00  0.00    -0.016 A 
ATOM     40  H   LIG d   1       7.833  -1.456  -3.895  0.00  0.00     0.063 H 
ATOM     41  C   LIG d   1       4.788  -1.165  -2.469  0.00  0.00     0.158 A 
ATOM     42  H   LIG d   1       6.053  -2.835  -2.911  0.00  0.00     0.066 H 
ATOM     43  C   LIG d   1       4.636   0.220  -2.527  0.00  0.00     0.159 A 
ATOM     44  C   LIG d   1       5.635   1.001  -3.074  0.00  0.00    -0.006 A 
ATOM     45  H   LIG d   1       5.519   2.074  -3.120  0.00  0.00     0.066 H 
BRANCH  41  46
ATOM     46  O   LIG d   1       3.803  -1.932  -1.930  0.00  0.00    -0.503 OA
ATOM     47  H   LIG d   1       3.417  -2.800  -2.483  0.00  0.00     0.292 HD
ENDBRANCH  41  46
BRANCH  43  48
ATOM     48  O   LIG d   1       3.505   0.801  -2.046  0.00  0.00    -0.503 OA
ATOM     49  H   LIG d   1       2.520   0.456  -2.392  0.00  0.00     0.292 HD
ENDBRANCH  43  48
ENDBRANCH   1  37
BRANCH   6  50
ATOM     50  O   LIG d   1      10.989   3.958  -6.961  0.00  0.00    -0.506 OA
ATOM     51  H   LIG d   1      11.742   4.680  -7.311  0.00  0.00     0.292 HD
ENDBRANCH   6  50
BRANCH   8  52
ATOM     52  O   LIG d   1      12.916   4.020  -2.617  0.00  0.00    -0.506 OA
ATOM     53  H   LIG d   1      13.188   3.403  -1.748  0.00  0.00     0.292 HD
ENDBRANCH   8  52
TORSDOF 12
ENDMDL
MODEL 3
REMARK VINA RESULT:      -5.9     10.572     13.424
REMARK  12 active torsions:
REMARK  status: ('A' for Active; 'I' for Inactive)
REMARK    1  A    between atoms: C_3  and  O_38 
REMARK    2  A    between atoms: C_4  and  O_37 
REMARK    3  A    between atoms: C_6  and  C_7 
REMARK    4  A    between atoms: C_8  and  O_20 
REMARK    5  A    between atoms: C_12  and  O_19 
REMARK    6  A    between atoms: C_14  and  O_18 
REMARK    7  A    between atoms: O_20  and  C_21 
REMARK    8  A    between atoms: C_23  and  O_36 
REMARK    9  A    between atoms: C_25  and  O_35 
REMARK   10  A    between atoms: C_27  and  O_34 
REMARK   11  A    between atoms: C_29  and  C_32 
REMARK   12  A    between atoms: C_32  and  O_33 
ROOT
ATOM      1  C   LIG d   1      10.435   8.499  -4.427  0.00  0.00     0.181 A 
ATOM      2  C   LIG d   1      10.247   9.728  -3.870  0.00  0.00     0.214 A 
ATOM      3  C   LIG d   1      10.258   9.864  -2.457  0.00  0.00     0.238 A 
ATOM      4  O   LIG d   1      10.089  10.948  -1.923  0.00  0.00    -0.283 OA
ATOM      5  C   LIG d   1      10.482   8.645  -1.662  0.00  0.00     0.109 A 
ATOM      6  C   LIG d   1      10.508   8.687  -0.262  0.00  0.00     0.135 A 
ATOM      7  C   LIG d   1      10.720   7.520   0.449  0.00  0.00     0.022 A 
ATOM      8  C   LIG d   1      10.908   6.317  -0.221  0.00  0.00     0.124 A 
ATOM      9  C   LIG d   1      10.884   6.269  -1.607  0.00  0.00     0.023 A 
ATOM     10  C   LIG d   1      10.671   7.428  -2.338  0.00  0.00     0.146 A 
ATOM     11  O   LIG d   1      10.643   7.396  -3.686  0.00  0.00    -0.451 OA
ATOM     12  H   LIG d   1      10.742   7.545   1.529  0.00  0.00     0.069 H 
ATOM     13  H   LIG d   1      11.030   5.328  -2.117  0.00  0.00     0.069 H 
ENDROOT
BRANCH   2  14
ATOM     14  O   LIG d   1      10.044  10.816  -4.661  0.00  0.00    -0.453 OA
BRANCH  14  15
ATOM     15  C   LIG d   1      11.089  11.788  -4.709  0.00  0.00     0.231 C 
ATOM     16  H   LIG d   1      11.772  11.583  -3.870  0.00  0.00     0.108 H 
ATOM     17  O   LIG d   1      11.833  11.631  -5.919  0.00  0.00    -0.331 OA
ATOM     18  C   LIG d   1      11.049  11.766  -7.106  0.00  0.00     0.114 C 
ATOM     19  C   LIG d   1      10.441  13.171  -7.157  0.00  0.00     0.112 C 
ATOM     20  H   LIG d   1      10.268  10.994  -7.041  0.00  0.00     0.065 H 
ATOM     21  C   LIG d   1       9.600  13.400  -5.898  0.00  0.00     0.115 C 
ATOM     22  H   LIG d   1      11.218  13.942  -7.270  0.00  0.00     0.065 H 
ATOM     23  C   LIG d   1      10.483  13.194  -4.663  0.00  0.00     0.145 C 
ATOM     24  H   LIG d   1       8.716  12.745  -5.877  0.00  0.00     0.065 H 
ATOM     25  H   LIG d   1      11.262  13.966  -4.592  0.00  0.00     0.068 H 
BRANCH  18  26
ATOM     26  C   LIG d   1      11.939  11.551  -8.333  0.00  0.00     0.073 C 
ATOM     27  H   LIG d   1      12.447  12.493  -8.587  0.00  0.00     0.058 H 
ATOM     28  H   LIG d   1      12.688  10.777  -8.110  0.00  0.00     0.058 H 
BRANCH  26  29
ATOM     29  O   LIG d   1      11.133  11.131  -9.436  0.00  0.00    -0.392 OA
ATOM     30  H   LIG d   1      10.767  11.872 -10.163  0.00  0.00     0.209 HD
ENDBRANCH  26  29
ENDBRANCH  18  26
BRANCH  19  31
ATOM     31  O   LIG d   1       9.612  13.290  -8.314  0.00  0.00    -0.387 OA
ATOM     32  H   LIG d   1       8.598  12.864  -8.312  0.00  0.00     0.210 HD
ENDBRANCH  19  31
BRANCH  21  33
ATOM     33  O   LIG d   1       9.089  14.734  -5.901  0.00  0.00    -0.386 OA
ATOM     34  H   LIG d   1       8.060  14.928  -6.239  0.00  0.00     0.210 HD
ENDBRANCH  21  33
BRANCH  23  35
ATOM     35  O   LIG d   1       9.694  13.335  -3.481  0.00  0.00    -0.383 OA
ATOM     36  H   LIG d   1       9.812  14.223  -2.842  0.00  0.00     0.210 HD
ENDBRANCH  23  35
ENDBRANCH  14  15
ENDBRANCH   2  14
BRANCH   1  37
ATOM     37  C   LIG d   1      10.415   8.374  -5.896  0.00  0.00     0.025 A 
ATOM     38  C   LIG d   1      11.558   7.950  -6.578  0.00  0.00    -0.047 A 
ATOM     39  C   LIG d   1      11.535   7.828  -7.952  0.00  0.00    -0.016 A 
ATOM     40  H   LIG d   1      12.457   7.713  -6.030  0.00  0.00     0.063 H 
ATOM     41  C   LIG d   1      10.383   8.138  -8.660  0.00  0.00     0.158 A 
ATOM     42  H   LIG d   1      12.418   7.497  -8.478  0.00  0.00     0.066 H 
ATOM     43  C   LIG d   1       9.240   8.567  -7.986  0.00  0.00     0.159 A 
ATOM     44  C   LIG d   1       9.253   8.685  -6.610  0.00  0.00    -0.006 A 
ATOM     45  H   LIG d   1       8.369   9.018  -6.087  0.00  0.00     0.066 H 
BRANCH  41  46
ATOM     46  O   LIG d   1      10.367   8.022 -10.013  0.00  0.00    -0.503 OA
ATOM     47  H   LIG d   1       9.870   7.163 -10.487  0.00  0.00     0.292 HD
ENDBRANCH  41  46
BRANCH  43  48
ATOM     48  O   LIG d   1       8.113   8.869  -8.683  0.00  0.00    -0.503 OA
ATOM     49  H   LIG d   1       7.796   9.916  -8.789  0.00  0.00     0.292 HD
ENDBRANCH  43  48
ENDBRANCH   1  37
BRANCH   6  50
ATOM     50  O   LIG d   1      10.326   9.862   0.391  0.00  0.00    -0.506 OA
ATOM     51  H   LIG d   1      11.067  10.669   0.287  0.00  0.00     0.292 HD
ENDBRANCH   6  50
BRANCH   8  52
ATOM     52  O   LIG d   1      11.116   5.177   0.487  0.00  0.00    -0.506 OA
ATOM     53  H   LIG d   1      12.115   4.719   0.512  0.00  0.00     0.292 HD
ENDBRANCH   8  52
TORSDOF 12
ENDMDL
MODEL 4
REMARK VINA RESULT:      -5.9      7.287     10.010
REMARK  12 active torsions:
REMARK  status: ('A' for Active; 'I' for Inactive)
REMARK    1  A    between atoms: C_3  and  O_38 
REMARK    2  A    between atoms: C_4  and  O_37 
REMARK    3  A    between atoms: C_6  and  C_7 
REMARK    4  A    between atoms: C_8  and  O_20 
REMARK    5  A    between atoms: C_12  and  O_19 
REMARK    6  A    between atoms: C_14  and  O_18 
REMARK    7  A    between atoms: O_20  and  C_21 
REMARK    8  A    between atoms: C_23  and  O_36 
REMARK    9  A    between atoms: C_25  and  O_35 
REMARK   10  A    between atoms: C_27  and  O_34 
REMARK   11  A    between atoms: C_29  and  C_32 
REMARK   12  A    between atoms: C_32  and  O_33 
ROOT
ATOM      1  C   LIG d   1      10.161   5.078  -3.868  0.00  0.00     0.181 A 
ATOM      2  C   LIG d   1       9.875   6.333  -4.313  0.00  0.00     0.214 A 
ATOM      3  C   LIG d   1       9.942   7.426  -3.411  0.00  0.00     0.238 A 
ATOM      4  O   LIG d   1       9.690   8.564  -3.772  0.00  0.00    -0.283 OA
ATOM      5  C   LIG d   1      10.329   7.134  -2.020  0.00  0.00     0.109 A 
ATOM      6  C   LIG d   1      10.419   8.152  -1.062  0.00  0.00     0.135 A 
ATOM      7  C   LIG d   1      10.785   7.836   0.233  0.00  0.00     0.022 A 
ATOM      8  C   LIG d   1      11.062   6.518   0.580  0.00  0.00     0.124 A 
ATOM      9  C   LIG d   1      10.974   5.506  -0.363  0.00  0.00     0.023 A 
ATOM     10  C   LIG d   1      10.608   5.802  -1.667  0.00  0.00     0.146 A 
ATOM     11  O   LIG d   1      10.517   4.827  -2.595  0.00  0.00    -0.451 OA
ATOM     12  H   LIG d   1      10.858   8.616   0.977  0.00  0.00     0.069 H 
ATOM     13  H   LIG d   1      11.191   4.486  -0.082  0.00  0.00     0.069 H 
ENDROOT
BRANCH   2  14
ATOM     14  O   LIG d   1       9.523   6.537  -5.612  0.00  0.00    -0.453 OA
BRANCH  14  15
ATOM     15  C   LIG d   1      10.560   6.935  -6.510  0.00  0.00     0.231 C 
ATOM     16  H   LIG d   1      11.481   7.059  -5.921  0.00  0.00     0.108 H 
ATOM     17  O   LIG d   1      10.792   5.894  -7.461  0.00  0.00    -0.331 OA
ATOM     18  C   LIG d   1       9.644   5.546  -8.237  0.00  0.00     0.114 C 
ATOM     19  C   LIG d   1       9.184   6.766  -9.041  0.00  0.00     0.112 C 
ATOM     20  H   LIG d   1       8.877   5.231  -7.515  0.00  0.00     0.065 H 
ATOM     21  C   LIG d   1       8.886   7.919  -8.079  0.00  0.00     0.115 C 
ATOM     22  H   LIG d   1       9.931   7.054  -9.797  0.00  0.00     0.065 H 
ATOM     23  C   LIG d   1      10.138   8.211  -7.245  0.00  0.00     0.145 C 
ATOM     24  H   LIG d   1       8.018   7.698  -7.441  0.00  0.00     0.065 H 
ATOM     25  H   LIG d   1      10.954   8.605  -7.868  0.00  0.00     0.068 H 
BRANCH  18  26
ATOM     26  C   LIG d   1      10.001   4.408  -9.196  0.00  0.00     0.073 C 
ATOM     27  H   LIG d   1      10.490   4.821 -10.091  0.00  0.00     0.058 H 
ATOM     28  H   LIG d   1      10.685   3.708  -8.694  0.00  0.00     0.058 H 
BRANCH  26  29
ATOM     29  O   LIG d   1       8.810   3.718  -9.580  0.00  0.00    -0.392 OA
ATOM     30  H   LIG d   1       8.874   2.822 -10.216  0.00  0.00     0.209 HD
ENDBRANCH  26  29
ENDBRANCH  18  26
BRANCH  19  31
ATOM     31  O   LIG d   1       8.004   6.437  -9.775  0.00  0.00    -0.387 OA
ATOM     32  H   LIG d   1       7.197   5.865  -9.293  0.00  0.00     0.210 HD
ENDBRANCH  19  31
BRANCH  21  33
ATOM     33  O   LIG d   1       8.528   9.083  -8.825  0.00  0.00    -0.386 OA
ATOM     34  H   LIG d   1       9.284   9.601  -9.432  0.00  0.00     0.210 HD
ENDBRANCH  21  33
BRANCH  23  35
ATOM     35  O   LIG d   1       9.851   9.236  -6.293  0.00  0.00    -0.383 OA
ATOM     36  H   LIG d   1      10.264  10.247  -6.431  0.00  0.00     0.210 HD
ENDBRANCH  23  35
ENDBRANCH  14  15
ENDBRANCH   2  14
BRANCH   1  37
ATOM     37  C   LIG d   1      10.081   3.952  -4.817  0.00  0.00     0.025 A 
ATOM     38  C   LIG d   1      11.243   3.455  -5.412  0.00  0.00    -0.047 A 
ATOM     39  C   LIG d   1      11.167   2.398  -6.296  0.00  0.00    -0.016 A 
ATOM     40  H   LIG d   1      12.201   3.894  -5.178  0.00  0.00     0.063 H 
ATOM     41  C   LIG d   1       9.938   1.835  -6.604  0.00  0.00     0.158 A 
ATOM     42  H   LIG d   1      12.066   2.012  -6.753  0.00  0.00     0.066 H 
ATOM     43  C   LIG d   1       8.773   2.329  -6.017  0.00  0.00     0.159 A 
ATOM     44  C   LIG d   1       8.842   3.383  -5.127  0.00  0.00    -0.006 A 
ATOM     45  H   LIG d   1       7.941   3.768  -4.673  0.00  0.00     0.066 H 
BRANCH  41  46
ATOM     46  O   LIG d   1       9.867   0.798  -7.479  0.00  0.00    -0.503 OA
ATOM     47  H   LIG d   1       8.956   0.184  -7.533  0.00  0.00     0.292 HD
ENDBRANCH  41  46
BRANCH  43  48
ATOM     48  O   LIG d   1       7.570   1.774  -6.322  0.00  0.00    -0.503 OA
ATOM     49  H   LIG d   1       6.910   1.417  -5.518  0.00  0.00     0.292 HD
ENDBRANCH  43  48
ENDBRANCH   1  37
BRANCH   6  50
ATOM     50  O   LIG d   1      10.151   9.437  -1.403  0.00  0.00    -0.506 OA
ATOM     51  H   LIG d   1       9.648   9.660  -2.356  0.00  0.00     0.292 HD
ENDBRANCH   6  50
BRANCH   8  52
ATOM     52  O   LIG d   1      11.420   6.219   1.855  0.00  0.00    -0.506 OA
ATOM     53  H   LIG d   1      11.526   5.170   2.165  0.00  0.00     0.292 HD
ENDBRANCH   8  52
TORSDOF 12
ENDMDL
MODEL 5
REMARK VINA RESULT:      -5.8      8.693     11.182
REMARK  12 active torsions:
REMARK  status: ('A' for Active; 'I' for Inactive)
REMARK    1  A    between atoms: C_3  and  O_38 
REMARK    2  A    between atoms: C_4  and  O_37 
REMARK    3  A    between atoms: C_6  and  C_7 
REMARK    4  A    between atoms: C_8  and  O_20 
REMARK    5  A    between atoms: C_12  and  O_19 
REMARK    6  A    between atoms: C_14  and  O_18 
REMARK    7  A    between atoms: O_20  and  C_21 
REMARK    8  A    between atoms: C_23  and  O_36 
REMARK    9  A    between atoms: C_25  and  O_35 
REMARK   10  A    between atoms: C_27  and  O_34 
REMARK   11  A    between atoms: C_29  and  C_32 
REMARK   12  A    between atoms: C_32  and  O_33 
ROOT
ATOM      1  C   LIG d   1      10.968   6.417  -5.449  0.00  0.00     0.181 A 
ATOM      2  C   LIG d   1      10.465   6.503  -4.186  0.00  0.00     0.214 A 
ATOM      3  C   LIG d   1      10.527   5.372  -3.331  0.00  0.00     0.238 A 
ATOM      4  O   LIG d   1      10.083   5.411  -2.195  0.00  0.00    -0.283 OA
ATOM      5  C   LIG d   1      11.147   4.150  -3.869  0.00  0.00     0.109 A 
ATOM      6  C   LIG d   1      11.250   2.987  -3.095  0.00  0.00     0.135 A 
ATOM      7  C   LIG d   1      11.839   1.859  -3.637  0.00  0.00     0.022 A 
ATOM      8  C   LIG d   1      12.327   1.882  -4.939  0.00  0.00     0.124 A 
ATOM      9  C   LIG d   1      12.228   3.030  -5.710  0.00  0.00     0.023 A 
ATOM     10  C   LIG d   1      11.640   4.170  -5.185  0.00  0.00     0.146 A 
ATOM     11  O   LIG d   1      11.536   5.294  -5.924  0.00  0.00    -0.451 OA
ATOM     12  H   LIG d   1      11.922   0.959  -3.045  0.00  0.00     0.069 H 
ATOM     13  H   LIG d   1      12.610   3.035  -6.720  0.00  0.00     0.069 H 
ENDROOT
BRANCH   2  14
ATOM     14  O   LIG d   1       9.903   7.663  -3.749  0.00  0.00    -0.453 OA
BRANCH  14  15
ATOM     15  C   LIG d   1      10.744   8.556  -3.018  0.00  0.00     0.231 C 
ATOM     16  H   LIG d   1      11.723   8.067  -2.898  0.00  0.00     0.108 H 
ATOM     17  O   LIG d   1      10.947   9.749  -3.777  0.00  0.00    -0.331 OA
ATOM     18  C   LIG d   1       9.742  10.444  -4.104  0.00  0.00     0.114 C 
ATOM     19  C   LIG d   1       9.035  10.873  -2.815  0.00  0.00     0.112 C 
ATOM     20  H   LIG d   1       9.131   9.732  -4.679  0.00  0.00     0.065 H 
ATOM     21  C   LIG d   1       8.757   9.634  -1.959  0.00  0.00     0.115 C 
ATOM     22  H   LIG d   1       9.624  11.621  -2.263  0.00  0.00     0.065 H 
ATOM     23  C   LIG d   1      10.079   8.909  -1.685  0.00  0.00     0.145 C 
ATOM     24  H   LIG d   1       8.023   8.969  -2.438  0.00  0.00     0.065 H 
ATOM     25  H   LIG d   1      10.743   9.511  -1.049  0.00  0.00     0.068 H 
BRANCH  18  26
ATOM     26  C   LIG d   1      10.077  11.683  -4.938  0.00  0.00     0.073 C 
ATOM     27  H   LIG d   1      10.204  12.550  -4.273  0.00  0.00     0.058 H 
ATOM     28  H   LIG d   1      11.009  11.508  -5.496  0.00  0.00     0.058 H 
BRANCH  26  29
ATOM     29  O   LIG d   1       9.013  11.940  -5.857  0.00  0.00    -0.392 OA
ATOM     30  H   LIG d   1       9.141  11.710  -6.926  0.00  0.00     0.209 HD
ENDBRANCH  26  29
ENDBRANCH  18  26
BRANCH  19  31
ATOM     31  O   LIG d   1       7.803  11.518  -3.138  0.00  0.00    -0.387 OA
ATOM     32  H   LIG d   1       7.590  11.811  -4.177  0.00  0.00     0.210 HD
ENDBRANCH  19  31
BRANCH  21  33
ATOM     33  O   LIG d   1       8.164  10.031  -0.722  0.00  0.00    -0.386 OA
ATOM     34  H   LIG d   1       7.087  10.249  -0.673  0.00  0.00     0.210 HD
ENDBRANCH  21  33
BRANCH  23  35
ATOM     35  O   LIG d   1       9.823   7.712  -0.947  0.00  0.00    -0.383 OA
ATOM     36  H   LIG d   1      10.659   7.064  -0.643  0.00  0.00     0.210 HD
ENDBRANCH  23  35
ENDBRANCH  14  15
ENDBRANCH   2  14
BRANCH   1  37
ATOM     37  C   LIG d   1      10.891   7.599  -6.327  0.00  0.00     0.025 A 
ATOM     38  C   LIG d   1      12.009   8.420  -6.495  0.00  0.00    -0.047 A 
ATOM     39  C   LIG d   1      11.937   9.522  -7.322  0.00  0.00    -0.016 A 
ATOM     40  H   LIG d   1      12.931   8.189  -5.983  0.00  0.00     0.063 H 
ATOM     41  C   LIG d   1      10.752   9.825  -7.976  0.00  0.00     0.158 A 
ATOM     42  H   LIG d   1      12.802  10.154  -7.454  0.00  0.00     0.066 H 
ATOM     43  C   LIG d   1       9.630   9.014  -7.809  0.00  0.00     0.159 A 
ATOM     44  C   LIG d   1       9.697   7.904  -6.988  0.00  0.00    -0.006 A 
ATOM     45  H   LIG d   1       8.829   7.275  -6.857  0.00  0.00     0.066 H 
BRANCH  41  46
ATOM     46  O   LIG d   1      10.684  10.916  -8.784  0.00  0.00    -0.503 OA
ATOM     47  H   LIG d   1      11.066  10.863  -9.814  0.00  0.00     0.292 HD
ENDBRANCH  41  46
BRANCH  43  48
ATOM     48  O   LIG d   1       8.471   9.314  -8.453  0.00  0.00    -0.503 OA
ATOM     49  H   LIG d   1       7.541   8.795  -8.182  0.00  0.00     0.292 HD
ENDBRANCH  43  48
ENDBRANCH   1  37
BRANCH   6  50
ATOM     50  O   LIG d   1      10.776   2.967  -1.824  0.00  0.00    -0.506 OA
ATOM     51  H   LIG d   1      10.418   3.896  -1.356  0.00  0.00     0.292 HD
ENDBRANCH   6  50
BRANCH   8  52
ATOM     52  O   LIG d   1      12.903   0.769  -5.461  0.00  0.00    -0.506 OA
ATOM     53  H   LIG d   1      12.453   0.274  -6.333  0.00  0.00     0.292 HD
ENDBRANCH   8  52
TORSDOF 12
ENDMDL
MODEL 6
REMARK VINA RESULT:      -5.6      9.802     12.938
REMARK  12 active torsions:
REMARK  status: ('A' for Active; 'I' for Inactive)
REMARK    1  A    between atoms: C_3  and  O_38 
REMARK    2  A    between atoms: C_4  and  O_37 
REMARK    3  A    between atoms: C_6  and  C_7 
REMARK    4  A    between atoms: C_8  and  O_20 
REMARK    5  A    between atoms: C_12  and  O_19 
REMARK    6  A    between atoms: C_14  and  O_18 
REMARK    7  A    between atoms: O_20  and  C_21 
REMARK    8  A    between atoms: C_23  and  O_36 
REMARK    9  A    between atoms: C_25  and  O_35 
REMARK   10  A    between atoms: C_27  and  O_34 
REMARK   11  A    between atoms: C_29  and  C_32 
REMARK   12  A    between atoms: C_32  and  O_33 
ROOT
ATOM      1  C   LIG d   1      10.606   7.893  -4.411  0.00  0.00     0.181 A 
ATOM      2  C   LIG d   1      10.252   9.123  -4.878  0.00  0.00     0.214 A 
ATOM      3  C   LIG d   1       9.731   9.247  -6.192  0.00  0.00     0.238 A 
ATOM      4  O   LIG d   1       9.406  10.333  -6.645  0.00  0.00    -0.283 OA
ATOM      5  C   LIG d   1       9.597   8.016  -6.987  0.00  0.00     0.109 A 
ATOM      6  C   LIG d   1       9.092   8.046  -8.293  0.00  0.00     0.135 A 
ATOM      7  C   LIG d   1       8.983   6.867  -9.008  0.00  0.00     0.022 A 
ATOM      8  C   LIG d   1       9.369   5.662  -8.431  0.00  0.00     0.124 A 
ATOM      9  C   LIG d   1       9.868   5.625  -7.139  0.00  0.00     0.023 A 
ATOM     10  C   LIG d   1       9.987   6.797  -6.407  0.00  0.00     0.146 A 
ATOM     11  O   LIG d   1      10.473   6.776  -5.148  0.00  0.00    -0.451 OA
ATOM     12  H   LIG d   1       8.594   6.883 -10.015  0.00  0.00     0.069 H 
ATOM     13  H   LIG d   1      10.166   4.683  -6.702  0.00  0.00     0.069 H 
ENDROOT
BRANCH   2  14
ATOM     14  O   LIG d   1      10.402  10.224  -4.092  0.00  0.00    -0.453 OA
BRANCH  14  15
ATOM     15  C   LIG d   1       9.211  10.817  -3.573  0.00  0.00     0.231 C 
ATOM     16  H   LIG d   1       8.357  10.358  -4.094  0.00  0.00     0.108 H 
ATOM     17  O   LIG d   1       9.088  10.505  -2.184  0.00  0.00    -0.331 OA
ATOM     18  C   LIG d   1      10.188  10.950  -1.387  0.00  0.00     0.114 C 
ATOM     19  C   LIG d   1      10.295  12.475  -1.475  0.00  0.00     0.112 C 
ATOM     20  H   LIG d   1      11.080  10.461  -1.806  0.00  0.00     0.065 H 
ATOM     21  C   LIG d   1      10.460  12.884  -2.942  0.00  0.00     0.115 C 
ATOM     22  H   LIG d   1       9.425  12.967  -1.015  0.00  0.00     0.065 H 
ATOM     23  C   LIG d   1       9.278  12.337  -3.749  0.00  0.00     0.145 C 
ATOM     24  H   LIG d   1      11.422  12.541  -3.351  0.00  0.00     0.065 H 
ATOM     25  H   LIG d   1       8.334  12.818  -3.456  0.00  0.00     0.068 H 
BRANCH  18  26
ATOM     26  C   LIG d   1       9.963  10.538   0.069  0.00  0.00     0.073 C 
ATOM     27  H   LIG d   1       9.354  11.300   0.577  0.00  0.00     0.058 H 
ATOM     28  H   LIG d   1       9.441   9.570   0.099  0.00  0.00     0.058 H 
BRANCH  26  29
ATOM     29  O   LIG d   1      11.225  10.419   0.730  0.00  0.00    -0.392 OA
ATOM     30  H   LIG d   1      11.537  11.180   1.461  0.00  0.00     0.209 HD
ENDBRANCH  26  29
ENDBRANCH  18  26
BRANCH  19  31
ATOM     31  O   LIG d   1      11.427  12.918  -0.725  0.00  0.00    -0.387 OA
ATOM     32  H   LIG d   1      12.341  13.240  -1.245  0.00  0.00     0.210 HD
ENDBRANCH  19  31
BRANCH  21  33
ATOM     33  O   LIG d   1      10.487  14.309  -3.041  0.00  0.00    -0.386 OA
ATOM     34  H   LIG d   1      10.280  14.925  -2.154  0.00  0.00     0.210 HD
ENDBRANCH  21  33
BRANCH  23  35
ATOM     35  O   LIG d   1       9.456  12.650  -5.131  0.00  0.00    -0.383 OA
ATOM     36  H   LIG d   1       8.645  12.456  -5.849  0.00  0.00     0.210 HD
ENDBRANCH  23  35
ENDBRANCH  14  15
ENDBRANCH   2  14
BRANCH   1  37
ATOM     37  C   LIG d   1      11.151   7.781  -3.046  0.00  0.00     0.025 A 
ATOM     38  C   LIG d   1      12.436   8.252  -2.764  0.00  0.00    -0.047 A 
ATOM     39  C   LIG d   1      12.942   8.153  -1.485  0.00  0.00    -0.016 A 
ATOM     40  H   LIG d   1      13.032   8.697  -3.547  0.00  0.00     0.063 H 
ATOM     41  C   LIG d   1      12.182   7.575  -0.478  0.00  0.00     0.158 A 
ATOM     42  H   LIG d   1      13.934   8.520  -1.268  0.00  0.00     0.066 H 
ATOM     43  C   LIG d   1      10.901   7.098  -0.753  0.00  0.00     0.159 A 
ATOM     44  C   LIG d   1      10.385   7.201  -2.030  0.00  0.00    -0.006 A 
ATOM     45  H   LIG d   1       9.393   6.831  -2.244  0.00  0.00     0.066 H 
BRANCH  41  46
ATOM     46  O   LIG d   1      12.687   7.474   0.779  0.00  0.00    -0.503 OA
ATOM     47  H   LIG d   1      13.680   7.031   0.940  0.00  0.00     0.292 HD
ENDBRANCH  41  46
BRANCH  43  48
ATOM     48  O   LIG d   1      10.159   6.534   0.237  0.00  0.00    -0.503 OA
ATOM     49  H   LIG d   1       9.545   7.166   0.894  0.00  0.00     0.292 HD
ENDBRANCH  43  48
ENDBRANCH   1  37
BRANCH   6  50
ATOM     50  O   LIG d   1       8.714   9.223  -8.853  0.00  0.00    -0.506 OA
ATOM     51  H   LIG d   1       9.476   9.941  -9.192  0.00  0.00     0.292 HD
ENDBRANCH   6  50
BRANCH   8  52
ATOM     52  O   LIG d   1       9.257   4.510  -9.142  0.00  0.00    -0.506 OA
ATOM     53  H   LIG d   1       9.956   4.301  -9.964  0.00  0.00     0.292 HD
ENDBRANCH   8  52
TORSDOF 12
ENDMDL
MODEL 7
REMARK VINA RESULT:      -5.6      9.889     13.914
REMARK  12 active torsions:
REMARK  status: ('A' for Active; 'I' for Inactive)
REMARK    1  A    between atoms: C_3  and  O_38 
REMARK    2  A    between atoms: C_4  and  O_37 
REMARK    3  A    between atoms: C_6  and  C_7 
REMARK    4  A    between atoms: C_8  and  O_20 
REMARK    5  A    between atoms: C_12  and  O_19 
REMARK    6  A    between atoms: C_14  and  O_18 
REMARK    7  A    between atoms: O_20  and  C_21 
REMARK    8  A    between atoms: C_23  and  O_36 
REMARK    9  A    between atoms: C_25  and  O_35 
REMARK   10  A    between atoms: C_27  and  O_34 
REMARK   11  A    between atoms: C_29  and  C_32 
REMARK   12  A    between atoms: C_32  and  O_33 
ROOT
ATOM      1  C   LIG d   1      10.377   9.202  -4.693  0.00  0.00     0.181 A 
ATOM      2  C   LIG d   1      10.559   9.882  -3.526  0.00  0.00     0.214 A 
ATOM      3  C   LIG d   1      10.443  11.296  -3.516  0.00  0.00     0.238 A 
ATOM      4  O   LIG d   1      10.603  11.938  -2.491  0.00  0.00    -0.283 OA
ATOM      5  C   LIG d   1      10.121  11.958  -4.791  0.00  0.00     0.109 A 
ATOM      6  C   LIG d   1       9.988  13.350  -4.873  0.00  0.00     0.135 A 
ATOM      7  C   LIG d   1       9.686  13.934  -6.090  0.00  0.00     0.022 A 
ATOM      8  C   LIG d   1       9.514  13.144  -7.221  0.00  0.00     0.124 A 
ATOM      9  C   LIG d   1       9.644  11.765  -7.146  0.00  0.00     0.023 A 
ATOM     10  C   LIG d   1       9.948  11.161  -5.936  0.00  0.00     0.146 A 
ATOM     11  O   LIG d   1      10.079   9.821  -5.848  0.00  0.00    -0.451 OA
ATOM     12  H   LIG d   1       9.581  15.006  -6.160  0.00  0.00     0.069 H 
ATOM     13  H   LIG d   1       9.509  11.162  -8.032  0.00  0.00     0.069 H 
ENDROOT
BRANCH   2  14
ATOM     14  O   LIG d   1      10.856   9.210  -2.380  0.00  0.00    -0.453 OA
BRANCH  14  15
ATOM     15  C   LIG d   1       9.758   8.828  -1.549  0.00  0.00     0.231 C 
ATOM     16  H   LIG d   1       8.843   9.246  -1.995  0.00  0.00     0.108 H 
ATOM     17  O   LIG d   1       9.630   7.405  -1.553  0.00  0.00    -0.331 OA
ATOM     18  C   LIG d   1      10.793   6.713  -1.095  0.00  0.00     0.114 C 
ATOM     19  C   LIG d   1      11.084   7.113   0.355  0.00  0.00     0.112 C 
ATOM     20  H   LIG d   1      11.609   7.019  -1.766  0.00  0.00     0.065 H 
ATOM     21  C   LIG d   1      11.265   8.632   0.431  0.00  0.00     0.115 C 
ATOM     22  H   LIG d   1      10.292   6.766   1.035  0.00  0.00     0.065 H 
ATOM     23  C   LIG d   1      10.007   9.313  -0.118  0.00  0.00     0.145 C 
ATOM     24  H   LIG d   1      12.169   8.958  -0.105  0.00  0.00     0.065 H 
ATOM     25  H   LIG d   1       9.136   9.128   0.527  0.00  0.00     0.068 H 
BRANCH  18  26
ATOM     26  C   LIG d   1      10.552   5.204  -1.169  0.00  0.00     0.073 C 
ATOM     27  H   LIG d   1      10.048   4.867  -0.252  0.00  0.00     0.058 H 
ATOM     28  H   LIG d   1       9.921   4.977  -2.041  0.00  0.00     0.058 H 
BRANCH  26  29
ATOM     29  O   LIG d   1      11.805   4.529  -1.299  0.00  0.00    -0.392 OA
ATOM     30  H   LIG d   1      12.141   3.836  -0.512  0.00  0.00     0.209 HD
ENDBRANCH  26  29
ENDBRANCH  18  26
BRANCH  19  31
ATOM     31  O   LIG d   1      12.279   6.466   0.797  0.00  0.00    -0.387 OA
ATOM     32  H   LIG d   1      12.722   6.732   1.768  0.00  0.00     0.210 HD
ENDBRANCH  19  31
BRANCH  21  33
ATOM     33  O   LIG d   1      11.464   9.021   1.790  0.00  0.00    -0.386 OA
ATOM     34  H   LIG d   1      11.073   8.395   2.605  0.00  0.00     0.210 HD
ENDBRANCH  21  33
BRANCH  23  35
ATOM     35  O   LIG d   1      10.192  10.729  -0.119  0.00  0.00    -0.383 OA
ATOM     36  H   LIG d   1       9.768  11.340   0.692  0.00  0.00     0.210 HD
ENDBRANCH  23  35
ENDBRANCH  14  15
ENDBRANCH   2  14
BRANCH   1  37
ATOM     37  C   LIG d   1      10.507   7.734  -4.687  0.00  0.00     0.025 A 
ATOM     38  C   LIG d   1       9.380   6.930  -4.876  0.00  0.00    -0.047 A 
ATOM     39  C   LIG d   1       9.504   5.556  -4.876  0.00  0.00    -0.016 A 
ATOM     40  H   LIG d   1       8.412   7.384  -5.026  0.00  0.00     0.063 H 
ATOM     41  C   LIG d   1      10.745   4.970  -4.677  0.00  0.00     0.158 A 
ATOM     42  H   LIG d   1       8.633   4.937  -5.026  0.00  0.00     0.066 H 
ATOM     43  C   LIG d   1      11.874   5.765  -4.483  0.00  0.00     0.159 A 
ATOM     44  C   LIG d   1      11.758   7.141  -4.488  0.00  0.00    -0.006 A 
ATOM     45  H   LIG d   1      12.632   7.759  -4.336  0.00  0.00     0.066 H 
BRANCH  41  46
ATOM     46  O   LIG d   1      10.862   3.616  -4.673  0.00  0.00    -0.503 OA
ATOM     47  H   LIG d   1      10.284   3.015  -3.955  0.00  0.00     0.292 HD
ENDBRANCH  41  46
BRANCH  43  48
ATOM     48  O   LIG d   1      13.089   5.186  -4.289  0.00  0.00    -0.503 OA
ATOM     49  H   LIG d   1      13.229   4.462  -3.474  0.00  0.00     0.292 HD
ENDBRANCH  43  48
ENDBRANCH   1  37
BRANCH   6  50
ATOM     50  O   LIG d   1      10.154  14.119  -3.768  0.00  0.00    -0.506 OA
ATOM     51  H   LIG d   1      11.035  14.773  -3.680  0.00  0.00     0.292 HD
ENDBRANCH   6  50
BRANCH   8  52
ATOM     52  O   LIG d   1       9.218  13.727  -8.410  0.00  0.00    -0.506 OA
ATOM     53  H   LIG d   1       8.416  13.317  -9.040  0.00  0.00     0.292 HD
ENDBRANCH   8  52
TORSDOF 12
ENDMDL
MODEL 8
REMARK VINA RESULT:      -5.6      9.332     12.669
REMARK  12 active torsions:
REMARK  status: ('A' for Active; 'I' for Inactive)
REMARK    1  A    between atoms: C_3  and  O_38 
REMARK    2  A    between atoms: C_4  and  O_37 
REMARK    3  A    between atoms: C_6  and  C_7 
REMARK    4  A    between atoms: C_8  and  O_20 
REMARK    5  A    between atoms: C_12  and  O_19 
REMARK    6  A    between atoms: C_14  and  O_18 
REMARK    7  A    between atoms: O_20  and  C_21 
REMARK    8  A    between atoms: C_23  and  O_36 
REMARK    9  A    between atoms: C_25  and  O_35 
REMARK   10  A    between atoms: C_27  and  O_34 
REMARK   11  A    between atoms: C_29  and  C_32 
REMARK   12  A    between atoms: C_32  and  O_33 
ROOT
ATOM      1  C   LIG d   1      10.223   8.899  -3.789  0.00  0.00     0.181 A 
ATOM      2  C   LIG d   1      10.291   7.573  -3.484  0.00  0.00     0.214 A 
ATOM      3  C   LIG d   1      10.126   6.611  -4.513  0.00  0.00     0.238 A 
ATOM      4  O   LIG d   1      10.176   5.414  -4.277  0.00  0.00    -0.283 OA
ATOM      5  C   LIG d   1       9.892   7.112  -5.878  0.00  0.00     0.109 A 
ATOM      6  C   LIG d   1       9.718   6.232  -6.954  0.00  0.00     0.135 A 
ATOM      7  C   LIG d   1       9.499   6.743  -8.221  0.00  0.00     0.022 A 
ATOM      8  C   LIG d   1       9.455   8.118  -8.423  0.00  0.00     0.124 A 
ATOM      9  C   LIG d   1       9.626   8.993  -7.362  0.00  0.00     0.023 A 
ATOM     10  C   LIG d   1       9.846   8.501  -6.084  0.00  0.00     0.146 A 
ATOM     11  O   LIG d   1      10.013   9.341  -5.042  0.00  0.00    -0.451 OA
ATOM     12  H   LIG d   1       9.365   6.071  -9.056  0.00  0.00     0.069 H 
ATOM     13  H   LIG d   1       9.589  10.060  -7.530  0.00  0.00     0.069 H 
ENDROOT
BRANCH   2  14
ATOM     14  O   LIG d   1      10.509   7.175  -2.201  0.00  0.00    -0.453 OA
BRANCH  14  15
ATOM     15  C   LIG d   1      11.760   6.545  -1.921  0.00  0.00     0.231 C 
ATOM     16  H   LIG d   1      12.182   6.206  -2.879  0.00  0.00     0.108 H 
ATOM     17  O   LIG d   1      12.663   7.504  -1.368  0.00  0.00    -0.331 OA
ATOM     18  C   LIG d   1      12.197   8.116  -0.163  0.00  0.00     0.114 C 
ATOM     19  C   LIG d   1      12.001   7.042   0.911  0.00  0.00     0.112 C 
ATOM     20  H   LIG d   1      11.245   8.602  -0.422  0.00  0.00     0.065 H 
ATOM     21  C   LIG d   1      11.015   5.990   0.395  0.00  0.00     0.115 C 
ATOM     22  H   LIG d   1      12.960   6.588   1.205  0.00  0.00     0.065 H 
ATOM     23  C   LIG d   1      11.548   5.408  -0.919  0.00  0.00     0.145 C 
ATOM     24  H   LIG d   1      10.005   6.408   0.273  0.00  0.00     0.065 H 
ATOM     25  H   LIG d   1      12.472   4.833  -0.759  0.00  0.00     0.068 H 
BRANCH  18  26
ATOM     26  C   LIG d   1      13.226   9.140   0.321  0.00  0.00     0.073 C 
ATOM     27  H   LIG d   1      14.064   8.617   0.805  0.00  0.00     0.058 H 
ATOM     28  H   LIG d   1      13.600   9.717  -0.538  0.00  0.00     0.058 H 
BRANCH  26  29
ATOM     29  O   LIG d   1      12.611  10.025   1.259  0.00  0.00    -0.392 OA
ATOM     30  H   LIG d   1      12.566  11.105   1.048  0.00  0.00     0.209 HD
ENDBRANCH  26  29
ENDBRANCH  18  26
BRANCH  19  31
ATOM     31  O   LIG d   1      11.482   7.643   2.098  0.00  0.00    -0.387 OA
ATOM     32  H   LIG d   1      11.031   8.645   2.056  0.00  0.00     0.210 HD
ENDBRANCH  19  31
BRANCH  21  33
ATOM     33  O   LIG d   1      10.883   4.945   1.361  0.00  0.00    -0.386 OA
ATOM     34  H   LIG d   1      10.851   5.189   2.433  0.00  0.00     0.210 HD
ENDBRANCH  21  33
BRANCH  23  35
ATOM     35  O   LIG d   1      10.602   4.476  -1.447  0.00  0.00    -0.383 OA
ATOM     36  H   LIG d   1      10.893   3.801  -2.265  0.00  0.00     0.210 HD
ENDBRANCH  23  35
ENDBRANCH  14  15
ENDBRANCH   2  14
BRANCH   1  37
ATOM     37  C   LIG d   1      10.391   9.886  -2.707  0.00  0.00     0.025 A 
ATOM     38  C   LIG d   1      11.411  10.839  -2.779  0.00  0.00    -0.047 A 
ATOM     39  C   LIG d   1      11.562  11.765  -1.769  0.00  0.00    -0.016 A 
ATOM     40  H   LIG d   1      12.078  10.852  -3.628  0.00  0.00     0.063 H 
ATOM     41  C   LIG d   1      10.711  11.747  -0.674  0.00  0.00     0.158 A 
ATOM     42  H   LIG d   1      12.349  12.502  -1.827  0.00  0.00     0.066 H 
ATOM     43  C   LIG d   1       9.693  10.797  -0.592  0.00  0.00     0.159 A 
ATOM     44  C   LIG d   1       9.532   9.870  -1.603  0.00  0.00    -0.006 A 
ATOM     45  H   LIG d   1       8.745   9.132  -1.541  0.00  0.00     0.066 H 
BRANCH  41  46
ATOM     46  O   LIG d   1      10.868  12.658   0.322  0.00  0.00    -0.503 OA
ATOM     47  H   LIG d   1      11.793  13.249   0.387  0.00  0.00     0.292 HD
ENDBRANCH  41  46
BRANCH  43  48
ATOM     48  O   LIG d   1       8.861  10.782   0.483  0.00  0.00    -0.503 OA
ATOM     49  H   LIG d   1       8.405  11.717   0.837  0.00  0.00     0.292 HD
ENDBRANCH  43  48
ENDBRANCH   1  37
BRANCH   6  50
ATOM     50  O   LIG d   1       9.763   4.891  -6.756  0.00  0.00    -0.506 OA
ATOM     51  H   LIG d   1       8.830   4.311  -6.700  0.00  0.00     0.292 HD
ENDBRANCH   6  50
BRANCH   8  52
ATOM     52  O   LIG d   1       9.240   8.608  -9.670  0.00  0.00    -0.506 OA
ATOM     53  H   LIG d   1      10.011   8.498 -10.446  0.00  0.00     0.292 HD
ENDBRANCH   8  52
TORSDOF 12
ENDMDL
MODEL 9
REMARK VINA RESULT:      -5.5     10.374     13.572
REMARK  12 active torsions:
REMARK  status: ('A' for Active; 'I' for Inactive)
REMARK    1  A    between atoms: C_3  and  O_38 
REMARK    2  A    between atoms: C_4  and  O_37 
REMARK    3  A    between atoms: C_6  and  C_7 
REMARK    4  A    between atoms: C_8  and  O_20 
REMARK    5  A    between atoms: C_12  and  O_19 
REMARK    6  A    between atoms: C_14  and  O_18 
REMARK    7  A    between atoms: O_20  and  C_21 
REMARK    8  A    between atoms: C_23  and  O_36 
REMARK    9  A    between atoms: C_25  and  O_35 
REMARK   10  A    between atoms: C_27  and  O_34 
REMARK   11  A    between atoms: C_29  and  C_32 
REMARK   12  A    between atoms: C_32  and  O_33 
ROOT
ATOM      1  C   LIG d   1      10.246   8.753  -2.979  0.00  0.00     0.181 A 
ATOM      2  C   LIG d   1      10.655   8.524  -1.700  0.00  0.00     0.214 A 
ATOM      3  C   LIG d   1      10.842   7.190  -1.255  0.00  0.00     0.238 A 
ATOM      4  O   LIG d   1      11.204   6.947  -0.115  0.00  0.00    -0.283 OA
ATOM      5  C   LIG d   1      10.582   6.111  -2.222  0.00  0.00     0.109 A 
ATOM      6  C   LIG d   1      10.740   4.765  -1.868  0.00  0.00     0.135 A 
ATOM      7  C   LIG d   1      10.485   3.781  -2.805  0.00  0.00     0.022 A 
ATOM      8  C   LIG d   1      10.077   4.126  -4.089  0.00  0.00     0.124 A 
ATOM      9  C   LIG d   1       9.919   5.456  -4.446  0.00  0.00     0.023 A 
ATOM     10  C   LIG d   1      10.168   6.458  -3.520  0.00  0.00     0.146 A 
ATOM     11  O   LIG d   1      10.017   7.756  -3.852  0.00  0.00    -0.451 OA
ATOM     12  H   LIG d   1      10.606   2.741  -2.539  0.00  0.00     0.069 H 
ATOM     13  H   LIG d   1       9.601   5.713  -5.446  0.00  0.00     0.069 H 
ENDROOT
BRANCH   2  14
ATOM     14  O   LIG d   1      10.878   9.567  -0.854  0.00  0.00    -0.453 OA
BRANCH  14  15
ATOM     15  C   LIG d   1      12.226  10.018  -0.721  0.00  0.00     0.231 C 
ATOM     16  H   LIG d   1      12.864   9.335  -1.303  0.00  0.00     0.108 H 
ATOM     17  O   LIG d   1      12.353  11.321  -1.293  0.00  0.00    -0.331 OA
ATOM     18  C   LIG d   1      11.499  12.302  -0.703  0.00  0.00     0.114 C 
ATOM     19  C   LIG d   1      11.844  12.452   0.781  0.00  0.00     0.112 C 
ATOM     20  H   LIG d   1      10.473  11.929  -0.840  0.00  0.00     0.065 H 
ATOM     21  C   LIG d   1      11.700  11.092   1.470  0.00  0.00     0.115 C 
ATOM     22  H   LIG d   1      12.853  12.869   0.919  0.00  0.00     0.065 H 
ATOM     23  C   LIG d   1      12.602  10.075   0.762  0.00  0.00     0.145 C 
ATOM     24  H   LIG d   1      10.652  10.757   1.490  0.00  0.00     0.065 H 
ATOM     25  H   LIG d   1      13.666  10.317   0.900  0.00  0.00     0.068 H 
BRANCH  18  26
ATOM     26  C   LIG d   1      11.697  13.645  -1.411  0.00  0.00     0.073 C 
ATOM     27  H   LIG d   1      12.540  14.181  -0.950  0.00  0.00     0.058 H 
ATOM     28  H   LIG d   1      11.912  13.469  -2.475  0.00  0.00     0.058 H 
BRANCH  26  29
ATOM     29  O   LIG d   1      10.508  14.428  -1.287  0.00  0.00    -0.392 OA
ATOM     30  H   LIG d   1       9.784  14.206  -0.489  0.00  0.00     0.209 HD
ENDBRANCH  26  29
ENDBRANCH  18  26
BRANCH  19  31
ATOM     31  O   LIG d   1      10.954  13.391   1.386  0.00  0.00    -0.387 OA
ATOM     32  H   LIG d   1      10.782  13.366   2.472  0.00  0.00     0.210 HD
ENDBRANCH  19  31
BRANCH  21  33
ATOM     33  O   LIG d   1      12.091  11.206   2.839  0.00  0.00    -0.386 OA
ATOM     34  H   LIG d   1      11.718  12.041   3.450  0.00  0.00     0.210 HD
ENDBRANCH  21  33
BRANCH  23  35
ATOM     35  O   LIG d   1      12.423   8.786   1.351  0.00  0.00    -0.383 OA
ATOM     36  H   LIG d   1      11.654   8.635   2.123  0.00  0.00     0.210 HD
ENDBRANCH  23  35
ENDBRANCH  14  15
ENDBRANCH   2  14
BRANCH   1  37
ATOM     37  C   LIG d   1      10.051  10.146  -3.424  0.00  0.00     0.025 A 
ATOM     38  C   LIG d   1      10.999  10.756  -4.250  0.00  0.00    -0.047 A 
ATOM     39  C   LIG d   1      10.812  12.056  -4.671  0.00  0.00    -0.016 A 
ATOM     40  H   LIG d   1      11.875  10.208  -4.563  0.00  0.00     0.063 H 
ATOM     41  C   LIG d   1       9.691  12.765  -4.265  0.00  0.00     0.158 A 
ATOM     42  H   LIG d   1      11.543  12.525  -5.311  0.00  0.00     0.066 H 
ATOM     43  C   LIG d   1       8.743  12.164  -3.437  0.00  0.00     0.159 A 
ATOM     44  C   LIG d   1       8.920  10.860  -3.017  0.00  0.00    -0.006 A 
ATOM     45  H   LIG d   1       8.187  10.394  -2.375  0.00  0.00     0.066 H 
BRANCH  41  46
ATOM     46  O   LIG d   1       9.514  14.047  -4.677  0.00  0.00    -0.503 OA
ATOM     47  H   LIG d   1      10.341  14.768  -4.604  0.00  0.00     0.292 HD
ENDBRANCH  41  46
BRANCH  43  48
ATOM     48  O   LIG d   1       7.645  12.862  -3.042  0.00  0.00    -0.503 OA
ATOM     49  H   LIG d   1       7.241  12.725  -2.029  0.00  0.00     0.292 HD
ENDBRANCH  43  48
ENDBRANCH   1  37
BRANCH   6  50
ATOM     50  O   LIG d   1      11.140   4.430  -0.616  0.00  0.00    -0.506 OA
ATOM     51  H   LIG d   1      11.811   5.098  -0.055  0.00  0.00     0.292 HD
ENDBRANCH   6  50
BRANCH   8  52
ATOM     52  O   LIG d   1       9.830   3.152  -5.001  0.00  0.00    -0.506 OA
ATOM     53  H   LIG d   1      10.605   2.409  -5.237  0.00  0.00     0.292 HD
ENDBRANCH   8  52
TORSDOF 12
ENDMDL
MODEL 10
REMARK VINA RESULT:      -5.5      9.343     11.617
REMARK  12 active torsions:
REMARK  status: ('A' for Active; 'I' for Inactive)
REMARK    1  A    between atoms: C_3  and  O_38 
REMARK    2  A    between atoms: C_4  and  O_37 
REMARK    3  A    between atoms: C_6  and  C_7 
REMARK    4  A    between atoms: C_8  and  O_20 
REMARK    5  A    between atoms: C_12  and  O_19 
REMARK    6  A    between atoms: C_14  and  O_18 
REMARK    7  A    between atoms: O_20  and  C_21 
REMARK    8  A    between atoms: C_23  and  O_36 
REMARK    9  A    between atoms: C_25  and  O_35 
REMARK   10  A    between atoms: C_27  and  O_34 
REMARK   11  A    between atoms: C_29  and  C_32 
REMARK   12  A    between atoms: C_32  and  O_33 
ROOT
ATOM      1  C   LIG d   1      10.949   8.723  -2.882  0.00  0.00     0.181 A 
ATOM      2  C   LIG d   1      10.971   7.448  -3.362  0.00  0.00     0.214 A 
ATOM      3  C   LIG d   1      11.077   6.362  -2.455  0.00  0.00     0.238 A 
ATOM      4  O   LIG d   1      11.103   5.207  -2.847  0.00  0.00    -0.283 OA
ATOM      5  C   LIG d   1      11.153   6.684  -1.020  0.00  0.00     0.109 A 
ATOM      6  C   LIG d   1      11.260   5.675  -0.054  0.00  0.00     0.135 A 
ATOM      7  C   LIG d   1      11.330   6.018   1.284  0.00  0.00     0.022 A 
ATOM      8  C   LIG d   1      11.293   7.355   1.665  0.00  0.00     0.124 A 
ATOM      9  C   LIG d   1      11.187   8.358   0.715  0.00  0.00     0.023 A 
ATOM     10  C   LIG d   1      11.117   8.034  -0.632  0.00  0.00     0.146 A 
ATOM     11  O   LIG d   1      11.015   9.000  -1.568  0.00  0.00    -0.451 OA
ATOM     12  H   LIG d   1      11.412   5.245   2.034  0.00  0.00     0.069 H 
ATOM     13  H   LIG d   1      11.160   9.393   1.023  0.00  0.00     0.069 H 
ENDROOT
BRANCH   2  14
ATOM     14  O   LIG d   1      10.897   7.217  -4.701  0.00  0.00    -0.453 OA
BRANCH  14  15
ATOM     15  C   LIG d   1       9.619   6.862  -5.229  0.00  0.00     0.231 C 
ATOM     16  H   LIG d   1       8.934   6.727  -4.378  0.00  0.00     0.108 H 
ATOM     17  O   LIG d   1       9.114   7.937  -6.023  0.00  0.00    -0.331 OA
ATOM     18  C   LIG d   1       9.959   8.300  -7.117  0.00  0.00     0.114 C 
ATOM     19  C   LIG d   1      10.110   7.104  -8.062  0.00  0.00     0.112 C 
ATOM     20  H   LIG d   1      10.924   8.582  -6.671  0.00  0.00     0.065 H 
ATOM     21  C   LIG d   1      10.678   5.915  -7.282  0.00  0.00     0.115 C 
ATOM     22  H   LIG d   1       9.154   6.851  -8.545  0.00  0.00     0.065 H 
ATOM     23  C   LIG d   1       9.754   5.608  -6.098  0.00  0.00     0.145 C 
ATOM     24  H   LIG d   1      11.710   6.104  -6.951  0.00  0.00     0.065 H 
ATOM     25  H   LIG d   1       8.774   5.244  -6.436  0.00  0.00     0.068 H 
BRANCH  18  26
ATOM     26  C   LIG d   1       9.337   9.474  -7.876  0.00  0.00     0.073 C 
ATOM     27  H   LIG d   1       8.889  10.178  -7.159  0.00  0.00     0.058 H 
ATOM     28  H   LIG d   1      10.116   9.988  -8.457  0.00  0.00     0.058 H 
BRANCH  26  29
ATOM     29  O   LIG d   1       8.326   8.987  -8.761  0.00  0.00    -0.392 OA
ATOM     30  H   LIG d   1       8.085   7.913  -8.783  0.00  0.00     0.209 HD
ENDBRANCH  26  29
ENDBRANCH  18  26
BRANCH  19  31
ATOM     31  O   LIG d   1      10.998   7.446  -9.127  0.00  0.00    -0.387 OA
ATOM     32  H   LIG d   1      10.740   7.188 -10.164  0.00  0.00     0.210 HD
ENDBRANCH  19  31
BRANCH  21  33
ATOM     33  O   LIG d   1      10.752   4.774  -8.138  0.00  0.00    -0.386 OA
ATOM     34  H   LIG d   1      10.740   4.904  -9.230  0.00  0.00     0.210 HD
ENDBRANCH  21  33
BRANCH  23  35
ATOM     35  O   LIG d   1      10.311   4.547  -5.321  0.00  0.00    -0.383 OA
ATOM     36  H   LIG d   1      10.023   4.427  -4.265  0.00  0.00     0.210 HD
ENDBRANCH  23  35
ENDBRANCH  14  15
ENDBRANCH   2  14
BRANCH   1  37
ATOM     37  C   LIG d   1      10.845   9.840  -3.839  0.00  0.00     0.025 A 
ATOM     38  C   LIG d   1       9.635  10.524  -3.988  0.00  0.00    -0.047 A 
ATOM     39  C   LIG d   1       9.541  11.572  -4.879  0.00  0.00    -0.016 A 
ATOM     40  H   LIG d   1       8.776  10.234  -3.402  0.00  0.00     0.063 H 
ATOM     41  C   LIG d   1      10.641  11.942  -5.638  0.00  0.00     0.158 A 
ATOM     42  H   LIG d   1       8.607  12.102  -4.991  0.00  0.00     0.066 H 
ATOM     43  C   LIG d   1      11.851  11.261  -5.499  0.00  0.00     0.159 A 
ATOM     44  C   LIG d   1      11.954  10.214  -4.603  0.00  0.00    -0.006 A 
ATOM     45  H   LIG d   1      12.890   9.686  -4.495  0.00  0.00     0.066 H 
BRANCH  41  46
ATOM     46  O   LIG d   1      10.542  12.972  -6.518  0.00  0.00    -0.503 OA
ATOM     47  H   LIG d   1      10.687  12.793  -7.594  0.00  0.00     0.292 HD
ENDBRANCH  41  46
BRANCH  43  48
ATOM     48  O   LIG d   1      12.927  11.628  -6.244  0.00  0.00    -0.503 OA
ATOM     49  H   LIG d   1      13.358  12.633  -6.131  0.00  0.00     0.292 HD
ENDBRANCH  43  48
ENDBRANCH   1  37
BRANCH   6  50
ATOM     50  O   LIG d   1      11.294   4.371  -0.428  0.00  0.00    -0.506 OA
ATOM     51  H   LIG d   1      10.517   3.677  -0.075  0.00  0.00     0.292 HD
ENDBRANCH   6  50
BRANCH   8  52
ATOM     52  O   LIG d   1      11.363   7.681   2.981  0.00  0.00    -0.506 OA
ATOM     53  H   LIG d   1      12.002   8.513   3.309  0.00  0.00     0.292 HD
ENDBRANCH   8  52
TORSDOF 12
ENDMDL
