MODEL 1
REMARK VINA RESULT:      -6.9      0.000      0.000
REMARK  8 active torsions:
REMARK  status: ('A' for Active; 'I' for Inactive)
REMARK    1  A    between atoms: C_1  and  C_2 
REMARK    2  A    between atoms: C_2  and  C_3 
REMARK    3  A    between atoms: C_3  and  C_4 
REMARK    4  A    between atoms: C_4  and  O_5 
REMARK    5  A    between atoms: O_5  and  C_6 
REMARK    6  A    between atoms: C_9  and  N_12 
REMARK       I    between atoms: N_12  and  C_13 
REMARK    7  A    between atoms: C_13  and  C_15 
REMARK    8  A    between atoms: N_21  and  C_22 
ROOT
ATOM      1  N   LIG d   1       3.688  -4.186  -6.896  0.00  0.00    -0.284 N 
ATOM      2  C   LIG d   1       4.530  -3.276  -7.425  0.00  0.00     0.238 C 
ATOM      3  O   LIG d   1       5.609  -3.625  -7.853  0.00  0.00    -0.273 OA
ATOM      4  H   LIG d   1       2.796  -3.921  -6.623  0.00  0.00     0.155 HD
ENDROOT
BRANCH   2   5
ATOM      5  C   LIG d   1       4.131  -1.824  -7.482  0.00  0.00     0.106 C 
ATOM      6  H   LIG d   1       3.128  -1.694  -7.076  0.00  0.00     0.060 H 
ATOM      7  N   LIG d   1       5.092  -1.003  -6.737  0.00  0.00    -0.251 N 
ATOM      8  C   LIG d   1       5.410   0.112  -7.416  0.00  0.00     0.219 C 
ATOM      9  C   LIG d   1       4.674   0.145  -8.738  0.00  0.00     0.026 C 
ATOM     10  O   LIG d   1       6.178   0.967  -7.027  0.00  0.00    -0.276 OA
ATOM     11  C   LIG d   1       4.189  -1.308  -8.941  0.00  0.00    -0.017 C 
ATOM     12  H   LIG d   1       3.825   0.827  -8.685  0.00  0.00     0.036 H 
ATOM     13  H   LIG d   1       5.349   0.438  -9.543  0.00  0.00     0.036 H 
ATOM     14  H   LIG d   1       3.202  -1.330  -9.405  0.00  0.00     0.029 H 
ATOM     15  H   LIG d   1       4.906  -1.881  -9.529  0.00  0.00     0.029 H 
BRANCH   7  16
ATOM     16  C   LIG d   1       5.634  -1.353  -5.422  0.00  0.00     0.201 A 
ATOM     17  H   LIG d   1       5.624  -2.436  -5.290  0.00  0.00     0.101 H 
ATOM     18  O   LIG d   1       6.991  -0.847  -5.291  0.00  0.00    -0.435 OA
ATOM     19  C   LIG d   1       7.037   0.017  -4.263  0.00  0.00     0.342 A 
ATOM     20  C   LIG d   1       5.706   0.142  -3.641  0.00  0.00     0.067 A 
ATOM     21  O   LIG d   1       8.032   0.612  -3.899  0.00  0.00    -0.245 OA
ATOM     22  C   LIG d   1       4.825  -0.691  -4.335  0.00  0.00     0.025 A 
ATOM     23  C   LIG d   1       5.234   0.895  -2.565  0.00  0.00    -0.047 A 
ATOM     24  C   LIG d   1       3.504  -0.769  -3.961  0.00  0.00    -0.053 A 
ATOM     25  C   LIG d   1       3.042  -0.019  -2.893  0.00  0.00    -0.061 A 
ATOM     26  H   LIG d   1       2.826  -1.414  -4.501  0.00  0.00     0.062 H 
ATOM     27  C   LIG d   1       3.906   0.809  -2.199  0.00  0.00    -0.061 A 
ATOM     28  H   LIG d   1       2.005  -0.081  -2.600  0.00  0.00     0.062 H 
ATOM     29  H   LIG d   1       3.541   1.392  -1.366  0.00  0.00     0.062 H 
ATOM     30  H   LIG d   1       5.905   1.542  -2.021  0.00  0.00     0.063 H 
ENDBRANCH   7  16
ENDBRANCH   2   5
BRANCH   1  31
ATOM     31  C   LIG d   1       4.101  -5.517  -6.744  0.00  0.00     0.034 A 
ATOM     32  C   LIG d   1       4.628  -5.945  -5.533  0.00  0.00    -0.037 A 
ATOM     33  C   LIG d   1       5.035  -7.257  -5.383  0.00  0.00    -0.018 A 
ATOM     34  H   LIG d   1       4.719  -5.255  -4.708  0.00  0.00     0.064 H 
ATOM     35  C   LIG d   1       4.918  -8.145  -6.442  0.00  0.00     0.121 A 
ATOM     36  H   LIG d   1       5.445  -7.591  -4.441  0.00  0.00     0.066 H 
ATOM     37  C   LIG d   1       4.392  -7.718  -7.652  0.00  0.00    -0.018 A 
ATOM     38  C   LIG d   1       3.979  -6.409  -7.801  0.00  0.00    -0.037 A 
ATOM     39  H   LIG d   1       4.301  -8.409  -8.476  0.00  0.00     0.066 H 
ATOM     40  H   LIG d   1       3.565  -6.076  -8.742  0.00  0.00     0.064 H 
BRANCH  35  41
ATOM     41  O   LIG d   1       5.319  -9.436  -6.293  0.00  0.00    -0.492 OA
BRANCH  41  42
ATOM     42  C   LIG d   1       4.582 -10.242  -5.372  0.00  0.00     0.090 C 
ATOM     43  H   LIG d   1       3.759  -9.660  -4.956  0.00  0.00     0.070 H 
ATOM     44  H   LIG d   1       4.183 -11.114  -5.891  0.00  0.00     0.070 H 
BRANCH  42  45
ATOM     45  C   LIG d   1       5.506 -10.700  -4.242  0.00  0.00    -0.019 C 
ATOM     46  H   LIG d   1       5.760 -11.750  -4.383  0.00  0.00     0.030 H 
ATOM     47  H   LIG d   1       6.417 -10.101  -4.253  0.00  0.00     0.030 H 
BRANCH  45  48
ATOM     48  C   LIG d   1       4.795 -10.524  -2.898  0.00  0.00    -0.053 C 
ATOM     49  H   LIG d   1       4.769 -11.478  -2.373  0.00  0.00     0.026 H 
ATOM     50  H   LIG d   1       5.334  -9.792  -2.295  0.00  0.00     0.026 H 
BRANCH  48  51
ATOM     51  C   LIG d   1       3.366 -10.033  -3.138  0.00  0.00    -0.065 C 
ATOM     52  H   LIG d   1       3.276  -8.998  -2.805  0.00  0.00     0.023 H 
ATOM     53  H   LIG d   1       3.135 -10.092  -4.202  0.00  0.00     0.023 H 
ATOM     54  H   LIG d   1       2.669 -10.657  -2.579  0.00  0.00     0.023 H 
ENDBRANCH  48  51
ENDBRANCH  45  48
ENDBRANCH  42  45
ENDBRANCH  41  42
ENDBRANCH  35  41
ENDBRANCH   1  31
TORSDOF 8
ENDMDL
MODEL 2
REMARK VINA RESULT:      -6.7      2.313      8.456
REMARK  8 active torsions:
REMARK  status: ('A' for Active; 'I' for Inactive)
REMARK    1  A    between atoms: C_1  and  C_2 
REMARK    2  A    between atoms: C_2  and  C_3 
REMARK    3  A    between atoms: C_3  and  C_4 
REMARK    4  A    between atoms: C_4  and  O_5 
REMARK    5  A    between atoms: O_5  and  C_6 
REMARK    6  A    between atoms: C_9  and  N_12 
REMARK       I    between atoms: N_12  and  C_13 
REMARK    7  A    between atoms: C_13  and  C_15 
REMARK    8  A    between atoms: N_21  and  C_22 
ROOT
ATOM      1  N   LIG d   1       5.257  -4.163  -6.080  0.00  0.00    -0.284 N 
ATOM      2  C   LIG d   1       4.483  -5.189  -6.483  0.00  0.00     0.238 C 
ATOM      3  O   LIG d   1       3.297  -5.191  -6.227  0.00  0.00    -0.273 OA
ATOM      4  H   LIG d   1       6.189  -4.123  -6.349  0.00  0.00     0.155 HD
ENDROOT
BRANCH   2   5
ATOM      5  C   LIG d   1       5.089  -6.335  -7.251  0.00  0.00     0.106 C 
ATOM      6  H   LIG d   1       6.157  -6.170  -7.391  0.00  0.00     0.060 H 
ATOM      7  N   LIG d   1       4.858  -7.600  -6.543  0.00  0.00    -0.251 N 
ATOM      8  C   LIG d   1       4.475  -8.570  -7.390  0.00  0.00     0.219 C 
ATOM      9  C   LIG d   1       4.399  -8.029  -8.801  0.00  0.00     0.026 C 
ATOM     10  O   LIG d   1       4.226  -9.713  -7.070  0.00  0.00    -0.276 OA
ATOM     11  C   LIG d   1       4.387  -6.494  -8.622  0.00  0.00    -0.017 C 
ATOM     12  H   LIG d   1       5.272  -8.339  -9.376  0.00  0.00     0.036 H 
ATOM     13  H   LIG d   1       3.483  -8.364  -9.289  0.00  0.00     0.036 H 
ATOM     14  H   LIG d   1       4.955  -6.004  -9.413  0.00  0.00     0.029 H 
ATOM     15  H   LIG d   1       3.366  -6.114  -8.584  0.00  0.00     0.029 H 
BRANCH   7  16
ATOM     16  C   LIG d   1       5.024  -7.781  -5.099  0.00  0.00     0.201 A 
ATOM     17  H   LIG d   1       4.849  -6.837  -4.581  0.00  0.00     0.101 H 
ATOM     18  O   LIG d   1       4.101  -8.795  -4.614  0.00  0.00    -0.435 OA
ATOM     19  C   LIG d   1       4.805  -9.806  -4.078  0.00  0.00     0.342 A 
ATOM     20  C   LIG d   1       6.250  -9.528  -4.173  0.00  0.00     0.067 A 
ATOM     21  O   LIG d   1       4.321 -10.806  -3.588  0.00  0.00    -0.245 OA
ATOM     22  C   LIG d   1       6.412  -8.288  -4.797  0.00  0.00     0.025 A 
ATOM     23  C   LIG d   1       7.377 -10.246  -3.773  0.00  0.00    -0.047 A 
ATOM     24  C   LIG d   1       7.671  -7.780  -5.014  0.00  0.00    -0.053 A 
ATOM     25  C   LIG d   1       8.785  -8.498  -4.615  0.00  0.00    -0.061 A 
ATOM     26  H   LIG d   1       7.791  -6.821  -5.497  0.00  0.00     0.062 H 
ATOM     27  C   LIG d   1       8.636  -9.727  -3.996  0.00  0.00    -0.061 A 
ATOM     28  H   LIG d   1       9.773  -8.098  -4.786  0.00  0.00     0.062 H 
ATOM     29  H   LIG d   1       9.509 -10.283  -3.686  0.00  0.00     0.062 H 
ATOM     30  H   LIG d   1       7.265 -11.205  -3.289  0.00  0.00     0.063 H 
ENDBRANCH   7  16
ENDBRANCH   2   5
BRANCH   1  31
ATOM     31  C   LIG d   1       4.717  -3.151  -5.274  0.00  0.00     0.034 A 
ATOM     32  C   LIG d   1       4.574  -3.354  -3.909  0.00  0.00    -0.037 A 
ATOM     33  C   LIG d   1       4.041  -2.358  -3.114  0.00  0.00    -0.018 A 
ATOM     34  H   LIG d   1       4.880  -4.291  -3.466  0.00  0.00     0.064 H 
ATOM     35  C   LIG d   1       3.649  -1.154  -3.682  0.00  0.00     0.121 A 
ATOM     36  H   LIG d   1       3.930  -2.515  -2.052  0.00  0.00     0.066 H 
ATOM     37  C   LIG d   1       3.792  -0.950  -5.046  0.00  0.00    -0.018 A 
ATOM     38  C   LIG d   1       4.330  -1.944  -5.841  0.00  0.00    -0.037 A 
ATOM     39  H   LIG d   1       3.486  -0.014  -5.487  0.00  0.00     0.066 H 
ATOM     40  H   LIG d   1       4.445  -1.784  -6.902  0.00  0.00     0.064 H 
BRANCH  35  41
ATOM     41  O   LIG d   1       3.125  -0.173  -2.900  0.00  0.00    -0.492 OA
BRANCH  41  42
ATOM     42  C   LIG d   1       3.761   1.106  -2.951  0.00  0.00     0.090 C 
ATOM     43  H   LIG d   1       3.915   1.395  -3.991  0.00  0.00     0.070 H 
ATOM     44  H   LIG d   1       3.128   1.846  -2.458  0.00  0.00     0.070 H 
BRANCH  42  45
ATOM     45  C   LIG d   1       5.112   1.033  -2.236  0.00  0.00    -0.019 C 
ATOM     46  H   LIG d   1       5.148   1.787  -1.451  0.00  0.00     0.030 H 
ATOM     47  H   LIG d   1       5.237   0.044  -1.796  0.00  0.00     0.030 H 
BRANCH  45  48
ATOM     48  C   LIG d   1       6.236   1.290  -3.243  0.00  0.00    -0.053 C 
ATOM     49  H   LIG d   1       5.809   1.639  -4.183  0.00  0.00     0.026 H 
ATOM     50  H   LIG d   1       6.912   2.049  -2.847  0.00  0.00     0.026 H 
BRANCH  48  51
ATOM     51  C   LIG d   1       7.011  -0.007  -3.484  0.00  0.00    -0.065 C 
ATOM     52  H   LIG d   1       6.854  -0.686  -2.645  0.00  0.00     0.023 H 
ATOM     53  H   LIG d   1       6.656  -0.477  -4.402  0.00  0.00     0.023 H 
ATOM     54  H   LIG d   1       8.073   0.217  -3.578  0.00  0.00     0.023 H 
ENDBRANCH  48  51
ENDBRANCH  45  48
ENDBRANCH  42  45
ENDBRANCH  41  42
ENDBRANCH  35  41
ENDBRANCH   1  31
TORSDOF 8
ENDMDL
MODEL 3
REMARK VINA RESULT:      -6.4      4.492      9.786
REMARK  8 active torsions:
REMARK  status: ('A' for Active; 'I' for Inactive)
REMARK    1  A    between atoms: C_1  and  C_2 
REMARK    2  A    between atoms: C_2  and  C_3 
REMARK    3  A    between atoms: C_3  and  C_4 
REMARK    4  A    between atoms: C_4  and  O_5 
REMARK    5  A    between atoms: O_5  and  C_6 
REMARK    6  A    between atoms: C_9  and  N_12 
REMARK       I    between atoms: N_12  and  C_13 
REMARK    7  A    between atoms: C_13  and  C_15 
REMARK    8  A    between atoms: N_21  and  C_22 
ROOT
ATOM      1  N   LIG d   1       8.983   0.945  -3.872  0.00  0.00    -0.284 N 
ATOM      2  C   LIG d   1       9.051   0.165  -4.969  0.00  0.00     0.238 C 
ATOM      3  O   LIG d   1       9.626   0.563  -5.960  0.00  0.00    -0.273 OA
ATOM      4  H   LIG d   1       8.591   0.599  -3.055  0.00  0.00     0.155 HD
ENDROOT
BRANCH   2   5
ATOM      5  C   LIG d   1       8.415  -1.201  -4.964  0.00  0.00     0.106 C 
ATOM      6  H   LIG d   1       8.359  -1.585  -3.946  0.00  0.00     0.060 H 
ATOM      7  N   LIG d   1       7.074  -1.138  -5.558  0.00  0.00    -0.251 N 
ATOM      8  C   LIG d   1       6.866  -2.165  -6.400  0.00  0.00     0.219 C 
ATOM      9  C   LIG d   1       8.096  -3.044  -6.464  0.00  0.00     0.026 C 
ATOM     10  O   LIG d   1       5.841  -2.357  -7.020  0.00  0.00    -0.276 OA
ATOM     11  C   LIG d   1       9.220  -2.172  -5.861  0.00  0.00    -0.017 C 
ATOM     12  H   LIG d   1       7.951  -3.945  -5.867  0.00  0.00     0.036 H 
ATOM     13  H   LIG d   1       8.326  -3.303  -7.497  0.00  0.00     0.036 H 
ATOM     14  H   LIG d   1       9.908  -2.775  -5.268  0.00  0.00     0.029 H 
ATOM     15  H   LIG d   1       9.755  -1.630  -6.641  0.00  0.00     0.029 H 
BRANCH   7  16
ATOM     16  C   LIG d   1       6.090  -0.092  -5.271  0.00  0.00     0.201 A 
ATOM     17  H   LIG d   1       6.598   0.840  -5.016  0.00  0.00     0.101 H 
ATOM     18  O   LIG d   1       5.226   0.110  -6.422  0.00  0.00    -0.435 OA
ATOM     19  C   LIG d   1       3.957  -0.154  -6.067  0.00  0.00     0.342 A 
ATOM     20  C   LIG d   1       3.896  -0.552  -4.648  0.00  0.00     0.067 A 
ATOM     21  O   LIG d   1       2.997  -0.079  -6.809  0.00  0.00    -0.245 OA
ATOM     22  C   LIG d   1       5.195  -0.521  -4.135  0.00  0.00     0.025 A 
ATOM     23  C   LIG d   1       2.839  -0.920  -3.815  0.00  0.00    -0.047 A 
ATOM     24  C   LIG d   1       5.430  -0.850  -2.820  0.00  0.00    -0.053 A 
ATOM     25  C   LIG d   1       4.377  -1.214  -2.000  0.00  0.00    -0.061 A 
ATOM     26  H   LIG d   1       6.437  -0.825  -2.428  0.00  0.00     0.062 H 
ATOM     27  C   LIG d   1       3.086  -1.249  -2.499  0.00  0.00    -0.061 A 
ATOM     28  H   LIG d   1       4.561  -1.473  -0.968  0.00  0.00     0.062 H 
ATOM     29  H   LIG d   1       2.267  -1.533  -1.853  0.00  0.00     0.062 H 
ATOM     30  H   LIG d   1       1.830  -0.947  -4.200  0.00  0.00     0.063 H 
ENDBRANCH   7  16
ENDBRANCH   2   5
BRANCH   1  31
ATOM     31  C   LIG d   1       9.480   2.255  -3.911  0.00  0.00     0.034 A 
ATOM     32  C   LIG d   1       8.829   3.222  -4.666  0.00  0.00    -0.037 A 
ATOM     33  C   LIG d   1       9.319   4.513  -4.706  0.00  0.00    -0.018 A 
ATOM     34  H   LIG d   1       7.941   2.965  -5.223  0.00  0.00     0.064 H 
ATOM     35  C   LIG d   1      10.461   4.843  -3.990  0.00  0.00     0.121 A 
ATOM     36  H   LIG d   1       8.813   5.265  -5.293  0.00  0.00     0.066 H 
ATOM     37  C   LIG d   1      11.111   3.878  -3.235  0.00  0.00    -0.018 A 
ATOM     38  C   LIG d   1      10.619   2.588  -3.190  0.00  0.00    -0.037 A 
ATOM     39  H   LIG d   1      12.000   4.136  -2.679  0.00  0.00     0.066 H 
ATOM     40  H   LIG d   1      11.122   1.838  -2.600  0.00  0.00     0.064 H 
BRANCH  35  41
ATOM     41  O   LIG d   1      10.942   6.114  -4.028  0.00  0.00    -0.492 OA
BRANCH  41  42
ATOM     42  C   LIG d   1      11.220   6.740  -2.774  0.00  0.00     0.090 C 
ATOM     43  H   LIG d   1      11.779   6.052  -2.139  0.00  0.00     0.070 H 
ATOM     44  H   LIG d   1      11.812   7.641  -2.941  0.00  0.00     0.070 H 
BRANCH  42  45
ATOM     45  C   LIG d   1       9.905   7.114  -2.088  0.00  0.00    -0.019 C 
ATOM     46  H   LIG d   1       9.547   8.065  -2.482  0.00  0.00     0.030 H 
ATOM     47  H   LIG d   1       9.163   6.339  -2.279  0.00  0.00     0.030 H 
BRANCH  45  48
ATOM     48  C   LIG d   1      10.134   7.241  -0.580  0.00  0.00    -0.053 C 
ATOM     49  H   LIG d   1      10.766   8.106  -0.380  0.00  0.00     0.026 H 
ATOM     50  H   LIG d   1       9.175   7.367  -0.076  0.00  0.00     0.026 H 
BRANCH  48  51
ATOM     51  C   LIG d   1      10.819   5.975  -0.060  0.00  0.00    -0.065 C 
ATOM     52  H   LIG d   1      11.384   5.510  -0.869  0.00  0.00     0.023 H 
ATOM     53  H   LIG d   1      11.498   6.238   0.752  0.00  0.00     0.023 H 
ATOM     54  H   LIG d   1      10.066   5.278   0.307  0.00  0.00     0.023 H 
ENDBRANCH  48  51
ENDBRANCH  45  48
ENDBRANCH  42  45
ENDBRANCH  41  42
ENDBRANCH  35  41
ENDBRANCH   1  31
TORSDOF 8
ENDMDL
MODEL 4
REMARK VINA RESULT:      -6.4      6.591     10.029
REMARK  8 active torsions:
REMARK  status: ('A' for Active; 'I' for Inactive)
REMARK    1  A    between atoms: C_1  and  C_2 
REMARK    2  A    between atoms: C_2  and  C_3 
REMARK    3  A    between atoms: C_3  and  C_4 
REMARK    4  A    between atoms: C_4  and  O_5 
REMARK    5  A    between atoms: O_5  and  C_6 
REMARK    6  A    between atoms: C_9  and  N_12 
REMARK       I    between atoms: N_12  and  C_13 
REMARK    7  A    between atoms: C_13  and  C_15 
REMARK    8  A    between atoms: N_21  and  C_22 
ROOT
ATOM      1  N   LIG d   1      10.396   3.264  -4.554  0.00  0.00    -0.284 N 
ATOM      2  C   LIG d   1      11.438   3.197  -3.702  0.00  0.00     0.238 C 
ATOM      3  O   LIG d   1      11.602   2.206  -3.023  0.00  0.00    -0.273 OA
ATOM      4  H   LIG d   1      10.307   4.024  -5.152  0.00  0.00     0.155 HD
ENDROOT
BRANCH   2   5
ATOM      5  C   LIG d   1      12.398   4.353  -3.592  0.00  0.00     0.106 C 
ATOM      6  H   LIG d   1      12.143   5.124  -4.319  0.00  0.00     0.060 H 
ATOM      7  N   LIG d   1      12.371   4.908  -2.233  0.00  0.00    -0.251 N 
ATOM      8  C   LIG d   1      13.613   5.158  -1.784  0.00  0.00     0.219 C 
ATOM      9  C   LIG d   1      14.634   4.772  -2.833  0.00  0.00     0.026 C 
ATOM     10  O   LIG d   1      13.878   5.624  -0.696  0.00  0.00    -0.276 OA
ATOM     11  C   LIG d   1      13.852   3.868  -3.812  0.00  0.00    -0.017 C 
ATOM     12  H   LIG d   1      15.006   5.658  -3.347  0.00  0.00     0.036 H 
ATOM     13  H   LIG d   1      15.457   4.220  -2.378  0.00  0.00     0.036 H 
ATOM     14  H   LIG d   1      14.170   4.038  -4.841  0.00  0.00     0.029 H 
ATOM     15  H   LIG d   1      13.957   2.817  -3.542  0.00  0.00     0.029 H 
BRANCH   7  16
ATOM     16  C   LIG d   1      11.149   5.157  -1.466  0.00  0.00     0.201 A 
ATOM     17  H   LIG d   1      10.348   4.505  -1.816  0.00  0.00     0.101 H 
ATOM     18  O   LIG d   1      11.394   4.932  -0.051  0.00  0.00    -0.435 OA
ATOM     19  C   LIG d   1      11.169   6.074   0.619  0.00  0.00     0.342 A 
ATOM     20  C   LIG d   1      10.758   7.140  -0.313  0.00  0.00     0.067 A 
ATOM     21  O   LIG d   1      11.289   6.211   1.820  0.00  0.00    -0.245 OA
ATOM     22  C   LIG d   1      10.737   6.602  -1.603  0.00  0.00     0.025 A 
ATOM     23  C   LIG d   1      10.417   8.480  -0.125  0.00  0.00    -0.047 A 
ATOM     24  C   LIG d   1      10.384   7.385  -2.676  0.00  0.00    -0.053 A 
ATOM     25  C   LIG d   1      10.048   8.714  -2.482  0.00  0.00    -0.061 A 
ATOM     26  H   LIG d   1      10.370   6.965  -3.672  0.00  0.00     0.062 H 
ATOM     27  C   LIG d   1      10.065   9.257  -1.209  0.00  0.00    -0.061 A 
ATOM     28  H   LIG d   1       9.771   9.329  -3.325  0.00  0.00     0.062 H 
ATOM     29  H   LIG d   1       9.801  10.295  -1.063  0.00  0.00     0.062 H 
ATOM     30  H   LIG d   1      10.429   8.908   0.867  0.00  0.00     0.063 H 
ENDBRANCH   7  16
ENDBRANCH   2   5
BRANCH   1  31
ATOM     31  C   LIG d   1       9.443   2.237  -4.579  0.00  0.00     0.034 A 
ATOM     32  C   LIG d   1       9.608   1.158  -5.438  0.00  0.00    -0.037 A 
ATOM     33  C   LIG d   1       8.668   0.146  -5.463  0.00  0.00    -0.018 A 
ATOM     34  H   LIG d   1      10.470   1.110  -6.086  0.00  0.00     0.064 H 
ATOM     35  C   LIG d   1       7.561   0.208  -4.630  0.00  0.00     0.121 A 
ATOM     36  H   LIG d   1       8.796  -0.693  -6.130  0.00  0.00     0.066 H 
ATOM     37  C   LIG d   1       7.395   1.285  -3.772  0.00  0.00    -0.018 A 
ATOM     38  C   LIG d   1       8.337   2.295  -3.742  0.00  0.00    -0.037 A 
ATOM     39  H   LIG d   1       6.533   1.332  -3.124  0.00  0.00     0.066 H 
ATOM     40  H   LIG d   1       8.211   3.131  -3.071  0.00  0.00     0.064 H 
BRANCH  35  41
ATOM     41  O   LIG d   1       6.636  -0.789  -4.654  0.00  0.00    -0.492 OA
BRANCH  41  42
ATOM     42  C   LIG d   1       5.375  -0.520  -4.038  0.00  0.00     0.090 C 
ATOM     43  H   LIG d   1       5.442   0.402  -3.459  0.00  0.00     0.070 H 
ATOM     44  H   LIG d   1       4.611  -0.409  -4.808  0.00  0.00     0.070 H 
BRANCH  42  45
ATOM     45  C   LIG d   1       5.002  -1.679  -3.112  0.00  0.00    -0.019 C 
ATOM     46  H   LIG d   1       4.294  -2.334  -3.618  0.00  0.00     0.030 H 
ATOM     47  H   LIG d   1       5.899  -2.242  -2.855  0.00  0.00     0.030 H 
BRANCH  45  48
ATOM     48  C   LIG d   1       4.364  -1.127  -1.835  0.00  0.00    -0.053 C 
ATOM     49  H   LIG d   1       3.314  -1.418  -1.798  0.00  0.00     0.026 H 
ATOM     50  H   LIG d   1       4.883  -1.530  -0.965  0.00  0.00     0.026 H 
BRANCH  48  51
ATOM     51  C   LIG d   1       4.471   0.399  -1.830  0.00  0.00    -0.065 C 
ATOM     52  H   LIG d   1       3.563   0.829  -2.254  0.00  0.00     0.023 H 
ATOM     53  H   LIG d   1       4.594   0.751  -0.805  0.00  0.00     0.023 H 
ATOM     54  H   LIG d   1       5.331   0.705  -2.425  0.00  0.00     0.023 H 
ENDBRANCH  48  51
ENDBRANCH  45  48
ENDBRANCH  42  45
ENDBRANCH  41  42
ENDBRANCH  35  41
ENDBRANCH   1  31
TORSDOF 8
ENDMDL
MODEL 5
REMARK VINA RESULT:      -6.4      4.761     10.174
REMARK  8 active torsions:
REMARK  status: ('A' for Active; 'I' for Inactive)
REMARK    1  A    between atoms: C_1  and  C_2 
REMARK    2  A    between atoms: C_2  and  C_3 
REMARK    3  A    between atoms: C_3  and  C_4 
REMARK    4  A    between atoms: C_4  and  O_5 
REMARK    5  A    between atoms: O_5  and  C_6 
REMARK    6  A    between atoms: C_9  and  N_12 
REMARK       I    between atoms: N_12  and  C_13 
REMARK    7  A    between atoms: C_13  and  C_15 
REMARK    8  A    between atoms: N_21  and  C_22 
ROOT
ATOM      1  N   LIG d   1       8.490   2.770  -5.026  0.00  0.00    -0.284 N 
ATOM      2  C   LIG d   1       9.040   1.605  -5.422  0.00  0.00     0.238 C 
ATOM      3  O   LIG d   1      10.204   1.369  -5.173  0.00  0.00    -0.273 OA
ATOM      4  H   LIG d   1       7.542   2.928  -5.157  0.00  0.00     0.155 HD
ENDROOT
BRANCH   2   5
ATOM      5  C   LIG d   1       8.210   0.596  -6.172  0.00  0.00     0.106 C 
ATOM      6  H   LIG d   1       8.797  -0.302  -6.367  0.00  0.00     0.060 H 
ATOM      7  N   LIG d   1       7.005   0.258  -5.406  0.00  0.00    -0.251 N 
ATOM      8  C   LIG d   1       5.919   0.223  -6.196  0.00  0.00     0.219 C 
ATOM      9  C   LIG d   1       6.301   0.555  -7.622  0.00  0.00     0.026 C 
ATOM     10  O   LIG d   1       4.795  -0.037  -5.821  0.00  0.00    -0.276 OA
ATOM     11  C   LIG d   1       7.699   1.202  -7.502  0.00  0.00    -0.017 C 
ATOM     12  H   LIG d   1       6.352  -0.353  -8.224  0.00  0.00     0.036 H 
ATOM     13  H   LIG d   1       5.590   1.259  -8.053  0.00  0.00     0.036 H 
ATOM     14  H   LIG d   1       8.338   0.912  -8.336  0.00  0.00     0.029 H 
ATOM     15  H   LIG d   1       7.622   2.287  -7.432  0.00  0.00     0.029 H 
BRANCH   7  16
ATOM     16  C   LIG d   1       6.988  -0.005  -3.965  0.00  0.00     0.201 A 
ATOM     17  H   LIG d   1       7.974  -0.334  -3.633  0.00  0.00     0.101 H 
ATOM     18  O   LIG d   1       6.593   1.194  -3.243  0.00  0.00    -0.435 OA
ATOM     19  C   LIG d   1       5.466   0.939  -2.558  0.00  0.00     0.342 A 
ATOM     20  C   LIG d   1       5.036  -0.453  -2.781  0.00  0.00     0.067 A 
ATOM     21  O   LIG d   1       4.883   1.742  -1.856  0.00  0.00    -0.245 OA
ATOM     22  C   LIG d   1       5.956  -1.057  -3.643  0.00  0.00     0.025 A 
ATOM     23  C   LIG d   1       3.952  -1.194  -2.308  0.00  0.00    -0.047 A 
ATOM     24  C   LIG d   1       5.795  -2.369  -4.022  0.00  0.00    -0.053 A 
ATOM     25  C   LIG d   1       4.717  -3.097  -3.549  0.00  0.00    -0.061 A 
ATOM     26  H   LIG d   1       6.508  -2.831  -4.689  0.00  0.00     0.062 H 
ATOM     27  C   LIG d   1       3.800  -2.510  -2.695  0.00  0.00    -0.061 A 
ATOM     28  H   LIG d   1       4.591  -4.128  -3.847  0.00  0.00     0.062 H 
ATOM     29  H   LIG d   1       2.961  -3.084  -2.329  0.00  0.00     0.062 H 
ATOM     30  H   LIG d   1       3.235  -0.740  -1.642  0.00  0.00     0.063 H 
ENDBRANCH   7  16
ENDBRANCH   2   5
BRANCH   1  31
ATOM     31  C   LIG d   1       9.288   3.753  -4.425  0.00  0.00     0.034 A 
ATOM     32  C   LIG d   1       9.696   4.860  -5.157  0.00  0.00    -0.037 A 
ATOM     33  C   LIG d   1      10.482   5.828  -4.564  0.00  0.00    -0.018 A 
ATOM     34  H   LIG d   1       9.399   4.964  -6.190  0.00  0.00     0.064 H 
ATOM     35  C   LIG d   1      10.864   5.695  -3.237  0.00  0.00     0.121 A 
ATOM     36  H   LIG d   1      10.800   6.689  -5.134  0.00  0.00     0.066 H 
ATOM     37  C   LIG d   1      10.456   4.590  -2.504  0.00  0.00    -0.018 A 
ATOM     38  C   LIG d   1       9.665   3.624  -3.094  0.00  0.00    -0.037 A 
ATOM     39  H   LIG d   1      10.754   4.487  -1.472  0.00  0.00     0.066 H 
ATOM     40  H   LIG d   1       9.344   2.766  -2.524  0.00  0.00     0.064 H 
BRANCH  35  41
ATOM     41  O   LIG d   1      11.637   6.649  -2.654  0.00  0.00    -0.492 OA
BRANCH  41  42
ATOM     42  C   LIG d   1      11.081   7.341  -1.534  0.00  0.00     0.090 C 
ATOM     43  H   LIG d   1      10.953   8.394  -1.784  0.00  0.00     0.070 H 
ATOM     44  H   LIG d   1      10.112   6.907  -1.284  0.00  0.00     0.070 H 
BRANCH  42  45
ATOM     45  C   LIG d   1      12.022   7.211  -0.335  0.00  0.00    -0.019 C 
ATOM     46  H   LIG d   1      13.052   7.335  -0.667  0.00  0.00     0.030 H 
ATOM     47  H   LIG d   1      11.782   7.978   0.400  0.00  0.00     0.030 H 
BRANCH  45  48
ATOM     48  C   LIG d   1      11.854   5.827   0.298  0.00  0.00    -0.053 C 
ATOM     49  H   LIG d   1      11.348   5.165  -0.405  0.00  0.00     0.026 H 
ATOM     50  H   LIG d   1      12.835   5.417   0.540  0.00  0.00     0.026 H 
BRANCH  48  51
ATOM     51  C   LIG d   1      11.023   5.949   1.576  0.00  0.00    -0.065 C 
ATOM     52  H   LIG d   1      10.757   6.993   1.739  0.00  0.00     0.023 H 
ATOM     53  H   LIG d   1      10.114   5.354   1.476  0.00  0.00     0.023 H 
ATOM     54  H   LIG d   1      11.603   5.584   2.424  0.00  0.00     0.023 H 
ENDBRANCH  48  51
ENDBRANCH  45  48
ENDBRANCH  42  45
ENDBRANCH  41  42
ENDBRANCH  35  41
ENDBRANCH   1  31
TORSDOF 8
ENDMDL
MODEL 6
REMARK VINA RESULT:      -6.3      6.013      9.270
REMARK  8 active torsions:
REMARK  status: ('A' for Active; 'I' for Inactive)
REMARK    1  A    between atoms: C_1  and  C_2 
REMARK    2  A    between atoms: C_2  and  C_3 
REMARK    3  A    between atoms: C_3  and  C_4 
REMARK    4  A    between atoms: C_4  and  O_5 
REMARK    5  A    between atoms: O_5  and  C_6 
REMARK    6  A    between atoms: C_9  and  N_12 
REMARK       I    between atoms: N_12  and  C_13 
REMARK    7  A    between atoms: C_13  and  C_15 
REMARK    8  A    between atoms: N_21  and  C_22 
ROOT
ATOM      1  N   LIG d   1       9.417   2.380  -5.091  0.00  0.00    -0.284 N 
ATOM      2  C   LIG d   1      10.512   2.676  -4.363  0.00  0.00     0.238 C 
ATOM      3  O   LIG d   1      10.776   2.026  -3.374  0.00  0.00    -0.273 OA
ATOM      4  H   LIG d   1       9.247   2.850  -5.923  0.00  0.00     0.155 HD
ENDROOT
BRANCH   2   5
ATOM      5  C   LIG d   1      11.408   3.815  -4.777  0.00  0.00     0.106 C 
ATOM      6  H   LIG d   1      11.060   4.245  -5.715  0.00  0.00     0.060 H 
ATOM      7  N   LIG d   1      11.442   4.842  -3.729  0.00  0.00    -0.251 N 
ATOM      8  C   LIG d   1      12.694   5.278  -3.514  0.00  0.00     0.219 C 
ATOM      9  C   LIG d   1      13.662   4.553  -4.423  0.00  0.00     0.026 C 
ATOM     10  O   LIG d   1      13.005   6.129  -2.707  0.00  0.00    -0.276 OA
ATOM     11  C   LIG d   1      12.869   3.323  -4.922  0.00  0.00    -0.017 C 
ATOM     12  H   LIG d   1      13.946   5.189  -5.262  0.00  0.00     0.036 H 
ATOM     13  H   LIG d   1      14.545   4.238  -3.867  0.00  0.00     0.036 H 
ATOM     14  H   LIG d   1      13.107   3.100  -5.962  0.00  0.00     0.029 H 
ATOM     15  H   LIG d   1      13.054   2.456  -4.287  0.00  0.00     0.029 H 
BRANCH   7  16
ATOM     16  C   LIG d   1      10.262   5.328  -3.010  0.00  0.00     0.201 A 
ATOM     17  H   LIG d   1       9.358   4.891  -3.436  0.00  0.00     0.101 H 
ATOM     18  O   LIG d   1      10.364   4.991  -1.599  0.00  0.00    -0.435 OA
ATOM     19  C   LIG d   1      10.360   6.124  -0.878  0.00  0.00     0.342 A 
ATOM     20  C   LIG d   1      10.256   7.295  -1.768  0.00  0.00     0.067 A 
ATOM     21  O   LIG d   1      10.434   6.177   0.334  0.00  0.00    -0.245 OA
ATOM     22  C   LIG d   1      10.194   6.833  -3.085  0.00  0.00     0.025 A 
ATOM     23  C   LIG d   1      10.214   8.668  -1.521  0.00  0.00    -0.047 A 
ATOM     24  C   LIG d   1      10.092   7.723  -4.129  0.00  0.00    -0.053 A 
ATOM     25  C   LIG d   1      10.051   9.083  -3.876  0.00  0.00    -0.061 A 
ATOM     26  H   LIG d   1      10.044   7.360  -5.146  0.00  0.00     0.062 H 
ATOM     27  C   LIG d   1      10.112   9.552  -2.575  0.00  0.00    -0.061 A 
ATOM     28  H   LIG d   1       9.971   9.781  -4.696  0.00  0.00     0.062 H 
ATOM     29  H   LIG d   1      10.080  10.615  -2.384  0.00  0.00     0.062 H 
ATOM     30  H   LIG d   1      10.261   9.038  -0.507  0.00  0.00     0.063 H 
ENDBRANCH   7  16
ENDBRANCH   2   5
BRANCH   1  31
ATOM     31  C   LIG d   1       8.526   1.394  -4.648  0.00  0.00     0.034 A 
ATOM     32  C   LIG d   1       8.688   0.078  -5.058  0.00  0.00    -0.037 A 
ATOM     33  C   LIG d   1       7.809  -0.895  -4.622  0.00  0.00    -0.018 A 
ATOM     34  H   LIG d   1       9.500  -0.187  -5.718  0.00  0.00     0.064 H 
ATOM     35  C   LIG d   1       6.765  -0.556  -3.774  0.00  0.00     0.121 A 
ATOM     36  H   LIG d   1       7.935  -1.919  -4.941  0.00  0.00     0.066 H 
ATOM     37  C   LIG d   1       6.603   0.759  -3.363  0.00  0.00    -0.018 A 
ATOM     38  C   LIG d   1       7.484   1.731  -3.794  0.00  0.00    -0.037 A 
ATOM     39  H   LIG d   1       5.790   1.022  -2.703  0.00  0.00     0.066 H 
ATOM     40  H   LIG d   1       7.361   2.754  -3.471  0.00  0.00     0.064 H 
BRANCH  35  41
ATOM     41  O   LIG d   1       5.901  -1.513  -3.344  0.00  0.00    -0.492 OA
BRANCH  41  42
ATOM     42  C   LIG d   1       4.969  -1.137  -2.327  0.00  0.00     0.090 C 
ATOM     43  H   LIG d   1       5.305  -1.524  -1.365  0.00  0.00     0.070 H 
ATOM     44  H   LIG d   1       4.904  -0.050  -2.278  0.00  0.00     0.070 H 
BRANCH  42  45
ATOM     45  C   LIG d   1       3.592  -1.716  -2.658  0.00  0.00    -0.019 C 
ATOM     46  H   LIG d   1       3.672  -2.369  -3.527  0.00  0.00     0.030 H 
ATOM     47  H   LIG d   1       3.225  -2.288  -1.807  0.00  0.00     0.030 H 
BRANCH  45  48
ATOM     48  C   LIG d   1       2.619  -0.575  -2.964  0.00  0.00    -0.053 C 
ATOM     49  H   LIG d   1       1.595  -0.943  -2.899  0.00  0.00     0.026 H 
ATOM     50  H   LIG d   1       2.762   0.228  -2.241  0.00  0.00     0.026 H 
BRANCH  48  51
ATOM     51  C   LIG d   1       2.883  -0.044  -4.375  0.00  0.00    -0.065 C 
ATOM     52  H   LIG d   1       3.651   0.729  -4.335  0.00  0.00     0.023 H 
ATOM     53  H   LIG d   1       3.223  -0.861  -5.012  0.00  0.00     0.023 H 
ATOM     54  H   LIG d   1       1.963   0.376  -4.782  0.00  0.00     0.023 H 
ENDBRANCH  48  51
ENDBRANCH  45  48
ENDBRANCH  42  45
ENDBRANCH  41  42
ENDBRANCH  35  41
ENDBRANCH   1  31
TORSDOF 8
ENDMDL
MODEL 7
REMARK VINA RESULT:      -6.3      3.792      9.411
REMARK  8 active torsions:
REMARK  status: ('A' for Active; 'I' for Inactive)
REMARK    1  A    between atoms: C_1  and  C_2 
REMARK    2  A    between atoms: C_2  and  C_3 
REMARK    3  A    between atoms: C_3  and  C_4 
REMARK    4  A    between atoms: C_4  and  O_5 
REMARK    5  A    between atoms: O_5  and  C_6 
REMARK    6  A    between atoms: C_9  and  N_12 
REMARK       I    between atoms: N_12  and  C_13 
REMARK    7  A    between atoms: C_13  and  C_15 
REMARK    8  A    between atoms: N_21  and  C_22 
ROOT
ATOM      1  N   LIG d   1       6.761   1.473  -4.321  0.00  0.00    -0.284 N 
ATOM      2  C   LIG d   1       6.607   0.178  -3.982  0.00  0.00     0.238 C 
ATOM      3  O   LIG d   1       7.581  -0.516  -3.784  0.00  0.00    -0.273 OA
ATOM      4  H   LIG d   1       5.984   2.049  -4.406  0.00  0.00     0.155 HD
ENDROOT
BRANCH   2   5
ATOM      5  C   LIG d   1       5.225  -0.407  -3.848  0.00  0.00     0.106 C 
ATOM      6  H   LIG d   1       4.473   0.357  -4.047  0.00  0.00     0.060 H 
ATOM      7  N   LIG d   1       5.059  -1.535  -4.772  0.00  0.00    -0.251 N 
ATOM      8  C   LIG d   1       4.449  -2.571  -4.172  0.00  0.00     0.219 C 
ATOM      9  C   LIG d   1       4.141  -2.230  -2.730  0.00  0.00     0.026 C 
ATOM     10  O   LIG d   1       4.183  -3.626  -4.708  0.00  0.00    -0.276 OA
ATOM     11  C   LIG d   1       5.026  -0.999  -2.431  0.00  0.00    -0.017 C 
ATOM     12  H   LIG d   1       3.087  -1.979  -2.614  0.00  0.00     0.036 H 
ATOM     13  H   LIG d   1       4.409  -3.060  -2.076  0.00  0.00     0.036 H 
ATOM     14  H   LIG d   1       4.509  -0.294  -1.781  0.00  0.00     0.029 H 
ATOM     15  H   LIG d   1       5.980  -1.300  -1.997  0.00  0.00     0.029 H 
BRANCH   7  16
ATOM     16  C   LIG d   1       5.504  -1.533  -6.168  0.00  0.00     0.201 A 
ATOM     17  H   LIG d   1       6.329  -0.831  -6.297  0.00  0.00     0.101 H 
ATOM     18  O   LIG d   1       5.919  -2.870  -6.561  0.00  0.00    -0.435 OA
ATOM     19  C   LIG d   1       5.145  -3.286  -7.577  0.00  0.00     0.342 A 
ATOM     20  C   LIG d   1       4.158  -2.247  -7.927  0.00  0.00     0.067 A 
ATOM     21  O   LIG d   1       5.242  -4.365  -8.128  0.00  0.00    -0.245 OA
ATOM     22  C   LIG d   1       4.358  -1.158  -7.075  0.00  0.00     0.025 A 
ATOM     23  C   LIG d   1       3.149  -2.189  -8.889  0.00  0.00    -0.047 A 
ATOM     24  C   LIG d   1       3.567  -0.038  -7.183  0.00  0.00    -0.053 A 
ATOM     25  C   LIG d   1       2.568   0.013  -8.139  0.00  0.00    -0.061 A 
ATOM     26  H   LIG d   1       3.725   0.802  -6.522  0.00  0.00     0.062 H 
ATOM     27  C   LIG d   1       2.361  -1.061  -8.988  0.00  0.00    -0.061 A 
ATOM     28  H   LIG d   1       1.947   0.892  -8.224  0.00  0.00     0.062 H 
ATOM     29  H   LIG d   1       1.580  -1.015  -9.733  0.00  0.00     0.062 H 
ATOM     30  H   LIG d   1       2.985  -3.024  -9.553  0.00  0.00     0.063 H 
ENDBRANCH   7  16
ENDBRANCH   2   5
BRANCH   1  31
ATOM     31  C   LIG d   1       8.044   1.990  -4.551  0.00  0.00     0.034 A 
ATOM     32  C   LIG d   1       8.846   2.357  -3.480  0.00  0.00    -0.037 A 
ATOM     33  C   LIG d   1      10.110   2.866  -3.706  0.00  0.00    -0.018 A 
ATOM     34  H   LIG d   1       8.484   2.244  -2.469  0.00  0.00     0.064 H 
ATOM     35  C   LIG d   1      10.577   3.011  -5.004  0.00  0.00     0.121 A 
ATOM     36  H   LIG d   1      10.735   3.152  -2.873  0.00  0.00     0.066 H 
ATOM     37  C   LIG d   1       9.776   2.645  -6.076  0.00  0.00    -0.018 A 
ATOM     38  C   LIG d   1       8.514   2.130  -5.850  0.00  0.00    -0.037 A 
ATOM     39  H   LIG d   1      10.139   2.758  -7.086  0.00  0.00     0.066 H 
ATOM     40  H   LIG d   1       7.892   1.841  -6.683  0.00  0.00     0.064 H 
BRANCH  35  41
ATOM     41  O   LIG d   1      11.821   3.512  -5.227  0.00  0.00    -0.492 OA
BRANCH  41  42
ATOM     42  C   LIG d   1      12.186   4.689  -4.503  0.00  0.00     0.090 C 
ATOM     43  H   LIG d   1      11.817   4.616  -3.480  0.00  0.00     0.070 H 
ATOM     44  H   LIG d   1      13.272   4.787  -4.492  0.00  0.00     0.070 H 
BRANCH  42  45
ATOM     45  C   LIG d   1      11.571   5.916  -5.181  0.00  0.00    -0.019 C 
ATOM     46  H   LIG d   1      12.361   6.612  -5.458  0.00  0.00     0.030 H 
ATOM     47  H   LIG d   1      11.031   5.605  -6.075  0.00  0.00     0.030 H 
BRANCH  45  48
ATOM     48  C   LIG d   1      10.602   6.601  -4.214  0.00  0.00    -0.053 C 
ATOM     49  H   LIG d   1      10.727   6.180  -3.216  0.00  0.00     0.026 H 
ATOM     50  H   LIG d   1      10.813   7.671  -4.185  0.00  0.00     0.026 H 
BRANCH  48  51
ATOM     51  C   LIG d   1       9.165   6.378  -4.687  0.00  0.00    -0.065 C 
ATOM     52  H   LIG d   1       9.154   6.253  -5.770  0.00  0.00     0.023 H 
ATOM     53  H   LIG d   1       8.762   5.481  -4.214  0.00  0.00     0.023 H 
ATOM     54  H   LIG d   1       8.554   7.238  -4.413  0.00  0.00     0.023 H 
ENDBRANCH  48  51
ENDBRANCH  45  48
ENDBRANCH  42  45
ENDBRANCH  41  42
ENDBRANCH  35  41
ENDBRANCH   1  31
TORSDOF 8
ENDMDL
MODEL 8
REMARK VINA RESULT:      -6.2      4.562      5.585
REMARK  8 active torsions:
REMARK  status: ('A' for Active; 'I' for Inactive)
REMARK    1  A    between atoms: C_1  and  C_2 
REMARK    2  A    between atoms: C_2  and  C_3 
REMARK    3  A    between atoms: C_3  and  C_4 
REMARK    4  A    between atoms: C_4  and  O_5 
REMARK    5  A    between atoms: O_5  and  C_6 
REMARK    6  A    between atoms: C_9  and  N_12 
REMARK       I    between atoms: N_12  and  C_13 
REMARK    7  A    between atoms: C_13  and  C_15 
REMARK    8  A    between atoms: N_21  and  C_22 
ROOT
ATOM      1  N   LIG d   1       9.752  -2.694  -3.962  0.00  0.00    -0.284 N 
ATOM      2  C   LIG d   1       8.743  -2.612  -4.851  0.00  0.00     0.238 C 
ATOM      3  O   LIG d   1       8.098  -3.601  -5.129  0.00  0.00    -0.273 OA
ATOM      4  H   LIG d   1      10.219  -1.891  -3.682  0.00  0.00     0.155 HD
ENDROOT
BRANCH   2   5
ATOM      5  C   LIG d   1       8.414  -1.292  -5.499  0.00  0.00     0.106 C 
ATOM      6  H   LIG d   1       8.085  -1.450  -6.526  0.00  0.00     0.060 H 
ATOM      7  N   LIG d   1       7.374  -0.595  -4.733  0.00  0.00    -0.251 N 
ATOM      8  C   LIG d   1       7.667   0.709  -4.588  0.00  0.00     0.219 C 
ATOM      9  C   LIG d   1       8.987   1.024  -5.259  0.00  0.00     0.026 C 
ATOM     10  O   LIG d   1       6.976   1.515  -4.003  0.00  0.00    -0.276 OA
ATOM     11  C   LIG d   1       9.648  -0.357  -5.469  0.00  0.00    -0.017 C 
ATOM     12  H   LIG d   1       8.819   1.516  -6.218  0.00  0.00     0.036 H 
ATOM     13  H   LIG d   1       9.604   1.649  -4.613  0.00  0.00     0.036 H 
ATOM     14  H   LIG d   1      10.190  -0.392  -6.415  0.00  0.00     0.029 H 
ATOM     15  H   LIG d   1      10.306  -0.605  -4.636  0.00  0.00     0.029 H 
BRANCH   7  16
ATOM     16  C   LIG d   1       6.173  -1.237  -4.196  0.00  0.00     0.201 A 
ATOM     17  H   LIG d   1       6.226  -2.316  -4.347  0.00  0.00     0.101 H 
ATOM     18  O   LIG d   1       6.038  -0.937  -2.779  0.00  0.00    -0.435 OA
ATOM     19  C   LIG d   1       4.883  -0.281  -2.579  0.00  0.00     0.342 A 
ATOM     20  C   LIG d   1       4.171  -0.099  -3.858  0.00  0.00     0.067 A 
ATOM     21  O   LIG d   1       4.483   0.110  -1.501  0.00  0.00    -0.245 OA
ATOM     22  C   LIG d   1       4.943  -0.679  -4.868  0.00  0.00     0.025 A 
ATOM     23  C   LIG d   1       2.957   0.506  -4.185  0.00  0.00    -0.047 A 
ATOM     24  C   LIG d   1       4.510  -0.654  -6.173  0.00  0.00    -0.053 A 
ATOM     25  C   LIG d   1       3.305  -0.051  -6.490  0.00  0.00    -0.061 A 
ATOM     26  H   LIG d   1       5.111  -1.103  -6.951  0.00  0.00     0.062 H 
ATOM     27  C   LIG d   1       2.533   0.526  -5.498  0.00  0.00    -0.061 A 
ATOM     28  H   LIG d   1       2.966  -0.032  -7.515  0.00  0.00     0.062 H 
ATOM     29  H   LIG d   1       1.593   0.994  -5.751  0.00  0.00     0.062 H 
ATOM     30  H   LIG d   1       2.352   0.957  -3.413  0.00  0.00     0.063 H 
ENDBRANCH   7  16
ENDBRANCH   2   5
BRANCH   1  31
ATOM     31  C   LIG d   1      10.128  -3.940  -3.441  0.00  0.00     0.034 A 
ATOM     32  C   LIG d   1      11.087  -4.704  -4.091  0.00  0.00    -0.037 A 
ATOM     33  C   LIG d   1      11.457  -5.932  -3.578  0.00  0.00    -0.018 A 
ATOM     34  H   LIG d   1      11.545  -4.339  -4.998  0.00  0.00     0.064 H 
ATOM     35  C   LIG d   1      10.869  -6.402  -2.413  0.00  0.00     0.121 A 
ATOM     36  H   LIG d   1      12.203  -6.526  -4.084  0.00  0.00     0.066 H 
ATOM     37  C   LIG d   1       9.910  -5.639  -1.762  0.00  0.00    -0.018 A 
ATOM     38  C   LIG d   1       9.544  -4.409  -2.271  0.00  0.00    -0.037 A 
ATOM     39  H   LIG d   1       9.453  -6.005  -0.855  0.00  0.00     0.066 H 
ATOM     40  H   LIG d   1       8.801  -3.813  -1.763  0.00  0.00     0.064 H 
BRANCH  35  41
ATOM     41  O   LIG d   1      11.233  -7.610  -1.907  0.00  0.00    -0.492 OA
BRANCH  41  42
ATOM     42  C   LIG d   1      10.204  -8.400  -1.308  0.00  0.00     0.090 C 
ATOM     43  H   LIG d   1       9.385  -7.753  -0.993  0.00  0.00     0.070 H 
ATOM     44  H   LIG d   1       9.834  -9.125  -2.034  0.00  0.00     0.070 H 
BRANCH  42  45
ATOM     45  C   LIG d   1      10.769  -9.138  -0.093  0.00  0.00    -0.019 C 
ATOM     46  H   LIG d   1       9.962  -9.650   0.429  0.00  0.00     0.030 H 
ATOM     47  H   LIG d   1      11.509  -9.866  -0.422  0.00  0.00     0.030 H 
BRANCH  45  48
ATOM     48  C   LIG d   1      11.430  -8.131   0.853  0.00  0.00    -0.053 C 
ATOM     49  H   LIG d   1      12.513  -8.182   0.739  0.00  0.00     0.026 H 
ATOM     50  H   LIG d   1      11.087  -7.125   0.610  0.00  0.00     0.026 H 
BRANCH  48  51
ATOM     51  C   LIG d   1      11.052  -8.463   2.297  0.00  0.00    -0.065 C 
ATOM     52  H   LIG d   1      11.283  -7.613   2.939  0.00  0.00     0.023 H 
ATOM     53  H   LIG d   1       9.984  -8.680   2.352  0.00  0.00     0.023 H 
ATOM     54  H   LIG d   1      11.616  -9.335   2.629  0.00  0.00     0.023 H 
ENDBRANCH  48  51
ENDBRANCH  45  48
ENDBRANCH  42  45
ENDBRANCH  41  42
ENDBRANCH  35  41
ENDBRANCH   1  31
TORSDOF 8
ENDMDL
MODEL 9
REMARK VINA RESULT:      -6.1      5.818      9.099
REMARK  8 active torsions:
REMARK  status: ('A' for Active; 'I' for Inactive)
REMARK    1  A    between atoms: C_1  and  C_2 
REMARK    2  A    between atoms: C_2  and  C_3 
REMARK    3  A    between atoms: C_3  and  C_4 
REMARK    4  A    between atoms: C_4  and  O_5 
REMARK    5  A    between atoms: O_5  and  C_6 
REMARK    6  A    between atoms: C_9  and  N_12 
REMARK       I    between atoms: N_12  and  C_13 
REMARK    7  A    between atoms: C_13  and  C_15 
REMARK    8  A    between atoms: N_21  and  C_22 
ROOT
ATOM      1  N   LIG d   1       9.852   1.905  -5.426  0.00  0.00    -0.284 N 
ATOM      2  C   LIG d   1      10.863   2.295  -4.625  0.00  0.00     0.238 C 
ATOM      3  O   LIG d   1      10.985   1.807  -3.521  0.00  0.00    -0.273 OA
ATOM      4  H   LIG d   1       9.797   2.238  -6.335  0.00  0.00     0.155 HD
ENDROOT
BRANCH   2   5
ATOM      5  C   LIG d   1      11.841   3.338  -5.099  0.00  0.00     0.106 C 
ATOM      6  H   LIG d   1      11.777   3.449  -6.181  0.00  0.00     0.060 H 
ATOM      7  N   LIG d   1      11.575   4.622  -4.440  0.00  0.00    -0.251 N 
ATOM      8  C   LIG d   1      12.714   5.206  -4.032  0.00  0.00     0.219 C 
ATOM      9  C   LIG d   1      13.901   4.334  -4.381  0.00  0.00     0.026 C 
ATOM     10  O   LIG d   1      12.782   6.276  -3.465  0.00  0.00    -0.276 OA
ATOM     11  C   LIG d   1      13.282   2.951  -4.685  0.00  0.00    -0.017 C 
ATOM     12  H   LIG d   1      14.414   4.724  -5.261  0.00  0.00     0.036 H 
ATOM     13  H   LIG d   1      14.587   4.269  -3.537  0.00  0.00     0.036 H 
ATOM     14  H   LIG d   1      13.807   2.459  -5.504  0.00  0.00     0.029 H 
ATOM     15  H   LIG d   1      13.277   2.322  -3.795  0.00  0.00     0.029 H 
BRANCH   7  16
ATOM     16  C   LIG d   1      10.239   5.193  -4.251  0.00  0.00     0.201 A 
ATOM     17  H   LIG d   1       9.492   4.398  -4.234  0.00  0.00     0.101 H 
ATOM     18  O   LIG d   1      10.192   5.951  -3.012  0.00  0.00    -0.435 OA
ATOM     19  C   LIG d   1       9.895   7.231  -3.293  0.00  0.00     0.342 A 
ATOM     20  C   LIG d   1       9.726   7.407  -4.747  0.00  0.00     0.067 A 
ATOM     21  O   LIG d   1       9.784   8.116  -2.469  0.00  0.00    -0.245 OA
ATOM     22  C   LIG d   1       9.932   6.168  -5.360  0.00  0.00     0.025 A 
ATOM     23  C   LIG d   1       9.420   8.518  -5.534  0.00  0.00    -0.047 A 
ATOM     24  C   LIG d   1       9.834   6.045  -6.726  0.00  0.00    -0.053 A 
ATOM     25  C   LIG d   1       9.530   7.151  -7.500  0.00  0.00    -0.061 A 
ATOM     26  H   LIG d   1       9.995   5.085  -7.195  0.00  0.00     0.062 H 
ATOM     27  C   LIG d   1       9.324   8.383  -6.904  0.00  0.00    -0.061 A 
ATOM     28  H   LIG d   1       9.453   7.054  -8.573  0.00  0.00     0.062 H 
ATOM     29  H   LIG d   1       9.087   9.243  -7.513  0.00  0.00     0.062 H 
ATOM     30  H   LIG d   1       9.258   9.481  -5.073  0.00  0.00     0.063 H 
ENDBRANCH   7  16
ENDBRANCH   2   5
BRANCH   1  31
ATOM     31  C   LIG d   1       8.880   1.016  -4.946  0.00  0.00     0.034 A 
ATOM     32  C   LIG d   1       8.980  -0.339  -5.226  0.00  0.00    -0.037 A 
ATOM     33  C   LIG d   1       8.022  -1.215  -4.754  0.00  0.00    -0.018 A 
ATOM     34  H   LIG d   1       9.806  -0.711  -5.814  0.00  0.00     0.064 H 
ATOM     35  C   LIG d   1       6.960  -0.739  -3.998  0.00  0.00     0.121 A 
ATOM     36  H   LIG d   1       8.099  -2.270  -4.972  0.00  0.00     0.066 H 
ATOM     37  C   LIG d   1       6.859   0.615  -3.717  0.00  0.00    -0.018 A 
ATOM     38  C   LIG d   1       7.820   1.491  -4.184  0.00  0.00    -0.037 A 
ATOM     39  H   LIG d   1       6.033   0.985  -3.130  0.00  0.00     0.066 H 
ATOM     40  H   LIG d   1       7.744   2.545  -3.962  0.00  0.00     0.064 H 
BRANCH  35  41
ATOM     41  O   LIG d   1       6.017  -1.601  -3.533  0.00  0.00    -0.492 OA
BRANCH  41  42
ATOM     42  C   LIG d   1       5.251  -1.177  -2.404  0.00  0.00     0.090 C 
ATOM     43  H   LIG d   1       5.766  -1.463  -1.486  0.00  0.00     0.070 H 
ATOM     44  H   LIG d   1       5.133  -0.093  -2.431  0.00  0.00     0.070 H 
BRANCH  42  45
ATOM     45  C   LIG d   1       3.873  -1.842  -2.443  0.00  0.00    -0.019 C 
ATOM     46  H   LIG d   1       3.892  -2.675  -3.145  0.00  0.00     0.030 H 
ATOM     47  H   LIG d   1       3.618  -2.209  -1.450  0.00  0.00     0.030 H 
BRANCH  45  48
ATOM     48  C   LIG d   1       2.827  -0.820  -2.894  0.00  0.00    -0.053 C 
ATOM     49  H   LIG d   1       2.666  -0.913  -3.968  0.00  0.00     0.026 H 
ATOM     50  H   LIG d   1       1.889  -1.005  -2.370  0.00  0.00     0.026 H 
BRANCH  48  51
ATOM     51  C   LIG d   1       3.321   0.592  -2.571  0.00  0.00    -0.065 C 
ATOM     52  H   LIG d   1       3.147   0.806  -1.516  0.00  0.00     0.023 H 
ATOM     53  H   LIG d   1       4.388   0.661  -2.785  0.00  0.00     0.023 H 
ATOM     54  H   LIG d   1       2.780   1.315  -3.183  0.00  0.00     0.023 H 
ENDBRANCH  48  51
ENDBRANCH  45  48
ENDBRANCH  42  45
ENDBRANCH  41  42
ENDBRANCH  35  41
ENDBRANCH   1  31
TORSDOF 8
ENDMDL
