MODEL 1
REMARK VINA RESULT:      -5.4      0.000      0.000
REMARK  14 active torsions:
REMARK  status: ('A' for Active; 'I' for Inactive)
REMARK    1  A    between atoms: C_1  and  C_2 
REMARK    2  A    between atoms: C_2  and  C_26 
REMARK    3  A    between atoms: C_4  and  C_6 
REMARK       I    between atoms: C_6  and  N_8 
REMARK    4  A    between atoms: N_8  and  C_9 
REMARK    5  A    between atoms: C_9  and  C_23 
REMARK    6  A    between atoms: C_10  and  C_11 
REMARK    7  A    between atoms: C_11  and  C_12 
REMARK    8  A    between atoms: C_12  and  C_13 
REMARK    9  A    between atoms: C_13  and  C_14 
REMARK   10  A    between atoms: C_14  and  S_15 
REMARK   11  A    between atoms: S_15  and  C_16 
REMARK   12  A    between atoms: C_16  and  C_17 
REMARK   13  A    between atoms: C_17  and  C_19 
REMARK   14  A    between atoms: C_17  and  N_22 
ROOT
ATOM      1  C   UNK d   1       5.038   0.091  -2.461  0.00  0.00    -0.033 C 
ATOM      2  H   UNK d   1       5.156  -0.818  -3.050  0.00  0.00     0.031 H 
ATOM      3  H   UNK d   1       5.345  -0.099  -1.433  0.00  0.00     0.031 H 
ENDROOT
BRANCH   1   4
ATOM      4  C   UNK d   1       5.893   1.185  -3.047  0.00  0.00    -0.061 C 
ATOM      5  C   UNK d   1       7.112   0.901  -3.518  0.00  0.00     0.052 C 
ATOM      6  H   UNK d   1       5.522   2.198  -3.087  0.00  0.00     0.059 H 
BRANCH   5   7
ATOM      7  N   UNK d   1       7.553  -0.429  -3.566  0.00  0.00    -0.284 N 
ATOM      8  C   UNK d   0       7.608  -1.078  -4.747  0.00  0.00     0.221 C 
ATOM      9  O   UNK d   0       7.191  -0.543  -5.753  0.00  0.00    -0.275 OA
ATOM     10  H   UNK d   1       7.819  -0.882  -2.752  0.00  0.00     0.155 HD
BRANCH   8  11
ATOM     11  C   UNK d   0       8.188  -2.467  -4.817  0.00  0.00     0.042 A 
ATOM     12  C   UNK d   0       7.217  -3.644  -4.712  0.00  0.00    -0.023 A 
ATOM     13  C   UNK d   0       8.147  -3.314  -3.544  0.00  0.00    -0.035 A 
ATOM     14  H   UNK d   0       7.701  -2.867  -2.656  0.00  0.00     0.028 H 
ATOM     15  H   UNK d   0       8.984  -3.988  -3.360  0.00  0.00     0.028 H 
ATOM     16  H   UNK d   0       9.052  -2.584  -5.471  0.00  0.00     0.040 H 
BRANCH  12  17
ATOM     17  C   UNK d   0       5.731  -3.322  -4.545  0.00  0.00    -0.059 C 
ATOM     18  H   UNK d   0       5.529  -3.066  -3.506  0.00  0.00     0.024 H 
ATOM     19  H   UNK d   0       5.466  -2.480  -5.185  0.00  0.00     0.024 H 
ATOM     20  H   UNK d   0       5.137  -4.192  -4.826  0.00  0.00     0.024 H 
ENDBRANCH  12  17
BRANCH  12  21
ATOM     21  C   UNK d   0       7.531  -4.895  -5.535  0.00  0.00    -0.059 C 
ATOM     22  H   UNK d   0       7.855  -5.696  -4.869  0.00  0.00     0.024 H 
ATOM     23  H   UNK d   0       6.637  -5.211  -6.073  0.00  0.00     0.024 H 
ATOM     24  H   UNK d   0       8.325  -4.672  -6.248  0.00  0.00     0.024 H 
ENDBRANCH  12  21
ENDBRANCH   8  11
ENDBRANCH   5   7
BRANCH   5  25
ATOM     25  C   UNK d   1       7.991   1.984  -3.986  0.00  0.00     0.085 C 
ATOM     26  O   UNK d   1       7.846   2.448  -5.108  0.00  0.00    -0.543 OA
ATOM     27  O   UNK d   1       8.868   2.422  -3.252  0.00  0.00    -0.543 OA
ENDBRANCH   5  25
ENDBRANCH   1   4
BRANCH   1  28
ATOM     28  C   UNK d   1       3.571   0.525  -2.483  0.00  0.00    -0.049 C 
ATOM     29  H   UNK d   1       3.161   0.476  -1.474  0.00  0.00     0.027 H 
ATOM     30  H   UNK d   1       3.500   1.547  -2.855  0.00  0.00     0.027 H 
BRANCH  28  31
ATOM     31  C   UNK d   1       2.776  -0.407  -3.400  0.00  0.00    -0.044 C 
ATOM     32  H   UNK d   1       3.356  -1.310  -3.591  0.00  0.00     0.027 H 
ATOM     33  H   UNK d   1       1.836  -0.675  -2.918  0.00  0.00     0.027 H 
BRANCH  31  34
ATOM     34  C   UNK d   1       2.488   0.303  -4.723  0.00  0.00    -0.006 C 
ATOM     35  H   UNK d   1       1.469   0.082  -5.040  0.00  0.00     0.038 H 
ATOM     36  H   UNK d   1       2.601   1.379  -4.590  0.00  0.00     0.038 H 
BRANCH  34  37
ATOM     37  S   UNK d   1       3.652  -0.276  -5.987  0.00  0.00    -0.155 SA
BRANCH  37  38
ATOM     38  C   UNK d   1       2.767  -0.023  -7.550  0.00  0.00     0.042 C 
ATOM     39  H   UNK d   1       2.747  -0.957  -8.111  0.00  0.00     0.044 H 
ATOM     40  H   UNK d   1       1.746   0.297  -7.341  0.00  0.00     0.044 H 
BRANCH  38  41
ATOM     41  C   UNK d   1       3.481   1.052  -8.373  0.00  0.00     0.025 C 
ATOM     42  H   UNK d   1       4.541   1.059  -8.121  0.00  0.00     0.092 H 
BRANCH  41  43
ATOM     43  C   UNK d   1       3.315   0.753  -9.840  0.00  0.00     0.090 C 
ATOM     44  O   UNK d   1       3.735   1.538 -10.674  0.00  0.00    -0.544 OA
ATOM     45  O   UNK d   1       2.760  -0.274 -10.195  0.00  0.00    -0.544 OA
ENDBRANCH  41  43
BRANCH  41  46
ATOM     46  N   UNK d   1       2.898   2.366  -8.071  0.00  0.00     0.226 N 
ATOM     47  H   UNK d   1       1.898   2.328  -8.199  0.00  0.00     0.200 HD
ATOM     48  H   UNK d   1       3.106   2.616  -7.116  0.00  0.00     0.200 HD
ATOM     49  H   UNK d   1       3.289   3.058  -8.693  0.00  0.00     0.200 HD
ENDBRANCH  41  46
ENDBRANCH  38  41
ENDBRANCH  37  38
ENDBRANCH  34  37
ENDBRANCH  31  34
ENDBRANCH  28  31
ENDBRANCH   1  28
TORSDOF 14
ENDMDL
MODEL 2
REMARK VINA RESULT:      -5.3      2.982      5.253
REMARK  14 active torsions:
REMARK  status: ('A' for Active; 'I' for Inactive)
REMARK    1  A    between atoms: C_1  and  C_2 
REMARK    2  A    between atoms: C_2  and  C_26 
REMARK    3  A    between atoms: C_4  and  C_6 
REMARK       I    between atoms: C_6  and  N_8 
REMARK    4  A    between atoms: N_8  and  C_9 
REMARK    5  A    between atoms: C_9  and  C_23 
REMARK    6  A    between atoms: C_10  and  C_11 
REMARK    7  A    between atoms: C_11  and  C_12 
REMARK    8  A    between atoms: C_12  and  C_13 
REMARK    9  A    between atoms: C_13  and  C_14 
REMARK   10  A    between atoms: C_14  and  S_15 
REMARK   11  A    between atoms: S_15  and  C_16 
REMARK   12  A    between atoms: C_16  and  C_17 
REMARK   13  A    between atoms: C_17  and  C_19 
REMARK   14  A    between atoms: C_17  and  N_22 
ROOT
ATOM      1  C   UNK d   1       5.556  -1.214  -6.926  0.00  0.00    -0.033 C 
ATOM      2  H   UNK d   1       4.915  -0.745  -7.673  0.00  0.00     0.031 H 
ATOM      3  H   UNK d   1       5.304  -0.830  -5.938  0.00  0.00     0.031 H 
ENDROOT
BRANCH   1   4
ATOM      4  C   UNK d   1       5.350  -2.707  -6.952  0.00  0.00    -0.061 C 
ATOM      5  C   UNK d   1       4.606  -3.295  -6.009  0.00  0.00     0.052 C 
ATOM      6  H   UNK d   1       5.802  -3.301  -7.731  0.00  0.00     0.059 H 
BRANCH   5   7
ATOM      7  N   UNK d   1       3.929  -2.515  -5.061  0.00  0.00    -0.284 N 
ATOM      8  C   UNK d   0       4.500  -2.262  -3.865  0.00  0.00     0.221 C 
ATOM      9  O   UNK d   0       5.556  -2.784  -3.575  0.00  0.00    -0.275 OA
ATOM     10  H   UNK d   1       3.052  -2.156  -5.264  0.00  0.00     0.155 HD
BRANCH   8  11
ATOM     11  C   UNK d   0       3.826  -1.331  -2.890  0.00  0.00     0.042 A 
ATOM     12  C   UNK d   0       4.477   0.031  -2.650  0.00  0.00    -0.023 A 
ATOM     13  C   UNK d   0       4.546  -1.050  -1.570  0.00  0.00    -0.035 A 
ATOM     14  H   UNK d   0       5.507  -1.538  -1.407  0.00  0.00     0.028 H 
ATOM     15  H   UNK d   0       3.931  -0.914  -0.681  0.00  0.00     0.028 H 
ATOM     16  H   UNK d   0       2.738  -1.380  -2.869  0.00  0.00     0.040 H 
BRANCH  12  17
ATOM     17  C   UNK d   0       5.763   0.346  -3.418  0.00  0.00    -0.059 C 
ATOM     18  H   UNK d   0       5.623   1.255  -4.003  0.00  0.00     0.024 H 
ATOM     19  H   UNK d   0       6.582   0.490  -2.713  0.00  0.00     0.024 H 
ATOM     20  H   UNK d   0       5.999  -0.483  -4.086  0.00  0.00     0.024 H 
ENDBRANCH  12  17
BRANCH  12  21
ATOM     21  C   UNK d   0       3.551   1.223  -2.399  0.00  0.00    -0.059 C 
ATOM     22  H   UNK d   0       2.538   0.864  -2.215  0.00  0.00     0.024 H 
ATOM     23  H   UNK d   0       3.902   1.780  -1.530  0.00  0.00     0.024 H 
ATOM     24  H   UNK d   0       3.552   1.875  -3.273  0.00  0.00     0.024 H 
ENDBRANCH  12  21
ENDBRANCH   8  11
ENDBRANCH   5   7
BRANCH   5  25
ATOM     25  C   UNK d   1       4.497  -4.762  -5.967  0.00  0.00     0.085 C 
ATOM     26  O   UNK d   1       5.491  -5.444  -5.758  0.00  0.00    -0.543 OA
ATOM     27  O   UNK d   1       3.411  -5.301  -6.141  0.00  0.00    -0.543 OA
ENDBRANCH   5  25
ENDBRANCH   1   4
BRANCH   1  28
ATOM     28  C   UNK d   1       7.019  -0.897  -7.238  0.00  0.00    -0.049 C 
ATOM     29  H   UNK d   1       7.635  -1.118  -6.366  0.00  0.00     0.027 H 
ATOM     30  H   UNK d   1       7.351  -1.504  -8.081  0.00  0.00     0.027 H 
BRANCH  28  31
ATOM     31  C   UNK d   1       7.156   0.585  -7.593  0.00  0.00    -0.044 C 
ATOM     32  H   UNK d   1       6.502   1.175  -6.950  0.00  0.00     0.027 H 
ATOM     33  H   UNK d   1       8.189   0.900  -7.446  0.00  0.00     0.027 H 
BRANCH  31  34
ATOM     34  C   UNK d   1       6.761   0.799  -9.055  0.00  0.00    -0.006 C 
ATOM     35  H   UNK d   1       7.628   1.140  -9.620  0.00  0.00     0.038 H 
ATOM     36  H   UNK d   1       6.400  -0.141  -9.475  0.00  0.00     0.038 H 
BRANCH  34  37
ATOM     37  S   UNK d   1       5.448   2.047  -9.151  0.00  0.00    -0.155 SA
BRANCH  37  38
ATOM     38  C   UNK d   1       4.124   1.223 -10.079  0.00  0.00     0.042 C 
ATOM     39  H   UNK d   1       4.045   1.669 -11.071  0.00  0.00     0.044 H 
ATOM     40  H   UNK d   1       4.355   0.162 -10.175  0.00  0.00     0.044 H 
BRANCH  38  41
ATOM     41  C   UNK d   1       2.798   1.393  -9.336  0.00  0.00     0.025 C 
ATOM     42  H   UNK d   1       2.095   1.938  -9.965  0.00  0.00     0.092 H 
BRANCH  41  43
ATOM     43  C   UNK d   1       2.230   0.036  -9.007  0.00  0.00     0.090 C 
ATOM     44  O   UNK d   1       2.405  -0.446  -7.901  0.00  0.00    -0.544 OA
ATOM     45  O   UNK d   1       1.596  -0.579  -9.848  0.00  0.00    -0.544 OA
ENDBRANCH  41  43
BRANCH  41  46
ATOM     46  N   UNK d   1       3.026   2.143  -8.093  0.00  0.00     0.226 N 
ATOM     47  H   UNK d   1       4.018   2.257  -7.946  0.00  0.00     0.200 HD
ATOM     48  H   UNK d   1       2.590   3.050  -8.163  0.00  0.00     0.200 HD
ATOM     49  H   UNK d   1       2.627   1.636  -7.317  0.00  0.00     0.200 HD
ENDBRANCH  41  46
ENDBRANCH  38  41
ENDBRANCH  37  38
ENDBRANCH  34  37
ENDBRANCH  31  34
ENDBRANCH  28  31
ENDBRANCH   1  28
TORSDOF 14
ENDMDL
MODEL 3
REMARK VINA RESULT:      -5.2      4.898      8.320
REMARK  14 active torsions:
REMARK  status: ('A' for Active; 'I' for Inactive)
REMARK    1  A    between atoms: C_1  and  C_2 
REMARK    2  A    between atoms: C_2  and  C_26 
REMARK    3  A    between atoms: C_4  and  C_6 
REMARK       I    between atoms: C_6  and  N_8 
REMARK    4  A    between atoms: N_8  and  C_9 
REMARK    5  A    between atoms: C_9  and  C_23 
REMARK    6  A    between atoms: C_10  and  C_11 
REMARK    7  A    between atoms: C_11  and  C_12 
REMARK    8  A    between atoms: C_12  and  C_13 
REMARK    9  A    between atoms: C_13  and  C_14 
REMARK   10  A    between atoms: C_14  and  S_15 
REMARK   11  A    between atoms: S_15  and  C_16 
REMARK   12  A    between atoms: C_16  and  C_17 
REMARK   13  A    between atoms: C_17  and  C_19 
REMARK   14  A    between atoms: C_17  and  N_22 
ROOT
ATOM      1  C   UNK d   1       7.401  -3.935  -4.641  0.00  0.00    -0.033 C 
ATOM      2  H   UNK d   1       7.530  -2.853  -4.630  0.00  0.00     0.031 H 
ATOM      3  H   UNK d   1       7.038  -4.268  -3.669  0.00  0.00     0.031 H 
ENDROOT
BRANCH   1   4
ATOM      4  C   UNK d   1       6.404  -4.313  -5.705  0.00  0.00    -0.061 C 
ATOM      5  C   UNK d   1       5.103  -4.059  -5.523  0.00  0.00     0.052 C 
ATOM      6  H   UNK d   1       6.738  -4.787  -6.615  0.00  0.00     0.059 H 
BRANCH   5   7
ATOM      7  N   UNK d   1       4.679  -3.347  -4.392  0.00  0.00    -0.284 N 
ATOM      8  C   UNK d   0       4.348  -2.044  -4.502  0.00  0.00     0.221 C 
ATOM      9  O   UNK d   0       4.504  -1.465  -5.557  0.00  0.00    -0.275 OA
ATOM     10  H   UNK d   1       4.623  -3.790  -3.532  0.00  0.00     0.155 HD
BRANCH   8  11
ATOM     11  C   UNK d   0       3.785  -1.307  -3.314  0.00  0.00     0.042 A 
ATOM     12  C   UNK d   0       4.724  -0.369  -2.554  0.00  0.00    -0.023 A 
ATOM     13  C   UNK d   0       4.303  -1.700  -1.929  0.00  0.00    -0.035 A 
ATOM     14  H   UNK d   0       5.052  -2.491  -1.877  0.00  0.00     0.028 H 
ATOM     15  H   UNK d   0       3.598  -1.666  -1.099  0.00  0.00     0.028 H 
ATOM     16  H   UNK d   0       2.738  -1.016  -3.394  0.00  0.00     0.040 H 
BRANCH  12  17
ATOM     17  C   UNK d   0       6.163  -0.249  -3.059  0.00  0.00    -0.059 C 
ATOM     18  H   UNK d   0       6.164  -0.199  -4.147  0.00  0.00     0.024 H 
ATOM     19  H   UNK d   0       6.617   0.655  -2.652  0.00  0.00     0.024 H 
ATOM     20  H   UNK d   0       6.735  -1.119  -2.735  0.00  0.00     0.024 H 
ENDBRANCH  12  17
BRANCH  12  21
ATOM     21  C   UNK d   0       4.122   0.909  -1.967  0.00  0.00    -0.059 C 
ATOM     22  H   UNK d   0       3.557   1.433  -2.738  0.00  0.00     0.024 H 
ATOM     23  H   UNK d   0       3.458   0.653  -1.141  0.00  0.00     0.024 H 
ATOM     24  H   UNK d   0       4.922   1.554  -1.603  0.00  0.00     0.024 H 
ENDBRANCH  12  21
ENDBRANCH   8  11
ENDBRANCH   5   7
BRANCH   5  25
ATOM     25  C   UNK d   1       4.117  -4.528  -6.509  0.00  0.00     0.085 C 
ATOM     26  O   UNK d   1       4.119  -4.068  -7.643  0.00  0.00    -0.543 OA
ATOM     27  O   UNK d   1       3.293  -5.377  -6.196  0.00  0.00    -0.543 OA
ENDBRANCH   5  25
ENDBRANCH   1   4
BRANCH   1  28
ATOM     28  C   UNK d   1       8.744  -4.605  -4.941  0.00  0.00    -0.049 C 
ATOM     29  H   UNK d   1       8.707  -5.071  -5.925  0.00  0.00     0.027 H 
ATOM     30  H   UNK d   1       9.535  -3.857  -4.922  0.00  0.00     0.027 H 
BRANCH  28  31
ATOM     31  C   UNK d   1       9.028  -5.674  -3.883  0.00  0.00    -0.044 C 
ATOM     32  H   UNK d   1       9.923  -5.401  -3.322  0.00  0.00     0.027 H 
ATOM     33  H   UNK d   1       8.181  -5.745  -3.201  0.00  0.00     0.027 H 
BRANCH  31  34
ATOM     34  C   UNK d   1       9.247  -7.024  -4.567  0.00  0.00    -0.006 C 
ATOM     35  H   UNK d   1       8.835  -6.991  -5.575  0.00  0.00     0.038 H 
ATOM     36  H   UNK d   1      10.315  -7.237  -4.617  0.00  0.00     0.038 H 
BRANCH  34  37
ATOM     37  S   UNK d   1       8.414  -8.326  -3.617  0.00  0.00    -0.155 SA
BRANCH  37  38
ATOM     38  C   UNK d   1       7.195  -9.005  -4.776  0.00  0.00     0.042 C 
ATOM     39  H   UNK d   1       6.810  -8.204  -5.407  0.00  0.00     0.044 H 
ATOM     40  H   UNK d   1       7.670  -9.762  -5.399  0.00  0.00     0.044 H 
BRANCH  38  41
ATOM     41  C   UNK d   1       6.043  -9.637  -3.993  0.00  0.00     0.025 C 
ATOM     42  H   UNK d   1       6.066  -9.283  -2.962  0.00  0.00     0.092 H 
BRANCH  41  43
ATOM     43  C   UNK d   1       4.732  -9.249  -4.628  0.00  0.00     0.090 C 
ATOM     44  O   UNK d   1       3.856 -10.084  -4.775  0.00  0.00    -0.544 OA
ATOM     45  O   UNK d   1       4.549  -8.101  -4.994  0.00  0.00    -0.544 OA
ENDBRANCH  41  43
BRANCH  41  46
ATOM     46  N   UNK d   1       6.183 -11.099  -4.011  0.00  0.00     0.226 N 
ATOM     47  H   UNK d   1       5.728 -11.491  -3.201  0.00  0.00     0.200 HD
ATOM     48  H   UNK d   1       5.757 -11.468  -4.848  0.00  0.00     0.200 HD
ATOM     49  H   UNK d   1       7.162 -11.343  -3.997  0.00  0.00     0.200 HD
ENDBRANCH  41  46
ENDBRANCH  38  41
ENDBRANCH  37  38
ENDBRANCH  34  37
ENDBRANCH  31  34
ENDBRANCH  28  31
ENDBRANCH   1  28
TORSDOF 14
ENDMDL
MODEL 4
REMARK VINA RESULT:      -5.2      2.699      5.343
REMARK  14 active torsions:
REMARK  status: ('A' for Active; 'I' for Inactive)
REMARK    1  A    between atoms: C_1  and  C_2 
REMARK    2  A    between atoms: C_2  and  C_26 
REMARK    3  A    between atoms: C_4  and  C_6 
REMARK       I    between atoms: C_6  and  N_8 
REMARK    4  A    between atoms: N_8  and  C_9 
REMARK    5  A    between atoms: C_9  and  C_23 
REMARK    6  A    between atoms: C_10  and  C_11 
REMARK    7  A    between atoms: C_11  and  C_12 
REMARK    8  A    between atoms: C_12  and  C_13 
REMARK    9  A    between atoms: C_13  and  C_14 
REMARK   10  A    between atoms: C_14  and  S_15 
REMARK   11  A    between atoms: S_15  and  C_16 
REMARK   12  A    between atoms: C_16  and  C_17 
REMARK   13  A    between atoms: C_17  and  C_19 
REMARK   14  A    between atoms: C_17  and  N_22 
ROOT
ATOM      1  C   UNK d   1       7.461  -3.454  -4.846  0.00  0.00    -0.033 C 
ATOM      2  H   UNK d   1       6.983  -3.203  -3.899  0.00  0.00     0.031 H 
ATOM      3  H   UNK d   1       8.245  -4.191  -4.672  0.00  0.00     0.031 H 
ENDROOT
BRANCH   1   4
ATOM      4  C   UNK d   1       6.436  -4.024  -5.792  0.00  0.00    -0.061 C 
ATOM      5  C   UNK d   1       5.135  -3.942  -5.496  0.00  0.00     0.052 C 
ATOM      6  H   UNK d   1       6.752  -4.498  -6.709  0.00  0.00     0.059 H 
BRANCH   5   7
ATOM      7  N   UNK d   1       4.717  -3.232  -4.361  0.00  0.00    -0.284 N 
ATOM      8  C   UNK d   0       4.275  -1.964  -4.485  0.00  0.00     0.221 C 
ATOM      9  O   UNK d   0       4.325  -1.406  -5.561  0.00  0.00    -0.275 OA
ATOM     10  H   UNK d   1       4.744  -3.653  -3.489  0.00  0.00     0.155 HD
BRANCH   8  11
ATOM     11  C   UNK d   0       3.719  -1.239  -3.286  0.00  0.00     0.042 A 
ATOM     12  C   UNK d   0       4.650  -0.274  -2.550  0.00  0.00    -0.023 A 
ATOM     13  C   UNK d   0       4.280  -1.614  -1.912  0.00  0.00    -0.035 A 
ATOM     14  H   UNK d   0       5.050  -2.384  -1.876  0.00  0.00     0.028 H 
ATOM     15  H   UNK d   0       3.593  -1.597  -1.066  0.00  0.00     0.028 H 
ATOM     16  H   UNK d   0       2.664  -0.976  -3.343  0.00  0.00     0.040 H 
BRANCH  12  17
ATOM     17  C   UNK d   0       6.073  -0.116  -3.087  0.00  0.00    -0.059 C 
ATOM     18  H   UNK d   0       6.269  -0.888  -3.831  0.00  0.00     0.024 H 
ATOM     19  H   UNK d   0       6.183   0.867  -3.545  0.00  0.00     0.024 H 
ATOM     20  H   UNK d   0       6.784  -0.216  -2.267  0.00  0.00     0.024 H 
ENDBRANCH  12  17
BRANCH  12  21
ATOM     21  C   UNK d   0       4.028   0.989  -1.952  0.00  0.00    -0.059 C 
ATOM     22  H   UNK d   0       4.347   1.859  -2.526  0.00  0.00     0.024 H 
ATOM     23  H   UNK d   0       2.940   0.911  -1.987  0.00  0.00     0.024 H 
ATOM     24  H   UNK d   0       4.350   1.099  -0.916  0.00  0.00     0.024 H 
ENDBRANCH  12  21
ENDBRANCH   8  11
ENDBRANCH   5   7
BRANCH   5  25
ATOM     25  C   UNK d   1       4.140  -4.596  -6.361  0.00  0.00     0.085 C 
ATOM     26  O   UNK d   1       4.008  -4.235  -7.522  0.00  0.00    -0.543 OA
ATOM     27  O   UNK d   1       3.446  -5.502  -5.920  0.00  0.00    -0.543 OA
ENDBRANCH   5  25
ENDBRANCH   1   4
BRANCH   1  28
ATOM     28  C   UNK d   1       8.074  -2.193  -5.458  0.00  0.00    -0.049 C 
ATOM     29  H   UNK d   1       7.399  -1.350  -5.309  0.00  0.00     0.027 H 
ATOM     30  H   UNK d   1       9.030  -1.983  -4.977  0.00  0.00     0.027 H 
BRANCH  28  31
ATOM     31  C   UNK d   1       8.294  -2.408  -6.957  0.00  0.00    -0.044 C 
ATOM     32  H   UNK d   1       9.202  -2.992  -7.111  0.00  0.00     0.027 H 
ATOM     33  H   UNK d   1       7.443  -2.945  -7.375  0.00  0.00     0.027 H 
BRANCH  31  34
ATOM     34  C   UNK d   1       8.435  -1.053  -7.652  0.00  0.00    -0.006 C 
ATOM     35  H   UNK d   1       9.432  -0.653  -7.471  0.00  0.00     0.038 H 
ATOM     36  H   UNK d   1       8.282  -1.177  -8.724  0.00  0.00     0.038 H 
BRANCH  34  37
ATOM     37  S   UNK d   1       7.195   0.096  -6.994  0.00  0.00    -0.155 SA
BRANCH  37  38
ATOM     38  C   UNK d   1       6.477   0.863  -8.473  0.00  0.00     0.042 C 
ATOM     39  H   UNK d   1       6.590   1.946  -8.411  0.00  0.00     0.044 H 
ATOM     40  H   UNK d   1       6.993   0.494  -9.359  0.00  0.00     0.044 H 
BRANCH  38  41
ATOM     41  C   UNK d   1       4.991   0.508  -8.562  0.00  0.00     0.025 C 
ATOM     42  H   UNK d   1       4.645   0.148  -7.593  0.00  0.00     0.092 H 
BRANCH  41  43
ATOM     43  C   UNK d   1       4.206   1.733  -8.953  0.00  0.00     0.090 C 
ATOM     44  O   UNK d   1       4.425   2.284 -10.019  0.00  0.00    -0.544 OA
ATOM     45  O   UNK d   1       3.350   2.173  -8.204  0.00  0.00    -0.544 OA
ENDBRANCH  41  43
BRANCH  41  46
ATOM     46  N   UNK d   1       4.799  -0.541  -9.572  0.00  0.00     0.226 N 
ATOM     47  H   UNK d   1       5.295  -1.374  -9.291  0.00  0.00     0.200 HD
ATOM     48  H   UNK d   1       3.815  -0.749  -9.658  0.00  0.00     0.200 HD
ATOM     49  H   UNK d   1       5.154  -0.222 -10.460  0.00  0.00     0.200 HD
ENDBRANCH  41  46
ENDBRANCH  38  41
ENDBRANCH  37  38
ENDBRANCH  34  37
ENDBRANCH  31  34
ENDBRANCH  28  31
ENDBRANCH   1  28
TORSDOF 14
ENDMDL
MODEL 5
REMARK VINA RESULT:      -5.2      5.627      8.926
REMARK  14 active torsions:
REMARK  status: ('A' for Active; 'I' for Inactive)
REMARK    1  A    between atoms: C_1  and  C_2 
REMARK    2  A    between atoms: C_2  and  C_26 
REMARK    3  A    between atoms: C_4  and  C_6 
REMARK       I    between atoms: C_6  and  N_8 
REMARK    4  A    between atoms: N_8  and  C_9 
REMARK    5  A    between atoms: C_9  and  C_23 
REMARK    6  A    between atoms: C_10  and  C_11 
REMARK    7  A    between atoms: C_11  and  C_12 
REMARK    8  A    between atoms: C_12  and  C_13 
REMARK    9  A    between atoms: C_13  and  C_14 
REMARK   10  A    between atoms: C_14  and  S_15 
REMARK   11  A    between atoms: S_15  and  C_16 
REMARK   12  A    between atoms: C_16  and  C_17 
REMARK   13  A    between atoms: C_17  and  C_19 
REMARK   14  A    between atoms: C_17  and  N_22 
ROOT
ATOM      1  C   UNK d   1       7.580  -5.144  -5.247  0.00  0.00    -0.033 C 
ATOM      2  H   UNK d   1       8.371  -4.783  -5.904  0.00  0.00     0.031 H 
ATOM      3  H   UNK d   1       7.431  -4.433  -4.434  0.00  0.00     0.031 H 
ENDROOT
BRANCH   1   4
ATOM      4  C   UNK d   1       6.301  -5.287  -6.030  0.00  0.00    -0.061 C 
ATOM      5  C   UNK d   1       5.397  -4.301  -6.021  0.00  0.00     0.052 C 
ATOM      6  H   UNK d   1       6.113  -6.185  -6.599  0.00  0.00     0.059 H 
BRANCH   5   7
ATOM      7  N   UNK d   1       5.685  -3.092  -5.372  0.00  0.00    -0.284 N 
ATOM      8  C   UNK d   0       5.101  -2.805  -4.191  0.00  0.00     0.221 C 
ATOM      9  O   UNK d   0       4.258  -3.549  -3.735  0.00  0.00    -0.275 OA
ATOM     10  H   UNK d   1       6.305  -2.463  -5.771  0.00  0.00     0.155 HD
BRANCH   8  11
ATOM     11  C   UNK d   0       5.495  -1.560  -3.438  0.00  0.00     0.042 A 
ATOM     12  C   UNK d   0       4.378  -0.597  -3.033  0.00  0.00    -0.023 A 
ATOM     13  C   UNK d   0       5.341  -0.220  -4.160  0.00  0.00    -0.035 A 
ATOM     14  H   UNK d   0       4.955  -0.239  -5.180  0.00  0.00     0.028 H 
ATOM     15  H   UNK d   0       6.082   0.551  -3.953  0.00  0.00     0.028 H 
ATOM     16  H   UNK d   0       6.337  -1.670  -2.756  0.00  0.00     0.040 H 
BRANCH  12  17
ATOM     17  C   UNK d   0       2.946  -0.970  -3.422  0.00  0.00    -0.059 C 
ATOM     18  H   UNK d   0       2.717  -1.968  -3.048  0.00  0.00     0.024 H 
ATOM     19  H   UNK d   0       2.252  -0.250  -2.989  0.00  0.00     0.024 H 
ATOM     20  H   UNK d   0       2.851  -0.960  -4.508  0.00  0.00     0.024 H 
ENDBRANCH  12  17
BRANCH  12  21
ATOM     21  C   UNK d   0       4.529   0.138  -1.700  0.00  0.00    -0.059 C 
ATOM     22  H   UNK d   0       4.003  -0.413  -0.919  0.00  0.00     0.024 H 
ATOM     23  H   UNK d   0       5.586   0.212  -1.443  0.00  0.00     0.024 H 
ATOM     24  H   UNK d   0       4.105   1.139  -1.786  0.00  0.00     0.024 H 
ENDBRANCH  12  21
ENDBRANCH   8  11
ENDBRANCH   5   7
BRANCH   5  25
ATOM     25  C   UNK d   1       4.100  -4.485  -6.692  0.00  0.00     0.085 C 
ATOM     26  O   UNK d   1       3.329  -5.353  -6.306  0.00  0.00    -0.543 OA
ATOM     27  O   UNK d   1       3.792  -3.770  -7.636  0.00  0.00    -0.543 OA
ENDBRANCH   5  25
ENDBRANCH   1   4
BRANCH   1  28
ATOM     28  C   UNK d   1       7.978  -6.503  -4.668  0.00  0.00    -0.049 C 
ATOM     29  H   UNK d   1       9.062  -6.606  -4.692  0.00  0.00     0.027 H 
ATOM     30  H   UNK d   1       7.628  -6.576  -3.638  0.00  0.00     0.027 H 
BRANCH  28  31
ATOM     31  C   UNK d   1       7.342  -7.618  -5.502  0.00  0.00    -0.044 C 
ATOM     32  H   UNK d   1       6.531  -7.206  -6.102  0.00  0.00     0.027 H 
ATOM     33  H   UNK d   1       8.095  -8.054  -6.159  0.00  0.00     0.027 H 
BRANCH  31  34
ATOM     34  C   UNK d   1       6.791  -8.699  -4.572  0.00  0.00    -0.006 C 
ATOM     35  H   UNK d   1       7.562  -8.995  -3.860  0.00  0.00     0.038 H 
ATOM     36  H   UNK d   1       5.928  -8.309  -4.031  0.00  0.00     0.038 H 
BRANCH  34  37
ATOM     37  S   UNK d   1       6.287 -10.141  -5.551  0.00  0.00    -0.155 SA
BRANCH  37  38
ATOM     38  C   UNK d   1       5.587 -11.282  -4.326  0.00  0.00     0.042 C 
ATOM     39  H   UNK d   1       4.879 -11.950  -4.817  0.00  0.00     0.044 H 
ATOM     40  H   UNK d   1       6.388 -11.868  -3.877  0.00  0.00     0.044 H 
BRANCH  38  41
ATOM     41  C   UNK d   1       4.866 -10.483  -3.238  0.00  0.00     0.025 C 
ATOM     42  H   UNK d   1       5.250  -9.463  -3.222  0.00  0.00     0.092 H 
BRANCH  41  43
ATOM     43  C   UNK d   1       3.388 -10.460  -3.530  0.00  0.00     0.090 C 
ATOM     44  O   UNK d   1       2.896 -11.310  -4.252  0.00  0.00    -0.544 OA
ATOM     45  O   UNK d   1       2.685  -9.591  -3.043  0.00  0.00    -0.544 OA
ENDBRANCH  41  43
BRANCH  41  46
ATOM     46  N   UNK d   1       5.099 -11.115  -1.933  0.00  0.00     0.226 N 
ATOM     47  H   UNK d   1       4.720 -10.530  -1.204  0.00  0.00     0.200 HD
ATOM     48  H   UNK d   1       4.647 -12.017  -1.910  0.00  0.00     0.200 HD
ATOM     49  H   UNK d   1       6.091 -11.232  -1.788  0.00  0.00     0.200 HD
ENDBRANCH  41  46
ENDBRANCH  38  41
ENDBRANCH  37  38
ENDBRANCH  34  37
ENDBRANCH  31  34
ENDBRANCH  28  31
ENDBRANCH   1  28
TORSDOF 14
ENDMDL
MODEL 6
REMARK VINA RESULT:      -5.2      1.834      4.197
REMARK  14 active torsions:
REMARK  status: ('A' for Active; 'I' for Inactive)
REMARK    1  A    between atoms: C_1  and  C_2 
REMARK    2  A    between atoms: C_2  and  C_26 
REMARK    3  A    between atoms: C_4  and  C_6 
REMARK       I    between atoms: C_6  and  N_8 
REMARK    4  A    between atoms: N_8  and  C_9 
REMARK    5  A    between atoms: C_9  and  C_23 
REMARK    6  A    between atoms: C_10  and  C_11 
REMARK    7  A    between atoms: C_11  and  C_12 
REMARK    8  A    between atoms: C_12  and  C_13 
REMARK    9  A    between atoms: C_13  and  C_14 
REMARK   10  A    between atoms: C_14  and  S_15 
REMARK   11  A    between atoms: S_15  and  C_16 
REMARK   12  A    between atoms: C_16  and  C_17 
REMARK   13  A    between atoms: C_17  and  C_19 
REMARK   14  A    between atoms: C_17  and  N_22 
ROOT
ATOM      1  C   UNK d   1       6.391  -1.458  -2.631  0.00  0.00    -0.033 C 
ATOM      2  H   UNK d   1       6.679  -2.194  -1.881  0.00  0.00     0.031 H 
ATOM      3  H   UNK d   1       6.924  -0.525  -2.450  0.00  0.00     0.031 H 
ENDROOT
BRANCH   1   4
ATOM      4  C   UNK d   1       6.737  -1.977  -4.003  0.00  0.00    -0.061 C 
ATOM      5  C   UNK d   1       7.620  -1.320  -4.763  0.00  0.00     0.052 C 
ATOM      6  H   UNK d   1       6.272  -2.878  -4.373  0.00  0.00     0.059 H 
BRANCH   5   7
ATOM      7  N   UNK d   1       8.305  -0.213  -4.243  0.00  0.00    -0.284 N 
ATOM      8  C   UNK d   0       7.798   1.027  -4.400  0.00  0.00     0.221 C 
ATOM      9  O   UNK d   0       6.799   1.194  -5.067  0.00  0.00    -0.275 OA
ATOM     10  H   UNK d   1       9.142  -0.337  -3.771  0.00  0.00     0.155 HD
BRANCH   8  11
ATOM     11  C   UNK d   0       8.473   2.205  -3.745  0.00  0.00     0.042 A 
ATOM     12  C   UNK d   0       9.359   3.089  -4.623  0.00  0.00    -0.023 A 
ATOM     13  C   UNK d   0       9.994   2.153  -3.593  0.00  0.00    -0.035 A 
ATOM     14  H   UNK d   0      10.507   1.267  -3.968  0.00  0.00     0.028 H 
ATOM     15  H   UNK d   0      10.427   2.605  -2.701  0.00  0.00     0.028 H 
ATOM     16  H   UNK d   0       7.905   2.691  -2.952  0.00  0.00     0.040 H 
BRANCH  12  17
ATOM     17  C   UNK d   0       9.493   2.711  -6.099  0.00  0.00    -0.059 C 
ATOM     18  H   UNK d   0      10.440   2.196  -6.258  0.00  0.00     0.024 H 
ATOM     19  H   UNK d   0       8.670   2.056  -6.384  0.00  0.00     0.024 H 
ATOM     20  H   UNK d   0       9.466   3.615  -6.709  0.00  0.00     0.024 H 
ENDBRANCH  12  17
BRANCH  12  21
ATOM     21  C   UNK d   0       9.380   4.589  -4.323  0.00  0.00    -0.059 C 
ATOM     22  H   UNK d   0       9.060   5.142  -5.206  0.00  0.00     0.024 H 
ATOM     23  H   UNK d   0       8.704   4.804  -3.495  0.00  0.00     0.024 H 
ATOM     24  H   UNK d   0      10.392   4.892  -4.052  0.00  0.00     0.024 H 
ENDBRANCH  12  21
ENDBRANCH   8  11
ENDBRANCH   5   7
BRANCH   5  25
ATOM     25  C   UNK d   1       7.875  -1.761  -6.143  0.00  0.00     0.085 C 
ATOM     26  O   UNK d   1       7.079  -1.485  -7.030  0.00  0.00    -0.543 OA
ATOM     27  O   UNK d   1       8.883  -2.403  -6.405  0.00  0.00    -0.543 OA
ENDBRANCH   5  25
ENDBRANCH   1   4
BRANCH   1  28
ATOM     28  C   UNK d   1       4.884  -1.208  -2.547  0.00  0.00    -0.049 C 
ATOM     29  H   UNK d   1       4.453  -1.236  -3.548  0.00  0.00     0.027 H 
ATOM     30  H   UNK d   1       4.421  -1.979  -1.931  0.00  0.00     0.027 H 
BRANCH  28  31
ATOM     31  C   UNK d   1       4.629   0.165  -1.921  0.00  0.00    -0.044 C 
ATOM     32  H   UNK d   1       4.241   0.037  -0.910  0.00  0.00     0.027 H 
ATOM     33  H   UNK d   1       5.562   0.726  -1.884  0.00  0.00     0.027 H 
BRANCH  31  34
ATOM     34  C   UNK d   1       3.608   0.929  -2.766  0.00  0.00    -0.006 C 
ATOM     35  H   UNK d   1       2.884   1.414  -2.111  0.00  0.00     0.038 H 
ATOM     36  H   UNK d   1       4.121   1.683  -3.363  0.00  0.00     0.038 H 
BRANCH  34  37
ATOM     37  S   UNK d   1       2.745  -0.228  -3.865  0.00  0.00    -0.155 SA
BRANCH  37  38
ATOM     38  C   UNK d   1       2.454   0.734  -5.375  0.00  0.00     0.042 C 
ATOM     39  H   UNK d   1       1.382   0.815  -5.553  0.00  0.00     0.044 H 
ATOM     40  H   UNK d   1       2.879   1.730  -5.258  0.00  0.00     0.044 H 
BRANCH  38  41
ATOM     41  C   UNK d   1       3.117   0.032  -6.562  0.00  0.00     0.025 C 
ATOM     42  H   UNK d   1       2.674  -0.955  -6.695  0.00  0.00     0.092 H 
BRANCH  41  43
ATOM     43  C   UNK d   1       2.906   0.850  -7.810  0.00  0.00     0.090 C 
ATOM     44  O   UNK d   1       2.690   0.295  -8.874  0.00  0.00    -0.544 OA
ATOM     45  O   UNK d   1       2.950   2.067  -7.756  0.00  0.00    -0.544 OA
ENDBRANCH  41  43
BRANCH  41  46
ATOM     46  N   UNK d   1       4.557  -0.108  -6.306  0.00  0.00     0.226 N 
ATOM     47  H   UNK d   1       4.941  -0.810  -6.919  0.00  0.00     0.200 HD
ATOM     48  H   UNK d   1       5.016   0.775  -6.475  0.00  0.00     0.200 HD
ATOM     49  H   UNK d   1       4.702  -0.383  -5.346  0.00  0.00     0.200 HD
ENDBRANCH  41  46
ENDBRANCH  38  41
ENDBRANCH  37  38
ENDBRANCH  34  37
ENDBRANCH  31  34
ENDBRANCH  28  31
ENDBRANCH   1  28
TORSDOF 14
ENDMDL
MODEL 7
REMARK VINA RESULT:      -5.2      2.928      5.225
REMARK  14 active torsions:
REMARK  status: ('A' for Active; 'I' for Inactive)
REMARK    1  A    between atoms: C_1  and  C_2 
REMARK    2  A    between atoms: C_2  and  C_26 
REMARK    3  A    between atoms: C_4  and  C_6 
REMARK       I    between atoms: C_6  and  N_8 
REMARK    4  A    between atoms: N_8  and  C_9 
REMARK    5  A    between atoms: C_9  and  C_23 
REMARK    6  A    between atoms: C_10  and  C_11 
REMARK    7  A    between atoms: C_11  and  C_12 
REMARK    8  A    between atoms: C_12  and  C_13 
REMARK    9  A    between atoms: C_13  and  C_14 
REMARK   10  A    between atoms: C_14  and  S_15 
REMARK   11  A    between atoms: S_15  and  C_16 
REMARK   12  A    between atoms: C_16  and  C_17 
REMARK   13  A    between atoms: C_17  and  C_19 
REMARK   14  A    between atoms: C_17  and  N_22 
ROOT
ATOM      1  C   UNK d   1       2.549  -0.488  -7.914  0.00  0.00    -0.033 C 
ATOM      2  H   UNK d   1       1.727  -0.979  -7.394  0.00  0.00     0.031 H 
ATOM      3  H   UNK d   1       2.805   0.437  -7.397  0.00  0.00     0.031 H 
ENDROOT
BRANCH   1   4
ATOM      4  C   UNK d   1       3.748  -1.400  -7.936  0.00  0.00    -0.061 C 
ATOM      5  C   UNK d   1       4.495  -1.549  -6.837  0.00  0.00     0.052 C 
ATOM      6  H   UNK d   1       4.004  -1.935  -8.838  0.00  0.00     0.059 H 
BRANCH   5   7
ATOM      7  N   UNK d   1       4.103  -0.942  -5.635  0.00  0.00    -0.284 N 
ATOM      8  C   UNK d   0       3.985  -1.681  -4.514  0.00  0.00     0.221 C 
ATOM      9  O   UNK d   0       4.129  -2.885  -4.563  0.00  0.00    -0.275 OA
ATOM     10  H   UNK d   1       3.918   0.009  -5.609  0.00  0.00     0.155 HD
BRANCH   8  11
ATOM     11  C   UNK d   0       3.676  -1.013  -3.199  0.00  0.00     0.042 A 
ATOM     12  C   UNK d   0       4.831  -0.328  -2.466  0.00  0.00    -0.023 A 
ATOM     13  C   UNK d   0       4.259  -1.642  -1.932  0.00  0.00    -0.035 A 
ATOM     14  H   UNK d   0       4.867  -2.540  -2.050  0.00  0.00     0.028 H 
ATOM     15  H   UNK d   0       3.657  -1.599  -1.025  0.00  0.00     0.028 H 
ATOM     16  H   UNK d   0       2.690  -0.555  -3.124  0.00  0.00     0.040 H 
BRANCH  12  17
ATOM     17  C   UNK d   0       6.211  -0.372  -3.124  0.00  0.00    -0.059 C 
ATOM     18  H   UNK d   0       6.552  -1.405  -3.185  0.00  0.00     0.024 H 
ATOM     19  H   UNK d   0       6.151   0.051  -4.126  0.00  0.00     0.024 H 
ATOM     20  H   UNK d   0       6.916   0.207  -2.527  0.00  0.00     0.024 H 
ENDBRANCH  12  17
BRANCH  12  21
ATOM     21  C   UNK d   0       4.513   0.949  -1.685  0.00  0.00    -0.059 C 
ATOM     22  H   UNK d   0       4.274   0.695  -0.653  0.00  0.00     0.024 H 
ATOM     23  H   UNK d   0       5.380   1.612  -1.704  0.00  0.00     0.024 H 
ATOM     24  H   UNK d   0       3.661   1.453  -2.143  0.00  0.00     0.024 H 
ENDBRANCH  12  21
ENDBRANCH   8  11
ENDBRANCH   5   7
BRANCH   5  25
ATOM     25  C   UNK d   1       5.729  -2.349  -6.888  0.00  0.00     0.085 C 
ATOM     26  O   UNK d   1       5.692  -3.504  -7.291  0.00  0.00    -0.543 OA
ATOM     27  O   UNK d   1       6.791  -1.861  -6.527  0.00  0.00    -0.543 OA
ENDBRANCH   5  25
ENDBRANCH   1   4
BRANCH   1  28
ATOM     28  C   UNK d   1       2.126  -0.168  -9.349  0.00  0.00    -0.049 C 
ATOM     29  H   UNK d   1       1.043  -0.055  -9.393  0.00  0.00     0.027 H 
ATOM     30  H   UNK d   1       2.602   0.758  -9.670  0.00  0.00     0.027 H 
BRANCH  28  31
ATOM     31  C   UNK d   1       2.556  -1.309 -10.274  0.00  0.00    -0.044 C 
ATOM     32  H   UNK d   1       3.177  -2.012  -9.719  0.00  0.00     0.027 H 
ATOM     33  H   UNK d   1       1.672  -1.824 -10.650  0.00  0.00     0.027 H 
BRANCH  31  34
ATOM     34  C   UNK d   1       3.354  -0.740 -11.448  0.00  0.00    -0.006 C 
ATOM     35  H   UNK d   1       4.229  -1.364 -11.629  0.00  0.00     0.038 H 
ATOM     36  H   UNK d   1       2.728  -0.725 -12.340  0.00  0.00     0.038 H 
BRANCH  34  37
ATOM     37  S   UNK d   1       3.888   0.949 -11.056  0.00  0.00    -0.155 SA
BRANCH  37  38
ATOM     38  C   UNK d   1       5.479   0.723 -10.215  0.00  0.00     0.042 C 
ATOM     39  H   UNK d   1       5.627  -0.335  -9.996  0.00  0.00     0.044 H 
ATOM     40  H   UNK d   1       6.283   1.077 -10.860  0.00  0.00     0.044 H 
BRANCH  38  41
ATOM     41  C   UNK d   1       5.483   1.520  -8.909  0.00  0.00     0.025 C 
ATOM     42  H   UNK d   1       5.071   0.908  -8.107  0.00  0.00     0.092 H 
BRANCH  41  43
ATOM     43  C   UNK d   1       6.897   1.913  -8.566  0.00  0.00     0.090 C 
ATOM     44  O   UNK d   1       7.345   1.671  -7.458  0.00  0.00    -0.544 OA
ATOM     45  O   UNK d   1       7.593   2.472  -9.396  0.00  0.00    -0.544 OA
ENDBRANCH  41  43
BRANCH  41  46
ATOM     46  N   UNK d   1       4.665   2.729  -9.071  0.00  0.00     0.226 N 
ATOM     47  H   UNK d   1       3.942   2.557  -9.753  0.00  0.00     0.200 HD
ATOM     48  H   UNK d   1       4.243   2.971  -8.187  0.00  0.00     0.200 HD
ATOM     49  H   UNK d   1       5.248   3.491  -9.385  0.00  0.00     0.200 HD
ENDBRANCH  41  46
ENDBRANCH  38  41
ENDBRANCH  37  38
ENDBRANCH  34  37
ENDBRANCH  31  34
ENDBRANCH  28  31
ENDBRANCH   1  28
TORSDOF 14
ENDMDL
MODEL 8
REMARK VINA RESULT:      -5.1      2.291      3.786
REMARK  14 active torsions:
REMARK  status: ('A' for Active; 'I' for Inactive)
REMARK    1  A    between atoms: C_1  and  C_2 
REMARK    2  A    between atoms: C_2  and  C_26 
REMARK    3  A    between atoms: C_4  and  C_6 
REMARK       I    between atoms: C_6  and  N_8 
REMARK    4  A    between atoms: N_8  and  C_9 
REMARK    5  A    between atoms: C_9  and  C_23 
REMARK    6  A    between atoms: C_10  and  C_11 
REMARK    7  A    between atoms: C_11  and  C_12 
REMARK    8  A    between atoms: C_12  and  C_13 
REMARK    9  A    between atoms: C_13  and  C_14 
REMARK   10  A    between atoms: C_14  and  S_15 
REMARK   11  A    between atoms: S_15  and  C_16 
REMARK   12  A    between atoms: C_16  and  C_17 
REMARK   13  A    between atoms: C_17  and  C_19 
REMARK   14  A    between atoms: C_17  and  N_22 
ROOT
ATOM      1  C   UNK d   1       7.506  -0.716  -6.146  0.00  0.00    -0.033 C 
ATOM      2  H   UNK d   1       8.219  -1.453  -6.515  0.00  0.00     0.031 H 
ATOM      3  H   UNK d   1       6.956  -1.133  -5.302  0.00  0.00     0.031 H 
ENDROOT
BRANCH   1   4
ATOM      4  C   UNK d   1       8.245   0.520  -5.702  0.00  0.00    -0.061 C 
ATOM      5  C   UNK d   1       8.068   0.997  -4.464  0.00  0.00     0.052 C 
ATOM      6  H   UNK d   1       8.917   1.021  -6.381  0.00  0.00     0.059 H 
BRANCH   5   7
ATOM      7  N   UNK d   1       7.281   0.288  -3.546  0.00  0.00    -0.284 N 
ATOM      8  C   UNK d   0       6.097   0.792  -3.142  0.00  0.00     0.221 C 
ATOM      9  O   UNK d   0       5.755   1.899  -3.502  0.00  0.00    -0.275 OA
ATOM     10  H   UNK d   1       7.587  -0.565  -3.202  0.00  0.00     0.155 HD
BRANCH   8  11
ATOM     11  C   UNK d   0       5.199  -0.020  -2.244  0.00  0.00     0.042 A 
ATOM     12  C   UNK d   0       4.136  -0.893  -2.913  0.00  0.00    -0.023 A 
ATOM     13  C   UNK d   0       3.724   0.381  -2.172  0.00  0.00    -0.035 A 
ATOM     14  H   UNK d   0       3.404   1.232  -2.774  0.00  0.00     0.028 H 
ATOM     15  H   UNK d   0       3.217   0.266  -1.215  0.00  0.00     0.028 H 
ATOM     16  H   UNK d   0       5.662  -0.399  -1.334  0.00  0.00     0.040 H 
BRANCH  12  17
ATOM     17  C   UNK d   0       4.065  -0.876  -4.441  0.00  0.00    -0.059 C 
ATOM     18  H   UNK d   0       3.034  -0.716  -4.755  0.00  0.00     0.024 H 
ATOM     19  H   UNK d   0       4.692  -0.073  -4.826  0.00  0.00     0.024 H 
ATOM     20  H   UNK d   0       4.419  -1.832  -4.831  0.00  0.00     0.024 H 
ENDBRANCH  12  17
BRANCH  12  21
ATOM     21  C   UNK d   0       3.804  -2.232  -2.252  0.00  0.00    -0.059 C 
ATOM     22  H   UNK d   0       3.238  -2.852  -2.949  0.00  0.00     0.024 H 
ATOM     23  H   UNK d   0       4.729  -2.743  -1.981  0.00  0.00     0.024 H 
ATOM     24  H   UNK d   0       3.209  -2.059  -1.355  0.00  0.00     0.024 H 
ENDBRANCH  12  21
ENDBRANCH   8  11
ENDBRANCH   5   7
BRANCH   5  25
ATOM     25  C   UNK d   1       8.700   2.264  -4.067  0.00  0.00     0.085 C 
ATOM     26  O   UNK d   1       9.340   2.329  -3.026  0.00  0.00    -0.543 OA
ATOM     27  O   UNK d   1       8.587   3.255  -4.777  0.00  0.00    -0.543 OA
ENDBRANCH   5  25
ENDBRANCH   1   4
BRANCH   1  28
ATOM     28  C   UNK d   1       6.526  -0.350  -7.262  0.00  0.00    -0.049 C 
ATOM     29  H   UNK d   1       5.583  -0.020  -6.825  0.00  0.00     0.027 H 
ATOM     30  H   UNK d   1       6.947   0.454  -7.866  0.00  0.00     0.027 H 
BRANCH  28  31
ATOM     31  C   UNK d   1       6.277  -1.574  -8.145  0.00  0.00    -0.044 C 
ATOM     32  H   UNK d   1       7.213  -1.882  -8.611  0.00  0.00     0.027 H 
ATOM     33  H   UNK d   1       5.891  -2.390  -7.533  0.00  0.00     0.027 H 
BRANCH  31  34
ATOM     34  C   UNK d   1       5.258  -1.223  -9.229  0.00  0.00    -0.006 C 
ATOM     35  H   UNK d   1       5.123  -2.077  -9.892  0.00  0.00     0.038 H 
ATOM     36  H   UNK d   1       4.305  -0.970  -8.764  0.00  0.00     0.038 H 
BRANCH  34  37
ATOM     37  S   UNK d   1       5.859   0.195 -10.187  0.00  0.00    -0.155 SA
BRANCH  37  38
ATOM     38  C   UNK d   1       4.344   1.008 -10.767  0.00  0.00     0.042 C 
ATOM     39  H   UNK d   1       4.518   1.437 -11.754  0.00  0.00     0.044 H 
ATOM     40  H   UNK d   1       3.539   0.276 -10.825  0.00  0.00     0.044 H 
BRANCH  38  41
ATOM     41  C   UNK d   1       3.955   2.119  -9.789  0.00  0.00     0.025 C 
ATOM     42  H   UNK d   1       3.525   2.955 -10.340  0.00  0.00     0.092 H 
BRANCH  41  43
ATOM     43  C   UNK d   1       2.941   1.590  -8.807  0.00  0.00     0.090 C 
ATOM     44  O   UNK d   1       2.858   2.079  -7.693  0.00  0.00    -0.544 OA
ATOM     45  O   UNK d   1       2.204   0.672  -9.127  0.00  0.00    -0.544 OA
ENDBRANCH  41  43
BRANCH  41  46
ATOM     46  N   UNK d   1       5.149   2.573  -9.064  0.00  0.00     0.226 N 
ATOM     47  H   UNK d   1       5.932   1.984  -9.303  0.00  0.00     0.200 HD
ATOM     48  H   UNK d   1       5.355   3.527  -9.319  0.00  0.00     0.200 HD
ATOM     49  H   UNK d   1       4.980   2.519  -8.071  0.00  0.00     0.200 HD
ENDBRANCH  41  46
ENDBRANCH  38  41
ENDBRANCH  37  38
ENDBRANCH  34  37
ENDBRANCH  31  34
ENDBRANCH  28  31
ENDBRANCH   1  28
TORSDOF 14
ENDMDL
MODEL 9
REMARK VINA RESULT:      -5.1      5.290      9.600
REMARK  14 active torsions:
REMARK  status: ('A' for Active; 'I' for Inactive)
REMARK    1  A    between atoms: C_1  and  C_2 
REMARK    2  A    between atoms: C_2  and  C_26 
REMARK    3  A    between atoms: C_4  and  C_6 
REMARK       I    between atoms: C_6  and  N_8 
REMARK    4  A    between atoms: N_8  and  C_9 
REMARK    5  A    between atoms: C_9  and  C_23 
REMARK    6  A    between atoms: C_10  and  C_11 
REMARK    7  A    between atoms: C_11  and  C_12 
REMARK    8  A    between atoms: C_12  and  C_13 
REMARK    9  A    between atoms: C_13  and  C_14 
REMARK   10  A    between atoms: C_14  and  S_15 
REMARK   11  A    between atoms: S_15  and  C_16 
REMARK   12  A    between atoms: C_16  and  C_17 
REMARK   13  A    between atoms: C_17  and  C_19 
REMARK   14  A    between atoms: C_17  and  N_22 
ROOT
ATOM      1  C   UNK d   1       7.418  -3.891  -4.582  0.00  0.00    -0.033 C 
ATOM      2  H   UNK d   1       7.465  -2.804  -4.525  0.00  0.00     0.031 H 
ATOM      3  H   UNK d   1       7.102  -4.292  -3.620  0.00  0.00     0.031 H 
ENDROOT
BRANCH   1   4
ATOM      4  C   UNK d   1       6.429  -4.296  -5.645  0.00  0.00    -0.061 C 
ATOM      5  C   UNK d   1       5.126  -4.053  -5.472  0.00  0.00     0.052 C 
ATOM      6  H   UNK d   1       6.773  -4.783  -6.545  0.00  0.00     0.059 H 
BRANCH   5   7
ATOM      7  N   UNK d   1       4.689  -3.326  -4.356  0.00  0.00    -0.284 N 
ATOM      8  C   UNK d   0       4.354  -2.027  -4.487  0.00  0.00     0.221 C 
ATOM      9  O   UNK d   0       4.515  -1.463  -5.549  0.00  0.00    -0.275 OA
ATOM     10  H   UNK d   1       4.628  -3.757  -3.490  0.00  0.00     0.155 HD
BRANCH   8  11
ATOM     11  C   UNK d   0       3.777  -1.275  -3.315  0.00  0.00     0.042 A 
ATOM     12  C   UNK d   0       4.707  -0.325  -2.559  0.00  0.00    -0.023 A 
ATOM     13  C   UNK d   0       4.282  -1.648  -1.920  0.00  0.00    -0.035 A 
ATOM     14  H   UNK d   0       5.032  -2.436  -1.850  0.00  0.00     0.028 H 
ATOM     15  H   UNK d   0       3.569  -1.604  -1.097  0.00  0.00     0.028 H 
ATOM     16  H   UNK d   0       2.731  -0.986  -3.410  0.00  0.00     0.040 H 
BRANCH  12  17
ATOM     17  C   UNK d   0       6.151  -0.208  -3.051  0.00  0.00    -0.059 C 
ATOM     18  H   UNK d   0       6.809  -0.016  -2.204  0.00  0.00     0.024 H 
ATOM     19  H   UNK d   0       6.446  -1.138  -3.537  0.00  0.00     0.024 H 
ATOM     20  H   UNK d   0       6.227   0.614  -3.762  0.00  0.00     0.024 H 
ENDBRANCH  12  17
BRANCH  12  21
ATOM     21  C   UNK d   0       4.097   0.960  -1.995  0.00  0.00    -0.059 C 
ATOM     22  H   UNK d   0       4.426   1.811  -2.592  0.00  0.00     0.024 H 
ATOM     23  H   UNK d   0       3.009   0.892  -2.028  0.00  0.00     0.024 H 
ATOM     24  H   UNK d   0       4.421   1.094  -0.963  0.00  0.00     0.024 H 
ENDBRANCH  12  21
ENDBRANCH   8  11
ENDBRANCH   5   7
BRANCH   5  25
ATOM     25  C   UNK d   1       4.148  -4.548  -6.455  0.00  0.00     0.085 C 
ATOM     26  O   UNK d   1       3.330  -5.397  -6.129  0.00  0.00    -0.543 OA
ATOM     27  O   UNK d   1       4.154  -4.111  -7.598  0.00  0.00    -0.543 OA
ENDBRANCH   5  25
ENDBRANCH   1   4
BRANCH   1  28
ATOM     28  C   UNK d   1       8.800  -4.443  -4.936  0.00  0.00    -0.049 C 
ATOM     29  H   UNK d   1       8.748  -4.977  -5.884  0.00  0.00     0.027 H 
ATOM     30  H   UNK d   1       9.510  -3.620  -5.021  0.00  0.00     0.027 H 
BRANCH  28  31
ATOM     31  C   UNK d   1       9.263  -5.403  -3.837  0.00  0.00    -0.044 C 
ATOM     32  H   UNK d   1       9.677  -4.831  -3.006  0.00  0.00     0.027 H 
ATOM     33  H   UNK d   1       8.413  -5.989  -3.486  0.00  0.00     0.027 H 
BRANCH  31  34
ATOM     34  C   UNK d   1      10.334  -6.340  -4.396  0.00  0.00    -0.006 C 
ATOM     35  H   UNK d   1      10.153  -6.507  -5.457  0.00  0.00     0.038 H 
ATOM     36  H   UNK d   1      11.317  -5.890  -4.261  0.00  0.00     0.038 H 
BRANCH  34  37
ATOM     37  S   UNK d   1      10.269  -7.926  -3.516  0.00  0.00    -0.155 SA
BRANCH  37  38
ATOM     38  C   UNK d   1      11.536  -7.766  -2.227  0.00  0.00     0.042 C 
ATOM     39  H   UNK d   1      12.261  -8.573  -2.330  0.00  0.00     0.044 H 
ATOM     40  H   UNK d   1      12.042  -6.807  -2.334  0.00  0.00     0.044 H 
BRANCH  38  41
ATOM     41  C   UNK d   1      10.875  -7.845  -0.850  0.00  0.00     0.025 C 
ATOM     42  H   UNK d   1      10.076  -8.586  -0.872  0.00  0.00     0.092 H 
BRANCH  41  43
ATOM     43  C   UNK d   1      11.903  -8.245   0.177  0.00  0.00     0.090 C 
ATOM     44  O   UNK d   1      13.023  -7.764   0.138  0.00  0.00    -0.544 OA
ATOM     45  O   UNK d   1      11.614  -9.049   1.048  0.00  0.00    -0.544 OA
ENDBRANCH  41  43
BRANCH  41  46
ATOM     46  N   UNK d   1      10.316  -6.533  -0.499  0.00  0.00     0.226 N 
ATOM     47  H   UNK d   1       9.770  -6.182  -1.271  0.00  0.00     0.200 HD
ATOM     48  H   UNK d   1       9.728  -6.624   0.316  0.00  0.00     0.200 HD
ATOM     49  H   UNK d   1      11.068  -5.890  -0.300  0.00  0.00     0.200 HD
ENDBRANCH  41  46
ENDBRANCH  38  41
ENDBRANCH  37  38
ENDBRANCH  34  37
ENDBRANCH  31  34
ENDBRANCH  28  31
ENDBRANCH   1  28
TORSDOF 14
ENDMDL
MODEL 10
REMARK VINA RESULT:      -5.0      3.789      8.022
REMARK  14 active torsions:
REMARK  status: ('A' for Active; 'I' for Inactive)
REMARK    1  A    between atoms: C_1  and  C_2 
REMARK    2  A    between atoms: C_2  and  C_26 
REMARK    3  A    between atoms: C_4  and  C_6 
REMARK       I    between atoms: C_6  and  N_8 
REMARK    4  A    between atoms: N_8  and  C_9 
REMARK    5  A    between atoms: C_9  and  C_23 
REMARK    6  A    between atoms: C_10  and  C_11 
REMARK    7  A    between atoms: C_11  and  C_12 
REMARK    8  A    between atoms: C_12  and  C_13 
REMARK    9  A    between atoms: C_13  and  C_14 
REMARK   10  A    between atoms: C_14  and  S_15 
REMARK   11  A    between atoms: S_15  and  C_16 
REMARK   12  A    between atoms: C_16  and  C_17 
REMARK   13  A    between atoms: C_17  and  C_19 
REMARK   14  A    between atoms: C_17  and  N_22 
ROOT
ATOM      1  C   UNK d   1       6.587   0.608  -5.001  0.00  0.00    -0.033 C 
ATOM      2  H   UNK d   1       7.122   0.043  -5.763  0.00  0.00     0.031 H 
ATOM      3  H   UNK d   1       5.973   1.372  -5.479  0.00  0.00     0.031 H 
ENDROOT
BRANCH   1   4
ATOM      4  C   UNK d   1       5.704  -0.323  -4.211  0.00  0.00    -0.061 C 
ATOM      5  C   UNK d   1       4.407  -0.434  -4.515  0.00  0.00     0.052 C 
ATOM      6  H   UNK d   1       6.119  -0.902  -3.399  0.00  0.00     0.059 H 
BRANCH   5   7
ATOM      7  N   UNK d   1       3.890   0.233  -5.634  0.00  0.00    -0.284 N 
ATOM      8  C   UNK d   0       3.724  -0.430  -6.797  0.00  0.00     0.221 C 
ATOM      9  O   UNK d   0       4.106  -1.577  -6.900  0.00  0.00    -0.275 OA
ATOM     10  H   UNK d   1       3.650   1.170  -5.573  0.00  0.00     0.155 HD
BRANCH   8  11
ATOM     11  C   UNK d   0       3.063   0.253  -7.967  0.00  0.00     0.042 A 
ATOM     12  C   UNK d   0       3.963   1.023  -8.934  0.00  0.00    -0.023 A 
ATOM     13  C   UNK d   0       3.046   1.782  -7.973  0.00  0.00    -0.035 A 
ATOM     14  H   UNK d   0       3.513   2.295  -7.132  0.00  0.00     0.028 H 
ATOM     15  H   UNK d   0       2.170   2.274  -8.395  0.00  0.00     0.028 H 
ATOM     16  H   UNK d   0       2.198  -0.262  -8.384  0.00  0.00     0.040 H 
BRANCH  12  17
ATOM     17  C   UNK d   0       5.464   1.042  -8.642  0.00  0.00    -0.059 C 
ATOM     18  H   UNK d   0       5.682   0.366  -7.815  0.00  0.00     0.024 H 
ATOM     19  H   UNK d   0       6.011   0.721  -9.528  0.00  0.00     0.024 H 
ATOM     20  H   UNK d   0       5.769   2.053  -8.373  0.00  0.00     0.024 H 
ENDBRANCH  12  17
BRANCH  12  21
ATOM     21  C   UNK d   0       3.580   1.012 -10.416  0.00  0.00    -0.059 C 
ATOM     22  H   UNK d   0       3.048   0.089 -10.647  0.00  0.00     0.024 H 
ATOM     23  H   UNK d   0       2.936   1.866 -10.631  0.00  0.00     0.024 H 
ATOM     24  H   UNK d   0       4.481   1.074 -11.025  0.00  0.00     0.024 H 
ENDBRANCH  12  21
ENDBRANCH   8  11
ENDBRANCH   5   7
BRANCH   5  25
ATOM     25  C   UNK d   1       3.521  -1.256  -3.675  0.00  0.00     0.085 C 
ATOM     26  O   UNK d   1       2.538  -0.753  -3.148  0.00  0.00    -0.543 OA
ATOM     27  O   UNK d   1       3.767  -2.442  -3.503  0.00  0.00    -0.543 OA
ENDBRANCH   5  25
ENDBRANCH   1   4
BRANCH   1  28
ATOM     28  C   UNK d   1       7.592   1.277  -4.061  0.00  0.00    -0.049 C 
ATOM     29  H   UNK d   1       7.124   2.134  -3.577  0.00  0.00     0.027 H 
ATOM     30  H   UNK d   1       7.912   0.562  -3.303  0.00  0.00     0.027 H 
BRANCH  28  31
ATOM     31  C   UNK d   1       8.807   1.747  -4.863  0.00  0.00    -0.044 C 
ATOM     32  H   UNK d   1       9.686   1.181  -4.555  0.00  0.00     0.027 H 
ATOM     33  H   UNK d   1       8.625   1.585  -5.926  0.00  0.00     0.027 H 
BRANCH  31  34
ATOM     34  C   UNK d   1       9.043   3.235  -4.608  0.00  0.00    -0.006 C 
ATOM     35  H   UNK d   1       9.576   3.670  -5.453  0.00  0.00     0.038 H 
ATOM     36  H   UNK d   1       8.085   3.740  -4.484  0.00  0.00     0.038 H 
BRANCH  34  37
ATOM     37  S   UNK d   1      10.033   3.441  -3.101  0.00  0.00    -0.155 SA
BRANCH  37  38
ATOM     38  C   UNK d   1       9.888   5.208  -2.717  0.00  0.00     0.042 C 
ATOM     39  H   UNK d   1      10.085   5.792  -3.617  0.00  0.00     0.044 H 
ATOM     40  H   UNK d   1       8.881   5.420  -2.360  0.00  0.00     0.044 H 
BRANCH  38  41
ATOM     41  C   UNK d   1      10.903   5.580  -1.635  0.00  0.00     0.025 C 
ATOM     42  H   UNK d   1      11.726   6.136  -2.083  0.00  0.00     0.092 H 
BRANCH  41  43
ATOM     43  C   UNK d   1      10.232   6.432  -0.589  0.00  0.00     0.090 C 
ATOM     44  O   UNK d   1      10.522   6.295   0.588  0.00  0.00    -0.544 OA
ATOM     45  O   UNK d   1       9.398   7.258  -0.918  0.00  0.00    -0.544 OA
ENDBRANCH  41  43
BRANCH  41  46
ATOM     46  N   UNK d   1      11.423   4.356  -1.011  0.00  0.00     0.226 N 
ATOM     47  H   UNK d   1      12.324   4.545  -0.597  0.00  0.00     0.200 HD
ATOM     48  H   UNK d   1      10.783   4.045  -0.295  0.00  0.00     0.200 HD
ATOM     49  H   UNK d   1      11.520   3.636  -1.711  0.00  0.00     0.200 HD
ENDBRANCH  41  46
ENDBRANCH  38  41
ENDBRANCH  37  38
ENDBRANCH  34  37
ENDBRANCH  31  34
ENDBRANCH  28  31
ENDBRANCH   1  28
TORSDOF 14
ENDMDL
