MODEL 1
REMARK VINA RESULT:      -6.2      0.000      0.000
REMARK  1 active torsions:
REMARK  status: ('A' for Active; 'I' for Inactive)
REMARK    1  A    between atoms: C_8  and  C_14 
ROOT
ATOM      1  C   LIG d   1      10.380  -3.292  -3.931  0.00  0.00     0.036 C 
ATOM      2  C   LIG d   1       8.859  -3.229  -3.785  0.00  0.00    -0.021 C 
ATOM      3  N   LIG d   1       8.358  -1.996  -4.408  0.00  0.00     0.229 N 
ATOM      4  C   LIG d   1       7.262  -1.448  -3.597  0.00  0.00    -0.021 C 
ATOM      5  C   LIG d   1       6.857  -0.079  -4.146  0.00  0.00     0.036 C 
ATOM      6  N   LIG d   1       7.591   0.973  -3.430  0.00  0.00    -0.311 N 
ATOM      7  C   LIG d   1       8.438   1.744  -4.351  0.00  0.00     0.004 C 
ATOM      8  C   LIG d   1       9.776   2.051  -3.676  0.00  0.00     0.020 C 
ATOM      9  C   LIG d   1      10.921   1.706  -4.631  0.00  0.00    -0.029 C 
ATOM     10  N   LIG d   1      11.918   0.891  -3.925  0.00  0.00     0.228 N 
ATOM     11  C   LIG d   1      12.353  -0.210  -4.794  0.00  0.00    -0.021 C 
ATOM     12  C   LIG d   1      12.049  -1.547  -4.113  0.00  0.00     0.036 C 
ATOM     13  N   LIG d   1      10.845  -2.139  -4.713  0.00  0.00    -0.306 N 
ATOM     14  H   LIG d   1      10.841  -3.271  -2.943  0.00  0.00     0.048 H 
ATOM     15  H   LIG d   1      10.658  -4.214  -4.442  0.00  0.00     0.048 H 
ATOM     16  H   LIG d   1       8.410  -4.092  -4.276  0.00  0.00     0.083 H 
ATOM     17  H   LIG d   1       8.594  -3.235  -2.727  0.00  0.00     0.083 H 
ATOM     18  H   LIG d   1       9.105  -1.320  -4.465  0.00  0.00     0.201 HD
ATOM     19  H   LIG d   1       6.408  -2.123  -3.637  0.00  0.00     0.083 H 
ATOM     20  H   LIG d   1       7.593  -1.341  -2.564  0.00  0.00     0.083 H 
ATOM     21  H   LIG d   1       7.094  -0.029  -5.209  0.00  0.00     0.048 H 
ATOM     22  H   LIG d   1       5.786   0.066  -4.006  0.00  0.00     0.048 H 
ATOM     23  H   LIG d   1       8.613   1.162  -5.256  0.00  0.00     0.043 H 
ATOM     24  H   LIG d   1       7.938   2.677  -4.609  0.00  0.00     0.043 H 
ATOM     25  H   LIG d   1       9.869   1.457  -2.767  0.00  0.00     0.037 H 
ATOM     26  H   LIG d   1      10.528   1.146  -5.480  0.00  0.00     0.082 H 
ATOM     27  H   LIG d   1      11.387   2.626  -4.986  0.00  0.00     0.082 H 
ATOM     28  H   LIG d   1      12.713   1.465  -3.687  0.00  0.00     0.201 HD
ATOM     29  H   LIG d   1      11.820  -0.157  -5.744  0.00  0.00     0.083 H 
ATOM     30  H   LIG d   1      13.425  -0.131  -4.973  0.00  0.00     0.083 H 
ATOM     31  H   LIG d   1      12.893  -2.224  -4.247  0.00  0.00     0.048 H 
ATOM     32  H   LIG d   1      11.881  -1.382  -3.048  0.00  0.00     0.048 H 
ATOM     33  H   LIG d   1      11.010  -2.397  -5.675  0.00  0.00     0.122 HD
ATOM     34  H   LIG d   1       6.958   1.578  -2.929  0.00  0.00     0.122 HD
ATOM     35  H   LIG d   1      11.511   0.515  -3.083  0.00  0.00     0.201 HD
ATOM     36  H   LIG d   1       8.019  -2.202  -5.335  0.00  0.00     0.201 HD
ENDROOT
BRANCH   8  37
ATOM     37  C   LIG d   1       9.839   3.541  -3.321  0.00  0.00     0.020 C 
ATOM     38  C   LIG d   1      11.191   3.844  -2.673  0.00  0.00    -0.029 C 
ATOM     39  N   LIG d   1      10.998   4.115  -1.242  0.00  0.00     0.228 N 
ATOM     40  H   LIG d   1      11.848   2.979  -2.787  0.00  0.00     0.082 H 
ATOM     41  H   LIG d   1      11.645   4.709  -3.154  0.00  0.00     0.082 H 
ATOM     42  C   LIG d   1      11.992   5.090  -0.778  0.00  0.00    -0.021 C 
ATOM     43  H   LIG d   1      11.109   3.253  -0.726  0.00  0.00     0.201 HD
ATOM     44  H   LIG d   1      10.069   4.475  -1.086  0.00  0.00     0.201 HD
ATOM     45  C   LIG d   1      11.284   6.351  -0.283  0.00  0.00     0.036 C 
ATOM     46  H   LIG d   1      12.665   5.337  -1.598  0.00  0.00     0.083 H 
ATOM     47  H   LIG d   1      12.571   4.651   0.038  0.00  0.00     0.083 H 
ATOM     48  N   LIG d   1      11.871   7.533  -0.983  0.00  0.00    -0.306 N 
ATOM     49  H   LIG d   1      11.452   6.471   0.785  0.00  0.00     0.048 H 
ATOM     50  H   LIG d   1      10.225   6.299  -0.502  0.00  0.00     0.048 H 
ATOM     51  C   LIG d   1      10.725   8.372  -1.448  0.00  0.00     0.036 C 
ATOM     52  H   LIG d   1      12.212   7.101  -1.895  0.00  0.00     0.122 HD
ATOM     53  C   LIG d   1      10.895   8.651  -2.941  0.00  0.00    -0.021 C 
ATOM     54  H   LIG d   1      10.744   9.305  -0.890  0.00  0.00     0.048 H 
ATOM     55  H   LIG d   1       9.800   7.839  -1.265  0.00  0.00     0.048 H 
ATOM     56  N   LIG d   1       9.589   8.566  -3.609  0.00  0.00     0.229 N 
ATOM     57  H   LIG d   1      11.570   7.919  -3.382  0.00  0.00     0.083 H 
ATOM     58  H   LIG d   1      11.308   9.652  -3.077  0.00  0.00     0.083 H 
ATOM     59  C   LIG d   1       9.771   8.096  -4.990  0.00  0.00    -0.021 C 
ATOM     60  H   LIG d   1       9.153   9.476  -3.621  0.00  0.00     0.201 HD
ATOM     61  H   LIG d   1       8.996   7.919  -3.113  0.00  0.00     0.201 HD
ATOM     62  C   LIG d   1       9.249   6.665  -5.118  0.00  0.00     0.036 C 
ATOM     63  H   LIG d   1      10.830   8.121  -5.250  0.00  0.00     0.083 H 
ATOM     64  H   LIG d   1       9.219   8.745  -5.671  0.00  0.00     0.083 H 
ATOM     65  N   LIG d   1      10.124   5.766  -4.307  0.00  0.00    -0.311 N 
ATOM     66  H   LIG d   1       9.296   6.341  -6.153  0.00  0.00     0.048 H 
ATOM     67  H   LIG d   1       8.235   6.598  -4.738  0.00  0.00     0.048 H 
ATOM     68  C   LIG d   1       9.666   4.372  -4.589  0.00  0.00     0.004 C 
ATOM     69  H   LIG d   1       9.747   5.922  -3.323  0.00  0.00     0.122 HD
ATOM     70  H   LIG d   1      10.274   3.968  -5.393  0.00  0.00     0.043 H 
ATOM     71  H   LIG d   1       8.621   4.406  -4.877  0.00  0.00     0.043 H 
ATOM     72  H   LIG d   1       9.035   3.772  -2.620  0.00  0.00     0.037 H 
ENDBRANCH   8  37
TORSDOF 1
ENDMDL
MODEL 2
REMARK VINA RESULT:      -6.2      1.426      2.976
REMARK  1 active torsions:
REMARK  status: ('A' for Active; 'I' for Inactive)
REMARK    1  A    between atoms: C_8  and  C_14 
ROOT
ATOM      1  C   LIG d   1       9.553  -1.966  -5.889  0.00  0.00     0.036 C 
ATOM      2  C   LIG d   1      11.059  -1.863  -5.643  0.00  0.00    -0.021 C 
ATOM      3  N   LIG d   1      11.310  -0.966  -4.508  0.00  0.00     0.229 N 
ATOM      4  C   LIG d   1      12.507  -0.158  -4.777  0.00  0.00    -0.021 C 
ATOM      5  C   LIG d   1      12.670   0.895  -3.679  0.00  0.00     0.036 C 
ATOM      6  N   LIG d   1      12.026   2.146  -4.100  0.00  0.00    -0.311 N 
ATOM      7  C   LIG d   1      10.939   2.513  -3.183  0.00  0.00     0.004 C 
ATOM      8  C   LIG d   1       9.759   3.066  -3.985  0.00  0.00     0.020 C 
ATOM      9  C   LIG d   1       8.467   2.391  -3.521  0.00  0.00    -0.029 C 
ATOM     10  N   LIG d   1       7.716   1.915  -4.691  0.00  0.00     0.228 N 
ATOM     11  C   LIG d   1       7.195   0.568  -4.422  0.00  0.00    -0.021 C 
ATOM     12  C   LIG d   1       7.748  -0.410  -5.462  0.00  0.00     0.036 C 
ATOM     13  N   LIG d   1       8.836  -1.195  -4.864  0.00  0.00    -0.306 N 
ATOM     14  H   LIG d   1       9.317  -1.566  -6.875  0.00  0.00     0.048 H 
ATOM     15  H   LIG d   1       9.247  -3.011  -5.838  0.00  0.00     0.048 H 
ATOM     16  H   LIG d   1      11.459  -2.853  -5.419  0.00  0.00     0.083 H 
ATOM     17  H   LIG d   1      11.547  -1.467  -6.534  0.00  0.00     0.083 H 
ATOM     18  H   LIG d   1      10.516  -0.357  -4.378  0.00  0.00     0.201 HD
ATOM     19  H   LIG d   1      13.385  -0.804  -4.795  0.00  0.00     0.083 H 
ATOM     20  H   LIG d   1      12.402   0.337  -5.742  0.00  0.00     0.083 H 
ATOM     21  H   LIG d   1      12.204   0.537  -2.761  0.00  0.00     0.048 H 
ATOM     22  H   LIG d   1      13.731   1.074  -3.502  0.00  0.00     0.048 H 
ATOM     23  H   LIG d   1      10.620   1.632  -2.627  0.00  0.00     0.043 H 
ATOM     24  H   LIG d   1      11.293   3.274  -2.486  0.00  0.00     0.043 H 
ATOM     25  H   LIG d   1       9.915   2.864  -5.044  0.00  0.00     0.037 H 
ATOM     26  H   LIG d   1       8.709   1.546  -2.876  0.00  0.00     0.082 H 
ATOM     27  H   LIG d   1       7.860   3.109  -2.968  0.00  0.00     0.082 H 
ATOM     28  H   LIG d   1       6.948   2.542  -4.876  0.00  0.00     0.201 HD
ATOM     29  H   LIG d   1       7.502   0.251  -3.426  0.00  0.00     0.083 H 
ATOM     30  H   LIG d   1       6.106   0.582  -4.481  0.00  0.00     0.083 H 
ATOM     31  H   LIG d   1       6.953  -1.080  -5.790  0.00  0.00     0.048 H 
ATOM     32  H   LIG d   1       8.129   0.148  -6.318  0.00  0.00     0.048 H 
ATOM     33  H   LIG d   1       8.487  -1.799  -4.135  0.00  0.00     0.122 HD
ATOM     34  H   LIG d   1      12.701   2.892  -4.178  0.00  0.00     0.122 HD
ATOM     35  H   LIG d   1       8.327   1.886  -5.493  0.00  0.00     0.201 HD
ATOM     36  H   LIG d   1      11.454  -1.512  -3.672  0.00  0.00     0.201 HD
ENDROOT
BRANCH   8  37
ATOM     37  C   LIG d   1       9.654   4.578  -3.763  0.00  0.00     0.020 C 
ATOM     38  C   LIG d   1      10.766   5.022  -2.811  0.00  0.00    -0.029 C 
ATOM     39  N   LIG d   1      10.180   5.386  -1.513  0.00  0.00     0.228 N 
ATOM     40  H   LIG d   1      11.468   4.199  -2.667  0.00  0.00     0.082 H 
ATOM     41  H   LIG d   1      11.292   5.878  -3.231  0.00  0.00     0.082 H 
ATOM     42  C   LIG d   1      10.966   6.460  -0.893  0.00  0.00    -0.021 C 
ATOM     43  H   LIG d   1      10.188   4.575  -0.910  0.00  0.00     0.201 HD
ATOM     44  H   LIG d   1       9.229   5.692  -1.642  0.00  0.00     0.201 HD
ATOM     45  C   LIG d   1      10.093   7.703  -0.721  0.00  0.00     0.036 C 
ATOM     46  H   LIG d   1      11.823   6.691  -1.524  0.00  0.00     0.083 H 
ATOM     47  H   LIG d   1      11.323   6.125   0.084  0.00  0.00     0.083 H 
ATOM     48  N   LIG d   1      10.792   8.867  -1.345  0.00  0.00    -0.306 N 
ATOM     49  H   LIG d   1       9.960   7.914   0.338  0.00  0.00     0.048 H 
ATOM     50  H   LIG d   1       9.137   7.561  -1.207  0.00  0.00     0.048 H 
ATOM     51  C   LIG d   1       9.777   9.587  -2.171  0.00  0.00     0.036 C 
ATOM     52  H   LIG d   1      11.387   8.392  -2.090  0.00  0.00     0.122 HD
ATOM     53  C   LIG d   1      10.330   9.764  -3.584  0.00  0.00    -0.021 C 
ATOM     54  H   LIG d   1       9.601  10.558  -1.715  0.00  0.00     0.048 H 
ATOM     55  H   LIG d   1       8.862   9.006  -2.193  0.00  0.00     0.048 H 
ATOM     56  N   LIG d   1       9.259   9.539  -4.565  0.00  0.00     0.229 N 
ATOM     57  H   LIG d   1      11.133   9.048  -3.762  0.00  0.00     0.083 H 
ATOM     58  H   LIG d   1      10.717  10.778  -3.696  0.00  0.00     0.083 H 
ATOM     59  C   LIG d   1       9.829   8.979  -5.799  0.00  0.00    -0.021 C 
ATOM     60  H   LIG d   1       8.801  10.413  -4.775  0.00  0.00     0.201 HD
ATOM     61  H   LIG d   1       8.585   8.891  -4.187  0.00  0.00     0.201 HD
ATOM     62  C   LIG d   1       9.428   7.510  -5.930  0.00  0.00     0.036 C 
ATOM     63  H   LIG d   1      10.916   9.057  -5.770  0.00  0.00     0.083 H 
ATOM     64  H   LIG d   1       9.453   9.535  -6.658  0.00  0.00     0.083 H 
ATOM     65  N   LIG d   1      10.093   6.737  -4.838  0.00  0.00    -0.311 N 
ATOM     66  H   LIG d   1       9.768   7.113  -6.882  0.00  0.00     0.048 H 
ATOM     67  H   LIG d   1       8.354   7.402  -5.828  0.00  0.00     0.048 H 
ATOM     68  C   LIG d   1       9.793   5.297  -5.103  0.00  0.00     0.004 C 
ATOM     69  H   LIG d   1       9.456   6.940  -4.007  0.00  0.00     0.122 HD
ATOM     70  H   LIG d   1      10.614   4.878  -5.676  0.00  0.00     0.043 H 
ATOM     71  H   LIG d   1       8.864   5.237  -5.660  0.00  0.00     0.043 H 
ATOM     72  H   LIG d   1       8.682   4.806  -3.325  0.00  0.00     0.037 H 
ENDBRANCH   8  37
TORSDOF 1
ENDMDL
MODEL 3
REMARK VINA RESULT:      -6.1      2.619      8.800
REMARK  1 active torsions:
REMARK  status: ('A' for Active; 'I' for Inactive)
REMARK    1  A    between atoms: C_8  and  C_14 
ROOT
ATOM      1  C   LIG d   1       9.141  11.972  -2.607  0.00  0.00     0.036 C 
ATOM      2  C   LIG d   1       9.260  11.989  -4.132  0.00  0.00    -0.021 C 
ATOM      3  N   LIG d   1       8.864  10.681  -4.669  0.00  0.00     0.229 N 
ATOM      4  C   LIG d   1       9.736  10.331  -5.799  0.00  0.00    -0.021 C 
ATOM      5  C   LIG d   1       9.440   8.899  -6.247  0.00  0.00     0.036 C 
ATOM      6  N   LIG d   1      10.357   7.974  -5.567  0.00  0.00    -0.311 N 
ATOM      7  C   LIG d   1       9.616   7.016  -4.735  0.00  0.00     0.004 C 
ATOM      8  C   LIG d   1      10.368   6.794  -3.421  0.00  0.00     0.020 C 
ATOM      9  C   LIG d   1       9.393   6.915  -2.248  0.00  0.00    -0.029 C 
ATOM     10  N   LIG d   1       9.960   7.812  -1.232  0.00  0.00     0.228 N 
ATOM     11  C   LIG d   1       8.913   8.717  -0.740  0.00  0.00    -0.021 C 
ATOM     12  C   LIG d   1       9.326  10.167  -1.004  0.00  0.00     0.036 C 
ATOM     13  N   LIG d   1       8.598  10.678  -2.173  0.00  0.00    -0.306 N 
ATOM     14  H   LIG d   1      10.127  12.119  -2.165  0.00  0.00     0.048 H 
ATOM     15  H   LIG d   1       8.475  12.772  -2.285  0.00  0.00     0.048 H 
ATOM     16  H   LIG d   1       8.606  12.762  -4.539  0.00  0.00     0.083 H 
ATOM     17  H   LIG d   1      10.291  12.201  -4.414  0.00  0.00     0.083 H 
ATOM     18  H   LIG d   1       8.952   9.981  -3.948  0.00  0.00     0.201 HD
ATOM     19  H   LIG d   1       9.551  11.016  -6.626  0.00  0.00     0.083 H 
ATOM     20  H   LIG d   1      10.779  10.408  -5.491  0.00  0.00     0.083 H 
ATOM     21  H   LIG d   1       8.412   8.643  -5.994  0.00  0.00     0.048 H 
ATOM     22  H   LIG d   1       9.579   8.820  -7.326  0.00  0.00     0.048 H 
ATOM     23  H   LIG d   1       8.623   7.413  -4.522  0.00  0.00     0.043 H 
ATOM     24  H   LIG d   1       9.523   6.069  -5.266  0.00  0.00     0.043 H 
ATOM     25  H   LIG d   1      11.153   7.543  -3.321  0.00  0.00     0.037 H 
ATOM     26  H   LIG d   1       8.446   7.320  -2.603  0.00  0.00     0.082 H 
ATOM     27  H   LIG d   1       9.227   5.929  -1.811  0.00  0.00     0.082 H 
ATOM     28  H   LIG d   1      10.320   7.265  -0.464  0.00  0.00     0.201 HD
ATOM     29  H   LIG d   1       7.977   8.506  -1.258  0.00  0.00     0.083 H 
ATOM     30  H   LIG d   1       8.777   8.568   0.331  0.00  0.00     0.083 H 
ATOM     31  H   LIG d   1       9.089  10.777  -0.133  0.00  0.00     0.048 H 
ATOM     32  H   LIG d   1      10.399  10.209  -1.197  0.00  0.00     0.048 H 
ATOM     33  H   LIG d   1       7.609  10.747  -1.982  0.00  0.00     0.122 HD
ATOM     34  H   LIG d   1      10.946   7.495  -6.231  0.00  0.00     0.122 HD
ATOM     35  H   LIG d   1      10.708   8.352  -1.639  0.00  0.00     0.201 HD
ATOM     36  H   LIG d   1       7.907  10.721  -4.984  0.00  0.00     0.201 HD
ENDROOT
BRANCH   8  37
ATOM     37  C   LIG d   1      10.995   5.395  -3.423  0.00  0.00     0.020 C 
ATOM     38  C   LIG d   1      10.618   4.680  -4.721  0.00  0.00    -0.029 C 
ATOM     39  N   LIG d   1       9.659   3.606  -4.426  0.00  0.00     0.228 N 
ATOM     40  H   LIG d   1      10.155   5.394  -5.405  0.00  0.00     0.082 H 
ATOM     41  H   LIG d   1      11.510   4.260  -5.184  0.00  0.00     0.082 H 
ATOM     42  C   LIG d   1       9.851   2.492  -5.363  0.00  0.00    -0.021 C 
ATOM     43  H   LIG d   1       8.720   3.968  -4.524  0.00  0.00     0.201 HD
ATOM     44  H   LIG d   1       9.790   3.282  -3.481  0.00  0.00     0.201 HD
ATOM     45  C   LIG d   1      10.256   1.236  -4.592  0.00  0.00     0.036 C 
ATOM     46  H   LIG d   1      10.625   2.754  -6.082  0.00  0.00     0.083 H 
ATOM     47  H   LIG d   1       8.916   2.308  -5.897  0.00  0.00     0.083 H 
ATOM     48  N   LIG d   1      11.510   0.691  -5.195  0.00  0.00    -0.306 N 
ATOM     49  H   LIG d   1       9.478   0.481  -4.686  0.00  0.00     0.048 H 
ATOM     50  H   LIG d   1      10.437   1.474  -3.552  0.00  0.00     0.048 H 
ATOM     51  C   LIG d   1      12.433   0.380  -4.061  0.00  0.00     0.036 C 
ATOM     52  H   LIG d   1      11.955   1.567  -5.606  0.00  0.00     0.122 HD
ATOM     53  C   LIG d   1      13.777   1.056  -4.322  0.00  0.00    -0.021 C 
ATOM     54  H   LIG d   1      12.560  -0.700  -4.020  0.00  0.00     0.048 H 
ATOM     55  H   LIG d   1      11.997   0.746  -3.140  0.00  0.00     0.048 H 
ATOM     56  N   LIG d   1      14.303   1.609  -3.066  0.00  0.00     0.229 N 
ATOM     57  H   LIG d   1      13.653   1.864  -5.044  0.00  0.00     0.083 H 
ATOM     58  H   LIG d   1      14.481   0.322  -4.718  0.00  0.00     0.083 H 
ATOM     59  C   LIG d   1      15.100   2.811  -3.351  0.00  0.00    -0.021 C 
ATOM     60  H   LIG d   1      14.884   0.923  -2.609  0.00  0.00     0.201 HD
ATOM     61  H   LIG d   1      13.537   1.856  -2.458  0.00  0.00     0.201 HD
ATOM     62  C   LIG d   1      14.347   4.052  -2.875  0.00  0.00     0.036 C 
ATOM     63  H   LIG d   1      15.282   2.885  -4.424  0.00  0.00     0.083 H 
ATOM     64  H   LIG d   1      16.056   2.745  -2.830  0.00  0.00     0.083 H 
ATOM     65  N   LIG d   1      13.124   4.218  -3.717  0.00  0.00    -0.311 N 
ATOM     66  H   LIG d   1      14.966   4.935  -2.999  0.00  0.00     0.048 H 
ATOM     67  H   LIG d   1      14.044   3.935  -1.841  0.00  0.00     0.048 H 
ATOM     68  C   LIG d   1      12.512   5.520  -3.314  0.00  0.00     0.004 C 
ATOM     69  H   LIG d   1      12.455   3.518  -3.271  0.00  0.00     0.122 HD
ATOM     70  H   LIG d   1      12.879   6.292  -3.984  0.00  0.00     0.043 H 
ATOM     71  H   LIG d   1      12.800   5.731  -2.290  0.00  0.00     0.043 H 
ATOM     72  H   LIG d   1      10.612   4.834  -2.569  0.00  0.00     0.037 H 
ENDBRANCH   8  37
TORSDOF 1
ENDMDL
MODEL 4
REMARK VINA RESULT:      -6.0      7.940      9.373
REMARK  1 active torsions:
REMARK  status: ('A' for Active; 'I' for Inactive)
REMARK    1  A    between atoms: C_8  and  C_14 
ROOT
ATOM      1  C   LIG d   1       9.262  -9.201  -3.685  0.00  0.00     0.036 C 
ATOM      2  C   LIG d   1       8.032 -10.079  -3.927  0.00  0.00    -0.021 C 
ATOM      3  N   LIG d   1       7.226  -9.505  -5.012  0.00  0.00     0.229 N 
ATOM      4  C   LIG d   1       5.799  -9.666  -4.701  0.00  0.00    -0.021 C 
ATOM      5  C   LIG d   1       4.962  -8.919  -5.741  0.00  0.00     0.036 C 
ATOM      6  N   LIG d   1       4.669  -7.565  -5.252  0.00  0.00    -0.311 N 
ATOM      7  C   LIG d   1       5.236  -6.548  -6.147  0.00  0.00     0.004 C 
ATOM      8  C   LIG d   1       5.814  -5.401  -5.315  0.00  0.00     0.020 C 
ATOM      9  C   LIG d   1       7.222  -5.069  -5.814  0.00  0.00    -0.029 C 
ATOM     10  N   LIG d   1       8.143  -5.001  -4.671  0.00  0.00     0.228 N 
ATOM     11  C   LIG d   1       9.396  -5.686  -5.011  0.00  0.00    -0.021 C 
ATOM     12  C   LIG d   1       9.634  -6.833  -4.027  0.00  0.00     0.036 C 
ATOM     13  N   LIG d   1       9.283  -8.108  -4.666  0.00  0.00    -0.306 N 
ATOM     14  H   LIG d   1       9.219  -8.785  -2.679  0.00  0.00     0.048 H 
ATOM     15  H   LIG d   1      10.164  -9.803  -3.792  0.00  0.00     0.048 H 
ATOM     16  H   LIG d   1       8.352 -11.084  -4.203  0.00  0.00     0.083 H 
ATOM     17  H   LIG d   1       7.435 -10.126  -3.016  0.00  0.00     0.083 H 
ATOM     18  H   LIG d   1       7.441  -8.524  -5.108  0.00  0.00     0.201 HD
ATOM     19  H   LIG d   1       5.541 -10.725  -4.718  0.00  0.00     0.083 H 
ATOM     20  H   LIG d   1       5.596  -9.260  -3.710  0.00  0.00     0.083 H 
ATOM     21  H   LIG d   1       5.518  -8.855  -6.676  0.00  0.00     0.048 H 
ATOM     22  H   LIG d   1       4.028  -9.455  -5.909  0.00  0.00     0.048 H 
ATOM     23  H   LIG d   1       6.027  -6.995  -6.750  0.00  0.00     0.043 H 
ATOM     24  H   LIG d   1       4.453  -6.164  -6.802  0.00  0.00     0.043 H 
ATOM     25  H   LIG d   1       5.860  -5.700  -4.269  0.00  0.00     0.037 H 
ATOM     26  H   LIG d   1       7.556  -5.844  -6.504  0.00  0.00     0.082 H 
ATOM     27  H   LIG d   1       7.208  -4.106  -6.327  0.00  0.00     0.082 H 
ATOM     28  H   LIG d   1       8.335  -4.035  -4.452  0.00  0.00     0.201 HD
ATOM     29  H   LIG d   1       9.330  -6.084  -6.024  0.00  0.00     0.083 H 
ATOM     30  H   LIG d   1      10.224  -4.979  -4.952  0.00  0.00     0.083 H 
ATOM     31  H   LIG d   1      10.684  -6.850  -3.735  0.00  0.00     0.048 H 
ATOM     32  H   LIG d   1       9.014  -6.687  -3.142  0.00  0.00     0.048 H 
ATOM     33  H   LIG d   1       9.913  -8.317  -5.427  0.00  0.00     0.122 HD
ATOM     34  H   LIG d   1       3.676  -7.430  -5.135  0.00  0.00     0.122 HD
ATOM     35  H   LIG d   1       7.720  -5.449  -3.872  0.00  0.00     0.201 HD
ATOM     36  H   LIG d   1       7.437  -9.981  -5.876  0.00  0.00     0.201 HD
ENDROOT
BRANCH   8  37
ATOM     37  C   LIG d   1       4.918  -4.166  -5.455  0.00  0.00     0.020 C 
ATOM     38  C   LIG d   1       5.345  -3.119  -4.425  0.00  0.00    -0.029 C 
ATOM     39  N   LIG d   1       4.319  -3.017  -3.378  0.00  0.00     0.228 N 
ATOM     40  H   LIG d   1       6.290  -3.425  -3.970  0.00  0.00     0.082 H 
ATOM     41  H   LIG d   1       5.473  -2.153  -4.912  0.00  0.00     0.082 H 
ATOM     42  C   LIG d   1       4.260  -1.642  -2.867  0.00  0.00    -0.021 C 
ATOM     43  H   LIG d   1       4.557  -3.644  -2.622  0.00  0.00     0.201 HD
ATOM     44  H   LIG d   1       3.421  -3.279  -3.754  0.00  0.00     0.201 HD
ATOM     45  C   LIG d   1       2.880  -1.048  -3.145  0.00  0.00     0.036 C 
ATOM     46  H   LIG d   1       5.029  -1.043  -3.354  0.00  0.00     0.083 H 
ATOM     47  H   LIG d   1       4.445  -1.651  -1.791  0.00  0.00     0.083 H 
ATOM     48  N   LIG d   1       3.055   0.252  -3.860  0.00  0.00    -0.306 N 
ATOM     49  H   LIG d   1       2.369  -0.852  -2.205  0.00  0.00     0.048 H 
ATOM     50  H   LIG d   1       2.299  -1.718  -3.766  0.00  0.00     0.048 H 
ATOM     51  C   LIG d   1       2.096   0.246  -5.006  0.00  0.00     0.036 C 
ATOM     52  H   LIG d   1       3.988   0.108  -4.353  0.00  0.00     0.122 HD
ATOM     53  C   LIG d   1       2.861   0.572  -6.288  0.00  0.00    -0.021 C 
ATOM     54  H   LIG d   1       1.343   1.008  -4.818  0.00  0.00     0.048 H 
ATOM     55  H   LIG d   1       1.636  -0.732  -5.078  0.00  0.00     0.048 H 
ATOM     56  N   LIG d   1       2.366  -0.271  -7.385  0.00  0.00     0.229 N 
ATOM     57  H   LIG d   1       3.924   0.384  -6.145  0.00  0.00     0.083 H 
ATOM     58  H   LIG d   1       2.710   1.623  -6.542  0.00  0.00     0.083 H 
ATOM     59  C   LIG d   1       3.458  -0.541  -8.331  0.00  0.00    -0.021 C 
ATOM     60  H   LIG d   1       1.616   0.202  -7.867  0.00  0.00     0.201 HD
ATOM     61  H   LIG d   1       2.026  -1.145  -7.013  0.00  0.00     0.201 HD
ATOM     62  C   LIG d   1       3.892  -2.002  -8.213  0.00  0.00     0.036 C 
ATOM     63  H   LIG d   1       4.306   0.108  -8.109  0.00  0.00     0.083 H 
ATOM     64  H   LIG d   1       3.116  -0.347  -9.348  0.00  0.00     0.083 H 
ATOM     65  N   LIG d   1       4.513  -2.206  -6.870  0.00  0.00    -0.311 N 
ATOM     66  H   LIG d   1       4.635  -2.234  -8.969  0.00  0.00     0.048 H 
ATOM     67  H   LIG d   1       3.032  -2.658  -8.301  0.00  0.00     0.048 H 
ATOM     68  C   LIG d   1       5.053  -3.599  -6.866  0.00  0.00     0.004 C 
ATOM     69  H   LIG d   1       3.656  -2.305  -6.244  0.00  0.00     0.122 HD
ATOM     70  H   LIG d   1       6.097  -3.562  -7.162  0.00  0.00     0.043 H 
ATOM     71  H   LIG d   1       4.475  -4.193  -7.566  0.00  0.00     0.043 H 
ATOM     72  H   LIG d   1       3.882  -4.457  -5.276  0.00  0.00     0.037 H 
ENDBRANCH   8  37
TORSDOF 1
ENDMDL
MODEL 5
REMARK VINA RESULT:      -6.0      3.232      7.650
REMARK  1 active torsions:
REMARK  status: ('A' for Active; 'I' for Inactive)
REMARK    1  A    between atoms: C_8  and  C_14 
ROOT
ATOM      1  C   LIG d   1      14.355   4.044  -4.101  0.00  0.00     0.036 C 
ATOM      2  C   LIG d   1      14.601   2.569  -3.777  0.00  0.00    -0.021 C 
ATOM      3  N   LIG d   1      13.744   1.731  -4.625  0.00  0.00     0.229 N 
ATOM      4  C   LIG d   1      13.253   0.586  -3.847  0.00  0.00    -0.021 C 
ATOM      5  C   LIG d   1      12.225  -0.190  -4.673  0.00  0.00     0.036 C 
ATOM      6  N   LIG d   1      10.875   0.295  -4.357  0.00  0.00    -0.311 N 
ATOM      7  C   LIG d   1      10.225   0.857  -5.549  0.00  0.00     0.004 C 
ATOM      8  C   LIG d   1       9.443   2.112  -5.160  0.00  0.00     0.020 C 
ATOM      9  C   LIG d   1       9.774   3.243  -6.136  0.00  0.00    -0.029 C 
ATOM     10  N   LIG d   1      10.106   4.459  -5.381  0.00  0.00     0.228 N 
ATOM     11  C   LIG d   1      11.279   5.104  -5.985  0.00  0.00    -0.021 C 
ATOM     12  C   LIG d   1      12.401   5.196  -4.947  0.00  0.00     0.036 C 
ATOM     13  N   LIG d   1      13.397   4.148  -5.209  0.00  0.00    -0.306 N 
ATOM     14  H   LIG d   1      13.950   4.546  -3.222  0.00  0.00     0.048 H 
ATOM     15  H   LIG d   1      15.295   4.514  -4.388  0.00  0.00     0.048 H 
ATOM     16  H   LIG d   1      15.647   2.325  -3.964  0.00  0.00     0.083 H 
ATOM     17  H   LIG d   1      14.367   2.383  -2.729  0.00  0.00     0.083 H 
ATOM     18  H   LIG d   1      12.960   2.276  -4.953  0.00  0.00     0.201 HD
ATOM     19  H   LIG d   1      14.088  -0.068  -3.597  0.00  0.00     0.083 H 
ATOM     20  H   LIG d   1      12.786   0.944  -2.929  0.00  0.00     0.083 H 
ATOM     21  H   LIG d   1      12.426  -0.042  -5.734  0.00  0.00     0.048 H 
ATOM     22  H   LIG d   1      12.295  -1.251  -4.435  0.00  0.00     0.048 H 
ATOM     23  H   LIG d   1      10.984   1.116  -6.288  0.00  0.00     0.043 H 
ATOM     24  H   LIG d   1       9.543   0.119  -5.972  0.00  0.00     0.043 H 
ATOM     25  H   LIG d   1       9.717   2.412  -4.149  0.00  0.00     0.037 H 
ATOM     26  H   LIG d   1      10.626   2.954  -6.752  0.00  0.00     0.082 H 
ATOM     27  H   LIG d   1       8.911   3.436  -6.774  0.00  0.00     0.082 H 
ATOM     28  H   LIG d   1       9.323   5.094  -5.406  0.00  0.00     0.201 HD
ATOM     29  H   LIG d   1      11.620   4.516  -6.837  0.00  0.00     0.083 H 
ATOM     30  H   LIG d   1      11.011   6.107  -6.319  0.00  0.00     0.083 H 
ATOM     31  H   LIG d   1      12.877   6.174  -5.012  0.00  0.00     0.048 H 
ATOM     32  H   LIG d   1      11.984   5.060  -3.949  0.00  0.00     0.048 H 
ATOM     33  H   LIG d   1      13.872   4.311  -6.085  0.00  0.00     0.122 HD
ATOM     34  H   LIG d   1      10.314  -0.438  -3.951  0.00  0.00     0.122 HD
ATOM     35  H   LIG d   1      10.310   4.216  -4.424  0.00  0.00     0.201 HD
ATOM     36  H   LIG d   1      14.275   1.398  -5.415  0.00  0.00     0.201 HD
ENDROOT
BRANCH   8  37
ATOM     37  C   LIG d   1       7.940   1.815  -5.213  0.00  0.00     0.020 C 
ATOM     38  C   LIG d   1       7.704   0.595  -6.105  0.00  0.00    -0.029 C 
ATOM     39  N   LIG d   1       7.066   1.021  -7.358  0.00  0.00     0.228 N 
ATOM     40  H   LIG d   1       8.663   0.125  -6.335  0.00  0.00     0.082 H 
ATOM     41  H   LIG d   1       7.064  -0.121  -5.590  0.00  0.00     0.082 H 
ATOM     42  C   LIG d   1       6.174  -0.036  -7.851  0.00  0.00    -0.021 C 
ATOM     43  H   LIG d   1       7.782   1.204  -8.047  0.00  0.00     0.201 HD
ATOM     44  H   LIG d   1       6.537   1.866  -7.200  0.00  0.00     0.201 HD
ATOM     45  C   LIG d   1       4.736   0.479  -7.889  0.00  0.00     0.036 C 
ATOM     46  H   LIG d   1       6.243  -0.902  -7.194  0.00  0.00     0.083 H 
ATOM     47  H   LIG d   1       6.486  -0.327  -8.857  0.00  0.00     0.083 H 
ATOM     48  N   LIG d   1       3.867  -0.475  -7.137  0.00  0.00    -0.306 N 
ATOM     49  H   LIG d   1       4.387   0.517  -8.919  0.00  0.00     0.048 H 
ATOM     50  H   LIG d   1       4.673   1.456  -7.427  0.00  0.00     0.048 H 
ATOM     51  C   LIG d   1       2.999   0.346  -6.241  0.00  0.00     0.036 C 
ATOM     52  H   LIG d   1       4.557  -0.901  -6.445  0.00  0.00     0.122 HD
ATOM     53  C   LIG d   1       3.122  -0.186  -4.814  0.00  0.00    -0.021 C 
ATOM     54  H   LIG d   1       1.972   0.249  -6.588  0.00  0.00     0.048 H 
ATOM     55  H   LIG d   1       3.319   1.380  -6.289  0.00  0.00     0.048 H 
ATOM     56  N   LIG d   1       3.162   0.940  -3.870  0.00  0.00     0.229 N 
ATOM     57  H   LIG d   1       4.036  -0.769  -4.713  0.00  0.00     0.083 H 
ATOM     58  H   LIG d   1       2.262  -0.818  -4.589  0.00  0.00     0.083 H 
ATOM     59  C   LIG d   1       3.978   0.576  -2.703  0.00  0.00    -0.021 C 
ATOM     60  H   LIG d   1       2.225   1.163  -3.568  0.00  0.00     0.201 HD
ATOM     61  H   LIG d   1       3.568   1.745  -4.321  0.00  0.00     0.201 HD
ATOM     62  C   LIG d   1       5.296   1.348  -2.737  0.00  0.00     0.036 C 
ATOM     63  H   LIG d   1       4.183  -0.495  -2.717  0.00  0.00     0.083 H 
ATOM     64  H   LIG d   1       3.436   0.825  -1.789  0.00  0.00     0.083 H 
ATOM     65  N   LIG d   1       6.097   0.869  -3.905  0.00  0.00    -0.311 N 
ATOM     66  H   LIG d   1       5.866   1.154  -1.833  0.00  0.00     0.048 H 
ATOM     67  H   LIG d   1       5.109   2.409  -2.856  0.00  0.00     0.048 H 
ATOM     68  C   LIG d   1       7.428   1.540  -3.802  0.00  0.00     0.004 C 
ATOM     69  H   LIG d   1       5.648   1.403  -4.711  0.00  0.00     0.122 HD
ATOM     70  H   LIG d   1       8.105   0.876  -3.274  0.00  0.00     0.043 H 
ATOM     71  H   LIG d   1       7.302   2.471  -3.260  0.00  0.00     0.043 H 
ATOM     72  H   LIG d   1       7.422   2.680  -5.629  0.00  0.00     0.037 H 
ENDBRANCH   8  37
TORSDOF 1
ENDMDL
MODEL 6
REMARK VINA RESULT:      -5.9      2.374      4.996
REMARK  1 active torsions:
REMARK  status: ('A' for Active; 'I' for Inactive)
REMARK    1  A    between atoms: C_8  and  C_14 
ROOT
ATOM      1  C   LIG d   1      11.415  -0.098  -5.285  0.00  0.00     0.036 C 
ATOM      2  C   LIG d   1      12.903   0.228  -5.149  0.00  0.00    -0.021 C 
ATOM      3  N   LIG d   1      13.093   1.219  -4.081  0.00  0.00     0.229 N 
ATOM      4  C   LIG d   1      14.144   2.167  -4.474  0.00  0.00    -0.021 C 
ATOM      5  C   LIG d   1      14.222   3.297  -3.445  0.00  0.00     0.036 C 
ATOM      6  N   LIG d   1      13.381   4.419  -3.885  0.00  0.00    -0.311 N 
ATOM      7  C   LIG d   1      12.311   4.686  -2.914  0.00  0.00     0.004 C 
ATOM      8  C   LIG d   1      11.018   5.020  -3.661  0.00  0.00     0.020 C 
ATOM      9  C   LIG d   1       9.865   4.202  -3.075  0.00  0.00    -0.029 C 
ATOM     10  N   LIG d   1       9.120   3.556  -4.164  0.00  0.00     0.228 N 
ATOM     11  C   LIG d   1       8.813   2.169  -3.791  0.00  0.00    -0.021 C 
ATOM     12  C   LIG d   1       9.436   1.216  -4.814  0.00  0.00     0.036 C 
ATOM     13  N   LIG d   1      10.659   0.627  -4.254  0.00  0.00    -0.306 N 
ATOM     14  H   LIG d   1      11.065   0.205  -6.271  0.00  0.00     0.048 H 
ATOM     15  H   LIG d   1      11.264  -1.170  -5.159  0.00  0.00     0.048 H 
ATOM     16  H   LIG d   1      13.453  -0.681  -4.903  0.00  0.00     0.083 H 
ATOM     17  H   LIG d   1      13.274   0.633  -6.091  0.00  0.00     0.083 H 
ATOM     18  H   LIG d   1      12.229   1.718  -3.929  0.00  0.00     0.201 HD
ATOM     19  H   LIG d   1      15.102   1.650  -4.519  0.00  0.00     0.083 H 
ATOM     20  H   LIG d   1      13.910   2.583  -5.454  0.00  0.00     0.083 H 
ATOM     21  H   LIG d   1      13.869   2.935  -2.480  0.00  0.00     0.048 H 
ATOM     22  H   LIG d   1      15.255   3.632  -3.352  0.00  0.00     0.048 H 
ATOM     23  H   LIG d   1      12.156   3.804  -2.293  0.00  0.00     0.043 H 
ATOM     24  H   LIG d   1      12.596   5.529  -2.284  0.00  0.00     0.043 H 
ATOM     25  H   LIG d   1      11.135   4.778  -4.716  0.00  0.00     0.037 H 
ATOM     26  H   LIG d   1      10.265   3.439  -2.405  0.00  0.00     0.082 H 
ATOM     27  H   LIG d   1       9.198   4.861  -2.519  0.00  0.00     0.082 H 
ATOM     28  H   LIG d   1       8.261   4.058  -4.327  0.00  0.00     0.201 HD
ATOM     29  H   LIG d   1       9.223   1.958  -2.803  0.00  0.00     0.083 H 
ATOM     30  H   LIG d   1       7.733   2.027  -3.774  0.00  0.00     0.083 H 
ATOM     31  H   LIG d   1       8.726   0.423  -5.051  0.00  0.00     0.048 H 
ATOM     32  H   LIG d   1       9.680   1.768  -5.722  0.00  0.00     0.048 H 
ATOM     33  H   LIG d   1      10.446   0.025  -3.472  0.00  0.00     0.122 HD
ATOM     34  H   LIG d   1      13.937   5.245  -4.047  0.00  0.00     0.122 HD
ATOM     35  H   LIG d   1       9.679   3.563  -5.004  0.00  0.00     0.201 HD
ATOM     36  H   LIG d   1      13.364   0.749  -3.231  0.00  0.00     0.201 HD
ENDROOT
BRANCH   8  37
ATOM     37  C   LIG d   1      10.712   6.514  -3.510  0.00  0.00     0.020 C 
ATOM     38  C   LIG d   1       9.841   6.966  -4.683  0.00  0.00    -0.029 C 
ATOM     39  N   LIG d   1      10.632   7.820  -5.579  0.00  0.00     0.228 N 
ATOM     40  H   LIG d   1       9.497   6.090  -5.237  0.00  0.00     0.082 H 
ATOM     41  H   LIG d   1       8.979   7.520  -4.311  0.00  0.00     0.082 H 
ATOM     42  C   LIG d   1       9.767   8.830  -6.202  0.00  0.00    -0.021 C 
ATOM     43  H   LIG d   1      11.047   7.246  -6.299  0.00  0.00     0.201 HD
ATOM     44  H   LIG d   1      11.365   8.275  -5.057  0.00  0.00     0.201 HD
ATOM     45  C   LIG d   1      10.226  10.228  -5.787  0.00  0.00     0.036 C 
ATOM     46  H   LIG d   1       8.737   8.668  -5.886  0.00  0.00     0.083 H 
ATOM     47  H   LIG d   1       9.826   8.733  -7.288  0.00  0.00     0.083 H 
ATOM     48  N   LIG d   1       9.056  10.969  -5.227  0.00  0.00    -0.306 N 
ATOM     49  H   LIG d   1      10.585  10.770  -6.659  0.00  0.00     0.048 H 
ATOM     50  H   LIG d   1      10.998  10.162  -5.031  0.00  0.00     0.048 H 
ATOM     51  C   LIG d   1       9.519  11.613  -3.961  0.00  0.00     0.036 C 
ATOM     52  H   LIG d   1       8.448  10.174  -4.860  0.00  0.00     0.122 HD
ATOM     53  C   LIG d   1       8.557  11.234  -2.837  0.00  0.00    -0.021 C 
ATOM     54  H   LIG d   1       9.511  12.691  -4.111  0.00  0.00     0.048 H 
ATOM     55  H   LIG d   1      10.521  11.269  -3.735  0.00  0.00     0.048 H 
ATOM     56  N   LIG d   1       9.317  10.967  -1.607  0.00  0.00     0.229 N 
ATOM     57  H   LIG d   1       7.998  10.340  -3.111  0.00  0.00     0.083 H 
ATOM     58  H   LIG d   1       7.862  12.057  -2.662  0.00  0.00     0.083 H 
ATOM     59  C   LIG d   1       8.618   9.954  -0.805  0.00  0.00    -0.021 C 
ATOM     60  H   LIG d   1       9.404  11.817  -1.070  0.00  0.00     0.201 HD
ATOM     61  H   LIG d   1      10.236  10.627  -1.845  0.00  0.00     0.201 HD
ATOM     62  C   LIG d   1       9.395   8.639  -0.847  0.00  0.00     0.036 C 
ATOM     63  H   LIG d   1       7.615   9.796  -1.204  0.00  0.00     0.083 H 
ATOM     64  H   LIG d   1       8.542  10.296   0.228  0.00  0.00     0.083 H 
ATOM     65  N   LIG d   1       9.343   8.101  -2.240  0.00  0.00    -0.311 N 
ATOM     66  H   LIG d   1       8.936   7.911  -0.186  0.00  0.00     0.048 H 
ATOM     67  H   LIG d   1      10.433   8.805  -0.578  0.00  0.00     0.048 H 
ATOM     68  C   LIG d   1       9.981   6.751  -2.191  0.00  0.00     0.004 C 
ATOM     69  H   LIG d   1      10.096   8.678  -2.726  0.00  0.00     0.122 HD
ATOM     70  H   LIG d   1       9.201   6.009  -2.051  0.00  0.00     0.043 H 
ATOM     71  H   LIG d   1      10.683   6.733  -1.364  0.00  0.00     0.043 H 
ATOM     72  H   LIG d   1      11.650   7.070  -3.514  0.00  0.00     0.037 H 
ENDBRANCH   8  37
TORSDOF 1
ENDMDL
MODEL 7
REMARK VINA RESULT:      -5.9      5.503      8.115
REMARK  1 active torsions:
REMARK  status: ('A' for Active; 'I' for Inactive)
REMARK    1  A    between atoms: C_8  and  C_14 
ROOT
ATOM      1  C   LIG d   1      12.523   7.605 -12.415  0.00  0.00     0.036 C 
ATOM      2  C   LIG d   1      11.542   6.434 -12.486  0.00  0.00    -0.021 C 
ATOM      3  N   LIG d   1      10.313   6.779 -11.759  0.00  0.00     0.229 N 
ATOM      4  C   LIG d   1       9.818   5.596 -11.043  0.00  0.00    -0.021 C 
ATOM      5  C   LIG d   1       8.641   5.995 -10.150  0.00  0.00     0.036 C 
ATOM      6  N   LIG d   1       9.134   6.307  -8.802  0.00  0.00    -0.311 N 
ATOM      7  C   LIG d   1       8.842   7.702  -8.445  0.00  0.00     0.004 C 
ATOM      8  C   LIG d   1      10.034   8.294  -7.690  0.00  0.00     0.020 C 
ATOM      9  C   LIG d   1      10.391   9.657  -8.289  0.00  0.00    -0.029 C 
ATOM     10  N   LIG d   1      11.836   9.714  -8.548  0.00  0.00     0.228 N 
ATOM     11  C   LIG d   1      12.074  10.328  -9.861  0.00  0.00    -0.021 C 
ATOM     12  C   LIG d   1      12.829   9.342 -10.756  0.00  0.00     0.036 C 
ATOM     13  N   LIG d   1      11.893   8.729 -11.707  0.00  0.00    -0.306 N 
ATOM     14  H   LIG d   1      13.420   7.296 -11.878  0.00  0.00     0.048 H 
ATOM     15  H   LIG d   1      12.792   7.916 -13.424  0.00  0.00     0.048 H 
ATOM     16  H   LIG d   1      11.300   6.225 -13.529  0.00  0.00     0.083 H 
ATOM     17  H   LIG d   1      11.995   5.552 -12.035  0.00  0.00     0.083 H 
ATOM     18  H   LIG d   1      10.509   7.516 -11.098  0.00  0.00     0.201 HD
ATOM     19  H   LIG d   1       9.491   4.846 -11.763  0.00  0.00     0.083 H 
ATOM     20  H   LIG d   1      10.618   5.183 -10.428  0.00  0.00     0.083 H 
ATOM     21  H   LIG d   1       8.148   6.871 -10.569  0.00  0.00     0.048 H 
ATOM     22  H   LIG d   1       7.931   5.170 -10.096  0.00  0.00     0.048 H 
ATOM     23  H   LIG d   1       8.664   8.279  -9.353  0.00  0.00     0.043 H 
ATOM     24  H   LIG d   1       7.956   7.737  -7.811  0.00  0.00     0.043 H 
ATOM     25  H   LIG d   1      10.889   7.624  -7.778  0.00  0.00     0.037 H 
ATOM     26  H   LIG d   1       9.848   9.795  -9.225  0.00  0.00     0.082 H 
ATOM     27  H   LIG d   1      10.116  10.445  -7.588  0.00  0.00     0.082 H 
ATOM     28  H   LIG d   1      12.284  10.267  -7.832  0.00  0.00     0.201 HD
ATOM     29  H   LIG d   1      11.119  10.580 -10.324  0.00  0.00     0.083 H 
ATOM     30  H   LIG d   1      12.668  11.234  -9.737  0.00  0.00     0.083 H 
ATOM     31  H   LIG d   1      13.609   9.872 -11.303  0.00  0.00     0.048 H 
ATOM     32  H   LIG d   1      13.282   8.566 -10.138  0.00  0.00     0.048 H 
ATOM     33  H   LIG d   1      11.539   9.414 -12.359  0.00  0.00     0.122 HD
ATOM     34  H   LIG d   1       8.748   5.671  -8.120  0.00  0.00     0.122 HD
ATOM     35  H   LIG d   1      12.217   8.780  -8.539  0.00  0.00     0.201 HD
ATOM     36  H   LIG d   1       9.612   7.093 -12.413  0.00  0.00     0.201 HD
ENDROOT
BRANCH   8  37
ATOM     37  C   LIG d   1       9.669   8.466  -6.212  0.00  0.00     0.020 C 
ATOM     38  C   LIG d   1      10.721   7.765  -5.352  0.00  0.00    -0.029 C 
ATOM     39  N   LIG d   1      10.136   6.561  -4.749  0.00  0.00     0.228 N 
ATOM     40  H   LIG d   1      11.566   7.475  -5.981  0.00  0.00     0.082 H 
ATOM     41  H   LIG d   1      11.067   8.439  -4.570  0.00  0.00     0.082 H 
ATOM     42  C   LIG d   1      10.741   6.314  -3.434  0.00  0.00    -0.021 C 
ATOM     43  H   LIG d   1      10.315   5.770  -5.352  0.00  0.00     0.201 HD
ATOM     44  H   LIG d   1       9.140   6.680  -4.647  0.00  0.00     0.201 HD
ATOM     45  C   LIG d   1       9.667   6.395  -2.349  0.00  0.00     0.036 C 
ATOM     46  H   LIG d   1      11.516   7.057  -3.248  0.00  0.00     0.083 H 
ATOM     47  H   LIG d   1      11.194   5.320  -3.428  0.00  0.00     0.083 H 
ATOM     48  N   LIG d   1      10.119   7.361  -1.302  0.00  0.00    -0.306 N 
ATOM     49  H   LIG d   1       9.544   5.420  -1.882  0.00  0.00     0.048 H 
ATOM     50  H   LIG d   1       8.732   6.740  -2.771  0.00  0.00     0.048 H 
ATOM     51  C   LIG d   1       8.956   8.252  -1.009  0.00  0.00     0.036 C 
ATOM     52  H   LIG d   1      10.757   8.007  -1.859  0.00  0.00     0.122 HD
ATOM     53  C   LIG d   1       9.408   9.706  -1.136  0.00  0.00    -0.021 C 
ATOM     54  H   LIG d   1       8.628   8.052   0.009  0.00  0.00     0.048 H 
ATOM     55  H   LIG d   1       8.161   8.040  -1.713  0.00  0.00     0.048 H 
ATOM     56  N   LIG d   1       8.355  10.495  -1.789  0.00  0.00     0.229 N 
ATOM     57  H   LIG d   1      10.318   9.762  -1.733  0.00  0.00     0.083 H 
ATOM     58  H   LIG d   1       9.602  10.113  -0.142  0.00  0.00     0.083 H 
ATOM     59  C   LIG d   1       8.963  11.585  -2.564  0.00  0.00    -0.021 C 
ATOM     60  H   LIG d   1       7.738  10.883  -1.091  0.00  0.00     0.201 HD
ATOM     61  H   LIG d   1       7.824   9.902  -2.410  0.00  0.00     0.201 HD
ATOM     62  C   LIG d   1       8.827  11.293  -4.058  0.00  0.00     0.036 C 
ATOM     63  H   LIG d   1      10.019  11.675  -2.306  0.00  0.00     0.083 H 
ATOM     64  H   LIG d   1       8.457  12.523  -2.331  0.00  0.00     0.083 H 
ATOM     65  N   LIG d   1       9.666  10.101  -4.386  0.00  0.00    -0.311 N 
ATOM     66  H   LIG d   1       9.193  12.135  -4.638  0.00  0.00     0.048 H 
ATOM     67  H   LIG d   1       7.795  11.071  -4.306  0.00  0.00     0.048 H 
ATOM     68  C   LIG d   1       9.619   9.953  -5.872  0.00  0.00     0.004 C 
ATOM     69  H   LIG d   1       9.039   9.298  -4.070  0.00  0.00     0.122 HD
ATOM     70  H   LIG d   1      10.477  10.469  -6.294  0.00  0.00     0.043 H 
ATOM     71  H   LIG d   1       8.693  10.390  -6.231  0.00  0.00     0.043 H 
ATOM     72  H   LIG d   1       8.690   8.017  -6.034  0.00  0.00     0.037 H 
ENDBRANCH   8  37
TORSDOF 1
ENDMDL
MODEL 8
REMARK VINA RESULT:      -5.9      2.893      5.865
REMARK  1 active torsions:
REMARK  status: ('A' for Active; 'I' for Inactive)
REMARK    1  A    between atoms: C_8  and  C_14 
ROOT
ATOM      1  C   LIG d   1       2.075   0.266  -5.157  0.00  0.00     0.036 C 
ATOM      2  C   LIG d   1       2.502   0.285  -6.626  0.00  0.00    -0.021 C 
ATOM      3  N   LIG d   1       3.840  -0.308  -6.755  0.00  0.00     0.229 N 
ATOM      4  C   LIG d   1       4.612   0.435  -7.759  0.00  0.00    -0.021 C 
ATOM      5  C   LIG d   1       6.056  -0.070  -7.770  0.00  0.00     0.036 C 
ATOM      6  N   LIG d   1       6.873   0.763  -6.877  0.00  0.00    -0.311 N 
ATOM      7  C   LIG d   1       7.443  -0.039  -5.787  0.00  0.00     0.004 C 
ATOM      8  C   LIG d   1       7.393   0.763  -4.484  0.00  0.00     0.020 C 
ATOM      9  C   LIG d   1       6.812  -0.110  -3.370  0.00  0.00    -0.029 C 
ATOM     10  N   LIG d   1       5.755   0.632  -2.669  0.00  0.00     0.228 N 
ATOM     11  C   LIG d   1       4.610  -0.256  -2.430  0.00  0.00    -0.021 C 
ATOM     12  C   LIG d   1       3.366   0.322  -3.110  0.00  0.00     0.036 C 
ATOM     13  N   LIG d   1       3.105  -0.410  -4.357  0.00  0.00    -0.306 N 
ATOM     14  H   LIG d   1       1.951   1.288  -4.801  0.00  0.00     0.048 H 
ATOM     15  H   LIG d   1       1.131  -0.270  -5.061  0.00  0.00     0.048 H 
ATOM     16  H   LIG d   1       1.791  -0.289  -7.219  0.00  0.00     0.083 H 
ATOM     17  H   LIG d   1       2.526   1.315  -6.984  0.00  0.00     0.083 H 
ATOM     18  H   LIG d   1       4.315  -0.265  -5.865  0.00  0.00     0.201 HD
ATOM     19  H   LIG d   1       4.167   0.287  -8.743  0.00  0.00     0.083 H 
ATOM     20  H   LIG d   1       4.600   1.497  -7.513  0.00  0.00     0.083 H 
ATOM     21  H   LIG d   1       6.081  -1.104  -7.428  0.00  0.00     0.048 H 
ATOM     22  H   LIG d   1       6.452  -0.013  -8.784  0.00  0.00     0.048 H 
ATOM     23  H   LIG d   1       6.867  -0.957  -5.671  0.00  0.00     0.043 H 
ATOM     24  H   LIG d   1       8.479  -0.287  -6.022  0.00  0.00     0.043 H 
ATOM     25  H   LIG d   1       6.764   1.642  -4.623  0.00  0.00     0.037 H 
ATOM     26  H   LIG d   1       6.392  -1.019  -3.802  0.00  0.00     0.082 H 
ATOM     27  H   LIG d   1       7.601  -0.372  -2.665  0.00  0.00     0.082 H 
ATOM     28  H   LIG d   1       6.109   0.968  -1.786  0.00  0.00     0.201 HD
ATOM     29  H   LIG d   1       4.822  -1.243  -2.841  0.00  0.00     0.083 H 
ATOM     30  H   LIG d   1       4.432  -0.340  -1.358  0.00  0.00     0.083 H 
ATOM     31  H   LIG d   1       2.508   0.222  -2.444  0.00  0.00     0.048 H 
ATOM     32  H   LIG d   1       3.531   1.376  -3.334  0.00  0.00     0.048 H 
ATOM     33  H   LIG d   1       2.846  -1.367  -4.167  0.00  0.00     0.122 HD
ATOM     34  H   LIG d   1       7.597   1.241  -7.392  0.00  0.00     0.122 HD
ATOM     35  H   LIG d   1       5.462   1.415  -3.233  0.00  0.00     0.201 HD
ATOM     36  H   LIG d   1       3.754  -1.271  -7.043  0.00  0.00     0.201 HD
ENDROOT
BRANCH   8  37
ATOM     37  C   LIG d   1       8.810   1.204  -4.101  0.00  0.00     0.020 C 
ATOM     38  C   LIG d   1       9.785   0.757  -5.192  0.00  0.00    -0.029 C 
ATOM     39  N   LIG d   1      10.622  -0.336  -4.681  0.00  0.00     0.228 N 
ATOM     40  H   LIG d   1       9.220   0.401  -6.056  0.00  0.00     0.082 H 
ATOM     41  H   LIG d   1      10.414   1.595  -5.490  0.00  0.00     0.082 H 
ATOM     42  C   LIG d   1      11.955  -0.276  -5.294  0.00  0.00    -0.021 C 
ATOM     43  H   LIG d   1      10.187  -1.219  -4.912  0.00  0.00     0.201 HD
ATOM     44  H   LIG d   1      10.705  -0.263  -3.679  0.00  0.00     0.201 HD
ATOM     45  C   LIG d   1      13.009  -0.047  -4.212  0.00  0.00     0.036 C 
ATOM     46  H   LIG d   1      11.982   0.537  -6.019  0.00  0.00     0.083 H 
ATOM     47  H   LIG d   1      12.156  -1.218  -5.808  0.00  0.00     0.083 H 
ATOM     48  N   LIG d   1      13.838   1.135  -4.595  0.00  0.00    -0.306 N 
ATOM     49  H   LIG d   1      13.663  -0.914  -4.148  0.00  0.00     0.048 H 
ATOM     50  H   LIG d   1      12.534   0.147  -3.258  0.00  0.00     0.048 H 
ATOM     51  C   LIG d   1      13.956   1.992  -3.377  0.00  0.00     0.036 C 
ATOM     52  H   LIG d   1      13.158   1.695  -5.194  0.00  0.00     0.122 HD
ATOM     53  C   LIG d   1      13.537   3.417  -3.737  0.00  0.00    -0.021 C 
ATOM     54  H   LIG d   1      14.996   1.979  -3.057  0.00  0.00     0.048 H 
ATOM     55  H   LIG d   1      13.315   1.593  -2.601  0.00  0.00     0.048 H 
ATOM     56  N   LIG d   1      12.747   3.990  -2.639  0.00  0.00     0.229 N 
ATOM     57  H   LIG d   1      12.934   3.409  -4.644  0.00  0.00     0.083 H 
ATOM     58  H   LIG d   1      14.428   4.026  -3.899  0.00  0.00     0.083 H 
ATOM     59  C   LIG d   1      11.765   4.940  -3.180  0.00  0.00    -0.021 C 
ATOM     60  H   LIG d   1      13.358   4.471  -1.995  0.00  0.00     0.201 HD
ATOM     61  H   LIG d   1      12.262   3.253  -2.150  0.00  0.00     0.201 HD
ATOM     62  C   LIG d   1      10.361   4.346  -3.071  0.00  0.00     0.036 C 
ATOM     63  H   LIG d   1      11.992   5.146  -4.227  0.00  0.00     0.083 H 
ATOM     64  H   LIG d   1      11.809   5.871  -2.614  0.00  0.00     0.083 H 
ATOM     65  N   LIG d   1      10.272   3.168  -3.985  0.00  0.00    -0.311 N 
ATOM     66  H   LIG d   1       9.621   5.076  -3.385  0.00  0.00     0.048 H 
ATOM     67  H   LIG d   1      10.170   4.014  -2.056  0.00  0.00     0.048 H 
ATOM     68  C   LIG d   1       8.845   2.723  -3.955  0.00  0.00     0.004 C 
ATOM     69  H   LIG d   1      10.747   2.407  -3.409  0.00  0.00     0.122 HD
ATOM     70  H   LIG d   1       8.323   3.196  -4.781  0.00  0.00     0.043 H 
ATOM     71  H   LIG d   1       8.414   3.020  -3.005  0.00  0.00     0.043 H 
ATOM     72  H   LIG d   1       9.082   0.739  -3.152  0.00  0.00     0.037 H 
ENDBRANCH   8  37
TORSDOF 1
ENDMDL
MODEL 9
REMARK VINA RESULT:      -5.9      5.474      8.726
REMARK  1 active torsions:
REMARK  status: ('A' for Active; 'I' for Inactive)
REMARK    1  A    between atoms: C_8  and  C_14 
ROOT
ATOM      1  C   LIG d   1       9.890   8.023 -13.271  0.00  0.00     0.036 C 
ATOM      2  C   LIG d   1      10.837   9.214 -13.121  0.00  0.00    -0.021 C 
ATOM      3  N   LIG d   1      11.594   9.084 -11.869  0.00  0.00     0.229 N 
ATOM      4  C   LIG d   1      11.752  10.408 -11.253  0.00  0.00    -0.021 C 
ATOM      5  C   LIG d   1      12.385  10.254  -9.868  0.00  0.00     0.036 C 
ATOM      6  N   LIG d   1      11.327  10.175  -8.852  0.00  0.00    -0.311 N 
ATOM      7  C   LIG d   1      11.378   8.891  -8.139  0.00  0.00     0.004 C 
ATOM      8  C   LIG d   1       9.954   8.384  -7.900  0.00  0.00     0.020 C 
ATOM      9  C   LIG d   1       9.860   6.915  -8.317  0.00  0.00    -0.029 C 
ATOM     10  N   LIG d   1       8.686   6.726  -9.180  0.00  0.00     0.228 N 
ATOM     11  C   LIG d   1       9.045   5.863 -10.312  0.00  0.00    -0.021 C 
ATOM     12  C   LIG d   1       8.808   6.616 -11.623  0.00  0.00     0.036 C 
ATOM     13  N   LIG d   1      10.093   7.092 -12.153  0.00  0.00    -0.306 N 
ATOM     14  H   LIG d   1       8.858   8.376 -13.266  0.00  0.00     0.048 H 
ATOM     15  H   LIG d   1      10.094   7.511 -14.212  0.00  0.00     0.048 H 
ATOM     16  H   LIG d   1      11.530   9.236 -13.963  0.00  0.00     0.083 H 
ATOM     17  H   LIG d   1      10.260  10.138 -13.103  0.00  0.00     0.083 H 
ATOM     18  H   LIG d   1      11.095   8.476 -11.236  0.00  0.00     0.201 HD
ATOM     19  H   LIG d   1      12.395  11.026 -11.879  0.00  0.00     0.083 H 
ATOM     20  H   LIG d   1      10.776  10.883 -11.155  0.00  0.00     0.083 H 
ATOM     21  H   LIG d   1      12.984   9.344  -9.842  0.00  0.00     0.048 H 
ATOM     22  H   LIG d   1      13.023  11.114  -9.663  0.00  0.00     0.048 H 
ATOM     23  H   LIG d   1      11.927   8.165  -8.738  0.00  0.00     0.043 H 
ATOM     24  H   LIG d   1      11.881   9.028  -7.182  0.00  0.00     0.043 H 
ATOM     25  H   LIG d   1       9.255   8.975  -8.490  0.00  0.00     0.037 H 
ATOM     26  H   LIG d   1      10.761   6.634  -8.863  0.00  0.00     0.082 H 
ATOM     27  H   LIG d   1       9.762   6.291  -7.428  0.00  0.00     0.082 H 
ATOM     28  H   LIG d   1       7.945   6.294  -8.649  0.00  0.00     0.201 HD
ATOM     29  H   LIG d   1      10.096   5.584 -10.238  0.00  0.00     0.083 H 
ATOM     30  H   LIG d   1       8.428   4.964 -10.294  0.00  0.00     0.083 H 
ATOM     31  H   LIG d   1       8.341   5.948 -12.348  0.00  0.00     0.048 H 
ATOM     32  H   LIG d   1       8.153   7.468 -11.439  0.00  0.00     0.048 H 
ATOM     33  H   LIG d   1      10.680   6.317 -12.429  0.00  0.00     0.122 HD
ATOM     34  H   LIG d   1      11.386  10.949  -8.208  0.00  0.00     0.122 HD
ATOM     35  H   LIG d   1       8.374   7.621  -9.525  0.00  0.00     0.201 HD
ATOM     36  H   LIG d   1      12.503   8.693 -12.064  0.00  0.00     0.201 HD
ENDROOT
BRANCH   8  37
ATOM     37  C   LIG d   1       9.608   8.517  -6.413  0.00  0.00     0.020 C 
ATOM     38  C   LIG d   1      10.660   7.775  -5.587  0.00  0.00    -0.029 C 
ATOM     39  N   LIG d   1      10.065   6.561  -5.013  0.00  0.00     0.228 N 
ATOM     40  H   LIG d   1      11.494   7.493  -6.234  0.00  0.00     0.082 H 
ATOM     41  H   LIG d   1      11.025   8.421  -4.788  0.00  0.00     0.082 H 
ATOM     42  C   LIG d   1      10.681   6.267  -3.713  0.00  0.00    -0.021 C 
ATOM     43  H   LIG d   1      10.225   5.787  -5.642  0.00  0.00     0.201 HD
ATOM     44  H   LIG d   1       9.072   6.691  -4.896  0.00  0.00     0.201 HD
ATOM     45  C   LIG d   1       9.621   6.330  -2.614  0.00  0.00     0.036 C 
ATOM     46  H   LIG d   1      11.468   6.993  -3.514  0.00  0.00     0.083 H 
ATOM     47  H   LIG d   1      11.119   5.267  -3.743  0.00  0.00     0.083 H 
ATOM     48  N   LIG d   1      10.098   7.257  -1.544  0.00  0.00    -0.306 N 
ATOM     49  H   LIG d   1       9.489   5.344  -2.175  0.00  0.00     0.048 H 
ATOM     50  H   LIG d   1       8.686   6.701  -3.014  0.00  0.00     0.048 H 
ATOM     51  C   LIG d   1       8.952   8.156  -1.210  0.00  0.00     0.036 C 
ATOM     52  H   LIG d   1      10.739   7.911  -2.089  0.00  0.00     0.122 HD
ATOM     53  C   LIG d   1       9.423   9.606  -1.299  0.00  0.00    -0.021 C 
ATOM     54  H   LIG d   1       8.632   7.929  -0.196  0.00  0.00     0.048 H 
ATOM     55  H   LIG d   1       8.145   7.976  -1.911  0.00  0.00     0.048 H 
ATOM     56  N   LIG d   1       8.373  10.429  -1.916  0.00  0.00     0.229 N 
ATOM     57  H   LIG d   1      10.327   9.667  -1.905  0.00  0.00     0.083 H 
ATOM     58  H   LIG d   1       9.634   9.980  -0.296  0.00  0.00     0.083 H 
ATOM     59  C   LIG d   1       8.988  11.534  -2.665  0.00  0.00    -0.021 C 
ATOM     60  H   LIG d   1       7.770  10.805  -1.200  0.00  0.00     0.201 HD
ATOM     61  H   LIG d   1       7.828   9.863  -2.548  0.00  0.00     0.201 HD
ATOM     62  C   LIG d   1       8.832  11.289  -4.165  0.00  0.00     0.036 C 
ATOM     63  H   LIG d   1      10.048  11.601  -2.417  0.00  0.00     0.083 H 
ATOM     64  H   LIG d   1       8.498  12.471  -2.398  0.00  0.00     0.083 H 
ATOM     65  N   LIG d   1       9.649  10.095  -4.539  0.00  0.00    -0.311 N 
ATOM     66  H   LIG d   1       9.202  12.142  -4.724  0.00  0.00     0.048 H 
ATOM     67  H   LIG d   1       7.794  11.089  -4.408  0.00  0.00     0.048 H 
ATOM     68  C   LIG d   1       9.583   9.993  -6.028  0.00  0.00     0.004 C 
ATOM     69  H   LIG d   1       9.014   9.293  -4.240  0.00  0.00     0.122 HD
ATOM     70  H   LIG d   1      10.444  10.509  -6.444  0.00  0.00     0.043 H 
ATOM     71  H   LIG d   1       8.660  10.454  -6.363  0.00  0.00     0.043 H 
ATOM     72  H   LIG d   1       8.626   8.076  -6.237  0.00  0.00     0.037 H 
ENDBRANCH   8  37
TORSDOF 1
ENDMDL
MODEL 10
REMARK VINA RESULT:      -5.9      2.906      5.475
REMARK  1 active torsions:
REMARK  status: ('A' for Active; 'I' for Inactive)
REMARK    1  A    between atoms: C_8  and  C_14 
ROOT
ATOM      1  C   LIG d   1       2.569   0.411  -5.249  0.00  0.00     0.036 C 
ATOM      2  C   LIG d   1       2.800   0.413  -6.761  0.00  0.00    -0.021 C 
ATOM      3  N   LIG d   1       4.174  -0.021  -7.048  0.00  0.00     0.229 N 
ATOM      4  C   LIG d   1       4.712   0.762  -8.168  0.00  0.00    -0.021 C 
ATOM      5  C   LIG d   1       6.194   0.434  -8.354  0.00  0.00     0.036 C 
ATOM      6  N   LIG d   1       7.008   1.401  -7.604  0.00  0.00    -0.311 N 
ATOM      7  C   LIG d   1       7.809   0.726  -6.574  0.00  0.00     0.004 C 
ATOM      8  C   LIG d   1       7.825   1.577  -5.302  0.00  0.00     0.020 C 
ATOM      9  C   LIG d   1       7.504   0.695  -4.094  0.00  0.00    -0.029 C 
ATOM     10  N   LIG d   1       6.461   1.336  -3.283  0.00  0.00     0.228 N 
ATOM     11  C   LIG d   1       5.476   0.329  -2.867  0.00  0.00    -0.021 C 
ATOM     12  C   LIG d   1       4.093   0.720  -3.393  0.00  0.00     0.036 C 
ATOM     13  N   LIG d   1       3.769  -0.096  -4.571  0.00  0.00    -0.306 N 
ATOM     14  H   LIG d   1       2.364   1.427  -4.912  0.00  0.00     0.048 H 
ATOM     15  H   LIG d   1       1.720  -0.229  -5.012  0.00  0.00     0.048 H 
ATOM     16  H   LIG d   1       2.096  -0.271  -7.237  0.00  0.00     0.083 H 
ATOM     17  H   LIG d   1       2.648   1.419  -7.151  0.00  0.00     0.083 H 
ATOM     18  H   LIG d   1       4.749   0.122  -6.231  0.00  0.00     0.201 HD
ATOM     19  H   LIG d   1       4.167   0.514  -9.079  0.00  0.00     0.083 H 
ATOM     20  H   LIG d   1       4.598   1.825  -7.956  0.00  0.00     0.083 H 
ATOM     21  H   LIG d   1       6.393  -0.572  -7.986  0.00  0.00     0.048 H 
ATOM     22  H   LIG d   1       6.448   0.490  -9.413  0.00  0.00     0.048 H 
ATOM     23  H   LIG d   1       7.372  -0.248  -6.354  0.00  0.00     0.043 H 
ATOM     24  H   LIG d   1       8.828   0.594  -6.936  0.00  0.00     0.043 H 
ATOM     25  H   LIG d   1       7.078   2.366  -5.385  0.00  0.00     0.037 H 
ATOM     26  H   LIG d   1       7.151  -0.278  -4.438  0.00  0.00     0.082 H 
ATOM     27  H   LIG d   1       8.403   0.563  -3.492  0.00  0.00     0.082 H 
ATOM     28  H   LIG d   1       6.880   1.754  -2.466  0.00  0.00     0.201 HD
ATOM     29  H   LIG d   1       5.757  -0.644  -3.271  0.00  0.00     0.083 H 
ATOM     30  H   LIG d   1       5.448   0.276  -1.778  0.00  0.00     0.083 H 
ATOM     31  H   LIG d   1       3.347   0.550  -2.617  0.00  0.00     0.048 H 
ATOM     32  H   LIG d   1       4.095   1.774  -3.670  0.00  0.00     0.048 H 
ATOM     33  H   LIG d   1       3.659  -1.067  -4.319  0.00  0.00     0.122 HD
ATOM     34  H   LIG d   1       7.594   1.938  -8.225  0.00  0.00     0.122 HD
ATOM     35  H   LIG d   1       6.002   2.050  -3.828  0.00  0.00     0.201 HD
ATOM     36  H   LIG d   1       4.174  -1.000  -7.291  0.00  0.00     0.201 HD
ENDROOT
BRANCH   8  37
ATOM     37  C   LIG d   1       9.212   2.203  -5.124  0.00  0.00     0.020 C 
ATOM     38  C   LIG d   1       9.114   3.361  -4.129  0.00  0.00    -0.029 C 
ATOM     39  N   LIG d   1       9.279   4.634  -4.842  0.00  0.00     0.228 N 
ATOM     40  H   LIG d   1       8.132   3.344  -3.651  0.00  0.00     0.082 H 
ATOM     41  H   LIG d   1       9.887   3.260  -3.369  0.00  0.00     0.082 H 
ATOM     42  C   LIG d   1       9.935   5.616  -3.969  0.00  0.00    -0.021 C 
ATOM     43  H   LIG d   1       8.369   4.981  -5.112  0.00  0.00     0.201 HD
ATOM     44  H   LIG d   1       9.835   4.491  -5.671  0.00  0.00     0.201 HD
ATOM     45  C   LIG d   1      11.273   6.033  -4.578  0.00  0.00     0.036 C 
ATOM     46  H   LIG d   1      10.093   5.176  -2.986  0.00  0.00     0.083 H 
ATOM     47  H   LIG d   1       9.290   6.492  -3.868  0.00  0.00     0.083 H 
ATOM     48  N   LIG d   1      12.343   5.845  -3.551  0.00  0.00    -0.306 N 
ATOM     49  H   LIG d   1      11.242   7.086  -4.846  0.00  0.00     0.048 H 
ATOM     50  H   LIG d   1      11.500   5.422  -5.442  0.00  0.00     0.048 H 
ATOM     51  C   LIG d   1      13.475   5.146  -4.231  0.00  0.00     0.036 C 
ATOM     52  H   LIG d   1      11.934   5.067  -2.949  0.00  0.00     0.122 HD
ATOM     53  C   LIG d   1      13.852   3.912  -3.414  0.00  0.00    -0.021 C 
ATOM     54  H   LIG d   1      14.316   5.835  -4.276  0.00  0.00     0.048 H 
ATOM     55  H   LIG d   1      13.166   4.860  -5.230  0.00  0.00     0.048 H 
ATOM     56  N   LIG d   1      14.152   2.794  -4.320  0.00  0.00     0.229 N 
ATOM     57  H   LIG d   1      13.026   3.631  -2.762  0.00  0.00     0.083 H 
ATOM     58  H   LIG d   1      14.733   4.134  -2.809  0.00  0.00     0.083 H 
ATOM     59  C   LIG d   1      13.792   1.524  -3.674  0.00  0.00    -0.021 C 
ATOM     60  H   LIG d   1      15.137   2.789  -4.540  0.00  0.00     0.201 HD
ATOM     61  H   LIG d   1      13.621   2.896  -5.171  0.00  0.00     0.201 HD
ATOM     62  C   LIG d   1      12.549   0.940  -4.345  0.00  0.00     0.036 C 
ATOM     63  H   LIG d   1      13.586   1.696  -2.616  0.00  0.00     0.083 H 
ATOM     64  H   LIG d   1      14.619   0.820  -3.768  0.00  0.00     0.083 H 
ATOM     65  N   LIG d   1      11.389   1.838  -4.060  0.00  0.00    -0.311 N 
ATOM     66  H   LIG d   1      12.328  -0.040  -3.935  0.00  0.00     0.048 H 
ATOM     67  H   LIG d   1      12.691   0.887  -5.419  0.00  0.00     0.048 H 
ATOM     68  C   LIG d   1      10.182   1.145  -4.605  0.00  0.00     0.004 C 
ATOM     69  H   LIG d   1      11.533   2.615  -4.775  0.00  0.00     0.122 HD
ATOM     70  H   LIG d   1       9.726   0.572  -3.803  0.00  0.00     0.043 H 
ATOM     71  H   LIG d   1      10.496   0.494  -5.413  0.00  0.00     0.043 H 
ATOM     72  H   LIG d   1       9.559   2.576  -6.088  0.00  0.00     0.037 H 
ENDBRANCH   8  37
TORSDOF 1
ENDMDL
