MODEL 1
REMARK VINA RESULT:      -6.9      0.000      0.000
REMARK  2 active torsions:
REMARK  status: ('A' for Active; 'I' for Inactive)
REMARK    1  A    between atoms: CB_1  and  CA_2 
REMARK       I    between atoms: N_9  and  C_16 
REMARK    2  A    between atoms: C_16  and  C_18 
ROOT
ATOM      1  CA  ALA d   2       4.331  -1.597 -11.044  0.00  0.00     0.097 C 
ATOM      2  HA  ALA d   2       4.528  -2.412 -11.741  0.00  0.00     0.059 H 
ATOM      3  C   ALA d   2       5.134  -1.805  -9.778  0.00  0.00     0.236 C 
ATOM      4  O   ALA d   2       6.080  -2.563  -9.744  0.00  0.00    -0.274 OA
ATOM      5  N   ALA d   2       2.898  -1.579 -10.697  0.00  0.00    -0.303 N 
ATOM      6  H   ALA d   2       2.245  -2.077 -11.213  0.00  0.00     0.149 HD
ATOM      7  N   UNK d   1       4.738  -1.097  -8.671  0.00  0.00    -0.285 N 
ATOM      8  C   UNK d   1       5.375  -1.398  -7.405  0.00  0.00     0.031 C 
ATOM      9  C   UNK d   1       5.086  -0.372  -6.325  0.00  0.00     0.031 C 
ATOM     10  N   UNK d   1       3.715   0.110  -6.426  0.00  0.00    -0.294 N 
ATOM     11  C   UNK d   1       3.193   0.626  -7.681  0.00  0.00     0.042 C 
ATOM     12  C   UNK d   1       3.661  -0.148  -8.878  0.00  0.00     0.118 C 
ATOM     13  H   UNK d   1       4.061   0.589  -9.573  0.00  0.00     0.061 H 
ATOM     14  C   UNK d   1       2.534  -0.830  -9.616  0.00  0.00     0.236 C 
ATOM     15  O   UNK d   1       1.377  -0.718  -9.270  0.00  0.00    -0.274 OA
ATOM     16  C   UNK d   1       2.917   0.077  -5.340  0.00  0.00     0.247 C 
ATOM     17  O   UNK d   1       1.745   0.384  -5.436  0.00  0.00    -0.270 OA
ATOM     18  H   UNK d   1       6.453  -1.448  -7.560  0.00  0.00     0.048 H 
ATOM     19  H   UNK d   1       5.026  -2.372  -7.063  0.00  0.00     0.048 H 
ATOM     20  H   UNK d   1       5.772   0.468  -6.435  0.00  0.00     0.048 H 
ATOM     21  H   UNK d   1       5.235  -0.830  -5.346  0.00  0.00     0.048 H 
ATOM     22  H   UNK d   1       3.509   1.664  -7.791  0.00  0.00     0.049 H 
ATOM     23  H   UNK d   1       2.104   0.596  -7.647  0.00  0.00     0.049 H 
ENDROOT
BRANCH  16  24
ATOM     24  C   UNK d   1       3.468  -0.335  -4.030  0.00  0.00     0.040 A 
ATOM     25  C   UNK d   1       3.891   0.628  -3.114  0.00  0.00    -0.014 A 
ATOM     26  C   UNK d   1       4.400   0.236  -1.890  0.00  0.00     0.124 A 
ATOM     27  H   UNK d   1       3.817   1.678  -3.358  0.00  0.00     0.065 H 
ATOM     28  C   UNK d   1       4.500  -1.111  -1.580  0.00  0.00    -0.026 A 
ATOM     29  F   UNK d   1       4.804   1.166  -0.999  0.00  0.00    -0.205 F 
ATOM     30  C   UNK d   1       4.087  -2.070  -2.488  0.00  0.00    -0.058 A 
ATOM     31  H   UNK d   1       4.902  -1.414  -0.624  0.00  0.00     0.065 H 
ATOM     32  C   UNK d   1       3.572  -1.690  -3.710  0.00  0.00    -0.050 A 
ATOM     33  H   UNK d   1       4.169  -3.117  -2.239  0.00  0.00     0.062 H 
ATOM     34  H   UNK d   1       3.252  -2.440  -4.418  0.00  0.00     0.062 H 
ENDBRANCH  16  24
BRANCH   1  35
ATOM     35  CB  ALA d   2       4.721  -0.265 -11.688  0.00  0.00    -0.038 C 
ATOM     36  HB1 ALA d   2       3.829   0.225 -12.078  0.00  0.00     0.025 H 
ATOM     37  HB2 ALA d   2       5.190   0.376 -10.943  0.00  0.00     0.025 H 
ATOM     38  HB3 ALA d   2       5.421  -0.447 -12.503  0.00  0.00     0.025 H 
ENDBRANCH   1  35
TORSDOF 2
ENDMDL
MODEL 2
REMARK VINA RESULT:      -6.8      3.280      6.716
REMARK  2 active torsions:
REMARK  status: ('A' for Active; 'I' for Inactive)
REMARK    1  A    between atoms: CB_1  and  CA_2 
REMARK       I    between atoms: N_9  and  C_16 
REMARK    2  A    between atoms: C_16  and  C_18 
ROOT
ATOM      1  CA  ALA d   2       5.218  -1.498  -2.550  0.00  0.00     0.097 C 
ATOM      2  HA  ALA d   2       6.088  -1.775  -1.955  0.00  0.00     0.059 H 
ATOM      3  C   ALA d   2       5.376  -2.028  -3.960  0.00  0.00     0.236 C 
ATOM      4  O   ALA d   2       6.176  -2.901  -4.223  0.00  0.00    -0.274 OA
ATOM      5  N   ALA d   2       5.106  -0.029  -2.609  0.00  0.00    -0.303 N 
ATOM      6  H   ALA d   2       5.607   0.542  -2.005  0.00  0.00     0.149 HD
ATOM      7  N   UNK d   1       4.575  -1.470  -4.924  0.00  0.00    -0.285 N 
ATOM      8  C   UNK d   1       4.818  -1.832  -6.307  0.00  0.00     0.031 C 
ATOM      9  C   UNK d   1       3.708  -1.404  -7.247  0.00  0.00     0.031 C 
ATOM     10  N   UNK d   1       3.167  -0.109  -6.851  0.00  0.00    -0.294 N 
ATOM     11  C   UNK d   1       2.715   0.128  -5.489  0.00  0.00     0.042 C 
ATOM     12  C   UNK d   1       3.592  -0.513  -4.455  0.00  0.00     0.118 C 
ATOM     13  H   UNK d   1       2.925  -1.084  -3.810  0.00  0.00     0.061 H 
ATOM     14  C   UNK d   1       4.267   0.490  -3.551  0.00  0.00     0.236 C 
ATOM     15  O   UNK d   1       4.076   1.683  -3.656  0.00  0.00    -0.274 OA
ATOM     16  C   UNK d   1       3.086   0.883  -7.759  0.00  0.00     0.247 C 
ATOM     17  O   UNK d   1       2.730   1.994  -7.417  0.00  0.00    -0.270 OA
ATOM     18  H   UNK d   1       4.931  -2.915  -6.369  0.00  0.00     0.048 H 
ATOM     19  H   UNK d   1       5.748  -1.365  -6.630  0.00  0.00     0.048 H 
ATOM     20  H   UNK d   1       2.911  -2.147  -7.224  0.00  0.00     0.048 H 
ATOM     21  H   UNK d   1       4.103  -1.332  -8.261  0.00  0.00     0.048 H 
ATOM     22  H   UNK d   1       1.703  -0.266  -5.383  0.00  0.00     0.049 H 
ATOM     23  H   UNK d   1       2.689   1.203  -5.311  0.00  0.00     0.049 H 
ENDROOT
BRANCH  16  24
ATOM     24  C   UNK d   1       3.433   0.621  -9.173  0.00  0.00     0.040 A 
ATOM     25  C   UNK d   1       2.503   0.020 -10.022  0.00  0.00    -0.014 A 
ATOM     26  C   UNK d   1       2.832  -0.216 -11.343  0.00  0.00     0.124 A 
ATOM     27  H   UNK d   1       1.527  -0.254  -9.650  0.00  0.00     0.065 H 
ATOM     28  C   UNK d   1       4.086   0.131 -11.820  0.00  0.00    -0.026 A 
ATOM     29  F   UNK d   1       1.932  -0.792 -12.170  0.00  0.00    -0.205 F 
ATOM     30  C   UNK d   1       5.014   0.721 -10.979  0.00  0.00    -0.058 A 
ATOM     31  H   UNK d   1       4.341  -0.060 -12.852  0.00  0.00     0.065 H 
ATOM     32  C   UNK d   1       4.694   0.968  -9.660  0.00  0.00    -0.050 A 
ATOM     33  H   UNK d   1       5.989   0.988 -11.357  0.00  0.00     0.062 H 
ATOM     34  H   UNK d   1       5.420   1.428  -9.006  0.00  0.00     0.062 H 
ENDBRANCH  16  24
BRANCH   1  35
ATOM     35  CB  ALA d   2       3.955  -2.085  -1.919  0.00  0.00    -0.038 C 
ATOM     36  HB1 ALA d   2       3.681  -1.500  -1.041  0.00  0.00     0.025 H 
ATOM     37  HB2 ALA d   2       3.140  -2.058  -2.642  0.00  0.00     0.025 H 
ATOM     38  HB3 ALA d   2       4.142  -3.117  -1.623  0.00  0.00     0.025 H 
ENDBRANCH   1  35
TORSDOF 2
ENDMDL
MODEL 3
REMARK VINA RESULT:      -6.8      2.119      2.763
REMARK  2 active torsions:
REMARK  status: ('A' for Active; 'I' for Inactive)
REMARK    1  A    between atoms: CB_1  and  CA_2 
REMARK       I    between atoms: N_9  and  C_16 
REMARK    2  A    between atoms: C_16  and  C_18 
ROOT
ATOM      1  CA  ALA d   2       3.356   0.665 -10.937  0.00  0.00     0.097 C 
ATOM      2  HA  ALA d   2       2.532   1.094 -11.508  0.00  0.00     0.059 H 
ATOM      3  C   ALA d   2       2.817   0.004  -9.686  0.00  0.00     0.236 C 
ATOM      4  O   ALA d   2       1.643  -0.278  -9.572  0.00  0.00    -0.274 OA
ATOM      5  N   ALA d   2       4.293   1.731 -10.541  0.00  0.00    -0.303 N 
ATOM      6  H   ALA d   2       4.262   2.611 -10.949  0.00  0.00     0.149 HD
ATOM      7  N   UNK d   1       3.720  -0.256  -8.686  0.00  0.00    -0.285 N 
ATOM      8  C   UNK d   1       3.212  -0.730  -7.414  0.00  0.00     0.031 C 
ATOM      9  C   UNK d   1       4.293  -1.264  -6.493  0.00  0.00     0.031 C 
ATOM     10  N   UNK d   1       5.510  -0.472  -6.614  0.00  0.00    -0.294 N 
ATOM     11  C   UNK d   1       6.115  -0.221  -7.912  0.00  0.00     0.042 C 
ATOM     12  C   UNK d   1       5.107   0.034  -8.994  0.00  0.00     0.118 C 
ATOM     13  H   UNK d   1       5.364  -0.642  -9.809  0.00  0.00     0.061 H 
ATOM     14  C   UNK d   1       5.206   1.424  -9.575  0.00  0.00     0.236 C 
ATOM     15  O   UNK d   1       6.044   2.219  -9.206  0.00  0.00    -0.274 OA
ATOM     16  C   UNK d   1       6.085   0.036  -5.506  0.00  0.00     0.247 C 
ATOM     17  O   UNK d   1       7.043   0.778  -5.602  0.00  0.00    -0.270 OA
ATOM     18  H   UNK d   1       2.489  -1.524  -7.601  0.00  0.00     0.048 H 
ATOM     19  H   UNK d   1       2.704   0.094  -6.914  0.00  0.00     0.048 H 
ATOM     20  H   UNK d   1       4.510  -2.299  -6.757  0.00  0.00     0.048 H 
ATOM     21  H   UNK d   1       3.939  -1.224  -5.463  0.00  0.00     0.048 H 
ATOM     22  H   UNK d   1       6.716  -1.088  -8.192  0.00  0.00     0.049 H 
ATOM     23  H   UNK d   1       6.771   0.645  -7.832  0.00  0.00     0.049 H 
ENDROOT
BRANCH  16  24
ATOM     24  C   UNK d   1       5.548  -0.307  -4.171  0.00  0.00     0.040 A 
ATOM     25  C   UNK d   1       5.171   0.704  -3.286  0.00  0.00    -0.014 A 
ATOM     26  C   UNK d   1       4.665   0.375  -2.043  0.00  0.00     0.124 A 
ATOM     27  H   UNK d   1       5.269   1.740  -3.574  0.00  0.00     0.065 H 
ATOM     28  C   UNK d   1       4.545  -0.955  -1.671  0.00  0.00    -0.026 A 
ATOM     29  F   UNK d   1       4.293   1.351  -1.187  0.00  0.00    -0.205 F 
ATOM     30  C   UNK d   1       4.924  -1.960  -2.543  0.00  0.00    -0.058 A 
ATOM     31  H   UNK d   1       4.153  -1.208  -0.697  0.00  0.00     0.065 H 
ATOM     32  C   UNK d   1       5.424  -1.644  -3.789  0.00  0.00    -0.050 A 
ATOM     33  H   UNK d   1       4.828  -2.994  -2.247  0.00  0.00     0.062 H 
ATOM     34  H   UNK d   1       5.720  -2.431  -4.468  0.00  0.00     0.062 H 
ENDBRANCH  16  24
BRANCH   1  35
ATOM     35  CB  ALA d   2       4.087  -0.372 -11.792  0.00  0.00    -0.038 C 
ATOM     36  HB1 ALA d   2       5.139  -0.102 -11.869  0.00  0.00     0.025 H 
ATOM     37  HB2 ALA d   2       3.998  -1.354 -11.329  0.00  0.00     0.025 H 
ATOM     38  HB3 ALA d   2       3.645  -0.399 -12.788  0.00  0.00     0.025 H 
ENDBRANCH   1  35
TORSDOF 2
ENDMDL
MODEL 4
REMARK VINA RESULT:      -6.6      1.869      2.794
REMARK  2 active torsions:
REMARK  status: ('A' for Active; 'I' for Inactive)
REMARK    1  A    between atoms: CB_1  and  CA_2 
REMARK       I    between atoms: N_9  and  C_16 
REMARK    2  A    between atoms: C_16  and  C_18 
ROOT
ATOM      1  CA  ALA d   2       4.298   0.586 -11.250  0.00  0.00     0.097 C 
ATOM      2  HA  ALA d   2       4.458   1.448 -11.899  0.00  0.00     0.059 H 
ATOM      3  C   ALA d   2       3.752   1.049  -9.916  0.00  0.00     0.236 C 
ATOM      4  O   ALA d   2       3.264   2.150  -9.777  0.00  0.00    -0.274 OA
ATOM      5  N   ALA d   2       5.578  -0.107 -11.022  0.00  0.00    -0.303 N 
ATOM      6  H   ALA d   2       6.357   0.074 -11.571  0.00  0.00     0.149 HD
ATOM      7  N   UNK d   1       3.840   0.163  -8.871  0.00  0.00    -0.285 N 
ATOM      8  C   UNK d   1       3.485   0.632  -7.547  0.00  0.00     0.031 C 
ATOM      9  C   UNK d   1       3.330  -0.485  -6.532  0.00  0.00     0.031 C 
ATOM     10  N   UNK d   1       4.319  -1.531  -6.762  0.00  0.00    -0.294 N 
ATOM     11  C   UNK d   1       4.474  -2.139  -8.074  0.00  0.00     0.042 C 
ATOM     12  C   UNK d   1       4.347  -1.155  -9.200  0.00  0.00     0.118 C 
ATOM     13  H   UNK d   1       3.614  -1.579  -9.886  0.00  0.00     0.061 H 
ATOM     14  C   UNK d   1       5.617  -1.013 -10.002  0.00  0.00     0.236 C 
ATOM     15  O   UNK d   1       6.612  -1.663  -9.757  0.00  0.00    -0.274 OA
ATOM     16  C   UNK d   1       5.102  -1.940  -5.744  0.00  0.00     0.247 C 
ATOM     17  O   UNK d   1       5.994  -2.741  -5.947  0.00  0.00    -0.270 OA
ATOM     18  H   UNK d   1       2.543   1.178  -7.611  0.00  0.00     0.048 H 
ATOM     19  H   UNK d   1       4.261   1.314  -7.200  0.00  0.00     0.048 H 
ATOM     20  H   UNK d   1       2.331  -0.910  -6.616  0.00  0.00     0.048 H 
ATOM     21  H   UNK d   1       3.464  -0.079  -5.528  0.00  0.00     0.048 H 
ATOM     22  H   UNK d   1       3.710  -2.909  -8.195  0.00  0.00     0.049 H 
ATOM     23  H   UNK d   1       5.454  -2.611  -8.128  0.00  0.00     0.049 H 
ENDROOT
BRANCH  16  24
ATOM     24  C   UNK d   1       4.877  -1.415  -4.380  0.00  0.00     0.040 A 
ATOM     25  C   UNK d   1       5.341  -0.145  -4.034  0.00  0.00    -0.014 A 
ATOM     26  C   UNK d   1       5.122   0.342  -2.759  0.00  0.00     0.124 A 
ATOM     27  H   UNK d   1       5.865   0.457  -4.761  0.00  0.00     0.065 H 
ATOM     28  C   UNK d   1       4.454  -0.434  -1.825  0.00  0.00    -0.026 A 
ATOM     29  F   UNK d   1       5.564   1.572  -2.422  0.00  0.00    -0.205 F 
ATOM     30  C   UNK d   1       3.998  -1.696  -2.162  0.00  0.00    -0.058 A 
ATOM     31  H   UNK d   1       4.289  -0.052  -0.828  0.00  0.00     0.065 H 
ATOM     32  C   UNK d   1       4.205  -2.190  -3.434  0.00  0.00    -0.050 A 
ATOM     33  H   UNK d   1       3.479  -2.295  -1.429  0.00  0.00     0.062 H 
ATOM     34  H   UNK d   1       3.849  -3.176  -3.695  0.00  0.00     0.062 H 
ENDBRANCH  16  24
BRANCH   1  35
ATOM     35  CB  ALA d   2       3.304  -0.373 -11.908  0.00  0.00    -0.038 C 
ATOM     36  HB1 ALA d   2       2.795  -0.952 -11.138  0.00  0.00     0.025 H 
ATOM     37  HB2 ALA d   2       2.571   0.196 -12.478  0.00  0.00     0.025 H 
ATOM     38  HB3 ALA d   2       3.838  -1.048 -12.576  0.00  0.00     0.025 H 
ENDBRANCH   1  35
TORSDOF 2
ENDMDL
MODEL 5
REMARK VINA RESULT:      -6.0      5.026      6.648
REMARK  2 active torsions:
REMARK  status: ('A' for Active; 'I' for Inactive)
REMARK    1  A    between atoms: CB_1  and  CA_2 
REMARK       I    between atoms: N_9  and  C_16 
REMARK    2  A    between atoms: C_16  and  C_18 
ROOT
ATOM      1  CA  ALA d   2      11.873   1.494  -4.350  0.00  0.00     0.097 C 
ATOM      2  HA  ALA d   2      12.665   1.830  -3.679  0.00  0.00     0.059 H 
ATOM      3  C   ALA d   2      10.526   1.909  -3.795  0.00  0.00     0.236 C 
ATOM      4  O   ALA d   2      10.428   2.767  -2.944  0.00  0.00    -0.274 OA
ATOM      5  N   ALA d   2      11.907   0.024  -4.458  0.00  0.00    -0.303 N 
ATOM      6  H   ALA d   2      12.672  -0.489  -4.154  0.00  0.00     0.149 HD
ATOM      7  N   UNK d   1       9.425   1.264  -4.298  0.00  0.00    -0.285 N 
ATOM      8  C   UNK d   1       8.142   1.514  -3.672  0.00  0.00     0.031 C 
ATOM      9  C   UNK d   1       6.966   0.996  -4.478  0.00  0.00     0.031 C 
ATOM     10  N   UNK d   1       7.299  -0.268  -5.123  0.00  0.00    -0.294 N 
ATOM     11  C   UNK d   1       8.492  -0.398  -5.943  0.00  0.00     0.042 C 
ATOM     12  C   UNK d   1       9.675   0.336  -5.385  0.00  0.00     0.118 C 
ATOM     13  H   UNK d   1      10.058   0.951  -6.200  0.00  0.00     0.061 H 
ATOM     14  C   UNK d   1      10.812  -0.580  -5.003  0.00  0.00     0.236 C 
ATOM     15  O   UNK d   1      10.756  -1.780  -5.170  0.00  0.00    -0.274 OA
ATOM     16  C   UNK d   1       6.489  -1.332  -4.956  0.00  0.00     0.247 C 
ATOM     17  O   UNK d   1       6.807  -2.416  -5.407  0.00  0.00    -0.270 OA
ATOM     18  H   UNK d   1       8.025   2.589  -3.534  0.00  0.00     0.048 H 
ATOM     19  H   UNK d   1       8.133   1.033  -2.694  0.00  0.00     0.048 H 
ATOM     20  H   UNK d   1       6.702   1.729  -5.240  0.00  0.00     0.048 H 
ATOM     21  H   UNK d   1       6.114   0.847  -3.813  0.00  0.00     0.048 H 
ATOM     22  H   UNK d   1       8.277  -0.010  -6.939  0.00  0.00     0.049 H 
ATOM     23  H   UNK d   1       8.744  -1.455  -6.030  0.00  0.00     0.049 H 
ENDROOT
BRANCH  16  24
ATOM     24  C   UNK d   1       5.213  -1.183  -4.222  0.00  0.00     0.040 A 
ATOM     25  C   UNK d   1       4.142  -0.509  -4.810  0.00  0.00    -0.014 A 
ATOM     26  C   UNK d   1       2.951  -0.378  -4.120  0.00  0.00     0.124 A 
ATOM     27  H   UNK d   1       4.241  -0.095  -5.803  0.00  0.00     0.065 H 
ATOM     28  C   UNK d   1       2.826  -0.904  -2.844  0.00  0.00    -0.026 A 
ATOM     29  F   UNK d   1       1.911   0.268  -4.689  0.00  0.00    -0.205 F 
ATOM     30  C   UNK d   1       3.888  -1.567  -2.255  0.00  0.00    -0.058 A 
ATOM     31  H   UNK d   1       1.896  -0.796  -2.307  0.00  0.00     0.065 H 
ATOM     32  C   UNK d   1       5.079  -1.710  -2.936  0.00  0.00    -0.050 A 
ATOM     33  H   UNK d   1       3.784  -1.974  -1.261  0.00  0.00     0.062 H 
ATOM     34  H   UNK d   1       5.908  -2.227  -2.474  0.00  0.00     0.062 H 
ENDBRANCH  16  24
BRANCH   1  35
ATOM     35  CB  ALA d   2      12.073   2.116  -5.733  0.00  0.00    -0.038 C 
ATOM     36  HB1 ALA d   2      13.122   2.042  -6.016  0.00  0.00     0.025 H 
ATOM     37  HB2 ALA d   2      11.462   1.584  -6.463  0.00  0.00     0.025 H 
ATOM     38  HB3 ALA d   2      11.776   3.164  -5.707  0.00  0.00     0.025 H 
ENDBRANCH   1  35
TORSDOF 2
ENDMDL
MODEL 6
REMARK VINA RESULT:      -5.9      4.058      4.976
REMARK  2 active torsions:
REMARK  status: ('A' for Active; 'I' for Inactive)
REMARK    1  A    between atoms: CB_1  and  CA_2 
REMARK       I    between atoms: N_9  and  C_16 
REMARK    2  A    between atoms: C_16  and  C_18 
ROOT
ATOM      1  CA  ALA d   2       8.815   2.288  -9.435  0.00  0.00     0.097 C 
ATOM      2  HA  ALA d   2       8.626   2.866 -10.340  0.00  0.00     0.059 H 
ATOM      3  C   ALA d   2       7.553   1.558  -9.026  0.00  0.00     0.236 C 
ATOM      4  O   ALA d   2       6.634   1.397  -9.801  0.00  0.00    -0.274 OA
ATOM      5  N   ALA d   2       9.211   3.195  -8.342  0.00  0.00    -0.303 N 
ATOM      6  H   ALA d   2       9.476   4.112  -8.515  0.00  0.00     0.149 HD
ATOM      7  N   UNK d   1       7.498   1.092  -7.737  0.00  0.00    -0.285 N 
ATOM      8  C   UNK d   1       6.244   0.541  -7.263  0.00  0.00     0.031 C 
ATOM      9  C   UNK d   1       6.372  -0.207  -5.949  0.00  0.00     0.031 C 
ATOM     10  N   UNK d   1       7.329   0.454  -5.070  0.00  0.00    -0.294 N 
ATOM     11  C   UNK d   1       8.670   0.777  -5.531  0.00  0.00     0.042 C 
ATOM     12  C   UNK d   1       8.706   1.260  -6.951  0.00  0.00     0.118 C 
ATOM     13  H   UNK d   1       9.458   0.653  -7.454  0.00  0.00     0.061 H 
ATOM     14  C   UNK d   1       9.186   2.685  -7.077  0.00  0.00     0.236 C 
ATOM     15  O   UNK d   1       9.529   3.337  -6.114  0.00  0.00    -0.274 OA
ATOM     16  C   UNK d   1       6.965   0.771  -3.812  0.00  0.00     0.247 C 
ATOM     17  O   UNK d   1       7.719   1.409  -3.103  0.00  0.00    -0.270 OA
ATOM     18  H   UNK d   1       5.857  -0.144  -8.018  0.00  0.00     0.048 H 
ATOM     19  H   UNK d   1       5.534   1.356  -7.132  0.00  0.00     0.048 H 
ATOM     20  H   UNK d   1       6.709  -1.225  -6.147  0.00  0.00     0.048 H 
ATOM     21  H   UNK d   1       5.398  -0.241  -5.460  0.00  0.00     0.048 H 
ATOM     22  H   UNK d   1       9.293  -0.115  -5.448  0.00  0.00     0.049 H 
ATOM     23  H   UNK d   1       9.085   1.551  -4.887  0.00  0.00     0.049 H 
ENDROOT
BRANCH  16  24
ATOM     24  C   UNK d   1       5.647   0.345  -3.293  0.00  0.00     0.040 A 
ATOM     25  C   UNK d   1       5.395  -1.005  -3.047  0.00  0.00    -0.014 A 
ATOM     26  C   UNK d   1       4.163  -1.396  -2.557  0.00  0.00     0.124 A 
ATOM     27  H   UNK d   1       6.162  -1.743  -3.234  0.00  0.00     0.065 H 
ATOM     28  C   UNK d   1       3.178  -0.450  -2.323  0.00  0.00    -0.026 A 
ATOM     29  F   UNK d   1       3.918  -2.701  -2.312  0.00  0.00    -0.205 F 
ATOM     30  C   UNK d   1       3.421   0.889  -2.572  0.00  0.00    -0.058 A 
ATOM     31  H   UNK d   1       2.214  -0.760  -1.945  0.00  0.00     0.065 H 
ATOM     32  C   UNK d   1       4.649   1.291  -3.055  0.00  0.00    -0.050 A 
ATOM     33  H   UNK d   1       2.648   1.620  -2.388  0.00  0.00     0.062 H 
ATOM     34  H   UNK d   1       4.837   2.337  -3.250  0.00  0.00     0.062 H 
ENDBRANCH  16  24
BRANCH   1  35
ATOM     35  CB  ALA d   2       9.933   1.277  -9.695  0.00  0.00    -0.038 C 
ATOM     36  HB1 ALA d   2      10.547   1.177  -8.801  0.00  0.00     0.025 H 
ATOM     37  HB2 ALA d   2       9.498   0.310  -9.947  0.00  0.00     0.025 H 
ATOM     38  HB3 ALA d   2      10.551   1.624 -10.523  0.00  0.00     0.025 H 
ENDBRANCH   1  35
TORSDOF 2
ENDMDL
MODEL 7
REMARK VINA RESULT:      -5.8      4.221      6.824
REMARK  2 active torsions:
REMARK  status: ('A' for Active; 'I' for Inactive)
REMARK    1  A    between atoms: CB_1  and  CA_2 
REMARK       I    between atoms: N_9  and  C_16 
REMARK    2  A    between atoms: C_16  and  C_18 
ROOT
ATOM      1  CA  ALA d   2       3.392  -0.396  -2.776  0.00  0.00     0.097 C 
ATOM      2  HA  ALA d   2       2.621   0.052  -2.147  0.00  0.00     0.059 H 
ATOM      3  C   ALA d   2       4.694   0.355  -2.597  0.00  0.00     0.236 C 
ATOM      4  O   ALA d   2       4.880   1.087  -1.648  0.00  0.00    -0.274 OA
ATOM      5  N   ALA d   2       2.988  -0.312  -4.191  0.00  0.00    -0.303 N 
ATOM      6  H   ALA d   2       2.076  -0.101  -4.446  0.00  0.00     0.149 HD
ATOM      7  N   UNK d   1       5.651   0.172  -3.563  0.00  0.00    -0.285 N 
ATOM      8  C   UNK d   1       6.838   1.003  -3.514  0.00  0.00     0.031 C 
ATOM      9  C   UNK d   1       7.948   0.525  -4.430  0.00  0.00     0.031 C 
ATOM     10  N   UNK d   1       7.399   0.001  -5.675  0.00  0.00    -0.294 N 
ATOM     11  C   UNK d   1       6.360  -1.016  -5.666  0.00  0.00     0.042 C 
ATOM     12  C   UNK d   1       5.340  -0.809  -4.585  0.00  0.00     0.118 C 
ATOM     13  H   UNK d   1       5.269  -1.758  -4.055  0.00  0.00     0.061 H 
ATOM     14  C   UNK d   1       3.956  -0.542  -5.124  0.00  0.00     0.236 C 
ATOM     15  O   UNK d   1       3.718  -0.533  -6.313  0.00  0.00    -0.274 OA
ATOM     16  C   UNK d   1       7.861   0.467  -6.853  0.00  0.00     0.247 C 
ATOM     17  O   UNK d   1       7.344   0.110  -7.893  0.00  0.00    -0.270 OA
ATOM     18  H   UNK d   1       7.212   1.017  -2.490  0.00  0.00     0.048 H 
ATOM     19  H   UNK d   1       6.563   2.019  -3.799  0.00  0.00     0.048 H 
ATOM     20  H   UNK d   1       8.514  -0.260  -3.929  0.00  0.00     0.048 H 
ATOM     21  H   UNK d   1       8.613   1.359  -4.655  0.00  0.00     0.048 H 
ATOM     22  H   UNK d   1       6.826  -1.992  -5.524  0.00  0.00     0.049 H 
ATOM     23  H   UNK d   1       5.854  -1.010  -6.631  0.00  0.00     0.049 H 
ENDROOT
BRANCH  16  24
ATOM     24  C   UNK d   1       8.997   1.413  -6.879  0.00  0.00     0.040 A 
ATOM     25  C   UNK d   1       8.762   2.789  -6.897  0.00  0.00    -0.014 A 
ATOM     26  C   UNK d   1       9.829   3.667  -6.915  0.00  0.00     0.124 A 
ATOM     27  H   UNK d   1       7.750   3.166  -6.891  0.00  0.00     0.065 H 
ATOM     28  C   UNK d   1      11.127   3.184  -6.929  0.00  0.00    -0.026 A 
ATOM     29  F   UNK d   1       9.605   4.999  -6.926  0.00  0.00    -0.205 F 
ATOM     30  C   UNK d   1      11.365   1.820  -6.917  0.00  0.00    -0.058 A 
ATOM     31  H   UNK d   1      11.958   3.874  -6.948  0.00  0.00     0.065 H 
ATOM     32  C   UNK d   1      10.308   0.934  -6.892  0.00  0.00    -0.050 A 
ATOM     33  H   UNK d   1      12.379   1.450  -6.928  0.00  0.00     0.062 H 
ATOM     34  H   UNK d   1      10.496  -0.130  -6.885  0.00  0.00     0.062 H 
ENDBRANCH  16  24
BRANCH   1  35
ATOM     35  CB  ALA d   2       3.586  -1.862  -2.383  0.00  0.00    -0.038 C 
ATOM     36  HB1 ALA d   2       4.574  -2.195  -2.700  0.00  0.00     0.025 H 
ATOM     37  HB2 ALA d   2       3.498  -1.965  -1.302  0.00  0.00     0.025 H 
ATOM     38  HB3 ALA d   2       2.825  -2.472  -2.869  0.00  0.00     0.025 H 
ENDBRANCH   1  35
TORSDOF 2
ENDMDL
MODEL 8
REMARK VINA RESULT:      -5.7     10.264     12.061
REMARK  2 active torsions:
REMARK  status: ('A' for Active; 'I' for Inactive)
REMARK    1  A    between atoms: CB_1  and  CA_2 
REMARK       I    between atoms: N_9  and  C_16 
REMARK    2  A    between atoms: C_16  and  C_18 
ROOT
ATOM      1  CA  ALA d   2       8.979  11.711  -3.499  0.00  0.00     0.097 C 
ATOM      2  HA  ALA d   2       8.287  12.328  -4.073  0.00  0.00     0.059 H 
ATOM      3  C   ALA d   2       9.458  10.555  -4.352  0.00  0.00     0.236 C 
ATOM      4  O   ALA d   2       9.339  10.565  -5.559  0.00  0.00    -0.274 OA
ATOM      5  N   ALA d   2       8.293  11.170  -2.312  0.00  0.00    -0.303 N 
ATOM      6  H   ALA d   2       7.442  11.526  -2.012  0.00  0.00     0.149 HD
ATOM      7  N   UNK d   1      10.026   9.494  -3.693  0.00  0.00    -0.285 N 
ATOM      8  C   UNK d   1      10.339   8.303  -4.458  0.00  0.00     0.031 C 
ATOM      9  C   UNK d   1      11.223   7.322  -3.713  0.00  0.00     0.031 C 
ATOM     10  N   UNK d   1      10.875   7.285  -2.299  0.00  0.00    -0.294 N 
ATOM     11  C   UNK d   1      10.804   8.506  -1.512  0.00  0.00     0.042 C 
ATOM     12  C   UNK d   1      10.202   9.657  -2.263  0.00  0.00     0.118 C 
ATOM     13  H   UNK d   1      10.904  10.484  -2.155  0.00  0.00     0.061 H 
ATOM     14  C   UNK d   1       8.909  10.144  -1.656  0.00  0.00     0.236 C 
ATOM     15  O   UNK d   1       8.445   9.654  -0.648  0.00  0.00    -0.274 OA
ATOM     16  C   UNK d   1      10.613   6.101  -1.710  0.00  0.00     0.247 C 
ATOM     17  O   UNK d   1      10.227   6.066  -0.558  0.00  0.00    -0.270 OA
ATOM     18  H   UNK d   1      10.845   8.602  -5.377  0.00  0.00     0.048 H 
ATOM     19  H   UNK d   1       9.406   7.804  -4.720  0.00  0.00     0.048 H 
ATOM     20  H   UNK d   1      12.265   7.625  -3.819  0.00  0.00     0.048 H 
ATOM     21  H   UNK d   1      11.095   6.327  -4.141  0.00  0.00     0.048 H 
ATOM     22  H   UNK d   1      11.813   8.780  -1.201  0.00  0.00     0.049 H 
ATOM     23  H   UNK d   1      10.206   8.316  -0.622  0.00  0.00     0.049 H 
ENDROOT
BRANCH  16  24
ATOM     24  C   UNK d   1      10.795   4.843  -2.466  0.00  0.00     0.040 A 
ATOM     25  C   UNK d   1       9.684   4.150  -2.949  0.00  0.00    -0.014 A 
ATOM     26  C   UNK d   1       9.861   2.978  -3.660  0.00  0.00     0.124 A 
ATOM     27  H   UNK d   1       8.689   4.531  -2.773  0.00  0.00     0.065 H 
ATOM     28  C   UNK d   1      11.138   2.486  -3.881  0.00  0.00    -0.026 A 
ATOM     29  F   UNK d   1       8.789   2.308  -4.135  0.00  0.00    -0.205 F 
ATOM     30  C   UNK d   1      12.242   3.167  -3.398  0.00  0.00    -0.058 A 
ATOM     31  H   UNK d   1      11.272   1.568  -4.433  0.00  0.00     0.065 H 
ATOM     32  C   UNK d   1      12.077   4.341  -2.693  0.00  0.00    -0.050 A 
ATOM     33  H   UNK d   1      13.233   2.778  -3.574  0.00  0.00     0.062 H 
ATOM     34  H   UNK d   1      12.940   4.870  -2.316  0.00  0.00     0.062 H 
ENDBRANCH  16  24
BRANCH   1  35
ATOM     35  CB  ALA d   2      10.177  12.555  -3.059  0.00  0.00    -0.038 C 
ATOM     36  HB1 ALA d   2       9.890  13.606  -3.029  0.00  0.00     0.025 H 
ATOM     37  HB2 ALA d   2      10.502  12.239  -2.068  0.00  0.00     0.025 H 
ATOM     38  HB3 ALA d   2      10.995  12.423  -3.768  0.00  0.00     0.025 H 
ENDBRANCH   1  35
TORSDOF 2
ENDMDL
MODEL 9
REMARK VINA RESULT:      -5.7      4.587      5.849
REMARK  2 active torsions:
REMARK  status: ('A' for Active; 'I' for Inactive)
REMARK    1  A    between atoms: CB_1  and  CA_2 
REMARK       I    between atoms: N_9  and  C_16 
REMARK    2  A    between atoms: C_16  and  C_18 
ROOT
ATOM      1  CA  ALA d   2      11.237   1.219  -7.393  0.00  0.00     0.097 C 
ATOM      2  HA  ALA d   2      11.819   2.132  -7.524  0.00  0.00     0.059 H 
ATOM      3  C   ALA d   2       9.799   1.574  -7.079  0.00  0.00     0.236 C 
ATOM      4  O   ALA d   2       9.355   2.680  -7.301  0.00  0.00    -0.274 OA
ATOM      5  N   ALA d   2      11.787   0.439  -6.271  0.00  0.00    -0.303 N 
ATOM      6  H   ALA d   2      12.663   0.631  -5.900  0.00  0.00     0.149 HD
ATOM      7  N   UNK d   1       9.024   0.584  -6.529  0.00  0.00    -0.285 N 
ATOM      8  C   UNK d   1       7.698   0.936  -6.061  0.00  0.00     0.031 C 
ATOM      9  C   UNK d   1       6.828  -0.268  -5.752  0.00  0.00     0.031 C 
ATOM     10  N   UNK d   1       7.620  -1.337  -5.156  0.00  0.00    -0.294 N 
ATOM     11  C   UNK d   1       8.833  -1.818  -5.799  0.00  0.00     0.042 C 
ATOM     12  C   UNK d   1       9.649  -0.720  -6.415  0.00  0.00     0.118 C 
ATOM     13  H   UNK d   1       9.843  -1.032  -7.442  0.00  0.00     0.061 H 
ATOM     14  C   UNK d   1      11.007  -0.566  -5.776  0.00  0.00     0.236 C 
ATOM     15  O   UNK d   1      11.383  -1.290  -4.879  0.00  0.00    -0.274 OA
ATOM     16  C   UNK d   1       7.222  -1.889  -3.993  0.00  0.00     0.247 C 
ATOM     17  O   UNK d   1       7.925  -2.712  -3.438  0.00  0.00    -0.270 OA
ATOM     18  H   UNK d   1       7.206   1.535  -6.826  0.00  0.00     0.048 H 
ATOM     19  H   UNK d   1       7.797   1.536  -5.156  0.00  0.00     0.048 H 
ATOM     20  H   UNK d   1       6.373  -0.629  -6.674  0.00  0.00     0.048 H 
ATOM     21  H   UNK d   1       6.042   0.027  -5.056  0.00  0.00     0.048 H 
ATOM     22  H   UNK d   1       8.557  -2.529  -6.579  0.00  0.00     0.049 H 
ATOM     23  H   UNK d   1       9.441  -2.334  -5.057  0.00  0.00     0.049 H 
ENDROOT
BRANCH  16  24
ATOM     24  C   UNK d   1       5.932  -1.492  -3.389  0.00  0.00     0.040 A 
ATOM     25  C   UNK d   1       5.839  -0.314  -2.647  0.00  0.00    -0.014 A 
ATOM     26  C   UNK d   1       4.628   0.053  -2.091  0.00  0.00     0.124 A 
ATOM     27  H   UNK d   1       6.709   0.312  -2.513  0.00  0.00     0.065 H 
ATOM     28  C   UNK d   1       3.514  -0.753  -2.259  0.00  0.00    -0.026 A 
ATOM     29  F   UNK d   1       4.533   1.196  -1.378  0.00  0.00    -0.205 F 
ATOM     30  C   UNK d   1       3.603  -1.926  -2.988  0.00  0.00    -0.058 A 
ATOM     31  H   UNK d   1       2.570  -0.465  -1.818  0.00  0.00     0.065 H 
ATOM     32  C   UNK d   1       4.805  -2.299  -3.553  0.00  0.00    -0.050 A 
ATOM     33  H   UNK d   1       2.731  -2.549  -3.114  0.00  0.00     0.062 H 
ATOM     34  H   UNK d   1       4.873  -3.216  -4.121  0.00  0.00     0.062 H 
ENDBRANCH  16  24
BRANCH   1  35
ATOM     35  CB  ALA d   2      11.293   0.386  -8.675  0.00  0.00    -0.038 C 
ATOM     36  HB1 ALA d   2      11.212  -0.671  -8.425  0.00  0.00     0.025 H 
ATOM     37  HB2 ALA d   2      10.469   0.669  -9.330  0.00  0.00     0.025 H 
ATOM     38  HB3 ALA d   2      12.240   0.567  -9.184  0.00  0.00     0.025 H 
ENDBRANCH   1  35
TORSDOF 2
ENDMDL
MODEL 10
REMARK VINA RESULT:      -5.7      4.423      5.645
REMARK  2 active torsions:
REMARK  status: ('A' for Active; 'I' for Inactive)
REMARK    1  A    between atoms: CB_1  and  CA_2 
REMARK       I    between atoms: N_9  and  C_16 
REMARK    2  A    between atoms: C_16  and  C_18 
ROOT
ATOM      1  CA  ALA d   2       9.978  -4.806  -6.440  0.00  0.00     0.097 C 
ATOM      2  HA  ALA d   2       9.963  -5.807  -6.873  0.00  0.00     0.059 H 
ATOM      3  C   ALA d   2       8.917  -4.702  -5.365  0.00  0.00     0.236 C 
ATOM      4  O   ALA d   2       8.415  -5.688  -4.870  0.00  0.00    -0.274 OA
ATOM      5  N   ALA d   2       9.689  -3.810  -7.487  0.00  0.00    -0.303 N 
ATOM      6  H   ALA d   2       9.725  -4.039  -8.429  0.00  0.00     0.149 HD
ATOM      7  N   UNK d   1       8.549  -3.437  -4.981  0.00  0.00    -0.285 N 
ATOM      8  C   UNK d   1       7.421  -3.298  -4.081  0.00  0.00     0.031 C 
ATOM      9  C   UNK d   1       7.287  -1.907  -3.491  0.00  0.00     0.031 C 
ATOM     10  N   UNK d   1       7.643  -0.893  -4.476  0.00  0.00    -0.294 N 
ATOM     11  C   UNK d   1       8.909  -0.954  -5.190  0.00  0.00     0.042 C 
ATOM     12  C   UNK d   1       9.302  -2.349  -5.576  0.00  0.00     0.118 C 
ATOM     13  H   UNK d   1      10.323  -2.482  -5.218  0.00  0.00     0.061 H 
ATOM     14  C   UNK d   1       9.369  -2.551  -7.070  0.00  0.00     0.236 C 
ATOM     15  O   UNK d   1       9.151  -1.650  -7.852  0.00  0.00    -0.274 OA
ATOM     16  C   UNK d   1       6.787   0.117  -4.730  0.00  0.00     0.247 C 
ATOM     17  O   UNK d   1       7.029   0.911  -5.618  0.00  0.00    -0.270 OA
ATOM     18  H   UNK d   1       7.535  -4.013  -3.266  0.00  0.00     0.048 H 
ATOM     19  H   UNK d   1       6.508  -3.534  -4.628  0.00  0.00     0.048 H 
ATOM     20  H   UNK d   1       7.947  -1.817  -2.629  0.00  0.00     0.048 H 
ATOM     21  H   UNK d   1       6.256  -1.750  -3.172  0.00  0.00     0.048 H 
ATOM     22  H   UNK d   1       9.689  -0.533  -4.554  0.00  0.00     0.049 H 
ATOM     23  H   UNK d   1       8.832  -0.349  -6.092  0.00  0.00     0.049 H 
ENDROOT
BRANCH  16  24
ATOM     24  C   UNK d   1       5.551   0.256  -3.930  0.00  0.00     0.040 A 
ATOM     25  C   UNK d   1       4.321  -0.123  -4.469  0.00  0.00    -0.014 A 
ATOM     26  C   UNK d   1       3.171   0.005  -3.714  0.00  0.00     0.124 A 
ATOM     27  H   UNK d   1       4.268  -0.521  -5.472  0.00  0.00     0.065 H 
ATOM     28  C   UNK d   1       3.237   0.520  -2.429  0.00  0.00    -0.026 A 
ATOM     29  F   UNK d   1       1.980  -0.367  -4.230  0.00  0.00    -0.205 F 
ATOM     30  C   UNK d   1       4.454   0.904  -1.893  0.00  0.00    -0.058 A 
ATOM     31  H   UNK d   1       2.336   0.624  -1.843  0.00  0.00     0.065 H 
ATOM     32  C   UNK d   1       5.610   0.775  -2.635  0.00  0.00    -0.050 A 
ATOM     33  H   UNK d   1       4.499   1.305  -0.891  0.00  0.00     0.062 H 
ATOM     34  H   UNK d   1       6.558   1.075  -2.215  0.00  0.00     0.062 H 
ENDBRANCH  16  24
BRANCH   1  35
ATOM     35  CB  ALA d   2      11.355  -4.530  -5.833  0.00  0.00    -0.038 C 
ATOM     36  HB1 ALA d   2      11.251  -3.839  -4.997  0.00  0.00     0.025 H 
ATOM     37  HB2 ALA d   2      11.791  -5.464  -5.480  0.00  0.00     0.025 H 
ATOM     38  HB3 ALA d   2      12.004  -4.090  -6.590  0.00  0.00     0.025 H 
ENDBRANCH   1  35
TORSDOF 2
ENDMDL
