MODEL 1
REMARK VINA RESULT:      -8.0      0.000      0.000
REMARK  7 active torsions:
REMARK  status: ('A' for Active; 'I' for Inactive)
REMARK    1  A    between atoms: C_4  and  C_7 
REMARK    2  A    between atoms: C_7  and  O_8 
REMARK    3  A    between atoms: O_8  and  C_9 
REMARK    4  A    between atoms: C_9  and  C_11 
REMARK    5  A    between atoms: C_11  and  O_12 
REMARK    6  A    between atoms: O_12  and  C_13 
REMARK    7  A    between atoms: C_15  and  O_28 
ROOT
ATOM      1  C   LIG d   1       9.890   5.266  -2.982  0.00  0.00     0.128 A 
ATOM      2  C   LIG d   1      10.585   4.641  -1.952  0.00  0.00     0.022 A 
ATOM      3  C   LIG d   1      10.939   5.356  -0.823  0.00  0.00     0.135 A 
ATOM      4  C   LIG d   1      10.596   6.712  -0.728  0.00  0.00     0.106 A 
ATOM      5  C   LIG d   1       9.884   7.342  -1.765  0.00  0.00     0.146 A 
ATOM      6  C   LIG d   1       9.546   6.607  -2.892  0.00  0.00     0.023 A 
ATOM      7  O   LIG d   1       9.529   8.640  -1.676  0.00  0.00    -0.454 OA
ATOM      8  C   LIG d   1      10.094   9.473  -0.779  0.00  0.00     0.139 A 
ATOM      9  C   LIG d   1       9.958  10.850  -0.927  0.00  0.00    -0.019 A 
ATOM     10  C   LIG d   1      10.530  11.704  -0.009  0.00  0.00    -0.058 A 
ATOM     11  C   LIG d   1      11.245  11.208   1.072  0.00  0.00    -0.061 A 
ATOM     12  C   LIG d   1      11.393   9.848   1.237  0.00  0.00    -0.047 A 
ATOM     13  C   LIG d   1      10.822   8.977   0.313  0.00  0.00     0.065 A 
ATOM     14  C   LIG d   1      10.975   7.511   0.450  0.00  0.00     0.204 C 
ATOM     15  O   LIG d   1      11.387   6.997   1.474  0.00  0.00    -0.286 OA
ATOM     16  H   LIG d   1      10.847   3.597  -2.033  0.00  0.00     0.069 H 
ATOM     17  H   LIG d   1       9.009   7.080  -3.702  0.00  0.00     0.069 H 
ATOM     18  H   LIG d   1       9.405  11.250  -1.764  0.00  0.00     0.065 H 
ATOM     19  H   LIG d   1      10.420  12.771  -0.132  0.00  0.00     0.062 H 
ATOM     20  H   LIG d   1      11.685  11.890   1.784  0.00  0.00     0.062 H 
ATOM     21  H   LIG d   1      11.950   9.460   2.079  0.00  0.00     0.063 H 
ENDROOT
BRANCH   1  22
ATOM     22  O   LIG d   1       9.550   4.559  -4.088  0.00  0.00    -0.481 OA
BRANCH  22  23
ATOM     23  C   LIG d   1       9.485   3.137  -3.955  0.00  0.00     0.186 C 
ATOM     24  H   LIG d   1       9.188   2.881  -2.938  0.00  0.00     0.082 H 
ATOM     25  H   LIG d   1      10.464   2.708  -4.166  0.00  0.00     0.082 H 
BRANCH  23  26
ATOM     26  C   LIG d   1       8.474   2.587  -4.928  0.00  0.00     0.345 C 
ATOM     27  O   LIG d   1       8.647   2.716  -6.116  0.00  0.00    -0.247 OA
BRANCH  26  28
ATOM     28  O   LIG d   1       7.380   1.956  -4.473  0.00  0.00    -0.458 OA
BRANCH  28  29
ATOM     29  C   LIG d   1       7.553   0.616  -4.005  0.00  0.00     0.118 C 
ATOM     30  H   LIG d   1       8.410   0.574  -3.332  0.00  0.00     0.075 H 
ATOM     31  H   LIG d   1       7.724  -0.045  -4.854  0.00  0.00     0.075 H 
BRANCH  29  32
ATOM     32  C   LIG d   1       6.313   0.178  -3.268  0.00  0.00    -0.010 A 
ATOM     33  C   LIG d   1       5.484   1.120  -2.690  0.00  0.00    -0.055 A 
ATOM     34  C   LIG d   1       4.346   0.719  -2.015  0.00  0.00    -0.061 A 
ATOM     35  H   LIG d   1       5.725   2.170  -2.765  0.00  0.00     0.062 H 
ATOM     36  C   LIG d   1       4.038  -0.626  -1.919  0.00  0.00    -0.062 A 
ATOM     37  H   LIG d   1       3.699   1.454  -1.563  0.00  0.00     0.062 H 
ATOM     38  C   LIG d   1       4.867  -1.568  -2.499  0.00  0.00    -0.061 A 
ATOM     39  H   LIG d   1       3.152  -0.940  -1.389  0.00  0.00     0.062 H 
ATOM     40  C   LIG d   1       6.005  -1.167  -3.172  0.00  0.00    -0.055 A 
ATOM     41  H   LIG d   1       4.626  -2.618  -2.424  0.00  0.00     0.062 H 
ATOM     42  H   LIG d   1       6.653  -1.903  -3.625  0.00  0.00     0.062 H 
ENDBRANCH  29  32
ENDBRANCH  28  29
ENDBRANCH  26  28
ENDBRANCH  23  26
ENDBRANCH  22  23
ENDBRANCH   1  22
BRANCH   3  43
ATOM     43  O   LIG d   1      11.614   4.750   0.187  0.00  0.00    -0.506 OA
ATOM     44  H   LIG d   1      11.045   4.308   0.831  0.00  0.00     0.292 HD
ENDBRANCH   3  43
TORSDOF 7
ENDMDL
MODEL 2
REMARK VINA RESULT:      -7.9      7.447     10.696
REMARK  7 active torsions:
REMARK  status: ('A' for Active; 'I' for Inactive)
REMARK    1  A    between atoms: C_4  and  C_7 
REMARK    2  A    between atoms: C_7  and  O_8 
REMARK    3  A    between atoms: O_8  and  C_9 
REMARK    4  A    between atoms: C_9  and  C_11 
REMARK    5  A    between atoms: C_11  and  O_12 
REMARK    6  A    between atoms: O_12  and  C_13 
REMARK    7  A    between atoms: C_15  and  O_28 
ROOT
ATOM      1  C   LIG d   1       4.907  -2.524  -8.699  0.00  0.00     0.128 A 
ATOM      2  C   LIG d   1       5.689  -1.407  -8.972  0.00  0.00     0.022 A 
ATOM      3  C   LIG d   1       6.107  -0.587  -7.940  0.00  0.00     0.135 A 
ATOM      4  C   LIG d   1       5.733  -0.888  -6.623  0.00  0.00     0.106 A 
ATOM      5  C   LIG d   1       4.951  -2.024  -6.346  0.00  0.00     0.146 A 
ATOM      6  C   LIG d   1       4.536  -2.829  -7.398  0.00  0.00     0.023 A 
ATOM      7  O   LIG d   1       4.603  -2.336  -5.081  0.00  0.00    -0.454 OA
ATOM      8  C   LIG d   1       4.695  -1.444  -4.076  0.00  0.00     0.139 A 
ATOM      9  C   LIG d   1       4.031  -1.677  -2.875  0.00  0.00    -0.019 A 
ATOM     10  C   LIG d   1       4.127  -0.768  -1.844  0.00  0.00    -0.058 A 
ATOM     11  C   LIG d   1       4.884   0.386  -1.984  0.00  0.00    -0.061 A 
ATOM     12  C   LIG d   1       5.549   0.639  -3.164  0.00  0.00    -0.047 A 
ATOM     13  C   LIG d   1       5.455  -0.272  -4.214  0.00  0.00     0.065 A 
ATOM     14  C   LIG d   1       6.142  -0.026  -5.502  0.00  0.00     0.204 C 
ATOM     15  O   LIG d   1       6.994   0.835  -5.626  0.00  0.00    -0.286 OA
ATOM     16  H   LIG d   1       5.972  -1.181  -9.989  0.00  0.00     0.069 H 
ATOM     17  H   LIG d   1       3.925  -3.698  -7.202  0.00  0.00     0.069 H 
ATOM     18  H   LIG d   1       3.438  -2.571  -2.753  0.00  0.00     0.065 H 
ATOM     19  H   LIG d   1       3.608  -0.957  -0.916  0.00  0.00     0.062 H 
ATOM     20  H   LIG d   1       4.951   1.088  -1.165  0.00  0.00     0.062 H 
ATOM     21  H   LIG d   1       6.139   1.537  -3.274  0.00  0.00     0.063 H 
ENDROOT
BRANCH   1  22
ATOM     22  O   LIG d   1       4.497  -3.322  -9.717  0.00  0.00    -0.481 OA
BRANCH  22  23
ATOM     23  C   LIG d   1       3.360  -4.152  -9.474  0.00  0.00     0.186 C 
ATOM     24  H   LIG d   1       3.151  -4.178  -8.404  0.00  0.00     0.082 H 
ATOM     25  H   LIG d   1       3.565  -5.163  -9.827  0.00  0.00     0.082 H 
BRANCH  23  26
ATOM     26  C   LIG d   1       2.166  -3.596 -10.206  0.00  0.00     0.345 C 
ATOM     27  O   LIG d   1       1.175  -4.272 -10.346  0.00  0.00    -0.247 OA
BRANCH  26  28
ATOM     28  O   LIG d   1       2.205  -2.350 -10.703  0.00  0.00    -0.458 OA
BRANCH  28  29
ATOM     29  C   LIG d   1       1.503  -1.339  -9.975  0.00  0.00     0.118 C 
ATOM     30  H   LIG d   1       1.235  -1.722  -8.990  0.00  0.00     0.075 H 
ATOM     31  H   LIG d   1       0.599  -1.063 -10.517  0.00  0.00     0.075 H 
BRANCH  29  32
ATOM     32  C   LIG d   1       2.386  -0.128  -9.821  0.00  0.00    -0.010 A 
ATOM     33  C   LIG d   1       3.137   0.322 -10.891  0.00  0.00    -0.055 A 
ATOM     34  C   LIG d   1       3.945   1.434 -10.750  0.00  0.00    -0.061 A 
ATOM     35  H   LIG d   1       3.091  -0.197 -11.837  0.00  0.00     0.062 H 
ATOM     36  C   LIG d   1       4.002   2.097  -9.538  0.00  0.00    -0.062 A 
ATOM     37  H   LIG d   1       4.532   1.784 -11.585  0.00  0.00     0.062 H 
ATOM     38  C   LIG d   1       3.251   1.649  -8.468  0.00  0.00    -0.061 A 
ATOM     39  H   LIG d   1       4.637   2.963  -9.427  0.00  0.00     0.062 H 
ATOM     40  C   LIG d   1       2.443   0.536  -8.609  0.00  0.00    -0.055 A 
ATOM     41  H   LIG d   1       3.295   2.167  -7.522  0.00  0.00     0.062 H 
ATOM     42  H   LIG d   1       1.856   0.185  -7.773  0.00  0.00     0.062 H 
ENDBRANCH  29  32
ENDBRANCH  28  29
ENDBRANCH  26  28
ENDBRANCH  23  26
ENDBRANCH  22  23
ENDBRANCH   1  22
BRANCH   3  43
ATOM     43  O   LIG d   1       6.874   0.502  -8.200  0.00  0.00    -0.506 OA
ATOM     44  H   LIG d   1       7.058   0.639  -9.140  0.00  0.00     0.292 HD
ENDBRANCH   3  43
TORSDOF 7
ENDMDL
MODEL 3
REMARK VINA RESULT:      -7.9      7.913     10.483
REMARK  7 active torsions:
REMARK  status: ('A' for Active; 'I' for Inactive)
REMARK    1  A    between atoms: C_4  and  C_7 
REMARK    2  A    between atoms: C_7  and  O_8 
REMARK    3  A    between atoms: O_8  and  C_9 
REMARK    4  A    between atoms: C_9  and  C_11 
REMARK    5  A    between atoms: C_11  and  O_12 
REMARK    6  A    between atoms: O_12  and  C_13 
REMARK    7  A    between atoms: C_15  and  O_28 
ROOT
ATOM      1  C   LIG d   1       6.277  -1.061  -8.657  0.00  0.00     0.128 A 
ATOM      2  C   LIG d   1       6.099  -2.430  -8.488  0.00  0.00     0.022 A 
ATOM      3  C   LIG d   1       5.582  -2.919  -7.303  0.00  0.00     0.135 A 
ATOM      4  C   LIG d   1       5.244  -2.026  -6.276  0.00  0.00     0.106 A 
ATOM      5  C   LIG d   1       5.415  -0.640  -6.451  0.00  0.00     0.146 A 
ATOM      6  C   LIG d   1       5.943  -0.173  -7.646  0.00  0.00     0.023 A 
ATOM      7  O   LIG d   1       5.073   0.230  -5.479  0.00  0.00    -0.454 OA
ATOM      8  C   LIG d   1       4.866  -0.167  -4.207  0.00  0.00     0.139 A 
ATOM      9  C   LIG d   1       4.845   0.772  -3.180  0.00  0.00    -0.019 A 
ATOM     10  C   LIG d   1       4.629   0.370  -1.880  0.00  0.00    -0.058 A 
ATOM     11  C   LIG d   1       4.429  -0.969  -1.576  0.00  0.00    -0.061 A 
ATOM     12  C   LIG d   1       4.447  -1.916  -2.577  0.00  0.00    -0.047 A 
ATOM     13  C   LIG d   1       4.668  -1.520  -3.894  0.00  0.00     0.065 A 
ATOM     14  C   LIG d   1       4.711  -2.511  -4.992  0.00  0.00     0.204 C 
ATOM     15  O   LIG d   1       4.327  -3.657  -4.844  0.00  0.00    -0.286 OA
ATOM     16  H   LIG d   1       6.363  -3.111  -9.283  0.00  0.00     0.069 H 
ATOM     17  H   LIG d   1       6.090   0.888  -7.790  0.00  0.00     0.069 H 
ATOM     18  H   LIG d   1       5.001   1.817  -3.403  0.00  0.00     0.065 H 
ATOM     19  H   LIG d   1       4.615   1.105  -1.089  0.00  0.00     0.062 H 
ATOM     20  H   LIG d   1       4.258  -1.268  -0.552  0.00  0.00     0.062 H 
ATOM     21  H   LIG d   1       4.291  -2.959  -2.341  0.00  0.00     0.063 H 
ENDROOT
BRANCH   1  22
ATOM     22  O   LIG d   1       6.789  -0.589  -9.821  0.00  0.00    -0.481 OA
BRANCH  22  23
ATOM     23  C   LIG d   1       7.050  -1.546 -10.850  0.00  0.00     0.186 C 
ATOM     24  H   LIG d   1       7.017  -2.551 -10.428  0.00  0.00     0.082 H 
ATOM     25  H   LIG d   1       8.037  -1.364 -11.276  0.00  0.00     0.082 H 
BRANCH  23  26
ATOM     26  C   LIG d   1       6.006  -1.420 -11.930  0.00  0.00     0.345 C 
ATOM     27  O   LIG d   1       5.748  -2.366 -12.634  0.00  0.00    -0.247 OA
BRANCH  26  28
ATOM     28  O   LIG d   1       5.363  -0.255 -12.108  0.00  0.00    -0.458 OA
BRANCH  28  29
ATOM     29  C   LIG d   1       3.942  -0.270 -11.963  0.00  0.00     0.118 C 
ATOM     30  H   LIG d   1       3.591  -1.301 -11.930  0.00  0.00     0.075 H 
ATOM     31  H   LIG d   1       3.485   0.243 -12.809  0.00  0.00     0.075 H 
BRANCH  29  32
ATOM     32  C   LIG d   1       3.560   0.433 -10.685  0.00  0.00    -0.010 A 
ATOM     33  C   LIG d   1       3.964   1.737 -10.466  0.00  0.00    -0.055 A 
ATOM     34  C   LIG d   1       3.613   2.381  -9.295  0.00  0.00    -0.061 A 
ATOM     35  H   LIG d   1       4.553   2.251 -11.211  0.00  0.00     0.062 H 
ATOM     36  C   LIG d   1       2.858   1.722  -8.343  0.00  0.00    -0.062 A 
ATOM     37  H   LIG d   1       3.928   3.399  -9.123  0.00  0.00     0.062 H 
ATOM     38  C   LIG d   1       2.454   0.418  -8.562  0.00  0.00    -0.061 A 
ATOM     39  H   LIG d   1       2.587   2.224  -7.426  0.00  0.00     0.062 H 
ATOM     40  C   LIG d   1       2.805  -0.227  -9.733  0.00  0.00    -0.055 A 
ATOM     41  H   LIG d   1       1.864  -0.097  -7.818  0.00  0.00     0.062 H 
ATOM     42  H   LIG d   1       2.490  -1.245  -9.905  0.00  0.00     0.062 H 
ENDBRANCH  29  32
ENDBRANCH  28  29
ENDBRANCH  26  28
ENDBRANCH  23  26
ENDBRANCH  22  23
ENDBRANCH   1  22
BRANCH   3  43
ATOM     43  O   LIG d   1       5.402  -4.253  -7.133  0.00  0.00    -0.506 OA
ATOM     44  H   LIG d   1       4.608  -4.601  -7.561  0.00  0.00     0.292 HD
ENDBRANCH   3  43
TORSDOF 7
ENDMDL
MODEL 4
REMARK VINA RESULT:      -7.9      7.689     10.248
REMARK  7 active torsions:
REMARK  status: ('A' for Active; 'I' for Inactive)
REMARK    1  A    between atoms: C_4  and  C_7 
REMARK    2  A    between atoms: C_7  and  O_8 
REMARK    3  A    between atoms: O_8  and  C_9 
REMARK    4  A    between atoms: C_9  and  C_11 
REMARK    5  A    between atoms: C_11  and  O_12 
REMARK    6  A    between atoms: O_12  and  C_13 
REMARK    7  A    between atoms: C_15  and  O_28 
ROOT
ATOM      1  C   LIG d   1       6.189  -1.328  -8.970  0.00  0.00     0.128 A 
ATOM      2  C   LIG d   1       6.716  -0.063  -8.730  0.00  0.00     0.022 A 
ATOM      3  C   LIG d   1       6.754   0.436  -7.440  0.00  0.00     0.135 A 
ATOM      4  C   LIG d   1       6.256  -0.340  -6.384  0.00  0.00     0.106 A 
ATOM      5  C   LIG d   1       5.734  -1.624  -6.627  0.00  0.00     0.146 A 
ATOM      6  C   LIG d   1       5.698  -2.101  -7.929  0.00  0.00     0.023 A 
ATOM      7  O   LIG d   1       5.272  -2.388  -5.616  0.00  0.00    -0.454 OA
ATOM      8  C   LIG d   1       4.986  -1.871  -4.405  0.00  0.00     0.139 A 
ATOM      9  C   LIG d   1       4.213  -2.597  -3.504  0.00  0.00    -0.019 A 
ATOM     10  C   LIG d   1       3.922  -2.073  -2.263  0.00  0.00    -0.058 A 
ATOM     11  C   LIG d   1       4.394  -0.821  -1.893  0.00  0.00    -0.061 A 
ATOM     12  C   LIG d   1       5.160  -0.084  -2.770  0.00  0.00    -0.047 A 
ATOM     13  C   LIG d   1       5.456  -0.603  -4.028  0.00  0.00     0.065 A 
ATOM     14  C   LIG d   1       6.262   0.167  -5.002  0.00  0.00     0.204 C 
ATOM     15  O   LIG d   1       6.891   1.158  -4.679  0.00  0.00    -0.286 OA
ATOM     16  H   LIG d   1       7.095   0.529  -9.549  0.00  0.00     0.069 H 
ATOM     17  H   LIG d   1       5.289  -3.080  -8.132  0.00  0.00     0.069 H 
ATOM     18  H   LIG d   1       3.839  -3.572  -3.778  0.00  0.00     0.065 H 
ATOM     19  H   LIG d   1       3.321  -2.643  -1.570  0.00  0.00     0.062 H 
ATOM     20  H   LIG d   1       4.159  -0.425  -0.916  0.00  0.00     0.062 H 
ATOM     21  H   LIG d   1       5.528   0.891  -2.483  0.00  0.00     0.063 H 
ENDROOT
BRANCH   1  22
ATOM     22  O   LIG d   1       6.151  -1.808 -10.238  0.00  0.00    -0.481 OA
BRANCH  22  23
ATOM     23  C   LIG d   1       6.265  -0.855 -11.297  0.00  0.00     0.186 C 
ATOM     24  H   LIG d   1       7.189  -1.034 -11.848  0.00  0.00     0.082 H 
ATOM     25  H   LIG d   1       6.281   0.152 -10.880  0.00  0.00     0.082 H 
BRANCH  23  26
ATOM     26  C   LIG d   1       5.089  -0.996 -12.229  0.00  0.00     0.345 C 
ATOM     27  O   LIG d   1       5.197  -0.680 -13.389  0.00  0.00    -0.247 OA
BRANCH  26  28
ATOM     28  O   LIG d   1       3.921  -1.471 -11.767  0.00  0.00    -0.458 OA
BRANCH  28  29
ATOM     29  C   LIG d   1       2.857  -0.530 -11.606  0.00  0.00     0.118 C 
ATOM     30  H   LIG d   1       1.901  -1.037 -11.739  0.00  0.00     0.075 H 
ATOM     31  H   LIG d   1       2.957   0.261 -12.348  0.00  0.00     0.075 H 
BRANCH  29  32
ATOM     32  C   LIG d   1       2.922   0.068 -10.224  0.00  0.00    -0.010 A 
ATOM     33  C   LIG d   1       2.485  -0.662  -9.134  0.00  0.00    -0.055 A 
ATOM     34  C   LIG d   1       2.545  -0.114  -7.866  0.00  0.00    -0.061 A 
ATOM     35  H   LIG d   1       2.097  -1.660  -9.274  0.00  0.00     0.062 H 
ATOM     36  C   LIG d   1       3.043   1.164  -7.688  0.00  0.00    -0.062 A 
ATOM     37  H   LIG d   1       2.203  -0.683  -7.015  0.00  0.00     0.062 H 
ATOM     38  C   LIG d   1       3.480   1.893  -8.778  0.00  0.00    -0.061 A 
ATOM     39  H   LIG d   1       3.086   1.593  -6.699  0.00  0.00     0.062 H 
ATOM     40  C   LIG d   1       3.419   1.346 -10.046  0.00  0.00    -0.055 A 
ATOM     41  H   LIG d   1       3.869   2.891  -8.639  0.00  0.00     0.062 H 
ATOM     42  H   LIG d   1       3.761   1.915 -10.898  0.00  0.00     0.062 H 
ENDBRANCH  29  32
ENDBRANCH  28  29
ENDBRANCH  26  28
ENDBRANCH  23  26
ENDBRANCH  22  23
ENDBRANCH   1  22
BRANCH   3  43
ATOM     43  O   LIG d   1       7.269   1.668  -7.199  0.00  0.00    -0.506 OA
ATOM     44  H   LIG d   1       6.798   2.386  -7.643  0.00  0.00     0.292 HD
ENDBRANCH   3  43
TORSDOF 7
ENDMDL
MODEL 5
REMARK VINA RESULT:      -7.8      8.301     12.272
REMARK  7 active torsions:
REMARK  status: ('A' for Active; 'I' for Inactive)
REMARK    1  A    between atoms: C_4  and  C_7 
REMARK    2  A    between atoms: C_7  and  O_8 
REMARK    3  A    between atoms: O_8  and  C_9 
REMARK    4  A    between atoms: C_9  and  C_11 
REMARK    5  A    between atoms: C_11  and  O_12 
REMARK    6  A    between atoms: O_12  and  C_13 
REMARK    7  A    between atoms: C_15  and  O_28 
ROOT
ATOM      1  C   LIG d   1       3.953  -2.132  -8.297  0.00  0.00     0.128 A 
ATOM      2  C   LIG d   1       3.201  -3.233  -8.692  0.00  0.00     0.022 A 
ATOM      3  C   LIG d   1       3.466  -4.480  -8.155  0.00  0.00     0.135 A 
ATOM      4  C   LIG d   1       4.497  -4.622  -7.216  0.00  0.00     0.106 A 
ATOM      5  C   LIG d   1       5.250  -3.506  -6.808  0.00  0.00     0.146 A 
ATOM      6  C   LIG d   1       4.972  -2.267  -7.366  0.00  0.00     0.023 A 
ATOM      7  O   LIG d   1       6.229  -3.627  -5.889  0.00  0.00    -0.454 OA
ATOM      8  C   LIG d   1       6.752  -4.825  -5.558  0.00  0.00     0.139 A 
ATOM      9  C   LIG d   1       7.962  -4.890  -4.872  0.00  0.00    -0.019 A 
ATOM     10  C   LIG d   1       8.497  -6.113  -4.529  0.00  0.00    -0.058 A 
ATOM     11  C   LIG d   1       7.842  -7.291  -4.858  0.00  0.00    -0.061 A 
ATOM     12  C   LIG d   1       6.644  -7.250  -5.538  0.00  0.00    -0.047 A 
ATOM     13  C   LIG d   1       6.097  -6.020  -5.893  0.00  0.00     0.065 A 
ATOM     14  C   LIG d   1       4.820  -5.938  -6.638  0.00  0.00     0.204 C 
ATOM     15  O   LIG d   1       4.083  -6.899  -6.765  0.00  0.00    -0.286 OA
ATOM     16  H   LIG d   1       2.411  -3.115  -9.418  0.00  0.00     0.069 H 
ATOM     17  H   LIG d   1       5.549  -1.403  -7.071  0.00  0.00     0.069 H 
ATOM     18  H   LIG d   1       8.482  -3.981  -4.611  0.00  0.00     0.065 H 
ATOM     19  H   LIG d   1       9.436  -6.154  -3.998  0.00  0.00     0.062 H 
ATOM     20  H   LIG d   1       8.273  -8.242  -4.580  0.00  0.00     0.062 H 
ATOM     21  H   LIG d   1       6.133  -8.167  -5.795  0.00  0.00     0.063 H 
ENDROOT
BRANCH   1  22
ATOM     22  O   LIG d   1       3.690  -0.913  -8.832  0.00  0.00    -0.481 OA
BRANCH  22  23
ATOM     23  C   LIG d   1       2.544  -0.219  -8.334  0.00  0.00     0.186 C 
ATOM     24  H   LIG d   1       1.923  -0.909  -7.762  0.00  0.00     0.082 H 
ATOM     25  H   LIG d   1       1.969   0.178  -9.170  0.00  0.00     0.082 H 
BRANCH  23  26
ATOM     26  C   LIG d   1       2.989   0.913  -7.446  0.00  0.00     0.345 C 
ATOM     27  O   LIG d   1       2.926   2.052  -7.842  0.00  0.00    -0.247 OA
BRANCH  26  28
ATOM     28  O   LIG d   1       3.456   0.656  -6.214  0.00  0.00    -0.458 OA
BRANCH  28  29
ATOM     29  C   LIG d   1       2.487   0.451  -5.183  0.00  0.00     0.118 C 
ATOM     30  H   LIG d   1       1.802  -0.343  -5.480  0.00  0.00     0.075 H 
ATOM     31  H   LIG d   1       1.928   1.373  -5.022  0.00  0.00     0.075 H 
BRANCH  29  32
ATOM     32  C   LIG d   1       3.187   0.060  -3.907  0.00  0.00    -0.010 A 
ATOM     33  C   LIG d   1       3.291  -1.273  -3.556  0.00  0.00    -0.055 A 
ATOM     34  C   LIG d   1       3.934  -1.633  -2.387  0.00  0.00    -0.061 A 
ATOM     35  H   LIG d   1       2.870  -2.034  -4.197  0.00  0.00     0.062 H 
ATOM     36  C   LIG d   1       4.474  -0.658  -1.568  0.00  0.00    -0.062 A 
ATOM     37  H   LIG d   1       4.015  -2.673  -2.113  0.00  0.00     0.062 H 
ATOM     38  C   LIG d   1       4.371   0.675  -1.919  0.00  0.00    -0.061 A 
ATOM     39  H   LIG d   1       4.973  -0.938  -0.652  0.00  0.00     0.062 H 
ATOM     40  C   LIG d   1       3.727   1.034  -3.088  0.00  0.00    -0.055 A 
ATOM     41  H   LIG d   1       4.793   1.436  -1.279  0.00  0.00     0.062 H 
ATOM     42  H   LIG d   1       3.646   2.076  -3.362  0.00  0.00     0.062 H 
ENDBRANCH  29  32
ENDBRANCH  28  29
ENDBRANCH  26  28
ENDBRANCH  23  26
ENDBRANCH  22  23
ENDBRANCH   1  22
BRANCH   3  43
ATOM     43  O   LIG d   1       2.734  -5.557  -8.535  0.00  0.00    -0.506 OA
ATOM     44  H   LIG d   1       3.074  -6.008  -9.320  0.00  0.00     0.292 HD
ENDBRANCH   3  43
TORSDOF 7
ENDMDL
MODEL 6
REMARK VINA RESULT:      -7.7      8.025     10.130
REMARK  7 active torsions:
REMARK  status: ('A' for Active; 'I' for Inactive)
REMARK    1  A    between atoms: C_4  and  C_7 
REMARK    2  A    between atoms: C_7  and  O_8 
REMARK    3  A    between atoms: O_8  and  C_9 
REMARK    4  A    between atoms: C_9  and  C_11 
REMARK    5  A    between atoms: C_11  and  O_12 
REMARK    6  A    between atoms: O_12  and  C_13 
REMARK    7  A    between atoms: C_15  and  O_28 
ROOT
ATOM      1  C   LIG d   1       3.352  -0.913  -8.714  0.00  0.00     0.128 A 
ATOM      2  C   LIG d   1       3.962  -2.138  -8.466  0.00  0.00     0.022 A 
ATOM      3  C   LIG d   1       4.277  -2.505  -7.171  0.00  0.00     0.135 A 
ATOM      4  C   LIG d   1       3.982  -1.632  -6.114  0.00  0.00     0.106 A 
ATOM      5  C   LIG d   1       3.355  -0.397  -6.364  0.00  0.00     0.146 A 
ATOM      6  C   LIG d   1       3.054  -0.047  -7.673  0.00  0.00     0.023 A 
ATOM      7  O   LIG d   1       3.045   0.441  -5.354  0.00  0.00    -0.454 OA
ATOM      8  C   LIG d   1       3.588   0.311  -4.127  0.00  0.00     0.139 A 
ATOM      9  C   LIG d   1       3.514   1.362  -3.218  0.00  0.00    -0.019 A 
ATOM     10  C   LIG d   1       4.064   1.229  -1.962  0.00  0.00    -0.058 A 
ATOM     11  C   LIG d   1       4.696   0.053  -1.584  0.00  0.00    -0.061 A 
ATOM     12  C   LIG d   1       4.783  -1.000  -2.469  0.00  0.00    -0.047 A 
ATOM     13  C   LIG d   1       4.233  -0.875  -3.743  0.00  0.00     0.065 A 
ATOM     14  C   LIG d   1       4.322  -1.979  -4.725  0.00  0.00     0.204 C 
ATOM     15  O   LIG d   1       4.655  -3.105  -4.402  0.00  0.00    -0.286 OA
ATOM     16  H   LIG d   1       4.188  -2.804  -9.285  0.00  0.00     0.069 H 
ATOM     17  H   LIG d   1       2.584   0.903  -7.881  0.00  0.00     0.069 H 
ATOM     18  H   LIG d   1       3.026   2.283  -3.499  0.00  0.00     0.065 H 
ATOM     19  H   LIG d   1       4.002   2.050  -1.263  0.00  0.00     0.062 H 
ATOM     20  H   LIG d   1       5.120  -0.036  -0.595  0.00  0.00     0.062 H 
ATOM     21  H   LIG d   1       5.275  -1.917  -2.176  0.00  0.00     0.063 H 
ENDROOT
BRANCH   1  22
ATOM     22  O   LIG d   1       3.050  -0.559  -9.988  0.00  0.00    -0.481 OA
BRANCH  22  23
ATOM     23  C   LIG d   1       4.128  -0.104 -10.808  0.00  0.00     0.186 C 
ATOM     24  H   LIG d   1       3.801  -0.063 -11.847  0.00  0.00     0.082 H 
ATOM     25  H   LIG d   1       4.968  -0.792 -10.719  0.00  0.00     0.082 H 
BRANCH  23  26
ATOM     26  C   LIG d   1       4.554   1.270 -10.360  0.00  0.00     0.345 C 
ATOM     27  O   LIG d   1       3.789   2.200 -10.453  0.00  0.00    -0.247 OA
BRANCH  26  28
ATOM     28  O   LIG d   1       5.785   1.461  -9.859  0.00  0.00    -0.458 OA
BRANCH  28  29
ATOM     29  C   LIG d   1       6.693   0.360  -9.935  0.00  0.00     0.118 C 
ATOM     30  H   LIG d   1       7.603   0.675 -10.448  0.00  0.00     0.075 H 
ATOM     31  H   LIG d   1       6.229  -0.456 -10.487  0.00  0.00     0.075 H 
BRANCH  29  32
ATOM     32  C   LIG d   1       7.036  -0.106  -8.544  0.00  0.00    -0.010 A 
ATOM     33  C   LIG d   1       7.636  -1.336  -8.354  0.00  0.00    -0.055 A 
ATOM     34  C   LIG d   1       7.951  -1.763  -7.078  0.00  0.00    -0.061 A 
ATOM     35  H   LIG d   1       7.858  -1.964  -9.204  0.00  0.00     0.062 H 
ATOM     36  C   LIG d   1       7.667  -0.957  -5.990  0.00  0.00    -0.062 A 
ATOM     37  H   LIG d   1       8.419  -2.724  -6.930  0.00  0.00     0.062 H 
ATOM     38  C   LIG d   1       7.068   0.274  -6.180  0.00  0.00    -0.061 A 
ATOM     39  H   LIG d   1       7.909  -1.292  -4.993  0.00  0.00     0.062 H 
ATOM     40  C   LIG d   1       6.751   0.700  -7.456  0.00  0.00    -0.055 A 
ATOM     41  H   LIG d   1       6.846   0.903  -5.330  0.00  0.00     0.062 H 
ATOM     42  H   LIG d   1       6.283   1.662  -7.604  0.00  0.00     0.062 H 
ENDBRANCH  29  32
ENDBRANCH  28  29
ENDBRANCH  26  28
ENDBRANCH  23  26
ENDBRANCH  22  23
ENDBRANCH   1  22
BRANCH   3  43
ATOM     43  O   LIG d   1       4.870  -3.700  -6.923  0.00  0.00    -0.506 OA
ATOM     44  H   LIG d   1       5.791  -3.751  -7.214  0.00  0.00     0.292 HD
ENDBRANCH   3  43
TORSDOF 7
ENDMDL
MODEL 7
REMARK VINA RESULT:      -7.6      1.266      2.613
REMARK  7 active torsions:
REMARK  status: ('A' for Active; 'I' for Inactive)
REMARK    1  A    between atoms: C_4  and  C_7 
REMARK    2  A    between atoms: C_7  and  O_8 
REMARK    3  A    between atoms: O_8  and  C_9 
REMARK    4  A    between atoms: C_9  and  C_11 
REMARK    5  A    between atoms: C_11  and  O_12 
REMARK    6  A    between atoms: O_12  and  C_13 
REMARK    7  A    between atoms: C_15  and  O_28 
ROOT
ATOM      1  C   LIG d   1       9.628   4.091  -3.604  0.00  0.00     0.128 A 
ATOM      2  C   LIG d   1       9.187   5.092  -4.464  0.00  0.00     0.022 A 
ATOM      3  C   LIG d   1       9.378   6.421  -4.134  0.00  0.00     0.135 A 
ATOM      4  C   LIG d   1      10.014   6.749  -2.928  0.00  0.00     0.106 A 
ATOM      5  C   LIG d   1      10.470   5.736  -2.064  0.00  0.00     0.146 A 
ATOM      6  C   LIG d   1      10.260   4.409  -2.411  0.00  0.00     0.023 A 
ATOM      7  O   LIG d   1      11.102   6.039  -0.912  0.00  0.00    -0.454 OA
ATOM      8  C   LIG d   1      11.050   7.273  -0.373  0.00  0.00     0.139 A 
ATOM      9  C   LIG d   1      11.421   7.469   0.954  0.00  0.00    -0.019 A 
ATOM     10  C   LIG d   1      11.373   8.731   1.506  0.00  0.00    -0.058 A 
ATOM     11  C   LIG d   1      10.958   9.820   0.753  0.00  0.00    -0.061 A 
ATOM     12  C   LIG d   1      10.584   9.649  -0.563  0.00  0.00    -0.047 A 
ATOM     13  C   LIG d   1      10.625   8.377  -1.129  0.00  0.00     0.065 A 
ATOM     14  C   LIG d   1      10.216   8.153  -2.534  0.00  0.00     0.204 C 
ATOM     15  O   LIG d   1      10.058   9.073  -3.315  0.00  0.00    -0.286 OA
ATOM     16  H   LIG d   1       8.696   4.831  -5.389  0.00  0.00     0.069 H 
ATOM     17  H   LIG d   1      10.593   3.621  -1.752  0.00  0.00     0.069 H 
ATOM     18  H   LIG d   1      11.745   6.631   1.552  0.00  0.00     0.065 H 
ATOM     19  H   LIG d   1      11.661   8.874   2.537  0.00  0.00     0.062 H 
ATOM     20  H   LIG d   1      10.927  10.803   1.200  0.00  0.00     0.062 H 
ATOM     21  H   LIG d   1      10.261  10.496  -1.150  0.00  0.00     0.063 H 
ENDROOT
BRANCH   1  22
ATOM     22  O   LIG d   1       9.432   2.790  -3.933  0.00  0.00    -0.481 OA
BRANCH  22  23
ATOM     23  C   LIG d   1       8.886   2.522  -5.226  0.00  0.00     0.186 C 
ATOM     24  H   LIG d   1       9.626   1.997  -5.831  0.00  0.00     0.082 H 
ATOM     25  H   LIG d   1       8.622   3.462  -5.711  0.00  0.00     0.082 H 
BRANCH  23  26
ATOM     26  C   LIG d   1       7.653   1.667  -5.084  0.00  0.00     0.345 C 
ATOM     27  O   LIG d   1       7.221   1.067  -6.038  0.00  0.00    -0.247 OA
BRANCH  26  28
ATOM     28  O   LIG d   1       7.036   1.573  -3.895  0.00  0.00    -0.458 OA
BRANCH  28  29
ATOM     29  C   LIG d   1       7.021   0.286  -3.273  0.00  0.00     0.118 C 
ATOM     30  H   LIG d   1       7.552   0.336  -2.322  0.00  0.00     0.075 H 
ATOM     31  H   LIG d   1       7.509  -0.438  -3.924  0.00  0.00     0.075 H 
BRANCH  29  32
ATOM     32  C   LIG d   1       5.595  -0.138  -3.031  0.00  0.00    -0.010 A 
ATOM     33  C   LIG d   1       4.611   0.817  -2.854  0.00  0.00    -0.055 A 
ATOM     34  C   LIG d   1       3.303   0.428  -2.633  0.00  0.00    -0.061 A 
ATOM     35  H   LIG d   1       4.864   1.866  -2.888  0.00  0.00     0.062 H 
ATOM     36  C   LIG d   1       2.979  -0.916  -2.590  0.00  0.00    -0.062 A 
ATOM     37  H   LIG d   1       2.534   1.173  -2.494  0.00  0.00     0.062 H 
ATOM     38  C   LIG d   1       3.963  -1.870  -2.769  0.00  0.00    -0.061 A 
ATOM     39  H   LIG d   1       1.958  -1.219  -2.414  0.00  0.00     0.062 H 
ATOM     40  C   LIG d   1       5.271  -1.481  -2.988  0.00  0.00    -0.055 A 
ATOM     41  H   LIG d   1       3.710  -2.920  -2.735  0.00  0.00     0.062 H 
ATOM     42  H   LIG d   1       6.040  -2.227  -3.127  0.00  0.00     0.062 H 
ENDBRANCH  29  32
ENDBRANCH  28  29
ENDBRANCH  26  28
ENDBRANCH  23  26
ENDBRANCH  22  23
ENDBRANCH   1  22
BRANCH   3  43
ATOM     43  O   LIG d   1       8.953   7.401  -4.970  0.00  0.00    -0.506 OA
ATOM     44  H   LIG d   1       8.001   7.565  -4.932  0.00  0.00     0.292 HD
ENDBRANCH   3  43
TORSDOF 7
ENDMDL
MODEL 8
REMARK VINA RESULT:      -7.6      3.179      5.880
REMARK  7 active torsions:
REMARK  status: ('A' for Active; 'I' for Inactive)
REMARK    1  A    between atoms: C_4  and  C_7 
REMARK    2  A    between atoms: C_7  and  O_8 
REMARK    3  A    between atoms: O_8  and  C_9 
REMARK    4  A    between atoms: C_9  and  C_11 
REMARK    5  A    between atoms: C_11  and  O_12 
REMARK    6  A    between atoms: O_12  and  C_13 
REMARK    7  A    between atoms: C_15  and  O_28 
ROOT
ATOM      1  C   LIG d   1       7.605   0.311  -4.712  0.00  0.00     0.128 A 
ATOM      2  C   LIG d   1       7.653   0.661  -6.057  0.00  0.00     0.022 A 
ATOM      3  C   LIG d   1       8.251   1.847  -6.442  0.00  0.00     0.135 A 
ATOM      4  C   LIG d   1       8.802   2.691  -5.467  0.00  0.00     0.106 A 
ATOM      5  C   LIG d   1       8.762   2.332  -4.108  0.00  0.00     0.146 A 
ATOM      6  C   LIG d   1       8.150   1.141  -3.744  0.00  0.00     0.023 A 
ATOM      7  O   LIG d   1       9.308   3.125  -3.164  0.00  0.00    -0.454 OA
ATOM      8  C   LIG d   1       9.620   4.414  -3.408  0.00  0.00     0.139 A 
ATOM      9  C   LIG d   1       9.863   5.284  -2.349  0.00  0.00    -0.019 A 
ATOM     10  C   LIG d   1      10.186   6.600  -2.597  0.00  0.00    -0.058 A 
ATOM     11  C   LIG d   1      10.276   7.076  -3.897  0.00  0.00    -0.061 A 
ATOM     12  C   LIG d   1      10.037   6.233  -4.961  0.00  0.00    -0.047 A 
ATOM     13  C   LIG d   1       9.706   4.902  -4.721  0.00  0.00     0.065 A 
ATOM     14  C   LIG d   1       9.427   3.972  -5.838  0.00  0.00     0.204 C 
ATOM     15  O   LIG d   1       9.700   4.248  -6.992  0.00  0.00    -0.286 OA
ATOM     16  H   LIG d   1       7.225   0.007  -6.801  0.00  0.00     0.069 H 
ATOM     17  H   LIG d   1       8.102   0.857  -2.703  0.00  0.00     0.069 H 
ATOM     18  H   LIG d   1       9.796   4.926  -1.333  0.00  0.00     0.065 H 
ATOM     19  H   LIG d   1      10.373   7.268  -1.769  0.00  0.00     0.062 H 
ATOM     20  H   LIG d   1      10.532   8.111  -4.074  0.00  0.00     0.062 H 
ATOM     21  H   LIG d   1      10.107   6.603  -5.973  0.00  0.00     0.063 H 
ENDROOT
BRANCH   1  22
ATOM     22  O   LIG d   1       7.013  -0.852  -4.342  0.00  0.00    -0.481 OA
BRANCH  22  23
ATOM     23  C   LIG d   1       6.256  -1.541  -5.339  0.00  0.00     0.186 C 
ATOM     24  H   LIG d   1       6.902  -1.779  -6.185  0.00  0.00     0.082 H 
ATOM     25  H   LIG d   1       5.437  -0.906  -5.677  0.00  0.00     0.082 H 
BRANCH  23  26
ATOM     26  C   LIG d   1       5.698  -2.814  -4.757  0.00  0.00     0.345 C 
ATOM     27  O   LIG d   1       6.421  -3.766  -4.583  0.00  0.00    -0.247 OA
BRANCH  26  28
ATOM     28  O   LIG d   1       4.398  -2.890  -4.432  0.00  0.00    -0.458 OA
BRANCH  28  29
ATOM     29  C   LIG d   1       4.051  -2.605  -3.075  0.00  0.00     0.118 C 
ATOM     30  H   LIG d   1       4.824  -2.996  -2.413  0.00  0.00     0.075 H 
ATOM     31  H   LIG d   1       3.097  -3.075  -2.839  0.00  0.00     0.075 H 
BRANCH  29  32
ATOM     32  C   LIG d   1       3.936  -1.114  -2.888  0.00  0.00    -0.010 A 
ATOM     33  C   LIG d   1       3.165  -0.366  -3.758  0.00  0.00    -0.055 A 
ATOM     34  C   LIG d   1       3.059   1.002  -3.586  0.00  0.00    -0.061 A 
ATOM     35  H   LIG d   1       2.646  -0.850  -4.571  0.00  0.00     0.062 H 
ATOM     36  C   LIG d   1       3.724   1.621  -2.543  0.00  0.00    -0.062 A 
ATOM     37  H   LIG d   1       2.457   1.586  -4.265  0.00  0.00     0.062 H 
ATOM     38  C   LIG d   1       4.494   0.872  -1.673  0.00  0.00    -0.061 A 
ATOM     39  H   LIG d   1       3.645   2.689  -2.411  0.00  0.00     0.062 H 
ATOM     40  C   LIG d   1       4.601  -0.495  -1.846  0.00  0.00    -0.055 A 
ATOM     41  H   LIG d   1       5.014   1.355  -0.859  0.00  0.00     0.062 H 
ATOM     42  H   LIG d   1       5.203  -1.080  -1.166  0.00  0.00     0.062 H 
ENDBRANCH  29  32
ENDBRANCH  28  29
ENDBRANCH  26  28
ENDBRANCH  23  26
ENDBRANCH  22  23
ENDBRANCH   1  22
BRANCH   3  43
ATOM     43  O   LIG d   1       8.304   2.192  -7.753  0.00  0.00    -0.506 OA
ATOM     44  H   LIG d   1       9.029   1.777  -8.241  0.00  0.00     0.292 HD
ENDBRANCH   3  43
TORSDOF 7
ENDMDL
MODEL 9
REMARK VINA RESULT:      -7.4      7.715     11.584
REMARK  7 active torsions:
REMARK  status: ('A' for Active; 'I' for Inactive)
REMARK    1  A    between atoms: C_4  and  C_7 
REMARK    2  A    between atoms: C_7  and  O_8 
REMARK    3  A    between atoms: O_8  and  C_9 
REMARK    4  A    between atoms: C_9  and  C_11 
REMARK    5  A    between atoms: C_11  and  O_12 
REMARK    6  A    between atoms: O_12  and  C_13 
REMARK    7  A    between atoms: C_15  and  O_28 
ROOT
ATOM      1  C   LIG d   1       5.374  -5.243  -6.072  0.00  0.00     0.128 A 
ATOM      2  C   LIG d   1       6.724  -4.930  -5.951  0.00  0.00     0.022 A 
ATOM      3  C   LIG d   1       7.120  -3.872  -5.153  0.00  0.00     0.135 A 
ATOM      4  C   LIG d   1       6.151  -3.119  -4.474  0.00  0.00     0.106 A 
ATOM      5  C   LIG d   1       4.787  -3.443  -4.588  0.00  0.00     0.146 A 
ATOM      6  C   LIG d   1       4.412  -4.503  -5.401  0.00  0.00     0.023 A 
ATOM      7  O   LIG d   1       3.848  -2.740  -3.923  0.00  0.00    -0.454 OA
ATOM      8  C   LIG d   1       4.108  -1.529  -3.390  0.00  0.00     0.139 A 
ATOM      9  C   LIG d   1       3.060  -0.696  -3.010  0.00  0.00    -0.019 A 
ATOM     10  C   LIG d   1       3.323   0.540  -2.461  0.00  0.00    -0.058 A 
ATOM     11  C   LIG d   1       4.629   0.971  -2.278  0.00  0.00    -0.061 A 
ATOM     12  C   LIG d   1       5.683   0.164  -2.648  0.00  0.00    -0.047 A 
ATOM     13  C   LIG d   1       5.427  -1.086  -3.208  0.00  0.00     0.065 A 
ATOM     14  C   LIG d   1       6.533  -1.973  -3.632  0.00  0.00     0.204 C 
ATOM     15  O   LIG d   1       7.688  -1.768  -3.304  0.00  0.00    -0.286 OA
ATOM     16  H   LIG d   1       7.463  -5.513  -6.478  0.00  0.00     0.069 H 
ATOM     17  H   LIG d   1       3.368  -4.756  -5.508  0.00  0.00     0.069 H 
ATOM     18  H   LIG d   1       2.039  -1.019  -3.148  0.00  0.00     0.065 H 
ATOM     19  H   LIG d   1       2.504   1.180  -2.170  0.00  0.00     0.062 H 
ATOM     20  H   LIG d   1       4.819   1.942  -1.844  0.00  0.00     0.062 H 
ATOM     21  H   LIG d   1       6.700   0.498  -2.506  0.00  0.00     0.063 H 
ENDROOT
BRANCH   1  22
ATOM     22  O   LIG d   1       4.994  -6.279  -6.860  0.00  0.00    -0.481 OA
BRANCH  22  23
ATOM     23  C   LIG d   1       5.679  -7.520  -6.676  0.00  0.00     0.186 C 
ATOM     24  H   LIG d   1       6.419  -7.412  -5.882  0.00  0.00     0.082 H 
ATOM     25  H   LIG d   1       6.180  -7.800  -7.602  0.00  0.00     0.082 H 
BRANCH  23  26
ATOM     26  C   LIG d   1       4.687  -8.590  -6.297  0.00  0.00     0.345 C 
ATOM     27  O   LIG d   1       4.198  -9.289  -7.152  0.00  0.00    -0.247 OA
BRANCH  26  28
ATOM     28  O   LIG d   1       4.348  -8.764  -5.011  0.00  0.00    -0.458 OA
BRANCH  28  29
ATOM     29  C   LIG d   1       4.516 -10.076  -4.468  0.00  0.00     0.118 C 
ATOM     30  H   LIG d   1       4.831 -10.758  -5.257  0.00  0.00     0.075 H 
ATOM     31  H   LIG d   1       3.571 -10.418  -4.046  0.00  0.00     0.075 H 
BRANCH  29  32
ATOM     32  C   LIG d   1       5.565 -10.040  -3.386  0.00  0.00    -0.010 A 
ATOM     33  C   LIG d   1       5.386 -10.769  -2.225  0.00  0.00    -0.055 A 
ATOM     34  C   LIG d   1       6.349 -10.738  -1.234  0.00  0.00    -0.061 A 
ATOM     35  H   LIG d   1       4.494 -11.364  -2.094  0.00  0.00     0.062 H 
ATOM     36  C   LIG d   1       7.491  -9.977  -1.404  0.00  0.00    -0.062 A 
ATOM     37  H   LIG d   1       6.209 -11.306  -0.327  0.00  0.00     0.062 H 
ATOM     38  C   LIG d   1       7.670  -9.249  -2.565  0.00  0.00    -0.061 A 
ATOM     39  H   LIG d   1       8.241  -9.949  -0.628  0.00  0.00     0.062 H 
ATOM     40  C   LIG d   1       6.707  -9.279  -3.556  0.00  0.00    -0.055 A 
ATOM     41  H   LIG d   1       8.562  -8.654  -2.697  0.00  0.00     0.062 H 
ATOM     42  H   LIG d   1       6.847  -8.710  -4.463  0.00  0.00     0.062 H 
ENDBRANCH  29  32
ENDBRANCH  28  29
ENDBRANCH  26  28
ENDBRANCH  23  26
ENDBRANCH  22  23
ENDBRANCH   1  22
BRANCH   3  43
ATOM     43  O   LIG d   1       8.435  -3.564  -5.028  0.00  0.00    -0.506 OA
ATOM     44  H   LIG d   1       8.771  -3.630  -4.123  0.00  0.00     0.292 HD
ENDBRANCH   3  43
TORSDOF 7
ENDMDL
MODEL 10
REMARK VINA RESULT:      -7.1      1.955      8.872
REMARK  7 active torsions:
REMARK  status: ('A' for Active; 'I' for Inactive)
REMARK    1  A    between atoms: C_4  and  C_7 
REMARK    2  A    between atoms: C_7  and  O_8 
REMARK    3  A    between atoms: O_8  and  C_9 
REMARK    4  A    between atoms: C_9  and  C_11 
REMARK    5  A    between atoms: C_11  and  O_12 
REMARK    6  A    between atoms: O_12  and  C_13 
REMARK    7  A    between atoms: C_15  and  O_28 
ROOT
ATOM      1  C   LIG d   1       9.821   2.504  -5.188  0.00  0.00     0.128 A 
ATOM      2  C   LIG d   1      10.214   1.246  -5.631  0.00  0.00     0.022 A 
ATOM      3  C   LIG d   1       9.403   0.148  -5.405  0.00  0.00     0.135 A 
ATOM      4  C   LIG d   1       8.189   0.315  -4.725  0.00  0.00     0.106 A 
ATOM      5  C   LIG d   1       7.786   1.590  -4.287  0.00  0.00     0.146 A 
ATOM      6  C   LIG d   1       8.619   2.676  -4.518  0.00  0.00     0.023 A 
ATOM      7  O   LIG d   1       6.609   1.767  -3.652  0.00  0.00    -0.454 OA
ATOM      8  C   LIG d   1       5.923   0.735  -3.122  0.00  0.00     0.139 A 
ATOM      9  C   LIG d   1       4.907   0.974  -2.202  0.00  0.00    -0.019 A 
ATOM     10  C   LIG d   1       4.200  -0.079  -1.663  0.00  0.00    -0.058 A 
ATOM     11  C   LIG d   1       4.489  -1.387  -2.027  0.00  0.00    -0.061 A 
ATOM     12  C   LIG d   1       5.492  -1.647  -2.935  0.00  0.00    -0.047 A 
ATOM     13  C   LIG d   1       6.214  -0.590  -3.483  0.00  0.00     0.065 A 
ATOM     14  C   LIG d   1       7.309  -0.833  -4.448  0.00  0.00     0.204 C 
ATOM     15  O   LIG d   1       7.473  -1.915  -4.982  0.00  0.00    -0.286 OA
ATOM     16  H   LIG d   1      11.152   1.125  -6.151  0.00  0.00     0.069 H 
ATOM     17  H   LIG d   1       8.328   3.659  -4.177  0.00  0.00     0.069 H 
ATOM     18  H   LIG d   1       4.672   1.987  -1.910  0.00  0.00     0.065 H 
ATOM     19  H   LIG d   1       3.414   0.115  -0.949  0.00  0.00     0.062 H 
ATOM     20  H   LIG d   1       3.924  -2.201  -1.596  0.00  0.00     0.062 H 
ATOM     21  H   LIG d   1       5.717  -2.665  -3.219  0.00  0.00     0.063 H 
ENDROOT
BRANCH   1  22
ATOM     22  O   LIG d   1      10.624   3.575  -5.410  0.00  0.00    -0.481 OA
BRANCH  22  23
ATOM     23  C   LIG d   1      11.954   3.506  -4.893  0.00  0.00     0.186 C 
ATOM     24  H   LIG d   1      12.647   3.936  -5.616  0.00  0.00     0.082 H 
ATOM     25  H   LIG d   1      12.220   2.464  -4.711  0.00  0.00     0.082 H 
BRANCH  23  26
ATOM     26  C   LIG d   1      12.032   4.277  -3.600  0.00  0.00     0.345 C 
ATOM     27  O   LIG d   1      12.986   4.143  -2.873  0.00  0.00    -0.247 OA
BRANCH  26  28
ATOM     28  O   LIG d   1      11.039   5.112  -3.258  0.00  0.00    -0.458 OA
BRANCH  28  29
ATOM     29  C   LIG d   1      10.388   4.868  -2.009  0.00  0.00     0.118 C 
ATOM     30  H   LIG d   1      10.862   4.022  -1.511  0.00  0.00     0.075 H 
ATOM     31  H   LIG d   1       9.336   4.643  -2.186  0.00  0.00     0.075 H 
BRANCH  29  32
ATOM     32  C   LIG d   1      10.499   6.092  -1.136  0.00  0.00    -0.010 A 
ATOM     33  C   LIG d   1      11.205   6.033   0.051  0.00  0.00    -0.055 A 
ATOM     34  C   LIG d   1      11.309   7.155   0.850  0.00  0.00    -0.061 A 
ATOM     35  H   LIG d   1      11.675   5.109   0.353  0.00  0.00     0.062 H 
ATOM     36  C   LIG d   1      10.706   8.338   0.461  0.00  0.00    -0.062 A 
ATOM     37  H   LIG d   1      11.859   7.109   1.777  0.00  0.00     0.062 H 
ATOM     38  C   LIG d   1      10.002   8.397  -0.726  0.00  0.00    -0.061 A 
ATOM     39  H   LIG d   1      10.784   9.214   1.088  0.00  0.00     0.062 H 
ATOM     40  C   LIG d   1       9.897   7.274  -1.525  0.00  0.00    -0.055 A 
ATOM     41  H   LIG d   1       9.531   9.321  -1.030  0.00  0.00     0.062 H 
ATOM     42  H   LIG d   1       9.346   7.320  -2.453  0.00  0.00     0.062 H 
ENDBRANCH  29  32
ENDBRANCH  28  29
ENDBRANCH  26  28
ENDBRANCH  23  26
ENDBRANCH  22  23
ENDBRANCH   1  22
BRANCH   3  43
ATOM     43  O   LIG d   1       9.781  -1.082  -5.837  0.00  0.00    -0.506 OA
ATOM     44  H   LIG d   1       9.205  -1.452  -6.520  0.00  0.00     0.292 HD
ENDBRANCH   3  43
TORSDOF 7
ENDMDL
