MODEL 1
REMARK VINA RESULT:      -6.7      0.000      0.000
REMARK  7 active torsions:
REMARK  status: ('A' for Active; 'I' for Inactive)
REMARK    1  A    between atoms: C_1  and  C_2 
REMARK    2  A    between atoms: C_5  and  C_8 
REMARK    3  A    between atoms: N_15  and  C_30 
REMARK    4  A    between atoms: C_18  and  C_29 
REMARK    5  A    between atoms: C_30  and  C_31 
REMARK    6  A    between atoms: C_31  and  O_32 
REMARK    7  A    between atoms: O_32  and  C_33 
ROOT
ATOM      1  C   LIG d   1       8.206  -1.687  -4.663  0.00  0.00     0.027 C 
ATOM      2  H   LIG d   1       8.781  -2.180  -3.879  0.00  0.00     0.041 H 
ATOM      3  C   LIG d   1       9.162  -1.046  -5.675  0.00  0.00     0.027 C 
ATOM      4  N   LIG d   1       9.744   0.170  -5.076  0.00  0.00    -0.280 N 
ATOM      5  C   LIG d   1      11.056   0.214  -4.830  0.00  0.00     0.234 C 
ATOM      6  O   LIG d   1      11.743  -0.691  -5.255  0.00  0.00    -0.274 OA
ATOM      7  C   LIG d   1      11.733   1.305  -4.066  0.00  0.00     0.091 C 
ATOM      8  N   LIG d   1      10.791   2.298  -3.579  0.00  0.00    -0.288 N 
ATOM      9  C   LIG d   1       9.493   2.297  -3.880  0.00  0.00     0.245 C 
ATOM     10  O   LIG d   1       8.798   3.175  -3.415  0.00  0.00    -0.273 OA
ATOM     11  C   LIG d   1       8.844   1.278  -4.757  0.00  0.00     0.151 C 
ATOM     12  C   LIG d   1       7.617   0.707  -4.086  0.00  0.00     0.054 A 
ATOM     13  C   LIG d   1       7.340  -0.615  -4.053  0.00  0.00    -0.008 A 
ATOM     14  C   LIG d   1       6.091  -0.768  -3.334  0.00  0.00     0.004 A 
ATOM     15  C   LIG d   1       5.323  -1.887  -2.996  0.00  0.00    -0.052 A 
ATOM     16  C   LIG d   1       4.168  -1.655  -2.291  0.00  0.00    -0.061 A 
ATOM     17  C   LIG d   1       3.771  -0.379  -1.926  0.00  0.00    -0.060 A 
ATOM     18  C   LIG d   1       4.512   0.746  -2.248  0.00  0.00    -0.038 A 
ATOM     19  C   LIG d   1       5.689   0.541  -2.965  0.00  0.00     0.047 A 
ATOM     20  N   LIG d   1       6.635   1.406  -3.437  0.00  0.00    -0.356 N 
ATOM     21  H   LIG d   1       6.614   2.370  -3.328  0.00  0.00     0.166 HD
ATOM     22  H   LIG d   1       8.614  -0.781  -6.579  0.00  0.00     0.047 H 
ATOM     23  H   LIG d   1       9.958  -1.747  -5.923  0.00  0.00     0.047 H 
ATOM     24  H   LIG d   1      12.459   1.794  -4.716  0.00  0.00     0.056 H 
ATOM     25  H   LIG d   1      12.257   0.867  -3.216  0.00  0.00     0.056 H 
ATOM     26  H   LIG d   1       5.625  -2.885  -3.275  0.00  0.00     0.062 H 
ATOM     27  H   LIG d   1       3.551  -2.495  -2.008  0.00  0.00     0.062 H 
ATOM     28  H   LIG d   1       2.853  -0.257  -1.371  0.00  0.00     0.062 H 
ATOM     29  H   LIG d   1       4.192   1.735  -1.957  0.00  0.00     0.064 H 
ENDROOT
BRANCH   1  30
ATOM     30  C   LIG d   1       7.336  -2.699  -5.365  0.00  0.00    -0.038 A 
ATOM     31  C   LIG d   1       6.594  -2.325  -6.469  0.00  0.00    -0.058 A 
ATOM     32  C   LIG d   1       5.796  -3.253  -7.113  0.00  0.00    -0.059 A 
ATOM     33  H   LIG d   1       6.638  -1.308  -6.831  0.00  0.00     0.062 H 
ATOM     34  C   LIG d   1       5.741  -4.555  -6.650  0.00  0.00    -0.050 A 
ATOM     35  H   LIG d   1       5.217  -2.961  -7.976  0.00  0.00     0.062 H 
ATOM     36  C   LIG d   1       6.482  -4.928  -5.546  0.00  0.00    -0.059 A 
ATOM     37  C   LIG d   1       7.284  -4.001  -4.905  0.00  0.00    -0.058 A 
ATOM     38  H   LIG d   1       6.440  -5.946  -5.185  0.00  0.00     0.062 H 
ATOM     39  H   LIG d   1       7.867  -4.295  -4.045  0.00  0.00     0.062 H 
BRANCH  34  40
ATOM     40  C   LIG d   1       4.871  -5.566  -7.352  0.00  0.00    -0.040 C 
ATOM     41  H   LIG d   1       5.126  -5.591  -8.412  0.00  0.00     0.028 H 
ATOM     42  H   LIG d   1       5.036  -6.552  -6.915  0.00  0.00     0.028 H 
ATOM     43  H   LIG d   1       3.824  -5.288  -7.236  0.00  0.00     0.028 H 
ENDBRANCH  34  40
ENDBRANCH   1  30
BRANCH  11  44
ATOM     44  C   LIG d   1       8.424   1.947  -6.067  0.00  0.00    -0.029 C 
ATOM     45  H   LIG d   1       7.717   1.305  -6.592  0.00  0.00     0.026 H 
ATOM     46  H   LIG d   1       7.953   2.906  -5.851  0.00  0.00     0.026 H 
ATOM     47  H   LIG d   1       9.304   2.106  -6.692  0.00  0.00     0.026 H 
ENDBRANCH  11  44
BRANCH   8  48
ATOM     48  C   LIG d   1      11.298   3.363  -2.709  0.00  0.00     0.039 C 
ATOM     49  H   LIG d   1      10.464   3.841  -2.197  0.00  0.00     0.049 H 
ATOM     50  H   LIG d   1      11.980   2.937  -1.974  0.00  0.00     0.049 H 
BRANCH  48  51
ATOM     51  C   LIG d   1      12.041   4.401  -3.553  0.00  0.00     0.063 C 
ATOM     52  H   LIG d   1      13.076   4.467  -3.220  0.00  0.00     0.058 H 
ATOM     53  H   LIG d   1      12.015   4.103  -4.601  0.00  0.00     0.058 H 
BRANCH  51  54
ATOM     54  O   LIG d   1      11.411   5.675  -3.403  0.00  0.00    -0.381 OA
BRANCH  54  55
ATOM     55  C   LIG d   1      10.750   5.853  -2.150  0.00  0.00     0.036 C 
ATOM     56  H   LIG d   1      10.055   5.028  -1.985  0.00  0.00     0.052 H 
ATOM     57  H   LIG d   1      11.488   5.872  -1.349  0.00  0.00     0.052 H 
ATOM     58  H   LIG d   1      10.199   6.794  -2.159  0.00  0.00     0.052 H 
ENDBRANCH  54  55
ENDBRANCH  51  54
ENDBRANCH  48  51
ENDBRANCH   8  48
TORSDOF 7
ENDMDL
MODEL 2
REMARK VINA RESULT:      -6.0      3.974      6.410
REMARK  7 active torsions:
REMARK  status: ('A' for Active; 'I' for Inactive)
REMARK    1  A    between atoms: C_1  and  C_2 
REMARK    2  A    between atoms: C_5  and  C_8 
REMARK    3  A    between atoms: N_15  and  C_30 
REMARK    4  A    between atoms: C_18  and  C_29 
REMARK    5  A    between atoms: C_30  and  C_31 
REMARK    6  A    between atoms: C_31  and  O_32 
REMARK    7  A    between atoms: O_32  and  C_33 
ROOT
ATOM      1  C   LIG d   1       3.972  -2.699  -7.968  0.00  0.00     0.027 C 
ATOM      2  H   LIG d   1       2.980  -2.717  -7.517  0.00  0.00     0.041 H 
ATOM      3  C   LIG d   1       4.943  -3.516  -7.107  0.00  0.00     0.027 C 
ATOM      4  N   LIG d   1       5.273  -2.740  -5.897  0.00  0.00    -0.280 N 
ATOM      5  C   LIG d   1       4.892  -3.199  -4.702  0.00  0.00     0.234 C 
ATOM      6  O   LIG d   1       4.424  -4.317  -4.647  0.00  0.00    -0.274 OA
ATOM      7  C   LIG d   1       5.004  -2.426  -3.428  0.00  0.00     0.091 C 
ATOM      8  N   LIG d   1       5.538  -1.092  -3.643  0.00  0.00    -0.288 N 
ATOM      9  C   LIG d   1       5.984  -0.654  -4.821  0.00  0.00     0.245 C 
ATOM     10  O   LIG d   1       6.406   0.481  -4.885  0.00  0.00    -0.273 OA
ATOM     11  C   LIG d   1       5.995  -1.479  -6.064  0.00  0.00     0.151 C 
ATOM     12  C   LIG d   1       5.360  -0.722  -7.207  0.00  0.00     0.054 A 
ATOM     13  C   LIG d   1       4.463  -1.277  -8.052  0.00  0.00    -0.008 A 
ATOM     14  C   LIG d   1       4.091  -0.251  -9.005  0.00  0.00     0.004 A 
ATOM     15  C   LIG d   1       3.216  -0.244 -10.097  0.00  0.00    -0.052 A 
ATOM     16  C   LIG d   1       3.105   0.933 -10.795  0.00  0.00    -0.061 A 
ATOM     17  C   LIG d   1       3.821   2.067 -10.445  0.00  0.00    -0.060 A 
ATOM     18  C   LIG d   1       4.694   2.087  -9.370  0.00  0.00    -0.038 A 
ATOM     19  C   LIG d   1       4.827   0.906  -8.644  0.00  0.00     0.047 A 
ATOM     20  N   LIG d   1       5.583   0.583  -7.553  0.00  0.00    -0.356 N 
ATOM     21  H   LIG d   1       6.187   1.187  -7.093  0.00  0.00     0.166 HD
ATOM     22  H   LIG d   1       5.853  -3.716  -7.672  0.00  0.00     0.047 H 
ATOM     23  H   LIG d   1       4.475  -4.458  -6.821  0.00  0.00     0.047 H 
ATOM     24  H   LIG d   1       5.660  -2.964  -2.745  0.00  0.00     0.056 H 
ATOM     25  H   LIG d   1       4.014  -2.342  -2.978  0.00  0.00     0.056 H 
ATOM     26  H   LIG d   1       2.654  -1.122 -10.376  0.00  0.00     0.062 H 
ATOM     27  H   LIG d   1       2.436   0.978 -11.641  0.00  0.00     0.062 H 
ATOM     28  H   LIG d   1       3.693   2.965 -11.030  0.00  0.00     0.062 H 
ATOM     29  H   LIG d   1       5.245   2.978  -9.107  0.00  0.00     0.064 H 
ENDROOT
BRANCH   1  30
ATOM     30  C   LIG d   1       3.908  -3.292  -9.353  0.00  0.00    -0.038 A 
ATOM     31  C   LIG d   1       5.066  -3.449 -10.092  0.00  0.00    -0.058 A 
ATOM     32  C   LIG d   1       5.008  -3.993 -11.362  0.00  0.00    -0.059 A 
ATOM     33  H   LIG d   1       6.017  -3.148  -9.677  0.00  0.00     0.062 H 
ATOM     34  C   LIG d   1       3.790  -4.378 -11.892  0.00  0.00    -0.050 A 
ATOM     35  H   LIG d   1       5.912  -4.116 -11.939  0.00  0.00     0.062 H 
ATOM     36  C   LIG d   1       2.633  -4.221 -11.154  0.00  0.00    -0.059 A 
ATOM     37  C   LIG d   1       2.693  -3.682  -9.882  0.00  0.00    -0.058 A 
ATOM     38  H   LIG d   1       1.683  -4.523 -11.568  0.00  0.00     0.062 H 
ATOM     39  H   LIG d   1       1.788  -3.563  -9.303  0.00  0.00     0.062 H 
BRANCH  34  40
ATOM     40  C   LIG d   1       3.727  -4.971 -13.277  0.00  0.00    -0.040 C 
ATOM     41  H   LIG d   1       4.613  -4.677 -13.839  0.00  0.00     0.028 H 
ATOM     42  H   LIG d   1       3.687  -6.058 -13.204  0.00  0.00     0.028 H 
ATOM     43  H   LIG d   1       2.835  -4.607 -13.787  0.00  0.00     0.028 H 
ENDBRANCH  34  40
ENDBRANCH   1  30
BRANCH  11  44
ATOM     44  C   LIG d   1       7.445  -1.802  -6.431  0.00  0.00    -0.029 C 
ATOM     45  H   LIG d   1       7.503  -2.059  -7.489  0.00  0.00     0.026 H 
ATOM     46  H   LIG d   1       8.072  -0.933  -6.234  0.00  0.00     0.026 H 
ATOM     47  H   LIG d   1       7.792  -2.645  -5.833  0.00  0.00     0.026 H 
ENDBRANCH  11  44
BRANCH   8  48
ATOM     48  C   LIG d   1       5.590  -0.176  -2.500  0.00  0.00     0.039 C 
ATOM     49  H   LIG d   1       6.307  -0.548  -1.769  0.00  0.00     0.049 H 
ATOM     50  H   LIG d   1       5.899   0.812  -2.841  0.00  0.00     0.049 H 
BRANCH  48  51
ATOM     51  C   LIG d   1       4.205  -0.084  -1.857  0.00  0.00     0.063 C 
ATOM     52  H   LIG d   1       3.495  -0.675  -2.437  0.00  0.00     0.058 H 
ATOM     53  H   LIG d   1       4.251  -0.469  -0.839  0.00  0.00     0.058 H 
BRANCH  51  54
ATOM     54  O   LIG d   1       3.780   1.280  -1.834  0.00  0.00    -0.381 OA
BRANCH  54  55
ATOM     55  C   LIG d   1       3.448   1.808  -3.119  0.00  0.00     0.036 C 
ATOM     56  H   LIG d   1       3.480   1.008  -3.860  0.00  0.00     0.052 H 
ATOM     57  H   LIG d   1       2.445   2.234  -3.088  0.00  0.00     0.052 H 
ATOM     58  H   LIG d   1       4.164   2.584  -3.390  0.00  0.00     0.052 H 
ENDBRANCH  54  55
ENDBRANCH  51  54
ENDBRANCH  48  51
ENDBRANCH   8  48
TORSDOF 7
ENDMDL
MODEL 3
REMARK VINA RESULT:      -6.0      3.838      6.300
REMARK  7 active torsions:
REMARK  status: ('A' for Active; 'I' for Inactive)
REMARK    1  A    between atoms: C_1  and  C_2 
REMARK    2  A    between atoms: C_5  and  C_8 
REMARK    3  A    between atoms: N_15  and  C_30 
REMARK    4  A    between atoms: C_18  and  C_29 
REMARK    5  A    between atoms: C_30  and  C_31 
REMARK    6  A    between atoms: C_31  and  O_32 
REMARK    7  A    between atoms: O_32  and  C_33 
ROOT
ATOM      1  C   LIG d   1       5.567  -2.035  -6.580  0.00  0.00     0.027 C 
ATOM      2  H   LIG d   1       4.874  -2.876  -6.549  0.00  0.00     0.041 H 
ATOM      3  C   LIG d   1       6.886  -2.480  -7.223  0.00  0.00     0.027 C 
ATOM      4  N   LIG d   1       7.633  -3.304  -6.255  0.00  0.00    -0.280 N 
ATOM      5  C   LIG d   1       7.851  -4.593  -6.526  0.00  0.00     0.234 C 
ATOM      6  O   LIG d   1       7.559  -4.998  -7.631  0.00  0.00    -0.274 OA
ATOM      7  C   LIG d   1       8.431  -5.571  -5.555  0.00  0.00     0.091 C 
ATOM      8  N   LIG d   1       8.693  -4.966  -4.260  0.00  0.00    -0.288 N 
ATOM      9  C   LIG d   1       8.543  -3.665  -4.006  0.00  0.00     0.245 C 
ATOM     10  O   LIG d   1       8.788  -3.270  -2.887  0.00  0.00    -0.273 OA
ATOM     11  C   LIG d   1       8.091  -2.667  -5.020  0.00  0.00     0.151 C 
ATOM     12  C   LIG d   1       6.957  -1.834  -4.473  0.00  0.00     0.054 A 
ATOM     13  C   LIG d   1       5.838  -1.555  -5.178  0.00  0.00    -0.008 A 
ATOM     14  C   LIG d   1       4.997  -0.736  -4.329  0.00  0.00     0.004 A 
ATOM     15  C   LIG d   1       3.739  -0.154  -4.519  0.00  0.00    -0.052 A 
ATOM     16  C   LIG d   1       3.229   0.574  -3.472  0.00  0.00    -0.061 A 
ATOM     17  C   LIG d   1       3.917   0.731  -2.280  0.00  0.00    -0.060 A 
ATOM     18  C   LIG d   1       5.163   0.166  -2.065  0.00  0.00    -0.038 A 
ATOM     19  C   LIG d   1       5.706  -0.577  -3.111  0.00  0.00     0.047 A 
ATOM     20  N   LIG d   1       6.886  -1.254  -3.235  0.00  0.00    -0.356 N 
ATOM     21  H   LIG d   1       7.570  -1.314  -2.550  0.00  0.00     0.166 HD
ATOM     22  H   LIG d   1       7.476  -1.603  -7.490  0.00  0.00     0.047 H 
ATOM     23  H   LIG d   1       6.678  -3.066  -8.118  0.00  0.00     0.047 H 
ATOM     24  H   LIG d   1       9.365  -5.959  -5.959  0.00  0.00     0.056 H 
ATOM     25  H   LIG d   1       7.730  -6.396  -5.424  0.00  0.00     0.056 H 
ATOM     26  H   LIG d   1       3.196  -0.272  -5.444  0.00  0.00     0.062 H 
ATOM     27  H   LIG d   1       2.258   1.035  -3.580  0.00  0.00     0.062 H 
ATOM     28  H   LIG d   1       3.466   1.314  -1.491  0.00  0.00     0.062 H 
ATOM     29  H   LIG d   1       5.688   0.295  -1.130  0.00  0.00     0.064 H 
ENDROOT
BRANCH   1  30
ATOM     30  C   LIG d   1       4.965  -0.915  -7.389  0.00  0.00    -0.038 A 
ATOM     31  C   LIG d   1       5.743   0.168  -7.756  0.00  0.00    -0.058 A 
ATOM     32  C   LIG d   1       5.192   1.196  -8.498  0.00  0.00    -0.059 A 
ATOM     33  H   LIG d   1       6.782   0.211  -7.463  0.00  0.00     0.062 H 
ATOM     34  C   LIG d   1       3.862   1.140  -8.873  0.00  0.00    -0.050 A 
ATOM     35  H   LIG d   1       5.799   2.041  -8.784  0.00  0.00     0.062 H 
ATOM     36  C   LIG d   1       3.084   0.058  -8.506  0.00  0.00    -0.059 A 
ATOM     37  C   LIG d   1       3.638  -0.972  -7.768  0.00  0.00    -0.058 A 
ATOM     38  H   LIG d   1       2.046   0.015  -8.800  0.00  0.00     0.062 H 
ATOM     39  H   LIG d   1       3.031  -1.820  -7.486  0.00  0.00     0.062 H 
BRANCH  34  40
ATOM     40  C   LIG d   1       3.261   2.261  -9.681  0.00  0.00    -0.040 C 
ATOM     41  H   LIG d   1       3.979   2.594 -10.431  0.00  0.00     0.028 H 
ATOM     42  H   LIG d   1       2.357   1.906 -10.178  0.00  0.00     0.028 H 
ATOM     43  H   LIG d   1       3.011   3.092  -9.022  0.00  0.00     0.028 H 
ENDBRANCH  34  40
ENDBRANCH   1  30
BRANCH  11  44
ATOM     44  C   LIG d   1       9.263  -1.744  -5.363  0.00  0.00    -0.029 C 
ATOM     45  H   LIG d   1      10.041  -1.850  -4.607  0.00  0.00     0.026 H 
ATOM     46  H   LIG d   1       9.666  -2.016  -6.339  0.00  0.00     0.026 H 
ATOM     47  H   LIG d   1       8.917  -0.711  -5.387  0.00  0.00     0.026 H 
ENDBRANCH  11  44
BRANCH   8  48
ATOM     48  C   LIG d   1       9.149  -5.834  -3.171  0.00  0.00     0.039 C 
ATOM     49  H   LIG d   1       9.657  -5.234  -2.417  0.00  0.00     0.049 H 
ATOM     50  H   LIG d   1       8.291  -6.333  -2.721  0.00  0.00     0.049 H 
BRANCH  48  51
ATOM     51  C   LIG d   1      10.116  -6.882  -3.726  0.00  0.00     0.063 C 
ATOM     52  H   LIG d   1       9.846  -7.115  -4.756  0.00  0.00     0.058 H 
ATOM     53  H   LIG d   1      11.132  -6.491  -3.696  0.00  0.00     0.058 H 
BRANCH  51  54
ATOM     54  O   LIG d   1      10.037  -8.069  -2.934  0.00  0.00    -0.381 OA
BRANCH  54  55
ATOM     55  C   LIG d   1       8.723  -8.363  -2.457  0.00  0.00     0.036 C 
ATOM     56  H   LIG d   1       8.738  -8.431  -1.368  0.00  0.00     0.052 H 
ATOM     57  H   LIG d   1       8.040  -7.572  -2.762  0.00  0.00     0.052 H 
ATOM     58  H   LIG d   1       8.389  -9.313  -2.875  0.00  0.00     0.052 H 
ENDBRANCH  54  55
ENDBRANCH  51  54
ENDBRANCH  48  51
ENDBRANCH   8  48
TORSDOF 7
ENDMDL
MODEL 4
REMARK VINA RESULT:      -5.9      4.258      4.648
REMARK  7 active torsions:
REMARK  status: ('A' for Active; 'I' for Inactive)
REMARK    1  A    between atoms: C_1  and  C_2 
REMARK    2  A    between atoms: C_5  and  C_8 
REMARK    3  A    between atoms: N_15  and  C_30 
REMARK    4  A    between atoms: C_18  and  C_29 
REMARK    5  A    between atoms: C_30  and  C_31 
REMARK    6  A    between atoms: C_31  and  O_32 
REMARK    7  A    between atoms: O_32  and  C_33 
ROOT
ATOM      1  C   LIG d   1       6.475  -2.919  -6.696  0.00  0.00     0.027 C 
ATOM      2  H   LIG d   1       7.440  -2.689  -6.245  0.00  0.00     0.041 H 
ATOM      3  C   LIG d   1       6.586  -2.831  -8.222  0.00  0.00     0.027 C 
ATOM      4  N   LIG d   1       6.642  -1.410  -8.614  0.00  0.00    -0.280 N 
ATOM      5  C   LIG d   1       7.752  -0.933  -9.183  0.00  0.00     0.234 C 
ATOM      6  O   LIG d   1       8.614  -1.726  -9.498  0.00  0.00    -0.274 OA
ATOM      7  C   LIG d   1       8.001   0.515  -9.458  0.00  0.00     0.091 C 
ATOM      8  N   LIG d   1       6.910   1.356  -8.993  0.00  0.00    -0.288 N 
ATOM      9  C   LIG d   1       5.772   0.880  -8.489  0.00  0.00     0.245 C 
ATOM     10  O   LIG d   1       4.930   1.675  -8.130  0.00  0.00    -0.273 OA
ATOM     11  C   LIG d   1       5.472  -0.575  -8.341  0.00  0.00     0.151 C 
ATOM     12  C   LIG d   1       4.996  -0.877  -6.940  0.00  0.00     0.054 A 
ATOM     13  C   LIG d   1       5.446  -1.927  -6.217  0.00  0.00    -0.008 A 
ATOM     14  C   LIG d   1       4.760  -1.887  -4.942  0.00  0.00     0.004 A 
ATOM     15  C   LIG d   1       4.816  -2.706  -3.809  0.00  0.00    -0.052 A 
ATOM     16  C   LIG d   1       4.007  -2.360  -2.754  0.00  0.00    -0.061 A 
ATOM     17  C   LIG d   1       3.172  -1.256  -2.797  0.00  0.00    -0.060 A 
ATOM     18  C   LIG d   1       3.097  -0.429  -3.906  0.00  0.00    -0.038 A 
ATOM     19  C   LIG d   1       3.905  -0.756  -4.992  0.00  0.00     0.047 A 
ATOM     20  N   LIG d   1       4.075  -0.172  -6.215  0.00  0.00    -0.356 N 
ATOM     21  H   LIG d   1       3.612   0.624  -6.523  0.00  0.00     0.166 HD
ATOM     22  H   LIG d   1       5.716  -3.302  -8.680  0.00  0.00     0.047 H 
ATOM     23  H   LIG d   1       7.493  -3.337  -8.554  0.00  0.00     0.047 H 
ATOM     24  H   LIG d   1       8.123   0.656 -10.531  0.00  0.00     0.056 H 
ATOM     25  H   LIG d   1       8.919   0.817  -8.953  0.00  0.00     0.056 H 
ATOM     26  H   LIG d   1       5.465  -3.567  -3.767  0.00  0.00     0.062 H 
ATOM     27  H   LIG d   1       4.027  -2.967  -1.861  0.00  0.00     0.062 H 
ATOM     28  H   LIG d   1       2.559  -1.032  -1.937  0.00  0.00     0.062 H 
ATOM     29  H   LIG d   1       2.442   0.430  -3.926  0.00  0.00     0.064 H 
ENDROOT
BRANCH   1  30
ATOM     30  C   LIG d   1       6.053  -4.312  -6.301  0.00  0.00    -0.038 A 
ATOM     31  C   LIG d   1       4.803  -4.782  -6.659  0.00  0.00    -0.058 A 
ATOM     32  C   LIG d   1       4.416  -6.059  -6.298  0.00  0.00    -0.059 A 
ATOM     33  H   LIG d   1       4.129  -4.152  -7.221  0.00  0.00     0.062 H 
ATOM     34  C   LIG d   1       5.279  -6.865  -5.579  0.00  0.00    -0.050 A 
ATOM     35  H   LIG d   1       3.440  -6.427  -6.578  0.00  0.00     0.062 H 
ATOM     36  C   LIG d   1       6.528  -6.395  -5.221  0.00  0.00    -0.059 A 
ATOM     37  C   LIG d   1       6.917  -5.119  -5.587  0.00  0.00    -0.058 A 
ATOM     38  H   LIG d   1       7.202  -7.024  -4.660  0.00  0.00     0.062 H 
ATOM     39  H   LIG d   1       7.895  -4.753  -5.311  0.00  0.00     0.062 H 
BRANCH  34  40
ATOM     40  C   LIG d   1       4.857  -8.257  -5.185  0.00  0.00    -0.040 C 
ATOM     41  H   LIG d   1       4.788  -8.881  -6.076  0.00  0.00     0.028 H 
ATOM     42  H   LIG d   1       5.593  -8.680  -4.501  0.00  0.00     0.028 H 
ATOM     43  H   LIG d   1       3.885  -8.217  -4.693  0.00  0.00     0.028 H 
ENDBRANCH  34  40
ENDBRANCH   1  30
BRANCH  11  44
ATOM     44  C   LIG d   1       4.370  -0.957  -9.331  0.00  0.00    -0.029 C 
ATOM     45  H   LIG d   1       4.792  -1.030 -10.334  0.00  0.00     0.026 H 
ATOM     46  H   LIG d   1       3.943  -1.918  -9.046  0.00  0.00     0.026 H 
ATOM     47  H   LIG d   1       3.591  -0.195  -9.319  0.00  0.00     0.026 H 
ENDBRANCH  11  44
BRANCH   8  48
ATOM     48  C   LIG d   1       7.071   2.809  -9.086  0.00  0.00     0.039 C 
ATOM     49  H   LIG d   1       6.667   3.160 -10.035  0.00  0.00     0.049 H 
ATOM     50  H   LIG d   1       6.535   3.287  -8.265  0.00  0.00     0.049 H 
BRANCH  48  51
ATOM     51  C   LIG d   1       8.556   3.165  -9.001  0.00  0.00     0.063 C 
ATOM     52  H   LIG d   1       8.771   3.595  -8.022  0.00  0.00     0.058 H 
ATOM     53  H   LIG d   1       9.154   2.265  -9.140  0.00  0.00     0.058 H 
BRANCH  51  54
ATOM     54  O   LIG d   1       8.878   4.115 -10.019  0.00  0.00    -0.381 OA
BRANCH  54  55
ATOM     55  C   LIG d   1       8.717   5.476  -9.616  0.00  0.00     0.036 C 
ATOM     56  H   LIG d   1       8.066   5.522  -8.742  0.00  0.00     0.052 H 
ATOM     57  H   LIG d   1       9.689   5.899  -9.368  0.00  0.00     0.052 H 
ATOM     58  H   LIG d   1       8.270   6.046 -10.431  0.00  0.00     0.052 H 
ENDBRANCH  54  55
ENDBRANCH  51  54
ENDBRANCH  48  51
ENDBRANCH   8  48
TORSDOF 7
ENDMDL
MODEL 5
REMARK VINA RESULT:      -5.9      3.979      8.115
REMARK  7 active torsions:
REMARK  status: ('A' for Active; 'I' for Inactive)
REMARK    1  A    between atoms: C_1  and  C_2 
REMARK    2  A    between atoms: C_5  and  C_8 
REMARK    3  A    between atoms: N_15  and  C_30 
REMARK    4  A    between atoms: C_18  and  C_29 
REMARK    5  A    between atoms: C_30  and  C_31 
REMARK    6  A    between atoms: C_31  and  O_32 
REMARK    7  A    between atoms: O_32  and  C_33 
ROOT
ATOM      1  C   LIG d   1       7.524  -1.348  -6.005  0.00  0.00     0.027 C 
ATOM      2  H   LIG d   1       8.180  -1.756  -6.775  0.00  0.00     0.041 H 
ATOM      3  C   LIG d   1       7.586  -2.234  -4.756  0.00  0.00     0.027 C 
ATOM      4  N   LIG d   1       6.827  -3.472  -5.012  0.00  0.00    -0.280 N 
ATOM      5  C   LIG d   1       7.474  -4.640  -5.044  0.00  0.00     0.234 C 
ATOM      6  O   LIG d   1       8.638  -4.653  -4.705  0.00  0.00    -0.274 OA
ATOM      7  C   LIG d   1       6.856  -5.933  -5.470  0.00  0.00     0.091 C 
ATOM      8  N   LIG d   1       5.475  -5.768  -5.890  0.00  0.00    -0.288 N 
ATOM      9  C   LIG d   1       4.805  -4.619  -5.794  0.00  0.00     0.245 C 
ATOM     10  O   LIG d   1       3.655  -4.596  -6.179  0.00  0.00    -0.273 OA
ATOM     11  C   LIG d   1       5.386  -3.361  -5.241  0.00  0.00     0.151 C 
ATOM     12  C   LIG d   1       5.149  -2.208  -6.187  0.00  0.00     0.054 A 
ATOM     13  C   LIG d   1       6.107  -1.314  -6.518  0.00  0.00    -0.008 A 
ATOM     14  C   LIG d   1       5.504  -0.366  -7.432  0.00  0.00     0.004 A 
ATOM     15  C   LIG d   1       6.001   0.761  -8.094  0.00  0.00    -0.052 A 
ATOM     16  C   LIG d   1       5.126   1.440  -8.906  0.00  0.00    -0.061 A 
ATOM     17  C   LIG d   1       3.811   1.037  -9.071  0.00  0.00    -0.060 A 
ATOM     18  C   LIG d   1       3.292  -0.074  -8.427  0.00  0.00    -0.038 A 
ATOM     19  C   LIG d   1       4.158  -0.782  -7.596  0.00  0.00     0.047 A 
ATOM     20  N   LIG d   1       3.980  -1.898  -6.828  0.00  0.00    -0.356 N 
ATOM     21  H   LIG d   1       3.151  -2.395  -6.748  0.00  0.00     0.166 HD
ATOM     22  H   LIG d   1       7.146  -1.704  -3.910  0.00  0.00     0.047 H 
ATOM     23  H   LIG d   1       8.623  -2.481  -4.532  0.00  0.00     0.047 H 
ATOM     24  H   LIG d   1       6.891  -6.633  -4.636  0.00  0.00     0.056 H 
ATOM     25  H   LIG d   1       7.432  -6.342  -6.301  0.00  0.00     0.056 H 
ATOM     26  H   LIG d   1       7.025   1.081  -7.972  0.00  0.00     0.062 H 
ATOM     27  H   LIG d   1       5.476   2.313  -9.436  0.00  0.00     0.062 H 
ATOM     28  H   LIG d   1       3.169   1.609  -9.723  0.00  0.00     0.062 H 
ATOM     29  H   LIG d   1       2.265  -0.379  -8.565  0.00  0.00     0.064 H 
ENDROOT
BRANCH   1  30
ATOM     30  C   LIG d   1       7.966   0.050  -5.654  0.00  0.00    -0.038 A 
ATOM     31  C   LIG d   1       7.423   0.691  -4.555  0.00  0.00    -0.058 A 
ATOM     32  C   LIG d   1       7.829   1.972  -4.232  0.00  0.00    -0.059 A 
ATOM     33  H   LIG d   1       6.683   0.189  -3.949  0.00  0.00     0.062 H 
ATOM     34  C   LIG d   1       8.776   2.612  -5.009  0.00  0.00    -0.050 A 
ATOM     35  H   LIG d   1       7.405   2.472  -3.374  0.00  0.00     0.062 H 
ATOM     36  C   LIG d   1       9.319   1.972  -6.107  0.00  0.00    -0.059 A 
ATOM     37  C   LIG d   1       8.916   0.688  -6.427  0.00  0.00    -0.058 A 
ATOM     38  H   LIG d   1      10.060   2.473  -6.712  0.00  0.00     0.062 H 
ATOM     39  H   LIG d   1       9.344   0.187  -7.282  0.00  0.00     0.062 H 
BRANCH  34  40
ATOM     40  C   LIG d   1       9.218   4.010  -4.656  0.00  0.00    -0.040 C 
ATOM     41  H   LIG d   1      10.302   4.082  -4.748  0.00  0.00     0.028 H 
ATOM     42  H   LIG d   1       8.748   4.721  -5.336  0.00  0.00     0.028 H 
ATOM     43  H   LIG d   1       8.923   4.237  -3.632  0.00  0.00     0.028 H 
ENDBRANCH  34  40
ENDBRANCH   1  30
BRANCH  11  44
ATOM     44  C   LIG d   1       4.711  -3.050  -3.903  0.00  0.00    -0.029 C 
ATOM     45  H   LIG d   1       3.636  -2.952  -4.053  0.00  0.00     0.026 H 
ATOM     46  H   LIG d   1       4.907  -3.861  -3.201  0.00  0.00     0.026 H 
ATOM     47  H   LIG d   1       5.110  -2.118  -3.503  0.00  0.00     0.026 H 
ENDBRANCH  11  44
BRANCH   8  48
ATOM     48  C   LIG d   1       4.779  -6.930  -6.450  0.00  0.00     0.039 C 
ATOM     49  H   LIG d   1       3.704  -6.801  -6.332  0.00  0.00     0.049 H 
ATOM     50  H   LIG d   1       5.020  -7.021  -7.509  0.00  0.00     0.049 H 
BRANCH  48  51
ATOM     51  C   LIG d   1       5.226  -8.194  -5.714  0.00  0.00     0.063 C 
ATOM     52  H   LIG d   1       5.404  -8.991  -6.436  0.00  0.00     0.058 H 
ATOM     53  H   LIG d   1       6.144  -7.990  -5.164  0.00  0.00     0.058 H 
BRANCH  51  54
ATOM     54  O   LIG d   1       4.204  -8.600  -4.801  0.00  0.00    -0.381 OA
BRANCH  54  55
ATOM     55  C   LIG d   1       4.398  -9.905  -4.253  0.00  0.00     0.036 C 
ATOM     56  H   LIG d   1       4.034  -9.926  -3.225  0.00  0.00     0.052 H 
ATOM     57  H   LIG d   1       3.849 -10.634  -4.848  0.00  0.00     0.052 H 
ATOM     58  H   LIG d   1       5.461 -10.151  -4.267  0.00  0.00     0.052 H 
ENDBRANCH  54  55
ENDBRANCH  51  54
ENDBRANCH  48  51
ENDBRANCH   8  48
TORSDOF 7
ENDMDL
MODEL 6
REMARK VINA RESULT:      -5.9      2.413      3.286
REMARK  7 active torsions:
REMARK  status: ('A' for Active; 'I' for Inactive)
REMARK    1  A    between atoms: C_1  and  C_2 
REMARK    2  A    between atoms: C_5  and  C_8 
REMARK    3  A    between atoms: N_15  and  C_30 
REMARK    4  A    between atoms: C_18  and  C_29 
REMARK    5  A    between atoms: C_30  and  C_31 
REMARK    6  A    between atoms: C_31  and  O_32 
REMARK    7  A    between atoms: O_32  and  C_33 
ROOT
ATOM      1  C   LIG d   1       6.755  -0.804  -6.725  0.00  0.00     0.027 C 
ATOM      2  H   LIG d   1       7.080  -1.824  -6.524  0.00  0.00     0.041 H 
ATOM      3  C   LIG d   1       7.791  -0.098  -7.606  0.00  0.00     0.027 C 
ATOM      4  N   LIG d   1       8.967   0.239  -6.781  0.00  0.00    -0.280 N 
ATOM      5  C   LIG d   1      10.138  -0.346  -7.045  0.00  0.00     0.234 C 
ATOM      6  O   LIG d   1      10.225  -1.014  -8.053  0.00  0.00    -0.274 OA
ATOM      7  C   LIG d   1      11.351  -0.230  -6.178  0.00  0.00     0.091 C 
ATOM      8  N   LIG d   1      11.097   0.561  -4.985  0.00  0.00    -0.288 N 
ATOM      9  C   LIG d   1       9.952   1.203  -4.752  0.00  0.00     0.245 C 
ATOM     10  O   LIG d   1       9.850   1.831  -3.721  0.00  0.00    -0.273 OA
ATOM     11  C   LIG d   1       8.789   1.194  -5.688  0.00  0.00     0.151 C 
ATOM     12  C   LIG d   1       7.521   0.835  -4.952  0.00  0.00     0.054 A 
ATOM     13  C   LIG d   1       6.619  -0.054  -5.424  0.00  0.00    -0.008 A 
ATOM     14  C   LIG d   1       5.548  -0.127  -4.451  0.00  0.00     0.004 A 
ATOM     15  C   LIG d   1       4.360  -0.864  -4.403  0.00  0.00    -0.052 A 
ATOM     16  C   LIG d   1       3.561  -0.680  -3.300  0.00  0.00    -0.061 A 
ATOM     17  C   LIG d   1       3.905   0.190  -2.279  0.00  0.00    -0.060 A 
ATOM     18  C   LIG d   1       5.074   0.932  -2.302  0.00  0.00    -0.038 A 
ATOM     19  C   LIG d   1       5.903   0.767  -3.409  0.00  0.00     0.047 A 
ATOM     20  N   LIG d   1       7.101   1.330  -3.747  0.00  0.00    -0.356 N 
ATOM     21  H   LIG d   1       7.582   1.982  -3.213  0.00  0.00     0.166 HD
ATOM     22  H   LIG d   1       7.361   0.815  -8.017  0.00  0.00     0.047 H 
ATOM     23  H   LIG d   1       8.093  -0.758  -8.419  0.00  0.00     0.047 H 
ATOM     24  H   LIG d   1      12.151   0.239  -6.749  0.00  0.00     0.056 H 
ATOM     25  H   LIG d   1      11.667  -1.229  -5.879  0.00  0.00     0.056 H 
ATOM     26  H   LIG d   1       4.085  -1.545  -5.194  0.00  0.00     0.062 H 
ATOM     27  H   LIG d   1       2.638  -1.236  -3.226  0.00  0.00     0.062 H 
ATOM     28  H   LIG d   1       3.239   0.293  -1.436  0.00  0.00     0.062 H 
ATOM     29  H   LIG d   1       5.331   1.606  -1.498  0.00  0.00     0.064 H 
ENDROOT
BRANCH   1  30
ATOM     30  C   LIG d   1       5.424  -0.828  -7.434  0.00  0.00    -0.038 A 
ATOM     31  C   LIG d   1       4.834   0.356  -7.837  0.00  0.00    -0.058 A 
ATOM     32  C   LIG d   1       3.615   0.335  -8.487  0.00  0.00    -0.059 A 
ATOM     33  H   LIG d   1       5.327   1.298  -7.644  0.00  0.00     0.062 H 
ATOM     34  C   LIG d   1       2.985  -0.872  -8.734  0.00  0.00    -0.050 A 
ATOM     35  H   LIG d   1       3.155   1.259  -8.803  0.00  0.00     0.062 H 
ATOM     36  C   LIG d   1       3.574  -2.055  -8.330  0.00  0.00    -0.059 A 
ATOM     37  C   LIG d   1       4.797  -2.033  -7.684  0.00  0.00    -0.058 A 
ATOM     38  H   LIG d   1       3.083  -2.996  -8.524  0.00  0.00     0.062 H 
ATOM     39  H   LIG d   1       5.259  -2.958  -7.373  0.00  0.00     0.062 H 
BRANCH  34  40
ATOM     40  C   LIG d   1       1.655  -0.895  -9.443  0.00  0.00    -0.040 C 
ATOM     41  H   LIG d   1       1.816  -0.821 -10.518  0.00  0.00     0.028 H 
ATOM     42  H   LIG d   1       1.139  -1.829  -9.216  0.00  0.00     0.028 H 
ATOM     43  H   LIG d   1       1.049  -0.054  -9.107  0.00  0.00     0.028 H 
ENDBRANCH  34  40
ENDBRANCH   1  30
BRANCH  11  44
ATOM     44  C   LIG d   1       8.631   2.591  -6.294  0.00  0.00    -0.029 C 
ATOM     45  H   LIG d   1       8.888   3.342  -5.546  0.00  0.00     0.026 H 
ATOM     46  H   LIG d   1       9.295   2.691  -7.152  0.00  0.00     0.026 H 
ATOM     47  H   LIG d   1       7.598   2.733  -6.613  0.00  0.00     0.026 H 
ENDBRANCH  11  44
BRANCH   8  48
ATOM     48  C   LIG d   1      12.160   0.658  -3.982  0.00  0.00     0.039 C 
ATOM     49  H   LIG d   1      12.813   1.496  -4.224  0.00  0.00     0.049 H 
ATOM     50  H   LIG d   1      11.718   0.815  -2.998  0.00  0.00     0.049 H 
BRANCH  48  51
ATOM     51  C   LIG d   1      12.975  -0.637  -3.975  0.00  0.00     0.063 C 
ATOM     52  H   LIG d   1      12.391  -1.431  -3.508  0.00  0.00     0.058 H 
ATOM     53  H   LIG d   1      13.217  -0.920  -4.999  0.00  0.00     0.058 H 
BRANCH  51  54
ATOM     54  O   LIG d   1      14.181  -0.437  -3.236  0.00  0.00    -0.381 OA
BRANCH  54  55
ATOM     55  C   LIG d   1      14.661   0.908  -3.260  0.00  0.00     0.036 C 
ATOM     56  H   LIG d   1      14.074   1.516  -2.571  0.00  0.00     0.052 H 
ATOM     57  H   LIG d   1      15.708   0.926  -2.959  0.00  0.00     0.052 H 
ATOM     58  H   LIG d   1      14.567   1.310  -4.270  0.00  0.00     0.052 H 
ENDBRANCH  54  55
ENDBRANCH  51  54
ENDBRANCH  48  51
ENDBRANCH   8  48
TORSDOF 7
ENDMDL
MODEL 7
REMARK VINA RESULT:      -5.8      5.178      8.791
REMARK  7 active torsions:
REMARK  status: ('A' for Active; 'I' for Inactive)
REMARK    1  A    between atoms: C_1  and  C_2 
REMARK    2  A    between atoms: C_5  and  C_8 
REMARK    3  A    between atoms: N_15  and  C_30 
REMARK    4  A    between atoms: C_18  and  C_29 
REMARK    5  A    between atoms: C_30  and  C_31 
REMARK    6  A    between atoms: C_31  and  O_32 
REMARK    7  A    between atoms: O_32  and  C_33 
ROOT
ATOM      1  C   LIG d   1       3.913  -2.529  -7.527  0.00  0.00     0.027 C 
ATOM      2  H   LIG d   1       2.888  -2.841  -7.328  0.00  0.00     0.041 H 
ATOM      3  C   LIG d   1       4.524  -3.432  -8.605  0.00  0.00     0.027 C 
ATOM      4  N   LIG d   1       4.839  -4.742  -8.007  0.00  0.00    -0.280 N 
ATOM      5  C   LIG d   1       4.184  -5.827  -8.429  0.00  0.00     0.234 C 
ATOM      6  O   LIG d   1       3.466  -5.714  -9.400  0.00  0.00    -0.274 OA
ATOM      7  C   LIG d   1       4.278  -7.172  -7.783  0.00  0.00     0.091 C 
ATOM      8  N   LIG d   1       5.135  -7.156  -6.610  0.00  0.00    -0.288 N 
ATOM      9  C   LIG d   1       5.845  -6.095  -6.225  0.00  0.00     0.245 C 
ATOM     10  O   LIG d   1       6.524  -6.195  -5.226  0.00  0.00    -0.273 OA
ATOM     11  C   LIG d   1       5.852  -4.792  -6.953  0.00  0.00     0.151 C 
ATOM     12  C   LIG d   1       5.591  -3.651  -5.998  0.00  0.00     0.054 A 
ATOM     13  C   LIG d   1       4.729  -2.646  -6.265  0.00  0.00    -0.008 A 
ATOM     14  C   LIG d   1       4.755  -1.752  -5.125  0.00  0.00     0.004 A 
ATOM     15  C   LIG d   1       4.082  -0.560  -4.840  0.00  0.00    -0.052 A 
ATOM     16  C   LIG d   1       4.357   0.033  -3.632  0.00  0.00    -0.061 A 
ATOM     17  C   LIG d   1       5.254  -0.514  -2.730  0.00  0.00    -0.060 A 
ATOM     18  C   LIG d   1       5.935  -1.692  -2.987  0.00  0.00    -0.038 A 
ATOM     19  C   LIG d   1       5.677  -2.316  -4.206  0.00  0.00     0.047 A 
ATOM     20  N   LIG d   1       6.162  -3.462  -4.768  0.00  0.00    -0.356 N 
ATOM     21  H   LIG d   1       6.813  -4.053  -4.358  0.00  0.00     0.166 HD
ATOM     22  H   LIG d   1       5.437  -2.977  -8.989  0.00  0.00     0.047 H 
ATOM     23  H   LIG d   1       3.812  -3.564  -9.420  0.00  0.00     0.047 H 
ATOM     24  H   LIG d   1       4.679  -7.883  -8.505  0.00  0.00     0.056 H 
ATOM     25  H   LIG d   1       3.279  -7.492  -7.488  0.00  0.00     0.056 H 
ATOM     26  H   LIG d   1       3.380  -0.127  -5.536  0.00  0.00     0.062 H 
ATOM     27  H   LIG d   1       3.852   0.953  -3.375  0.00  0.00     0.062 H 
ATOM     28  H   LIG d   1       5.430  -0.004  -1.795  0.00  0.00     0.062 H 
ATOM     29  H   LIG d   1       6.632  -2.109  -2.275  0.00  0.00     0.064 H 
ENDROOT
BRANCH   1  30
ATOM     30  C   LIG d   1       3.924  -1.099  -8.003  0.00  0.00    -0.038 A 
ATOM     31  C   LIG d   1       2.741  -0.386  -8.076  0.00  0.00    -0.058 A 
ATOM     32  C   LIG d   1       2.750   0.926  -8.512  0.00  0.00    -0.059 A 
ATOM     33  H   LIG d   1       1.810  -0.854  -7.791  0.00  0.00     0.062 H 
ATOM     34  C   LIG d   1       3.943   1.524  -8.876  0.00  0.00    -0.050 A 
ATOM     35  H   LIG d   1       1.827   1.482  -8.568  0.00  0.00     0.062 H 
ATOM     36  C   LIG d   1       5.124   0.811  -8.803  0.00  0.00    -0.059 A 
ATOM     37  C   LIG d   1       5.115  -0.499  -8.362  0.00  0.00    -0.058 A 
ATOM     38  H   LIG d   1       6.056   1.279  -9.086  0.00  0.00     0.062 H 
ATOM     39  H   LIG d   1       6.040  -1.054  -8.301  0.00  0.00     0.062 H 
BRANCH  34  40
ATOM     40  C   LIG d   1       3.952   2.954  -9.351  0.00  0.00    -0.040 C 
ATOM     41  H   LIG d   1       4.740   3.085 -10.093  0.00  0.00     0.028 H 
ATOM     42  H   LIG d   1       2.988   3.194  -9.800  0.00  0.00     0.028 H 
ATOM     43  H   LIG d   1       4.135   3.617  -8.506  0.00  0.00     0.028 H 
ENDBRANCH  34  40
ENDBRANCH   1  30
BRANCH  11  44
ATOM     44  C   LIG d   1       7.225  -4.593  -7.599  0.00  0.00    -0.029 C 
ATOM     45  H   LIG d   1       7.252  -3.626  -8.101  0.00  0.00     0.026 H 
ATOM     46  H   LIG d   1       7.996  -4.623  -6.829  0.00  0.00     0.026 H 
ATOM     47  H   LIG d   1       7.404  -5.385  -8.325  0.00  0.00     0.026 H 
ENDBRANCH  11  44
BRANCH   8  48
ATOM     48  C   LIG d   1       5.225  -8.377  -5.804  0.00  0.00     0.039 C 
ATOM     49  H   LIG d   1       6.267  -8.566  -5.546  0.00  0.00     0.049 H 
ATOM     50  H   LIG d   1       4.642  -8.253  -4.891  0.00  0.00     0.049 H 
BRANCH  48  51
ATOM     51  C   LIG d   1       4.676  -9.559  -6.605  0.00  0.00     0.063 C 
ATOM     52  H   LIG d   1       3.935  -9.200  -7.320  0.00  0.00     0.058 H 
ATOM     53  H   LIG d   1       5.490 -10.045  -7.140  0.00  0.00     0.058 H 
BRANCH  51  54
ATOM     54  O   LIG d   1       4.063 -10.494  -5.715  0.00  0.00    -0.381 OA
BRANCH  54  55
ATOM     55  C   LIG d   1       3.903 -11.802  -6.267  0.00  0.00     0.036 C 
ATOM     56  H   LIG d   1       2.869 -12.125  -6.143  0.00  0.00     0.052 H 
ATOM     57  H   LIG d   1       4.152 -11.782  -7.327  0.00  0.00     0.052 H 
ATOM     58  H   LIG d   1       4.565 -12.498  -5.751  0.00  0.00     0.052 H 
ENDBRANCH  54  55
ENDBRANCH  51  54
ENDBRANCH  48  51
ENDBRANCH   8  48
TORSDOF 7
ENDMDL
MODEL 8
REMARK VINA RESULT:      -5.7      3.106      6.855
REMARK  7 active torsions:
REMARK  status: ('A' for Active; 'I' for Inactive)
REMARK    1  A    between atoms: C_1  and  C_2 
REMARK    2  A    between atoms: C_5  and  C_8 
REMARK    3  A    between atoms: N_15  and  C_30 
REMARK    4  A    between atoms: C_18  and  C_29 
REMARK    5  A    between atoms: C_30  and  C_31 
REMARK    6  A    between atoms: C_31  and  O_32 
REMARK    7  A    between atoms: O_32  and  C_33 
ROOT
ATOM      1  C   LIG d   1       7.725   1.624  -7.309  0.00  0.00     0.027 C 
ATOM      2  H   LIG d   1       6.825   2.230  -7.407  0.00  0.00     0.041 H 
ATOM      3  C   LIG d   1       7.408   0.170  -7.679  0.00  0.00     0.027 C 
ATOM      4  N   LIG d   1       6.645  -0.446  -6.577  0.00  0.00    -0.280 N 
ATOM      5  C   LIG d   1       5.383  -0.828  -6.790  0.00  0.00     0.234 C 
ATOM      6  O   LIG d   1       4.966  -0.795  -7.929  0.00  0.00    -0.274 OA
ATOM      7  C   LIG d   1       4.452  -1.293  -5.718  0.00  0.00     0.091 C 
ATOM      8  N   LIG d   1       5.065  -1.242  -4.401  0.00  0.00    -0.288 N 
ATOM      9  C   LIG d   1       6.344  -0.929  -4.191  0.00  0.00     0.245 C 
ATOM     10  O   LIG d   1       6.747  -0.914  -3.049  0.00  0.00    -0.273 OA
ATOM     11  C   LIG d   1       7.307  -0.595  -5.281  0.00  0.00     0.151 C 
ATOM     12  C   LIG d   1       8.029   0.695  -4.972  0.00  0.00     0.054 A 
ATOM     13  C   LIG d   1       8.214   1.675  -5.884  0.00  0.00    -0.008 A 
ATOM     14  C   LIG d   1       8.944   2.737  -5.221  0.00  0.00     0.004 A 
ATOM     15  C   LIG d   1       9.413   3.981  -5.657  0.00  0.00    -0.052 A 
ATOM     16  C   LIG d   1      10.081   4.749  -4.736  0.00  0.00    -0.061 A 
ATOM     17  C   LIG d   1      10.286   4.324  -3.433  0.00  0.00    -0.060 A 
ATOM     18  C   LIG d   1       9.834   3.098  -2.976  0.00  0.00    -0.038 A 
ATOM     19  C   LIG d   1       9.154   2.296  -3.890  0.00  0.00     0.047 A 
ATOM     20  N   LIG d   1       8.588   1.058  -3.776  0.00  0.00    -0.356 N 
ATOM     21  H   LIG d   1       8.582   0.518  -2.971  0.00  0.00     0.166 HD
ATOM     22  H   LIG d   1       8.337  -0.379  -7.832  0.00  0.00     0.047 H 
ATOM     23  H   LIG d   1       6.815   0.145  -8.593  0.00  0.00     0.047 H 
ATOM     24  H   LIG d   1       4.154  -2.320  -5.929  0.00  0.00     0.056 H 
ATOM     25  H   LIG d   1       3.566  -0.659  -5.720  0.00  0.00     0.056 H 
ATOM     26  H   LIG d   1       9.256   4.320  -6.670  0.00  0.00     0.062 H 
ATOM     27  H   LIG d   1      10.453   5.718  -5.035  0.00  0.00     0.062 H 
ATOM     28  H   LIG d   1      10.818   4.971  -2.752  0.00  0.00     0.062 H 
ATOM     29  H   LIG d   1      10.000   2.779  -1.957  0.00  0.00     0.064 H 
ENDROOT
BRANCH   1  30
ATOM     30  C   LIG d   1       8.795   2.155  -8.228  0.00  0.00    -0.038 A 
ATOM     31  C   LIG d   1       8.568   3.305  -8.962  0.00  0.00    -0.058 A 
ATOM     32  C   LIG d   1       9.549   3.792  -9.804  0.00  0.00    -0.059 A 
ATOM     33  H   LIG d   1       7.624   3.822  -8.876  0.00  0.00     0.062 H 
ATOM     34  C   LIG d   1      10.758   3.129  -9.913  0.00  0.00    -0.050 A 
ATOM     35  H   LIG d   1       9.372   4.690 -10.377  0.00  0.00     0.062 H 
ATOM     36  C   LIG d   1      10.985   1.980  -9.180  0.00  0.00    -0.059 A 
ATOM     37  C   LIG d   1      10.005   1.496  -8.334  0.00  0.00    -0.058 A 
ATOM     38  H   LIG d   1      11.929   1.464  -9.265  0.00  0.00     0.062 H 
ATOM     39  H   LIG d   1      10.185   0.600  -7.757  0.00  0.00     0.062 H 
BRANCH  34  40
ATOM     40  C   LIG d   1      11.827   3.661 -10.832  0.00  0.00    -0.040 C 
ATOM     41  H   LIG d   1      11.964   2.974 -11.667  0.00  0.00     0.028 H 
ATOM     42  H   LIG d   1      11.526   4.638 -11.212  0.00  0.00     0.028 H 
ATOM     43  H   LIG d   1      12.764   3.758 -10.283  0.00  0.00     0.028 H 
ENDBRANCH  34  40
ENDBRANCH   1  30
BRANCH  11  44
ATOM     44  C   LIG d   1       8.336  -1.722  -5.396  0.00  0.00    -0.029 C 
ATOM     45  H   LIG d   1       7.831  -2.684  -5.307  0.00  0.00     0.026 H 
ATOM     46  H   LIG d   1       8.834  -1.662  -6.363  0.00  0.00     0.026 H 
ATOM     47  H   LIG d   1       9.074  -1.623  -4.600  0.00  0.00     0.026 H 
ENDBRANCH  11  44
BRANCH   8  48
ATOM     48  C   LIG d   1       4.230  -1.554  -3.238  0.00  0.00     0.039 C 
ATOM     49  H   LIG d   1       3.886  -2.586  -3.304  0.00  0.00     0.049 H 
ATOM     50  H   LIG d   1       4.814  -1.423  -2.327  0.00  0.00     0.049 H 
BRANCH  48  51
ATOM     51  C   LIG d   1       3.023  -0.614  -3.210  0.00  0.00     0.063 C 
ATOM     52  H   LIG d   1       2.898  -0.155  -4.191  0.00  0.00     0.058 H 
ATOM     53  H   LIG d   1       2.127  -1.181  -2.958  0.00  0.00     0.058 H 
BRANCH  51  54
ATOM     54  O   LIG d   1       3.235   0.405  -2.231  0.00  0.00    -0.381 OA
BRANCH  54  55
ATOM     55  C   LIG d   1       3.764   1.620  -2.763  0.00  0.00     0.036 C 
ATOM     56  H   LIG d   1       3.034   2.421  -2.638  0.00  0.00     0.052 H 
ATOM     57  H   LIG d   1       4.681   1.879  -2.234  0.00  0.00     0.052 H 
ATOM     58  H   LIG d   1       3.981   1.490  -3.824  0.00  0.00     0.052 H 
ENDBRANCH  54  55
ENDBRANCH  51  54
ENDBRANCH  48  51
ENDBRANCH   8  48
TORSDOF 7
ENDMDL
MODEL 9
REMARK VINA RESULT:      -5.7      5.652      9.708
REMARK  7 active torsions:
REMARK  status: ('A' for Active; 'I' for Inactive)
REMARK    1  A    between atoms: C_1  and  C_2 
REMARK    2  A    between atoms: C_5  and  C_8 
REMARK    3  A    between atoms: N_15  and  C_30 
REMARK    4  A    between atoms: C_18  and  C_29 
REMARK    5  A    between atoms: C_30  and  C_31 
REMARK    6  A    between atoms: C_31  and  O_32 
REMARK    7  A    between atoms: O_32  and  C_33 
ROOT
ATOM      1  C   LIG d   1      10.475   6.921  -2.624  0.00  0.00     0.027 C 
ATOM      2  H   LIG d   1      10.445   7.781  -3.293  0.00  0.00     0.041 H 
ATOM      3  C   LIG d   1       9.523   7.153  -1.445  0.00  0.00     0.027 C 
ATOM      4  N   LIG d   1      10.135   8.129  -0.525  0.00  0.00    -0.280 N 
ATOM      5  C   LIG d   1       9.553   9.318  -0.352  0.00  0.00     0.234 C 
ATOM      6  O   LIG d   1       8.456   9.490  -0.842  0.00  0.00    -0.274 OA
ATOM      7  C   LIG d   1      10.164  10.453   0.405  0.00  0.00     0.091 C 
ATOM      8  N   LIG d   1      11.491  10.129   0.900  0.00  0.00    -0.288 N 
ATOM      9  C   LIG d   1      12.047   8.922   0.791  0.00  0.00     0.245 C 
ATOM     10  O   LIG d   1      13.163   8.766   1.238  0.00  0.00    -0.273 OA
ATOM     11  C   LIG d   1      11.376   7.752   0.151  0.00  0.00     0.151 C 
ATOM     12  C   LIG d   1      12.289   7.111  -0.867  0.00  0.00     0.054 A 
ATOM     13  C   LIG d   1      11.876   6.740  -2.099  0.00  0.00    -0.008 A 
ATOM     14  C   LIG d   1      13.022   6.165  -2.773  0.00  0.00     0.004 A 
ATOM     15  C   LIG d   1      13.195   5.615  -4.048  0.00  0.00    -0.052 A 
ATOM     16  C   LIG d   1      14.451   5.155  -4.359  0.00  0.00    -0.061 A 
ATOM     17  C   LIG d   1      15.504   5.225  -3.463  0.00  0.00    -0.060 A 
ATOM     18  C   LIG d   1      15.361   5.763  -2.195  0.00  0.00    -0.038 A 
ATOM     19  C   LIG d   1      14.097   6.237  -1.851  0.00  0.00     0.047 A 
ATOM     20  N   LIG d   1      13.616   6.814  -0.710  0.00  0.00    -0.356 N 
ATOM     21  H   LIG d   1      14.136   6.988   0.090  0.00  0.00     0.166 HD
ATOM     22  H   LIG d   1       9.354   6.212  -0.921  0.00  0.00     0.047 H 
ATOM     23  H   LIG d   1       8.573   7.543  -1.812  0.00  0.00     0.047 H 
ATOM     24  H   LIG d   1       9.522  10.700   1.250  0.00  0.00     0.056 H 
ATOM     25  H   LIG d   1      10.234  11.319  -0.253  0.00  0.00     0.056 H 
ATOM     26  H   LIG d   1      12.380   5.558  -4.753  0.00  0.00     0.062 H 
ATOM     27  H   LIG d   1      14.624   4.728  -5.336  0.00  0.00     0.062 H 
ATOM     28  H   LIG d   1      16.470   4.848  -3.763  0.00  0.00     0.062 H 
ATOM     29  H   LIG d   1      16.191   5.813  -1.505  0.00  0.00     0.064 H 
ENDROOT
BRANCH   1  30
ATOM     30  C   LIG d   1      10.055   5.682  -3.374  0.00  0.00    -0.038 A 
ATOM     31  C   LIG d   1       9.937   4.477  -2.707  0.00  0.00    -0.058 A 
ATOM     32  C   LIG d   1       9.552   3.341  -3.394  0.00  0.00    -0.059 A 
ATOM     33  H   LIG d   1      10.146   4.423  -1.648  0.00  0.00     0.062 H 
ATOM     34  C   LIG d   1       9.284   3.411  -4.749  0.00  0.00    -0.050 A 
ATOM     35  H   LIG d   1       9.460   2.400  -2.873  0.00  0.00     0.062 H 
ATOM     36  C   LIG d   1       9.402   4.616  -5.416  0.00  0.00    -0.059 A 
ATOM     37  C   LIG d   1       9.783   5.753  -4.727  0.00  0.00    -0.058 A 
ATOM     38  H   LIG d   1       9.192   4.670  -6.473  0.00  0.00     0.062 H 
ATOM     39  H   LIG d   1       9.870   6.695  -5.247  0.00  0.00     0.062 H 
BRANCH  34  40
ATOM     40  C   LIG d   1       8.864   2.173  -5.498  0.00  0.00    -0.040 C 
ATOM     41  H   LIG d   1       9.727   1.746  -6.008  0.00  0.00     0.028 H 
ATOM     42  H   LIG d   1       8.460   1.443  -4.795  0.00  0.00     0.028 H 
ATOM     43  H   LIG d   1       8.100   2.432  -6.230  0.00  0.00     0.028 H 
ENDBRANCH  34  40
ENDBRANCH   1  30
BRANCH  11  44
ATOM     44  C   LIG d   1      11.040   6.722   1.232  0.00  0.00    -0.029 C 
ATOM     45  H   LIG d   1      10.422   5.934   0.802  0.00  0.00     0.026 H 
ATOM     46  H   LIG d   1      11.962   6.290   1.621  0.00  0.00     0.026 H 
ATOM     47  H   LIG d   1      10.496   7.209   2.041  0.00  0.00     0.026 H 
ENDBRANCH  11  44
BRANCH   8  48
ATOM     48  C   LIG d   1      12.261  11.188   1.557  0.00  0.00     0.039 C 
ATOM     49  H   LIG d   1      11.900  11.321   2.576  0.00  0.00     0.049 H 
ATOM     50  H   LIG d   1      13.315  10.910   1.579  0.00  0.00     0.049 H 
BRANCH  48  51
ATOM     51  C   LIG d   1      12.094  12.496   0.782  0.00  0.00     0.063 C 
ATOM     52  H   LIG d   1      13.074  12.877   0.496  0.00  0.00     0.058 H 
ATOM     53  H   LIG d   1      11.500  12.314  -0.114  0.00  0.00     0.058 H 
BRANCH  51  54
ATOM     54  O   LIG d   1      11.432  13.457   1.606  0.00  0.00    -0.381 OA
BRANCH  54  55
ATOM     55  C   LIG d   1      10.428  14.213   0.927  0.00  0.00     0.036 C 
ATOM     56  H   LIG d   1       9.771  13.536   0.379  0.00  0.00     0.052 H 
ATOM     57  H   LIG d   1       9.844  14.777   1.653  0.00  0.00     0.052 H 
ATOM     58  H   LIG d   1      10.902  14.903   0.228  0.00  0.00     0.052 H 
ENDBRANCH  54  55
ENDBRANCH  51  54
ENDBRANCH  48  51
ENDBRANCH   8  48
TORSDOF 7
ENDMDL
MODEL 10
REMARK VINA RESULT:      -5.7      3.558      7.820
REMARK  7 active torsions:
REMARK  status: ('A' for Active; 'I' for Inactive)
REMARK    1  A    between atoms: C_1  and  C_2 
REMARK    2  A    between atoms: C_5  and  C_8 
REMARK    3  A    between atoms: N_15  and  C_30 
REMARK    4  A    between atoms: C_18  and  C_29 
REMARK    5  A    between atoms: C_30  and  C_31 
REMARK    6  A    between atoms: C_31  and  O_32 
REMARK    7  A    between atoms: O_32  and  C_33 
ROOT
ATOM      1  C   LIG d   1       7.114  -0.620  -6.265  0.00  0.00     0.027 C 
ATOM      2  H   LIG d   1       6.437  -0.143  -6.974  0.00  0.00     0.041 H 
ATOM      3  C   LIG d   1       7.840  -1.782  -6.951  0.00  0.00     0.027 C 
ATOM      4  N   LIG d   1       6.900  -2.909  -7.101  0.00  0.00    -0.280 N 
ATOM      5  C   LIG d   1       6.540  -3.301  -8.326  0.00  0.00     0.234 C 
ATOM      6  O   LIG d   1       7.124  -2.814  -9.272  0.00  0.00    -0.274 OA
ATOM      7  C   LIG d   1       5.466  -4.300  -8.608  0.00  0.00     0.091 C 
ATOM      8  N   LIG d   1       4.822  -4.770  -7.393  0.00  0.00    -0.288 N 
ATOM      9  C   LIG d   1       5.223  -4.435  -6.166  0.00  0.00     0.245 C 
ATOM     10  O   LIG d   1       4.609  -4.884  -5.223  0.00  0.00    -0.273 OA
ATOM     11  C   LIG d   1       6.385  -3.541  -5.887  0.00  0.00     0.151 C 
ATOM     12  C   LIG d   1       5.992  -2.449  -4.920  0.00  0.00     0.054 A 
ATOM     13  C   LIG d   1       6.325  -1.151  -5.096  0.00  0.00    -0.008 A 
ATOM     14  C   LIG d   1       5.779  -0.419  -3.971  0.00  0.00     0.004 A 
ATOM     15  C   LIG d   1       5.808   0.934  -3.618  0.00  0.00    -0.052 A 
ATOM     16  C   LIG d   1       5.169   1.284  -2.453  0.00  0.00    -0.061 A 
ATOM     17  C   LIG d   1       4.522   0.351  -1.659  0.00  0.00    -0.060 A 
ATOM     18  C   LIG d   1       4.480  -0.994  -1.985  0.00  0.00    -0.038 A 
ATOM     19  C   LIG d   1       5.121  -1.378  -3.161  0.00  0.00     0.047 A 
ATOM     20  N   LIG d   1       5.271  -2.594  -3.766  0.00  0.00    -0.356 N 
ATOM     21  H   LIG d   1       4.920  -3.433  -3.428  0.00  0.00     0.166 HD
ATOM     22  H   LIG d   1       8.689  -2.093  -6.342  0.00  0.00     0.047 H 
ATOM     23  H   LIG d   1       8.192  -1.467  -7.934  0.00  0.00     0.047 H 
ATOM     24  H   LIG d   1       5.903  -5.152  -9.129  0.00  0.00     0.056 H 
ATOM     25  H   LIG d   1       4.715  -3.839  -9.251  0.00  0.00     0.056 H 
ATOM     26  H   LIG d   1       6.308   1.668  -4.231  0.00  0.00     0.062 H 
ATOM     27  H   LIG d   1       5.166   2.321  -2.150  0.00  0.00     0.062 H 
ATOM     28  H   LIG d   1       4.036   0.684  -0.755  0.00  0.00     0.062 H 
ATOM     29  H   LIG d   1       3.971  -1.711  -1.358  0.00  0.00     0.064 H 
ENDROOT
BRANCH   1  30
ATOM     30  C   LIG d   1       8.124   0.386  -5.775  0.00  0.00    -0.038 A 
ATOM     31  C   LIG d   1       9.187  -0.026  -4.994  0.00  0.00    -0.058 A 
ATOM     32  C   LIG d   1      10.114   0.896  -4.545  0.00  0.00    -0.059 A 
ATOM     33  H   LIG d   1       9.294  -1.070  -4.734  0.00  0.00     0.062 H 
ATOM     34  C   LIG d   1       9.976   2.231  -4.878  0.00  0.00    -0.050 A 
ATOM     35  H   LIG d   1      10.944   0.574  -3.935  0.00  0.00     0.062 H 
ATOM     36  C   LIG d   1       8.914   2.643  -5.658  0.00  0.00    -0.059 A 
ATOM     37  C   LIG d   1       7.990   1.720  -6.111  0.00  0.00    -0.058 A 
ATOM     38  H   LIG d   1       8.807   3.686  -5.919  0.00  0.00     0.062 H 
ATOM     39  H   LIG d   1       7.162   2.042  -6.726  0.00  0.00     0.062 H 
BRANCH  34  40
ATOM     40  C   LIG d   1      10.987   3.236  -4.388  0.00  0.00    -0.040 C 
ATOM     41  H   LIG d   1      11.870   3.205  -5.026  0.00  0.00     0.028 H 
ATOM     42  H   LIG d   1      10.551   4.235  -4.421  0.00  0.00     0.028 H 
ATOM     43  H   LIG d   1      11.270   2.997  -3.363  0.00  0.00     0.028 H 
ENDBRANCH  34  40
ENDBRANCH   1  30
BRANCH  11  44
ATOM     44  C   LIG d   1       7.510  -4.371  -5.264  0.00  0.00    -0.029 C 
ATOM     45  H   LIG d   1       7.144  -5.374  -5.047  0.00  0.00     0.026 H 
ATOM     46  H   LIG d   1       8.345  -4.432  -5.963  0.00  0.00     0.026 H 
ATOM     47  H   LIG d   1       7.843  -3.897  -4.341  0.00  0.00     0.026 H 
ENDBRANCH  11  44
BRANCH   8  48
ATOM     48  C   LIG d   1       3.667  -5.662  -7.523  0.00  0.00     0.039 C 
ATOM     49  H   LIG d   1       3.288  -5.912  -6.533  0.00  0.00     0.049 H 
ATOM     50  H   LIG d   1       2.885  -5.163  -8.096  0.00  0.00     0.049 H 
BRANCH  48  51
ATOM     51  C   LIG d   1       4.091  -6.942  -8.245  0.00  0.00     0.063 C 
ATOM     52  H   LIG d   1       4.830  -6.701  -9.009  0.00  0.00     0.058 H 
ATOM     53  H   LIG d   1       4.525  -7.638  -7.528  0.00  0.00     0.058 H 
BRANCH  51  54
ATOM     54  O   LIG d   1       2.949  -7.542  -8.861  0.00  0.00    -0.381 OA
BRANCH  54  55
ATOM     55  C   LIG d   1       2.448  -6.818  -9.986  0.00  0.00     0.036 C 
ATOM     56  H   LIG d   1       3.198  -6.810 -10.777  0.00  0.00     0.052 H 
ATOM     57  H   LIG d   1       1.540  -7.298 -10.351  0.00  0.00     0.052 H 
ATOM     58  H   LIG d   1       2.222  -5.793  -9.688  0.00  0.00     0.052 H 
ENDBRANCH  54  55
ENDBRANCH  51  54
ENDBRANCH  48  51
ENDBRANCH   8  48
TORSDOF 7
ENDMDL
