MODEL 1
REMARK VINA RESULT:      -6.1      0.000      0.000
REMARK  8 active torsions:
REMARK  status: ('A' for Active; 'I' for Inactive)
REMARK    1  A    between atoms: C_1  and  C_2 
REMARK    2  A    between atoms: C_18  and  C_20 
REMARK    3  A    between atoms: C_20  and  N_54 
REMARK    4  A    between atoms: C_21  and  C_22 
REMARK    5  A    between atoms: C_21  and  N_54 
REMARK    6  A    between atoms: C_22  and  C_23 
REMARK    7  A    between atoms: C_23  and  O_24 
REMARK    8  A    between atoms: O_24  and  C_25 
ROOT
ATOM      1  C   LIG d   1       4.756  -0.980  -3.151  0.00  0.00    -0.023 C 
ATOM      2  C   LIG d   1       4.911   0.047  -2.030  0.00  0.00    -0.047 C 
ATOM      3  C   LIG d   1       3.671   0.939  -1.967  0.00  0.00    -0.050 C 
ATOM      4  C   LIG d   1       3.539   1.727  -3.275  0.00  0.00    -0.021 C 
ATOM      5  C   LIG d   1       3.502   0.741  -4.445  0.00  0.00     0.096 A 
ATOM      6  C   LIG d   1       4.664  -0.251  -4.498  0.00  0.00    -0.004 C 
ATOM      7  H   LIG d   1       5.594   0.283  -4.692  0.00  0.00     0.034 H 
ATOM      8  C   LIG d   1       4.411  -1.291  -5.588  0.00  0.00    -0.040 C 
ATOM      9  C   LIG d   1       5.580  -2.272  -5.682  0.00  0.00     0.014 C 
ATOM     10  H   LIG d   1       6.463  -1.842  -6.155  0.00  0.00     0.035 H 
ATOM     11  C   LIG d   1       5.885  -2.900  -4.309  0.00  0.00     0.107 C 
ATOM     12  H   LIG d   1       6.830  -3.438  -4.385  0.00  0.00     0.074 H 
ATOM     13  C   LIG d   1       5.983  -1.891  -3.191  0.00  0.00    -0.010 C 
ATOM     14  O   LIG d   1       4.809  -3.862  -4.126  0.00  0.00    -0.461 OA
ATOM     15  C   LIG d   1       4.609  -4.466  -5.320  0.00  0.00     0.316 C 
ATOM     16  O   LIG d   1       4.157  -5.576  -5.476  0.00  0.00    -0.250 OA
ATOM     17  C   LIG d   1       5.042  -3.528  -6.432  0.00  0.00     0.102 C 
ATOM     18  H   LIG d   1       5.830  -3.985  -7.030  0.00  0.00     0.047 H 
ATOM     19  C   LIG d   1       2.135   0.269  -4.937  0.00  0.00     0.078 A 
ATOM     20  O   LIG d   1       2.942   1.187  -5.679  0.00  0.00    -0.368 OA
ATOM     21  H   LIG d   1       5.033  -0.471  -1.078  0.00  0.00     0.027 H 
ATOM     22  H   LIG d   1       5.790   0.661  -2.221  0.00  0.00     0.027 H 
ATOM     23  H   LIG d   1       3.764   1.634  -1.132  0.00  0.00     0.027 H 
ATOM     24  H   LIG d   1       2.784   0.320  -1.827  0.00  0.00     0.027 H 
ATOM     25  H   LIG d   1       4.396   2.393  -3.386  0.00  0.00     0.029 H 
ATOM     26  H   LIG d   1       2.620   2.312  -3.260  0.00  0.00     0.029 H 
ATOM     27  H   LIG d   1       3.498  -1.840  -5.353  0.00  0.00     0.027 H 
ATOM     28  H   LIG d   1       4.289  -0.785  -6.545  0.00  0.00     0.027 H 
ATOM     29  H   LIG d   1       6.066  -2.419  -2.241  0.00  0.00     0.031 H 
ATOM     30  H   LIG d   1       6.874  -1.281  -3.338  0.00  0.00     0.031 H 
ATOM     31  H   LIG d   1       2.053  -0.752  -5.309  0.00  0.00     0.059 H 
ATOM     32  H   LIG d   1       1.251   0.661  -4.434  0.00  0.00     0.059 H 
ENDROOT
BRANCH  17  33
ATOM     33  C   LIG d   1       3.849  -3.156  -7.313  0.00  0.00    -0.020 C 
ATOM     34  H   LIG d   1       4.155  -2.405  -8.042  0.00  0.00     0.082 H 
ATOM     35  H   LIG d   1       3.049  -2.753  -6.691  0.00  0.00     0.082 H 
BRANCH  33  36
ATOM     36  N   LIG d   1       3.371  -4.363  -8.015  0.00  0.00     0.228 N 
ATOM     37  H   LIG d   1       2.596  -4.779  -7.485  0.00  0.00     0.201 HD
ATOM     38  H   LIG d   1       4.139  -5.040  -8.085  0.00  0.00     0.201 HD
BRANCH  36  39
ATOM     39  C   LIG d   1       2.902  -4.015  -9.369  0.00  0.00    -0.032 C 
ATOM     40  H   LIG d   1       1.893  -4.399  -9.518  0.00  0.00     0.081 H 
ATOM     41  H   LIG d   1       3.572  -4.450 -10.111  0.00  0.00     0.081 H 
BRANCH  39  42
ATOM     42  C   LIG d   1       2.894  -2.492  -9.521  0.00  0.00     0.011 C 
ATOM     43  H   LIG d   1       3.007  -2.028  -8.541  0.00  0.00     0.034 H 
ATOM     44  H   LIG d   1       3.720  -2.186 -10.164  0.00  0.00     0.034 H 
BRANCH  42  45
ATOM     45  C   LIG d   1       1.570  -2.048 -10.145  0.00  0.00     0.052 C 
ATOM     46  H   LIG d   1       1.642  -2.108 -11.231  0.00  0.00     0.056 H 
ATOM     47  H   LIG d   1       0.768  -2.699  -9.798  0.00  0.00     0.056 H 
BRANCH  45  48
ATOM     48  O   LIG d   1       1.289  -0.700  -9.760  0.00  0.00    -0.383 OA
BRANCH  48  49
ATOM     49  C   LIG d   1       2.303  -0.104  -8.948  0.00  0.00     0.036 C 
ATOM     50  H   LIG d   1       3.110  -0.819  -8.793  0.00  0.00     0.052 H 
ATOM     51  H   LIG d   1       2.693   0.782  -9.448  0.00  0.00     0.052 H 
ATOM     52  H   LIG d   1       1.876   0.179  -7.986  0.00  0.00     0.052 H 
ENDBRANCH  48  49
ENDBRANCH  45  48
ENDBRANCH  42  45
ENDBRANCH  39  42
ENDBRANCH  36  39
ENDBRANCH  33  36
ENDBRANCH  17  33
BRANCH   1  53
ATOM     53  C   LIG d   1       3.496  -1.821  -2.933  0.00  0.00    -0.059 C 
ATOM     54  H   LIG d   1       2.634  -1.299  -3.347  0.00  0.00     0.024 H 
ATOM     55  H   LIG d   1       3.612  -2.784  -3.431  0.00  0.00     0.024 H 
ATOM     56  H   LIG d   1       3.346  -1.981  -1.865  0.00  0.00     0.024 H 
ENDBRANCH   1  53
TORSDOF 8
ENDMDL
MODEL 2
REMARK VINA RESULT:      -5.9      2.121      2.829
REMARK  8 active torsions:
REMARK  status: ('A' for Active; 'I' for Inactive)
REMARK    1  A    between atoms: C_1  and  C_2 
REMARK    2  A    between atoms: C_18  and  C_20 
REMARK    3  A    between atoms: C_20  and  N_54 
REMARK    4  A    between atoms: C_21  and  C_22 
REMARK    5  A    between atoms: C_21  and  N_54 
REMARK    6  A    between atoms: C_22  and  C_23 
REMARK    7  A    between atoms: C_23  and  O_24 
REMARK    8  A    between atoms: O_24  and  C_25 
ROOT
ATOM      1  C   LIG d   1       5.329  -1.491  -3.938  0.00  0.00    -0.023 C 
ATOM      2  C   LIG d   1       5.719  -1.159  -2.497  0.00  0.00    -0.047 C 
ATOM      3  C   LIG d   1       4.497  -0.642  -1.736  0.00  0.00    -0.050 C 
ATOM      4  C   LIG d   1       4.008   0.662  -2.375  0.00  0.00    -0.021 C 
ATOM      5  C   LIG d   1       3.719   0.409  -3.857  0.00  0.00     0.096 A 
ATOM      6  C   LIG d   1       4.871  -0.211  -4.649  0.00  0.00    -0.004 C 
ATOM      7  H   LIG d   1       5.700   0.495  -4.705  0.00  0.00     0.034 H 
ATOM      8  C   LIG d   1       4.396  -0.587  -6.050  0.00  0.00    -0.040 C 
ATOM      9  C   LIG d   1       5.544  -1.175  -6.872  0.00  0.00     0.014 C 
ATOM     10  H   LIG d   1       6.261  -0.425  -7.205  0.00  0.00     0.035 H 
ATOM     11  C   LIG d   1       6.211  -2.347  -6.127  0.00  0.00     0.107 C 
ATOM     12  H   LIG d   1       7.128  -2.606  -6.656  0.00  0.00     0.074 H 
ATOM     13  C   LIG d   1       6.544  -2.038  -4.689  0.00  0.00    -0.010 C 
ATOM     14  O   LIG d   1       5.256  -3.435  -6.278  0.00  0.00    -0.461 OA
ATOM     15  C   LIG d   1       4.788  -3.380  -7.545  0.00  0.00     0.316 C 
ATOM     16  O   LIG d   1       4.359  -4.318  -8.175  0.00  0.00    -0.250 OA
ATOM     17  C   LIG d   1       4.888  -1.953  -8.052  0.00  0.00     0.102 C 
ATOM     18  H   LIG d   1       5.518  -1.908  -8.940  0.00  0.00     0.047 H 
ATOM     19  C   LIG d   1       2.293   0.026  -4.250  0.00  0.00     0.078 A 
ATOM     20  O   LIG d   1       2.849   1.314  -4.534  0.00  0.00    -0.368 OA
ATOM     21  H   LIG d   1       6.098  -2.057  -2.008  0.00  0.00     0.027 H 
ATOM     22  H   LIG d   1       6.494  -0.394  -2.500  0.00  0.00     0.027 H 
ATOM     23  H   LIG d   1       4.768  -0.457  -0.696  0.00  0.00     0.027 H 
ATOM     24  H   LIG d   1       3.702  -1.386  -1.777  0.00  0.00     0.027 H 
ATOM     25  H   LIG d   1       4.780   1.426  -2.280  0.00  0.00     0.029 H 
ATOM     26  H   LIG d   1       3.099   0.996  -1.877  0.00  0.00     0.029 H 
ATOM     27  H   LIG d   1       3.596  -1.324  -5.972  0.00  0.00     0.027 H 
ATOM     28  H   LIG d   1       4.016   0.304  -6.551  0.00  0.00     0.027 H 
ATOM     29  H   LIG d   1       6.886  -2.950  -4.197  0.00  0.00     0.031 H 
ATOM     30  H   LIG d   1       7.343  -1.298  -4.658  0.00  0.00     0.031 H 
ATOM     31  H   LIG d   1       2.164  -0.665  -5.083  0.00  0.00     0.059 H 
ATOM     32  H   LIG d   1       1.549  -0.042  -3.457  0.00  0.00     0.059 H 
ENDROOT
BRANCH  17  33
ATOM     33  C   LIG d   1       3.497  -1.395  -8.355  0.00  0.00    -0.020 C 
ATOM     34  H   LIG d   1       3.043  -1.029  -7.434  0.00  0.00     0.082 H 
ATOM     35  H   LIG d   1       2.873  -2.182  -8.779  0.00  0.00     0.082 H 
BRANCH  33  36
ATOM     36  N   LIG d   1       3.620  -0.287  -9.322  0.00  0.00     0.228 N 
ATOM     37  H   LIG d   1       3.566  -0.661 -10.276  0.00  0.00     0.201 HD
ATOM     38  H   LIG d   1       4.526   0.179  -9.188  0.00  0.00     0.201 HD
BRANCH  36  39
ATOM     39  C   LIG d   1       2.534   0.691  -9.120  0.00  0.00    -0.032 C 
ATOM     40  H   LIG d   1       1.926   0.393  -8.266  0.00  0.00     0.081 H 
ATOM     41  H   LIG d   1       1.912   0.736 -10.014  0.00  0.00     0.081 H 
BRANCH  39  42
ATOM     42  C   LIG d   1       3.144   2.069  -8.854  0.00  0.00     0.011 C 
ATOM     43  H   LIG d   1       2.528   2.836  -9.323  0.00  0.00     0.034 H 
ATOM     44  H   LIG d   1       3.188   2.246  -7.779  0.00  0.00     0.034 H 
BRANCH  42  45
ATOM     45  C   LIG d   1       4.557   2.123  -9.438  0.00  0.00     0.052 C 
ATOM     46  H   LIG d   1       4.648   1.388 -10.238  0.00  0.00     0.056 H 
ATOM     47  H   LIG d   1       4.748   3.119  -9.837  0.00  0.00     0.056 H 
BRANCH  45  48
ATOM     48  O   LIG d   1       5.509   1.832  -8.413  0.00  0.00    -0.383 OA
BRANCH  48  49
ATOM     49  C   LIG d   1       6.867   1.847  -8.858  0.00  0.00     0.036 C 
ATOM     50  H   LIG d   1       7.011   2.673  -9.554  0.00  0.00     0.052 H 
ATOM     51  H   LIG d   1       7.528   1.975  -8.001  0.00  0.00     0.052 H 
ATOM     52  H   LIG d   1       7.095   0.906  -9.356  0.00  0.00     0.052 H 
ENDBRANCH  48  49
ENDBRANCH  45  48
ENDBRANCH  42  45
ENDBRANCH  39  42
ENDBRANCH  36  39
ENDBRANCH  33  36
ENDBRANCH  17  33
BRANCH   1  53
ATOM     53  C   LIG d   1       4.202  -2.526  -3.960  0.00  0.00    -0.059 C 
ATOM     54  H   LIG d   1       4.242  -3.127  -3.052  0.00  0.00     0.024 H 
ATOM     55  H   LIG d   1       3.241  -2.014  -4.014  0.00  0.00     0.024 H 
ATOM     56  H   LIG d   1       4.319  -3.172  -4.830  0.00  0.00     0.024 H 
ENDBRANCH   1  53
TORSDOF 8
ENDMDL
MODEL 3
REMARK VINA RESULT:      -5.4      2.620      5.165
REMARK  8 active torsions:
REMARK  status: ('A' for Active; 'I' for Inactive)
REMARK    1  A    between atoms: C_1  and  C_2 
REMARK    2  A    between atoms: C_18  and  C_20 
REMARK    3  A    between atoms: C_20  and  N_54 
REMARK    4  A    between atoms: C_21  and  C_22 
REMARK    5  A    between atoms: C_21  and  N_54 
REMARK    6  A    between atoms: C_22  and  C_23 
REMARK    7  A    between atoms: C_23  and  O_24 
REMARK    8  A    between atoms: O_24  and  C_25 
ROOT
ATOM      1  C   LIG d   1       6.898  -4.228  -5.373  0.00  0.00    -0.023 C 
ATOM      2  C   LIG d   1       7.531  -5.605  -5.167  0.00  0.00    -0.047 C 
ATOM      3  C   LIG d   1       6.871  -6.623  -6.099  0.00  0.00    -0.050 C 
ATOM      4  C   LIG d   1       5.387  -6.759  -5.741  0.00  0.00    -0.021 C 
ATOM      5  C   LIG d   1       4.732  -5.378  -5.814  0.00  0.00     0.096 A 
ATOM      6  C   LIG d   1       5.415  -4.288  -4.986  0.00  0.00    -0.004 C 
ATOM      7  H   LIG d   1       5.320  -4.519  -3.925  0.00  0.00     0.034 H 
ATOM      8  C   LIG d   1       4.785  -2.931  -5.293  0.00  0.00    -0.040 C 
ATOM      9  C   LIG d   1       5.430  -1.831  -4.447  0.00  0.00     0.014 C 
ATOM     10  H   LIG d   1       5.117  -1.856  -3.404  0.00  0.00     0.035 H 
ATOM     11  C   LIG d   1       6.962  -1.837  -4.611  0.00  0.00     0.107 C 
ATOM     12  H   LIG d   1       7.385  -1.174  -3.856  0.00  0.00     0.074 H 
ATOM     13  C   LIG d   1       7.581  -3.205  -4.464  0.00  0.00    -0.010 C 
ATOM     14  O   LIG d   1       7.167  -1.248  -5.925  0.00  0.00    -0.461 OA
ATOM     15  C   LIG d   1       6.297  -0.220  -6.041  0.00  0.00     0.316 C 
ATOM     16  O   LIG d   1       6.450   0.753  -6.741  0.00  0.00    -0.250 OA
ATOM     17  C   LIG d   1       5.096  -0.481  -5.150  0.00  0.00     0.102 C 
ATOM     18  H   LIG d   1       4.985   0.317  -4.417  0.00  0.00     0.047 H 
ATOM     19  C   LIG d   1       4.073  -4.969  -7.130  0.00  0.00     0.078 A 
ATOM     20  O   LIG d   1       3.315  -5.316  -5.968  0.00  0.00    -0.368 OA
ATOM     21  H   LIG d   1       8.597  -5.550  -5.388  0.00  0.00     0.027 H 
ATOM     22  H   LIG d   1       7.391  -5.916  -4.133  0.00  0.00     0.027 H 
ATOM     23  H   LIG d   1       7.362  -7.590  -5.986  0.00  0.00     0.027 H 
ATOM     24  H   LIG d   1       6.965  -6.286  -7.131  0.00  0.00     0.027 H 
ATOM     25  H   LIG d   1       5.291  -7.155  -4.729  0.00  0.00     0.029 H 
ATOM     26  H   LIG d   1       4.900  -7.433  -6.445  0.00  0.00     0.029 H 
ATOM     27  H   LIG d   1       4.927  -2.701  -6.350  0.00  0.00     0.027 H 
ATOM     28  H   LIG d   1       3.719  -2.972  -5.075  0.00  0.00     0.027 H 
ATOM     29  H   LIG d   1       8.638  -3.148  -4.723  0.00  0.00     0.031 H 
ATOM     30  H   LIG d   1       7.486  -3.531  -3.429  0.00  0.00     0.031 H 
ATOM     31  H   LIG d   1       4.115  -3.918  -7.415  0.00  0.00     0.059 H 
ATOM     32  H   LIG d   1       4.097  -5.684  -7.953  0.00  0.00     0.059 H 
ENDROOT
BRANCH  17  33
ATOM     33  C   LIG d   1       3.825  -0.615  -5.991  0.00  0.00    -0.020 C 
ATOM     34  H   LIG d   1       3.030  -1.047  -5.383  0.00  0.00     0.082 H 
ATOM     35  H   LIG d   1       4.021  -1.264  -6.845  0.00  0.00     0.082 H 
BRANCH  33  36
ATOM     36  N   LIG d   1       3.417   0.720  -6.467  0.00  0.00     0.228 N 
ATOM     37  H   LIG d   1       4.220   1.358  -6.420  0.00  0.00     0.201 HD
ATOM     38  H   LIG d   1       2.662   1.076  -5.868  0.00  0.00     0.201 HD
BRANCH  36  39
ATOM     39  C   LIG d   1       2.938   0.643  -7.860  0.00  0.00    -0.032 C 
ATOM     40  H   LIG d   1       1.917   0.264  -7.876  0.00  0.00     0.081 H 
ATOM     41  H   LIG d   1       3.584  -0.023  -8.433  0.00  0.00     0.081 H 
BRANCH  39  42
ATOM     42  C   LIG d   1       2.972   2.042  -8.479  0.00  0.00     0.011 C 
ATOM     43  H   LIG d   1       2.041   2.223  -9.018  0.00  0.00     0.034 H 
ATOM     44  H   LIG d   1       3.085   2.786  -7.690  0.00  0.00     0.034 H 
BRANCH  42  45
ATOM     45  C   LIG d   1       4.150   2.143  -9.450  0.00  0.00     0.052 C 
ATOM     46  H   LIG d   1       4.532   3.164  -9.453  0.00  0.00     0.056 H 
ATOM     47  H   LIG d   1       4.940   1.462  -9.134  0.00  0.00     0.056 H 
BRANCH  45  48
ATOM     48  O   LIG d   1       3.716   1.793 -10.765  0.00  0.00    -0.383 OA
BRANCH  48  49
ATOM     49  C   LIG d   1       4.303   0.592 -11.271  0.00  0.00     0.036 C 
ATOM     50  H   LIG d   1       5.123   0.287 -10.621  0.00  0.00     0.052 H 
ATOM     51  H   LIG d   1       3.550  -0.195 -11.300  0.00  0.00     0.052 H 
ATOM     52  H   LIG d   1       4.683   0.770 -12.277  0.00  0.00     0.052 H 
ENDBRANCH  48  49
ENDBRANCH  45  48
ENDBRANCH  42  45
ENDBRANCH  39  42
ENDBRANCH  36  39
ENDBRANCH  33  36
ENDBRANCH  17  33
BRANCH   1  53
ATOM     53  C   LIG d   1       7.034  -3.792  -6.833  0.00  0.00    -0.059 C 
ATOM     54  H   LIG d   1       6.768  -2.739  -6.923  0.00  0.00     0.024 H 
ATOM     55  H   LIG d   1       8.063  -3.936  -7.161  0.00  0.00     0.024 H 
ATOM     56  H   LIG d   1       6.367  -4.389  -7.454  0.00  0.00     0.024 H 
ENDBRANCH   1  53
TORSDOF 8
ENDMDL
MODEL 4
REMARK VINA RESULT:      -5.4      1.773      2.165
REMARK  8 active torsions:
REMARK  status: ('A' for Active; 'I' for Inactive)
REMARK    1  A    between atoms: C_1  and  C_2 
REMARK    2  A    between atoms: C_18  and  C_20 
REMARK    3  A    between atoms: C_20  and  N_54 
REMARK    4  A    between atoms: C_21  and  C_22 
REMARK    5  A    between atoms: C_21  and  N_54 
REMARK    6  A    between atoms: C_22  and  C_23 
REMARK    7  A    between atoms: C_23  and  O_24 
REMARK    8  A    between atoms: O_24  and  C_25 
ROOT
ATOM      1  C   LIG d   1       5.232  -1.436  -3.802  0.00  0.00    -0.023 C 
ATOM      2  C   LIG d   1       5.594  -0.904  -2.416  0.00  0.00    -0.047 C 
ATOM      3  C   LIG d   1       4.363  -0.267  -1.768  0.00  0.00    -0.050 C 
ATOM      4  C   LIG d   1       3.910   0.937  -2.600  0.00  0.00    -0.021 C 
ATOM      5  C   LIG d   1       3.652   0.476  -4.037  0.00  0.00     0.096 A 
ATOM      6  C   LIG d   1       4.812  -0.266  -4.702  0.00  0.00    -0.004 C 
ATOM      7  H   LIG d   1       5.652   0.414  -4.838  0.00  0.00     0.034 H 
ATOM      8  C   LIG d   1       4.363  -0.834  -6.046  0.00  0.00    -0.040 C 
ATOM      9  C   LIG d   1       5.520  -1.549  -6.745  0.00  0.00     0.014 C 
ATOM     10  H   LIG d   1       6.256  -0.864  -7.164  0.00  0.00     0.035 H 
ATOM     11  C   LIG d   1       6.151  -2.610  -5.823  0.00  0.00     0.107 C 
ATOM     12  H   LIG d   1       7.076  -2.954  -6.285  0.00  0.00     0.074 H 
ATOM     13  C   LIG d   1       6.455  -2.101  -4.436  0.00  0.00    -0.010 C 
ATOM     14  O   LIG d   1       5.183  -3.696  -5.840  0.00  0.00    -0.461 OA
ATOM     15  C   LIG d   1       4.745  -3.819  -7.113  0.00  0.00     0.316 C 
ATOM     16  O   LIG d   1       4.315  -4.832  -7.612  0.00  0.00    -0.250 OA
ATOM     17  C   LIG d   1       4.879  -2.481  -7.818  0.00  0.00     0.102 C 
ATOM     18  H   LIG d   1       5.531  -2.572  -8.687  0.00  0.00     0.047 H 
ATOM     19  C   LIG d   1       2.230   0.059  -4.407  0.00  0.00     0.078 A 
ATOM     20  O   LIG d   1       2.812   1.285  -4.859  0.00  0.00    -0.368 OA
ATOM     21  H   LIG d   1       5.947  -1.727  -1.793  0.00  0.00     0.027 H 
ATOM     22  H   LIG d   1       6.381  -0.158  -2.508  0.00  0.00     0.027 H 
ATOM     23  H   LIG d   1       4.613   0.062  -0.759  0.00  0.00     0.027 H 
ATOM     24  H   LIG d   1       3.557  -1.000  -1.721  0.00  0.00     0.027 H 
ATOM     25  H   LIG d   1       4.692   1.696  -2.596  0.00  0.00     0.029 H 
ATOM     26  H   LIG d   1       2.995   1.351  -2.178  0.00  0.00     0.029 H 
ATOM     27  H   LIG d   1       3.550  -1.542  -5.883  0.00  0.00     0.027 H 
ATOM     28  H   LIG d   1       4.010  -0.020  -6.680  0.00  0.00     0.027 H 
ATOM     29  H   LIG d   1       6.771  -2.936  -3.810  0.00  0.00     0.031 H 
ATOM     30  H   LIG d   1       7.265  -1.374  -4.492  0.00  0.00     0.031 H 
ATOM     31  H   LIG d   1       2.108  -0.744  -5.134  0.00  0.00     0.059 H 
ATOM     32  H   LIG d   1       1.466   0.115  -3.631  0.00  0.00     0.059 H 
ENDROOT
BRANCH  17  33
ATOM     33  C   LIG d   1       3.505  -1.954  -8.233  0.00  0.00    -0.020 C 
ATOM     34  H   LIG d   1       3.334  -0.982  -7.771  0.00  0.00     0.082 H 
ATOM     35  H   LIG d   1       2.734  -2.652  -7.905  0.00  0.00     0.082 H 
BRANCH  33  36
ATOM     36  N   LIG d   1       3.461  -1.821  -9.702  0.00  0.00     0.228 N 
ATOM     37  H   LIG d   1       3.185  -2.719 -10.115  0.00  0.00     0.201 HD
ATOM     38  H   LIG d   1       4.392  -1.558 -10.045  0.00  0.00     0.201 HD
BRANCH  36  39
ATOM     39  C   LIG d   1       2.487  -0.785 -10.093  0.00  0.00    -0.032 C 
ATOM     40  H   LIG d   1       1.610  -0.845  -9.449  0.00  0.00     0.081 H 
ATOM     41  H   LIG d   1       2.190  -0.935 -11.131  0.00  0.00     0.081 H 
BRANCH  39  42
ATOM     42  C   LIG d   1       3.135   0.593  -9.942  0.00  0.00     0.011 C 
ATOM     43  H   LIG d   1       2.358   1.357  -9.896  0.00  0.00     0.034 H 
ATOM     44  H   LIG d   1       3.724   0.620  -9.025  0.00  0.00     0.034 H 
BRANCH  42  45
ATOM     45  C   LIG d   1       4.046   0.863 -11.141  0.00  0.00     0.052 C 
ATOM     46  H   LIG d   1       3.820   1.846 -11.555  0.00  0.00     0.056 H 
ATOM     47  H   LIG d   1       5.086   0.835 -10.821  0.00  0.00     0.056 H 
BRANCH  45  48
ATOM     48  O   LIG d   1       3.828  -0.135 -12.140  0.00  0.00    -0.383 OA
BRANCH  48  49
ATOM     49  C   LIG d   1       5.023  -0.596 -12.772  0.00  0.00     0.036 C 
ATOM     50  H   LIG d   1       4.912  -0.528 -13.854  0.00  0.00     0.052 H 
ATOM     51  H   LIG d   1       5.863   0.021 -12.454  0.00  0.00     0.052 H 
ATOM     52  H   LIG d   1       5.206  -1.632 -12.489  0.00  0.00     0.052 H 
ENDBRANCH  48  49
ENDBRANCH  45  48
ENDBRANCH  42  45
ENDBRANCH  39  42
ENDBRANCH  36  39
ENDBRANCH  33  36
ENDBRANCH  17  33
BRANCH   1  53
ATOM     53  C   LIG d   1       4.089  -2.448  -3.705  0.00  0.00    -0.059 C 
ATOM     54  H   LIG d   1       4.492  -3.427  -3.443  0.00  0.00     0.024 H 
ATOM     55  H   LIG d   1       3.385  -2.128  -2.936  0.00  0.00     0.024 H 
ATOM     56  H   LIG d   1       3.576  -2.512  -4.664  0.00  0.00     0.024 H 
ENDBRANCH   1  53
TORSDOF 8
ENDMDL
MODEL 5
REMARK VINA RESULT:      -5.4      2.283      6.779
REMARK  8 active torsions:
REMARK  status: ('A' for Active; 'I' for Inactive)
REMARK    1  A    between atoms: C_1  and  C_2 
REMARK    2  A    between atoms: C_18  and  C_20 
REMARK    3  A    between atoms: C_20  and  N_54 
REMARK    4  A    between atoms: C_21  and  C_22 
REMARK    5  A    between atoms: C_21  and  N_54 
REMARK    6  A    between atoms: C_22  and  C_23 
REMARK    7  A    between atoms: C_23  and  O_24 
REMARK    8  A    between atoms: O_24  and  C_25 
ROOT
ATOM      1  C   LIG d   1       3.182  -0.505 -10.186  0.00  0.00    -0.023 C 
ATOM      2  C   LIG d   1       3.027  -0.446 -11.705  0.00  0.00    -0.047 C 
ATOM      3  C   LIG d   1       2.504  -1.786 -12.226  0.00  0.00    -0.050 C 
ATOM      4  C   LIG d   1       3.526  -2.887 -11.927  0.00  0.00    -0.021 C 
ATOM      5  C   LIG d   1       3.808  -2.905 -10.423  0.00  0.00     0.096 A 
ATOM      6  C   LIG d   1       4.232  -1.564  -9.823  0.00  0.00    -0.004 C 
ATOM      7  H   LIG d   1       5.202  -1.272 -10.224  0.00  0.00     0.034 H 
ATOM      8  C   LIG d   1       4.295  -1.672  -8.301  0.00  0.00    -0.040 C 
ATOM      9  C   LIG d   1       4.753  -0.349  -7.683  0.00  0.00     0.014 C 
ATOM     10  H   LIG d   1       5.817  -0.161  -7.817  0.00  0.00     0.035 H 
ATOM     11  C   LIG d   1       3.874   0.819  -8.169  0.00  0.00     0.107 C 
ATOM     12  H   LIG d   1       4.348   1.751  -7.858  0.00  0.00     0.074 H 
ATOM     13  C   LIG d   1       3.675   0.845  -9.664  0.00  0.00    -0.010 C 
ATOM     14  O   LIG d   1       2.636   0.649  -7.423  0.00  0.00    -0.461 OA
ATOM     15  C   LIG d   1       2.976   0.298  -6.162  0.00  0.00     0.316 C 
ATOM     16  O   LIG d   1       2.311   0.503  -5.175  0.00  0.00    -0.250 OA
ATOM     17  C   LIG d   1       4.327  -0.393  -6.184  0.00  0.00     0.102 C 
ATOM     18  H   LIG d   1       5.042   0.149  -5.566  0.00  0.00     0.047 H 
ATOM     19  C   LIG d   1       2.979  -3.848  -9.553  0.00  0.00     0.078 A 
ATOM     20  O   LIG d   1       4.354  -4.096  -9.858  0.00  0.00    -0.368 OA
ATOM     21  H   LIG d   1       2.323   0.345 -11.968  0.00  0.00     0.027 H 
ATOM     22  H   LIG d   1       3.994  -0.234 -12.160  0.00  0.00     0.027 H 
ATOM     23  H   LIG d   1       2.344  -1.720 -13.303  0.00  0.00     0.027 H 
ATOM     24  H   LIG d   1       1.560  -2.023 -11.733  0.00  0.00     0.027 H 
ATOM     25  H   LIG d   1       4.450  -2.682 -12.468  0.00  0.00     0.029 H 
ATOM     26  H   LIG d   1       3.127  -3.852 -12.236  0.00  0.00     0.029 H 
ATOM     27  H   LIG d   1       3.305  -1.924  -7.918  0.00  0.00     0.027 H 
ATOM     28  H   LIG d   1       4.998  -2.458  -8.026  0.00  0.00     0.027 H 
ATOM     29  H   LIG d   1       2.941   1.612  -9.913  0.00  0.00     0.031 H 
ATOM     30  H   LIG d   1       4.621   1.088 -10.146  0.00  0.00     0.031 H 
ATOM     31  H   LIG d   1       2.733  -3.523  -8.542  0.00  0.00     0.059 H 
ATOM     32  H   LIG d   1       2.229  -4.467 -10.046  0.00  0.00     0.059 H 
ENDROOT
BRANCH  17  33
ATOM     33  C   LIG d   1       4.196  -1.840  -5.706  0.00  0.00    -0.020 C 
ATOM     34  H   LIG d   1       5.184  -2.298  -5.660  0.00  0.00     0.082 H 
ATOM     35  H   LIG d   1       3.570  -2.397  -6.402  0.00  0.00     0.082 H 
BRANCH  33  36
ATOM     36  N   LIG d   1       3.581  -1.852  -4.365  0.00  0.00     0.228 N 
ATOM     37  H   LIG d   1       2.704  -2.385  -4.400  0.00  0.00     0.201 HD
ATOM     38  H   LIG d   1       3.383  -0.887  -4.075  0.00  0.00     0.201 HD
BRANCH  36  39
ATOM     39  C   LIG d   1       4.492  -2.478  -3.389  0.00  0.00    -0.032 C 
ATOM     40  H   LIG d   1       5.500  -2.517  -3.802  0.00  0.00     0.081 H 
ATOM     41  H   LIG d   1       4.150  -3.488  -3.164  0.00  0.00     0.081 H 
BRANCH  39  42
ATOM     42  C   LIG d   1       4.500  -1.645  -2.105  0.00  0.00     0.011 C 
ATOM     43  H   LIG d   1       4.059  -2.223  -1.294  0.00  0.00     0.034 H 
ATOM     44  H   LIG d   1       5.527  -1.384  -1.848  0.00  0.00     0.034 H 
BRANCH  42  45
ATOM     45  C   LIG d   1       3.688  -0.367  -2.321  0.00  0.00     0.052 C 
ATOM     46  H   LIG d   1       3.429  -0.274  -3.376  0.00  0.00     0.056 H 
ATOM     47  H   LIG d   1       2.776  -0.411  -1.727  0.00  0.00     0.056 H 
BRANCH  45  48
ATOM     48  O   LIG d   1       4.463   0.765  -1.921  0.00  0.00    -0.383 OA
BRANCH  48  49
ATOM     49  C   LIG d   1       5.484   1.130  -2.852  0.00  0.00     0.036 C 
ATOM     50  H   LIG d   1       6.155   1.853  -2.390  0.00  0.00     0.052 H 
ATOM     51  H   LIG d   1       6.047   0.242  -3.138  0.00  0.00     0.052 H 
ATOM     52  H   LIG d   1       5.026   1.571  -3.737  0.00  0.00     0.052 H 
ENDBRANCH  48  49
ENDBRANCH  45  48
ENDBRANCH  42  45
ENDBRANCH  39  42
ENDBRANCH  36  39
ENDBRANCH  33  36
ENDBRANCH  17  33
BRANCH   1  53
ATOM     53  C   LIG d   1       1.846  -0.856  -9.527  0.00  0.00    -0.059 C 
ATOM     54  H   LIG d   1       1.083  -0.981 -10.295  0.00  0.00     0.024 H 
ATOM     55  H   LIG d   1       1.951  -1.784  -8.965  0.00  0.00     0.024 H 
ATOM     56  H   LIG d   1       1.552  -0.053  -8.851  0.00  0.00     0.024 H 
ENDBRANCH   1  53
TORSDOF 8
ENDMDL
MODEL 6
REMARK VINA RESULT:      -5.4      4.936      7.304
REMARK  8 active torsions:
REMARK  status: ('A' for Active; 'I' for Inactive)
REMARK    1  A    between atoms: C_1  and  C_2 
REMARK    2  A    between atoms: C_18  and  C_20 
REMARK    3  A    between atoms: C_20  and  N_54 
REMARK    4  A    between atoms: C_21  and  C_22 
REMARK    5  A    between atoms: C_21  and  N_54 
REMARK    6  A    between atoms: C_22  and  C_23 
REMARK    7  A    between atoms: C_23  and  O_24 
REMARK    8  A    between atoms: O_24  and  C_25 
ROOT
ATOM      1  C   LIG d   1       5.805  -1.371  -4.305  0.00  0.00    -0.023 C 
ATOM      2  C   LIG d   1       4.892  -2.466  -3.752  0.00  0.00    -0.047 C 
ATOM      3  C   LIG d   1       3.648  -1.835  -3.126  0.00  0.00    -0.050 C 
ATOM      4  C   LIG d   1       4.059  -0.960  -1.937  0.00  0.00    -0.021 C 
ATOM      5  C   LIG d   1       5.073   0.082  -2.417  0.00  0.00     0.096 A 
ATOM      6  C   LIG d   1       6.290  -0.484  -3.151  0.00  0.00    -0.004 C 
ATOM      7  H   LIG d   1       6.893  -1.074  -2.461  0.00  0.00     0.034 H 
ATOM      8  C   LIG d   1       7.118   0.656  -3.740  0.00  0.00    -0.040 C 
ATOM      9  C   LIG d   1       8.361   0.113  -4.447  0.00  0.00     0.014 C 
ATOM     10  H   LIG d   1       9.132  -0.226  -3.756  0.00  0.00     0.035 H 
ATOM     11  C   LIG d   1       7.980  -0.956  -5.488  0.00  0.00     0.107 C 
ATOM     12  H   LIG d   1       8.896  -1.442  -5.825  0.00  0.00     0.074 H 
ATOM     13  C   LIG d   1       7.034  -2.005  -4.959  0.00  0.00    -0.010 C 
ATOM     14  O   LIG d   1       7.427  -0.180  -6.588  0.00  0.00    -0.461 OA
ATOM     15  C   LIG d   1       8.204   0.917  -6.730  0.00  0.00     0.316 C 
ATOM     16  O   LIG d   1       8.356   1.539  -7.755  0.00  0.00    -0.250 OA
ATOM     17  C   LIG d   1       8.855   1.244  -5.399  0.00  0.00     0.102 C 
ATOM     18  H   LIG d   1       9.941   1.222  -5.491  0.00  0.00     0.047 H 
ATOM     19  C   LIG d   1       4.541   1.444  -2.858  0.00  0.00     0.078 A 
ATOM     20  O   LIG d   1       5.249   1.258  -1.630  0.00  0.00    -0.368 OA
ATOM     21  H   LIG d   1       4.592  -3.131  -4.563  0.00  0.00     0.027 H 
ATOM     22  H   LIG d   1       5.429  -3.037  -2.996  0.00  0.00     0.027 H 
ATOM     23  H   LIG d   1       2.975  -2.622  -2.782  0.00  0.00     0.027 H 
ATOM     24  H   LIG d   1       3.138  -1.221  -3.868  0.00  0.00     0.027 H 
ATOM     25  H   LIG d   1       4.514  -1.583  -1.167  0.00  0.00     0.029 H 
ATOM     26  H   LIG d   1       3.182  -0.457  -1.531  0.00  0.00     0.029 H 
ATOM     27  H   LIG d   1       6.509   1.208  -4.457  0.00  0.00     0.027 H 
ATOM     28  H   LIG d   1       7.426   1.328  -2.938  0.00  0.00     0.027 H 
ATOM     29  H   LIG d   1       6.710  -2.641  -5.783  0.00  0.00     0.031 H 
ATOM     30  H   LIG d   1       7.554  -2.616  -4.222  0.00  0.00     0.031 H 
ATOM     31  H   LIG d   1       5.059   1.954  -3.671  0.00  0.00     0.059 H 
ATOM     32  H   LIG d   1       3.465   1.611  -2.804  0.00  0.00     0.059 H 
ENDROOT
BRANCH  17  33
ATOM     33  C   LIG d   1       8.389   2.611  -4.896  0.00  0.00    -0.020 C 
ATOM     34  H   LIG d   1       8.503   2.658  -3.813  0.00  0.00     0.082 H 
ATOM     35  H   LIG d   1       7.340   2.756  -5.157  0.00  0.00     0.082 H 
BRANCH  33  36
ATOM     36  N   LIG d   1       9.207   3.664  -5.527  0.00  0.00     0.228 N 
ATOM     37  H   LIG d   1       8.694   4.060  -6.323  0.00  0.00     0.201 HD
ATOM     38  H   LIG d   1      10.089   3.254  -5.858  0.00  0.00     0.201 HD
BRANCH  36  39
ATOM     39  C   LIG d   1       9.501   4.734  -4.556  0.00  0.00    -0.032 C 
ATOM     40  H   LIG d   1       8.673   5.442  -4.529  0.00  0.00     0.081 H 
ATOM     41  H   LIG d   1      10.414   5.253  -4.848  0.00  0.00     0.081 H 
BRANCH  39  42
ATOM     42  C   LIG d   1       9.687   4.115  -3.169  0.00  0.00     0.011 C 
ATOM     43  H   LIG d   1       8.717   3.818  -2.770  0.00  0.00     0.034 H 
ATOM     44  H   LIG d   1      10.331   3.239  -3.246  0.00  0.00     0.034 H 
BRANCH  42  45
ATOM     45  C   LIG d   1      10.330   5.141  -2.234  0.00  0.00     0.052 C 
ATOM     46  H   LIG d   1      10.469   4.697  -1.248  0.00  0.00     0.056 H 
ATOM     47  H   LIG d   1      11.296   5.444  -2.636  0.00  0.00     0.056 H 
BRANCH  45  48
ATOM     48  O   LIG d   1       9.481   6.285  -2.125  0.00  0.00    -0.383 OA
BRANCH  48  49
ATOM     49  C   LIG d   1      10.181   7.530  -2.111  0.00  0.00     0.036 C 
ATOM     50  H   LIG d   1      10.623   7.688  -1.128  0.00  0.00     0.052 H 
ATOM     51  H   LIG d   1      10.969   7.511  -2.864  0.00  0.00     0.052 H 
ATOM     52  H   LIG d   1       9.486   8.340  -2.333  0.00  0.00     0.052 H 
ENDBRANCH  48  49
ENDBRANCH  45  48
ENDBRANCH  42  45
ENDBRANCH  39  42
ENDBRANCH  36  39
ENDBRANCH  33  36
ENDBRANCH  17  33
BRANCH   1  53
ATOM     53  C   LIG d   1       5.056  -0.519  -5.331  0.00  0.00    -0.059 C 
ATOM     54  H   LIG d   1       4.804  -1.132  -6.197  0.00  0.00     0.024 H 
ATOM     55  H   LIG d   1       4.142  -0.130  -4.883  0.00  0.00     0.024 H 
ATOM     56  H   LIG d   1       5.689   0.310  -5.646  0.00  0.00     0.024 H 
ENDBRANCH   1  53
TORSDOF 8
ENDMDL
MODEL 7
REMARK VINA RESULT:      -5.1      2.369      5.860
REMARK  8 active torsions:
REMARK  status: ('A' for Active; 'I' for Inactive)
REMARK    1  A    between atoms: C_1  and  C_2 
REMARK    2  A    between atoms: C_18  and  C_20 
REMARK    3  A    between atoms: C_20  and  N_54 
REMARK    4  A    between atoms: C_21  and  C_22 
REMARK    5  A    between atoms: C_21  and  N_54 
REMARK    6  A    between atoms: C_22  and  C_23 
REMARK    7  A    between atoms: C_23  and  O_24 
REMARK    8  A    between atoms: O_24  and  C_25 
ROOT
ATOM      1  C   LIG d   1       3.768  -1.930  -8.757  0.00  0.00    -0.023 C 
ATOM      2  C   LIG d   1       2.709  -2.065  -9.851  0.00  0.00    -0.047 C 
ATOM      3  C   LIG d   1       2.598  -0.753 -10.629  0.00  0.00    -0.050 C 
ATOM      4  C   LIG d   1       2.125   0.362  -9.690  0.00  0.00    -0.021 C 
ATOM      5  C   LIG d   1       3.092   0.456  -8.508  0.00  0.00     0.096 A 
ATOM      6  C   LIG d   1       3.329  -0.854  -7.754  0.00  0.00    -0.004 C 
ATOM      7  H   LIG d   1       2.408  -1.165  -7.261  0.00  0.00     0.034 H 
ATOM      8  C   LIG d   1       4.446  -0.670  -6.730  0.00  0.00    -0.040 C 
ATOM      9  C   LIG d   1       4.673  -1.960  -5.940  0.00  0.00     0.014 C 
ATOM     10  H   LIG d   1       3.892  -2.155  -5.205  0.00  0.00     0.035 H 
ATOM     11  C   LIG d   1       4.913  -3.152  -6.886  0.00  0.00     0.107 C 
ATOM     12  H   LIG d   1       4.880  -4.066  -6.294  0.00  0.00     0.074 H 
ATOM     13  C   LIG d   1       3.900  -3.252  -8.000  0.00  0.00    -0.010 C 
ATOM     14  O   LIG d   1       6.273  -2.944  -7.359  0.00  0.00    -0.461 OA
ATOM     15  C   LIG d   1       7.004  -2.531  -6.299  0.00  0.00     0.316 C 
ATOM     16  O   LIG d   1       8.195  -2.687  -6.166  0.00  0.00    -0.250 OA
ATOM     17  C   LIG d   1       6.090  -1.842  -5.302  0.00  0.00     0.102 C 
ATOM     18  H   LIG d   1       6.123  -2.353  -4.340  0.00  0.00     0.047 H 
ATOM     19  C   LIG d   1       4.255   1.441  -8.613  0.00  0.00     0.078 A 
ATOM     20  O   LIG d   1       3.127   1.673  -7.765  0.00  0.00    -0.368 OA
ATOM     21  H   LIG d   1       2.992  -2.867 -10.532  0.00  0.00     0.027 H 
ATOM     22  H   LIG d   1       1.747  -2.299  -9.397  0.00  0.00     0.027 H 
ATOM     23  H   LIG d   1       1.880  -0.872 -11.442  0.00  0.00     0.027 H 
ATOM     24  H   LIG d   1       3.572  -0.491 -11.042  0.00  0.00     0.027 H 
ATOM     25  H   LIG d   1       1.124   0.131  -9.326  0.00  0.00     0.029 H 
ATOM     26  H   LIG d   1       2.110   1.311 -10.226  0.00  0.00     0.029 H 
ATOM     27  H   LIG d   1       5.366  -0.400  -7.249  0.00  0.00     0.027 H 
ATOM     28  H   LIG d   1       4.174   0.129  -6.041  0.00  0.00     0.027 H 
ATOM     29  H   LIG d   1       4.212  -4.031  -8.696  0.00  0.00     0.031 H 
ATOM     30  H   LIG d   1       2.931  -3.519  -7.579  0.00  0.00     0.031 H 
ATOM     31  H   LIG d   1       5.198   1.167  -8.139  0.00  0.00     0.059 H 
ATOM     32  H   LIG d   1       4.337   2.034  -9.524  0.00  0.00     0.059 H 
ENDROOT
BRANCH  17  33
ATOM     33  C   LIG d   1       6.485  -0.373  -5.141  0.00  0.00    -0.020 C 
ATOM     34  H   LIG d   1       5.639   0.262  -5.405  0.00  0.00     0.082 H 
ATOM     35  H   LIG d   1       7.326  -0.149  -5.798  0.00  0.00     0.082 H 
BRANCH  33  36
ATOM     36  N   LIG d   1       6.873  -0.127  -3.739  0.00  0.00     0.228 N 
ATOM     37  H   LIG d   1       7.893  -0.026  -3.682  0.00  0.00     0.201 HD
ATOM     38  H   LIG d   1       6.575  -0.922  -3.161  0.00  0.00     0.201 HD
BRANCH  36  39
ATOM     39  C   LIG d   1       6.233   1.104  -3.240  0.00  0.00    -0.032 C 
ATOM     40  H   LIG d   1       6.393   1.915  -3.951  0.00  0.00     0.081 H 
ATOM     41  H   LIG d   1       6.662   1.375  -2.275  0.00  0.00     0.081 H 
BRANCH  39  42
ATOM     42  C   LIG d   1       4.731   0.858  -3.079  0.00  0.00     0.011 C 
ATOM     43  H   LIG d   1       4.206   1.813  -3.062  0.00  0.00     0.034 H 
ATOM     44  H   LIG d   1       4.369   0.260  -3.916  0.00  0.00     0.034 H 
BRANCH  42  45
ATOM     45  C   LIG d   1       4.473   0.112  -1.769  0.00  0.00     0.052 C 
ATOM     46  H   LIG d   1       5.091   0.540  -0.979  0.00  0.00     0.056 H 
ATOM     47  H   LIG d   1       3.422   0.204  -1.498  0.00  0.00     0.056 H 
BRANCH  45  48
ATOM     48  O   LIG d   1       4.803  -1.269  -1.934  0.00  0.00    -0.383 OA
BRANCH  48  49
ATOM     49  C   LIG d   1       3.718  -2.074  -2.399  0.00  0.00     0.036 C 
ATOM     50  H   LIG d   1       3.008  -1.449  -2.940  0.00  0.00     0.052 H 
ATOM     51  H   LIG d   1       4.100  -2.849  -3.063  0.00  0.00     0.052 H 
ATOM     52  H   LIG d   1       3.220  -2.538  -1.548  0.00  0.00     0.052 H 
ENDBRANCH  48  49
ENDBRANCH  45  48
ENDBRANCH  42  45
ENDBRANCH  39  42
ENDBRANCH  36  39
ENDBRANCH  33  36
ENDBRANCH  17  33
BRANCH   1  53
ATOM     53  C   LIG d   1       5.118  -1.547  -9.365  0.00  0.00    -0.059 C 
ATOM     54  H   LIG d   1       5.900  -1.661  -8.615  0.00  0.00     0.024 H 
ATOM     55  H   LIG d   1       5.331  -2.197 -10.214  0.00  0.00     0.024 H 
ATOM     56  H   LIG d   1       5.086  -0.511  -9.701  0.00  0.00     0.024 H 
ENDBRANCH   1  53
TORSDOF 8
ENDMDL
MODEL 8
REMARK VINA RESULT:      -5.1      2.712      3.639
REMARK  8 active torsions:
REMARK  status: ('A' for Active; 'I' for Inactive)
REMARK    1  A    between atoms: C_1  and  C_2 
REMARK    2  A    between atoms: C_18  and  C_20 
REMARK    3  A    between atoms: C_20  and  N_54 
REMARK    4  A    between atoms: C_21  and  C_22 
REMARK    5  A    between atoms: C_21  and  N_54 
REMARK    6  A    between atoms: C_22  and  C_23 
REMARK    7  A    between atoms: C_23  and  O_24 
REMARK    8  A    between atoms: O_24  and  C_25 
ROOT
ATOM      1  C   LIG d   1       4.382  -1.589  -3.641  0.00  0.00    -0.023 C 
ATOM      2  C   LIG d   1       3.323  -1.140  -2.634  0.00  0.00    -0.047 C 
ATOM      3  C   LIG d   1       3.352   0.384  -2.497  0.00  0.00    -0.050 C 
ATOM      4  C   LIG d   1       4.710   0.823  -1.939  0.00  0.00    -0.021 C 
ATOM      5  C   LIG d   1       5.816   0.289  -2.852  0.00  0.00     0.096 A 
ATOM      6  C   LIG d   1       5.774  -1.217  -3.115  0.00  0.00    -0.004 C 
ATOM      7  H   LIG d   1       5.975  -1.757  -2.190  0.00  0.00     0.034 H 
ATOM      8  C   LIG d   1       6.803  -1.587  -4.181  0.00  0.00    -0.040 C 
ATOM      9  C   LIG d   1       6.802  -3.096  -4.433  0.00  0.00     0.014 C 
ATOM     10  H   LIG d   1       7.276  -3.663  -3.632  0.00  0.00     0.035 H 
ATOM     11  C   LIG d   1       5.384  -3.600  -4.762  0.00  0.00     0.107 C 
ATOM     12  H   LIG d   1       5.400  -4.689  -4.746  0.00  0.00     0.074 H 
ATOM     13  C   LIG d   1       4.330  -3.109  -3.801  0.00  0.00    -0.010 C 
ATOM     14  O   LIG d   1       5.172  -3.152  -6.130  0.00  0.00    -0.461 OA
ATOM     15  C   LIG d   1       6.330  -3.353  -6.798  0.00  0.00     0.316 C 
ATOM     16  O   LIG d   1       6.429  -3.536  -7.989  0.00  0.00    -0.250 OA
ATOM     17  C   LIG d   1       7.486  -3.312  -5.816  0.00  0.00     0.102 C 
ATOM     18  H   LIG d   1       8.032  -4.255  -5.832  0.00  0.00     0.047 H 
ATOM     19  C   LIG d   1       6.315   1.198  -3.974  0.00  0.00     0.078 A 
ATOM     20  O   LIG d   1       7.091   0.928  -2.803  0.00  0.00    -0.368 OA
ATOM     21  H   LIG d   1       2.338  -1.454  -2.979  0.00  0.00     0.027 H 
ATOM     22  H   LIG d   1       3.528  -1.594  -1.666  0.00  0.00     0.027 H 
ATOM     23  H   LIG d   1       2.560   0.703  -1.819  0.00  0.00     0.027 H 
ATOM     24  H   LIG d   1       3.197   0.839  -3.475  0.00  0.00     0.027 H 
ATOM     25  H   LIG d   1       4.839   0.418  -0.935  0.00  0.00     0.029 H 
ATOM     26  H   LIG d   1       4.757   1.911  -1.903  0.00  0.00     0.029 H 
ATOM     27  H   LIG d   1       6.560  -1.068  -5.109  0.00  0.00     0.027 H 
ATOM     28  H   LIG d   1       7.793  -1.279  -3.846  0.00  0.00     0.027 H 
ATOM     29  H   LIG d   1       3.346  -3.395  -4.174  0.00  0.00     0.031 H 
ATOM     30  H   LIG d   1       4.490  -3.574  -2.828  0.00  0.00     0.031 H 
ATOM     31  H   LIG d   1       6.625   0.729  -4.908  0.00  0.00     0.059 H 
ATOM     32  H   LIG d   1       5.862   2.186  -4.067  0.00  0.00     0.059 H 
ENDROOT
BRANCH  17  33
ATOM     33  C   LIG d   1       8.422  -2.146  -6.140  0.00  0.00    -0.020 C 
ATOM     34  H   LIG d   1       9.390  -2.535  -6.459  0.00  0.00     0.082 H 
ATOM     35  H   LIG d   1       8.554  -1.529  -5.251  0.00  0.00     0.082 H 
BRANCH  33  36
ATOM     36  N   LIG d   1       7.831  -1.337  -7.222  0.00  0.00     0.228 N 
ATOM     37  H   LIG d   1       6.813  -1.300  -7.101  0.00  0.00     0.201 HD
ATOM     38  H   LIG d   1       8.053  -1.769  -8.127  0.00  0.00     0.201 HD
BRANCH  36  39
ATOM     39  C   LIG d   1       8.375   0.034  -7.191  0.00  0.00    -0.032 C 
ATOM     40  H   LIG d   1       9.299   0.075  -7.767  0.00  0.00     0.081 H 
ATOM     41  H   LIG d   1       8.574   0.326  -6.160  0.00  0.00     0.081 H 
BRANCH  39  42
ATOM     42  C   LIG d   1       7.351   0.993  -7.804  0.00  0.00     0.011 C 
ATOM     43  H   LIG d   1       7.314   1.909  -7.215  0.00  0.00     0.034 H 
ATOM     44  H   LIG d   1       7.643   1.231  -8.827  0.00  0.00     0.034 H 
BRANCH  42  45
ATOM     45  C   LIG d   1       5.971   0.332  -7.807  0.00  0.00     0.052 C 
ATOM     46  H   LIG d   1       5.915  -0.397  -6.998  0.00  0.00     0.056 H 
ATOM     47  H   LIG d   1       5.204   1.092  -7.665  0.00  0.00     0.056 H 
BRANCH  45  48
ATOM     48  O   LIG d   1       5.761  -0.328  -9.057  0.00  0.00    -0.383 OA
BRANCH  48  49
ATOM     49  C   LIG d   1       4.449  -0.871  -9.215  0.00  0.00     0.036 C 
ATOM     50  H   LIG d   1       3.868  -0.230  -9.876  0.00  0.00     0.052 H 
ATOM     51  H   LIG d   1       4.520  -1.870  -9.646  0.00  0.00     0.052 H 
ATOM     52  H   LIG d   1       3.962  -0.929  -8.242  0.00  0.00     0.052 H 
ENDBRANCH  48  49
ENDBRANCH  45  48
ENDBRANCH  42  45
ENDBRANCH  39  42
ENDBRANCH  36  39
ENDBRANCH  33  36
ENDBRANCH  17  33
BRANCH   1  53
ATOM     53  C   LIG d   1       4.146  -0.921  -4.997  0.00  0.00    -0.059 C 
ATOM     54  H   LIG d   1       4.985  -1.137  -5.659  0.00  0.00     0.024 H 
ATOM     55  H   LIG d   1       3.227  -1.307  -5.437  0.00  0.00     0.024 H 
ATOM     56  H   LIG d   1       4.060   0.157  -4.861  0.00  0.00     0.024 H 
ENDBRANCH   1  53
TORSDOF 8
ENDMDL
MODEL 9
REMARK VINA RESULT:      -5.0      4.599      6.319
REMARK  8 active torsions:
REMARK  status: ('A' for Active; 'I' for Inactive)
REMARK    1  A    between atoms: C_1  and  C_2 
REMARK    2  A    between atoms: C_18  and  C_20 
REMARK    3  A    between atoms: C_20  and  N_54 
REMARK    4  A    between atoms: C_21  and  C_22 
REMARK    5  A    between atoms: C_21  and  N_54 
REMARK    6  A    between atoms: C_22  and  C_23 
REMARK    7  A    between atoms: C_23  and  O_24 
REMARK    8  A    between atoms: O_24  and  C_25 
ROOT
ATOM      1  C   LIG d   1       5.521  -1.806  -4.187  0.00  0.00    -0.023 C 
ATOM      2  C   LIG d   1       4.638  -2.666  -3.283  0.00  0.00    -0.047 C 
ATOM      3  C   LIG d   1       3.558  -1.798  -2.636  0.00  0.00    -0.050 C 
ATOM      4  C   LIG d   1       4.215  -0.744  -1.739  0.00  0.00    -0.021 C 
ATOM      5  C   LIG d   1       5.205   0.070  -2.577  0.00  0.00     0.096 A 
ATOM      6  C   LIG d   1       6.246  -0.754  -3.337  0.00  0.00    -0.004 C 
ATOM      7  H   LIG d   1       6.912  -1.247  -2.630  0.00  0.00     0.034 H 
ATOM      8  C   LIG d   1       7.041   0.152  -4.274  0.00  0.00    -0.040 C 
ATOM      9  C   LIG d   1       8.113  -0.646  -5.018  0.00  0.00     0.014 C 
ATOM     10  H   LIG d   1       8.962  -0.913  -4.388  0.00  0.00     0.035 H 
ATOM     11  C   LIG d   1       7.497  -1.863  -5.734  0.00  0.00     0.107 C 
ATOM     12  H   LIG d   1       8.311  -2.497  -6.086  0.00  0.00     0.074 H 
ATOM     13  C   LIG d   1       6.581  -2.680  -4.858  0.00  0.00    -0.010 C 
ATOM     14  O   LIG d   1       6.825  -1.277  -6.885  0.00  0.00    -0.461 OA
ATOM     15  C   LIG d   1       7.641  -0.316  -7.375  0.00  0.00     0.316 C 
ATOM     16  O   LIG d   1       7.666   0.064  -8.521  0.00  0.00    -0.250 OA
ATOM     17  C   LIG d   1       8.521   0.209  -6.255  0.00  0.00     0.102 C 
ATOM     18  H   LIG d   1       9.573   0.060  -6.496  0.00  0.00     0.047 H 
ATOM     19  C   LIG d   1       4.702   1.359  -3.223  0.00  0.00     0.078 A 
ATOM     20  O   LIG d   1       5.586   1.358  -2.098  0.00  0.00    -0.368 OA
ATOM     21  H   LIG d   1       4.166  -3.450  -3.877  0.00  0.00     0.027 H 
ATOM     22  H   LIG d   1       5.251  -3.121  -2.506  0.00  0.00     0.027 H 
ATOM     23  H   LIG d   1       2.899  -2.426  -2.034  0.00  0.00     0.027 H 
ATOM     24  H   LIG d   1       2.976  -1.302  -3.413  0.00  0.00     0.027 H 
ATOM     25  H   LIG d   1       4.746  -1.238  -0.925  0.00  0.00     0.029 H 
ATOM     26  H   LIG d   1       3.452  -0.083  -1.330  0.00  0.00     0.029 H 
ATOM     27  H   LIG d   1       6.362   0.604  -4.998  0.00  0.00     0.027 H 
ATOM     28  H   LIG d   1       7.520   0.939  -3.692  0.00  0.00     0.027 H 
ATOM     29  H   LIG d   1       6.085  -3.436  -5.468  0.00  0.00     0.031 H 
ATOM     30  H   LIG d   1       7.171  -3.176  -4.089  0.00  0.00     0.031 H 
ATOM     31  H   LIG d   1       5.114   1.636  -4.193  0.00  0.00     0.059 H 
ATOM     32  H   LIG d   1       3.663   1.641  -3.051  0.00  0.00     0.059 H 
ENDROOT
BRANCH  17  33
ATOM     33  C   LIG d   1       8.236   1.690  -6.001  0.00  0.00    -0.020 C 
ATOM     34  H   LIG d   1       8.732   2.003  -5.082  0.00  0.00     0.082 H 
ATOM     35  H   LIG d   1       7.161   1.842  -5.902  0.00  0.00     0.082 H 
BRANCH  33  36
ATOM     36  N   LIG d   1       8.745   2.483  -7.135  0.00  0.00     0.228 N 
ATOM     37  H   LIG d   1       8.067   3.217  -7.368  0.00  0.00     0.201 HD
ATOM     38  H   LIG d   1       8.875   1.868  -7.947  0.00  0.00     0.201 HD
BRANCH  36  39
ATOM     39  C   LIG d   1      10.036   3.107  -6.785  0.00  0.00    -0.032 C 
ATOM     40  H   LIG d   1      10.529   3.460  -7.690  0.00  0.00     0.081 H 
ATOM     41  H   LIG d   1      10.671   2.377  -6.284  0.00  0.00     0.081 H 
BRANCH  39  42
ATOM     42  C   LIG d   1       9.782   4.290  -5.849  0.00  0.00     0.011 C 
ATOM     43  H   LIG d   1       8.772   4.225  -5.446  0.00  0.00     0.034 H 
ATOM     44  H   LIG d   1      10.502   4.266  -5.030  0.00  0.00     0.034 H 
BRANCH  42  45
ATOM     45  C   LIG d   1       9.937   5.599  -6.626  0.00  0.00     0.052 C 
ATOM     46  H   LIG d   1      10.985   5.742  -6.892  0.00  0.00     0.056 H 
ATOM     47  H   LIG d   1       9.336   5.556  -7.533  0.00  0.00     0.056 H 
BRANCH  45  48
ATOM     48  O   LIG d   1       9.498   6.691  -5.815  0.00  0.00    -0.383 OA
BRANCH  48  49
ATOM     49  C   LIG d   1       9.176   6.325  -4.472  0.00  0.00     0.036 C 
ATOM     50  H   LIG d   1       9.722   6.965  -3.781  0.00  0.00     0.052 H 
ATOM     51  H   LIG d   1       8.105   6.445  -4.311  0.00  0.00     0.052 H 
ATOM     52  H   LIG d   1       9.454   5.285  -4.303  0.00  0.00     0.052 H 
ENDBRANCH  48  49
ENDBRANCH  45  48
ENDBRANCH  42  45
ENDBRANCH  39  42
ENDBRANCH  36  39
ENDBRANCH  33  36
ENDBRANCH  17  33
BRANCH   1  53
ATOM     53  C   LIG d   1       4.674  -1.111  -5.255  0.00  0.00    -0.059 C 
ATOM     54  H   LIG d   1       4.970  -1.467  -6.242  0.00  0.00     0.024 H 
ATOM     55  H   LIG d   1       3.621  -1.339  -5.088  0.00  0.00     0.024 H 
ATOM     56  H   LIG d   1       4.826  -0.034  -5.197  0.00  0.00     0.024 H 
ENDBRANCH   1  53
TORSDOF 8
ENDMDL
