MODEL 1
REMARK VINA RESULT:      -4.6      0.000      0.000
REMARK  5 active torsions:
REMARK  status: ('A' for Active; 'I' for Inactive)
REMARK    1  A    between atoms: C_1  and  C_2 
REMARK    2  A    between atoms: C_2  and  C_4 
REMARK    3  A    between atoms: C_2  and  N_12 
REMARK    4  A    between atoms: C_4  and  C_5 
REMARK    5  A    between atoms: C_8  and  O_11 
ROOT
ATOM      1  C   LIG d   1       5.065  -3.720  -4.523  0.00  0.00     0.015 C 
ATOM      2  H   LIG d   1       4.435  -4.464  -4.036  0.00  0.00     0.037 H 
ATOM      3  H   LIG d   1       6.090  -4.086  -4.569  0.00  0.00     0.037 H 
ENDROOT
BRANCH   1   4
ATOM      4  C   LIG d   1       4.550  -3.464  -5.941  0.00  0.00    -0.023 C 
ATOM      5  H   LIG d   1       4.092  -2.476  -5.989  0.00  0.00     0.085 H 
BRANCH   4   6
ATOM      6  C   LIG d   1       5.718  -3.533  -6.927  0.00  0.00    -0.021 C 
ATOM      7  H   LIG d   1       5.605  -4.413  -7.562  0.00  0.00     0.028 H 
ATOM      8  H   LIG d   1       5.725  -2.636  -7.546  0.00  0.00     0.028 H 
ATOM      9  H   LIG d   1       6.655  -3.602  -6.375  0.00  0.00     0.028 H 
ENDBRANCH   4   6
BRANCH   4  10
ATOM     10  N   LIG d   1       3.553  -4.484  -6.291  0.00  0.00     0.221 N 
ATOM     11  H   LIG d   1       2.820  -4.491  -5.598  0.00  0.00     0.200 HD
ATOM     12  H   LIG d   1       3.158  -4.271  -7.195  0.00  0.00     0.200 HD
ATOM     13  H   LIG d   1       3.996  -5.390  -6.322  0.00  0.00     0.200 HD
ENDBRANCH   4  10
ENDBRANCH   1   4
BRANCH   1  14
ATOM     14  C   LIG d   1       5.025  -2.435  -3.735  0.00  0.00    -0.042 A 
ATOM     15  C   LIG d   1       3.973  -2.186  -2.873  0.00  0.00    -0.055 A 
ATOM     16  C   LIG d   1       3.937  -1.012  -2.146  0.00  0.00    -0.020 A 
ATOM     17  H   LIG d   1       3.180  -2.912  -2.767  0.00  0.00     0.062 H 
ATOM     18  C   LIG d   1       4.953  -0.077  -2.289  0.00  0.00     0.117 A 
ATOM     19  H   LIG d   1       3.117  -0.819  -1.470  0.00  0.00     0.065 H 
ATOM     20  C   LIG d   1       6.005  -0.327  -3.159  0.00  0.00    -0.020 A 
ATOM     21  C   LIG d   1       6.039  -1.505  -3.879  0.00  0.00    -0.055 A 
ATOM     22  H   LIG d   1       6.797   0.398  -3.270  0.00  0.00     0.065 H 
ATOM     23  H   LIG d   1       6.857  -1.700  -4.556  0.00  0.00     0.062 H 
BRANCH  18  24
ATOM     24  O   LIG d   1       4.918   1.080  -1.578  0.00  0.00    -0.507 OA
ATOM     25  H   LIG d   1       4.886   1.876  -2.126  0.00  0.00     0.292 HD
ENDBRANCH  18  24
ENDBRANCH   1  14
TORSDOF 5
ENDMDL
MODEL 2
REMARK VINA RESULT:      -4.4      1.804      2.465
REMARK  5 active torsions:
REMARK  status: ('A' for Active; 'I' for Inactive)
REMARK    1  A    between atoms: C_1  and  C_2 
REMARK    2  A    between atoms: C_2  and  C_4 
REMARK    3  A    between atoms: C_2  and  N_12 
REMARK    4  A    between atoms: C_4  and  C_5 
REMARK    5  A    between atoms: C_8  and  O_11 
ROOT
ATOM      1  C   LIG d   1       7.242  -2.262  -3.614  0.00  0.00     0.015 C 
ATOM      2  H   LIG d   1       7.562  -2.866  -2.764  0.00  0.00     0.037 H 
ATOM      3  H   LIG d   1       8.102  -1.739  -4.031  0.00  0.00     0.037 H 
ENDROOT
BRANCH   1   4
ATOM      4  C   LIG d   1       6.628  -3.169  -4.682  0.00  0.00    -0.023 C 
ATOM      5  H   LIG d   1       5.644  -3.503  -4.354  0.00  0.00     0.085 H 
BRANCH   4   6
ATOM      6  C   LIG d   1       6.492  -2.391  -5.993  0.00  0.00    -0.021 C 
ATOM      7  H   LIG d   1       7.215  -2.768  -6.716  0.00  0.00     0.028 H 
ATOM      8  H   LIG d   1       5.483  -2.516  -6.387  0.00  0.00     0.028 H 
ATOM      9  H   LIG d   1       6.681  -1.333  -5.808  0.00  0.00     0.028 H 
ENDBRANCH   4   6
BRANCH   4  10
ATOM     10  N   LIG d   1       7.497  -4.334  -4.894  0.00  0.00     0.221 N 
ATOM     11  H   LIG d   1       8.376  -4.188  -4.423  0.00  0.00     0.200 HD
ATOM     12  H   LIG d   1       7.048  -5.158  -4.523  0.00  0.00     0.200 HD
ATOM     13  H   LIG d   1       7.660  -4.456  -5.882  0.00  0.00     0.200 HD
ENDBRANCH   4  10
ENDBRANCH   1   4
BRANCH   1  14
ATOM     14  C   LIG d   1       6.216  -1.257  -3.157  0.00  0.00    -0.042 A 
ATOM     15  C   LIG d   1       6.465   0.096  -3.297  0.00  0.00    -0.055 A 
ATOM     16  C   LIG d   1       5.523   1.019  -2.884  0.00  0.00    -0.020 A 
ATOM     17  H   LIG d   1       7.394   0.431  -3.731  0.00  0.00     0.062 H 
ATOM     18  C   LIG d   1       4.331   0.587  -2.319  0.00  0.00     0.117 A 
ATOM     19  H   LIG d   1       5.716   2.075  -2.997  0.00  0.00     0.065 H 
ATOM     20  C   LIG d   1       4.086  -0.772  -2.176  0.00  0.00    -0.020 A 
ATOM     21  C   LIG d   1       5.028  -1.690  -2.595  0.00  0.00    -0.055 A 
ATOM     22  H   LIG d   1       3.159  -1.109  -1.738  0.00  0.00     0.065 H 
ATOM     23  H   LIG d   1       4.838  -2.747  -2.483  0.00  0.00     0.062 H 
BRANCH  18  24
ATOM     24  O   LIG d   1       3.405   1.493  -1.909  0.00  0.00    -0.507 OA
ATOM     25  H   LIG d   1       2.676   1.108  -1.404  0.00  0.00     0.292 HD
ENDBRANCH  18  24
ENDBRANCH   1  14
TORSDOF 5
ENDMDL
MODEL 3
REMARK VINA RESULT:      -4.4      3.347      4.558
REMARK  5 active torsions:
REMARK  status: ('A' for Active; 'I' for Inactive)
REMARK    1  A    between atoms: C_1  and  C_2 
REMARK    2  A    between atoms: C_2  and  C_4 
REMARK    3  A    between atoms: C_2  and  N_12 
REMARK    4  A    between atoms: C_4  and  C_5 
REMARK    5  A    between atoms: C_8  and  O_11 
ROOT
ATOM      1  C   LIG d   1       7.306   1.480  -3.606  0.00  0.00     0.015 C 
ATOM      2  H   LIG d   1       7.840   1.804  -2.713  0.00  0.00     0.037 H 
ATOM      3  H   LIG d   1       6.775   2.327  -4.040  0.00  0.00     0.037 H 
ENDROOT
BRANCH   1   4
ATOM      4  C   LIG d   1       8.304   0.927  -4.626  0.00  0.00    -0.023 C 
ATOM      5  H   LIG d   1       8.101  -0.130  -4.798  0.00  0.00     0.085 H 
BRANCH   4   6
ATOM      6  C   LIG d   1       8.165   1.695  -5.942  0.00  0.00    -0.021 C 
ATOM      7  H   LIG d   1       7.212   1.446  -6.408  0.00  0.00     0.028 H 
ATOM      8  H   LIG d   1       8.206   2.766  -5.745  0.00  0.00     0.028 H 
ATOM      9  H   LIG d   1       8.980   1.417  -6.611  0.00  0.00     0.028 H 
ENDBRANCH   4   6
BRANCH   4  10
ATOM     10  N   LIG d   1       9.670   1.085  -4.109  0.00  0.00     0.221 N 
ATOM     11  H   LIG d   1      10.076   0.176  -3.946  0.00  0.00     0.200 HD
ATOM     12  H   LIG d   1      10.228   1.587  -4.783  0.00  0.00     0.200 HD
ATOM     13  H   LIG d   1       9.644   1.602  -3.243  0.00  0.00     0.200 HD
ENDBRANCH   4  10
ENDBRANCH   1   4
BRANCH   1  14
ATOM     14  C   LIG d   1       6.318   0.403  -3.237  0.00  0.00    -0.042 A 
ATOM     15  C   LIG d   1       6.498  -0.888  -3.698  0.00  0.00    -0.055 A 
ATOM     16  C   LIG d   1       5.596  -1.877  -3.356  0.00  0.00    -0.020 A 
ATOM     17  H   LIG d   1       7.347  -1.123  -4.323  0.00  0.00     0.062 H 
ATOM     18  C   LIG d   1       4.503  -1.572  -2.559  0.00  0.00     0.117 A 
ATOM     19  H   LIG d   1       5.740  -2.886  -3.714  0.00  0.00     0.065 H 
ATOM     20  C   LIG d   1       4.321  -0.274  -2.101  0.00  0.00    -0.020 A 
ATOM     21  C   LIG d   1       5.228   0.710  -2.441  0.00  0.00    -0.055 A 
ATOM     22  H   LIG d   1       3.471  -0.036  -1.480  0.00  0.00     0.065 H 
ATOM     23  H   LIG d   1       5.087   1.720  -2.086  0.00  0.00     0.062 H 
BRANCH  18  24
ATOM     24  O   LIG d   1       3.612  -2.543  -2.225  0.00  0.00    -0.507 OA
ATOM     25  H   LIG d   1       3.359  -3.114  -2.963  0.00  0.00     0.292 HD
ENDBRANCH  18  24
ENDBRANCH   1  14
TORSDOF 5
ENDMDL
MODEL 4
REMARK VINA RESULT:      -4.3      1.813      2.065
REMARK  5 active torsions:
REMARK  status: ('A' for Active; 'I' for Inactive)
REMARK    1  A    between atoms: C_1  and  C_2 
REMARK    2  A    between atoms: C_2  and  C_4 
REMARK    3  A    between atoms: C_2  and  N_12 
REMARK    4  A    between atoms: C_4  and  C_5 
REMARK    5  A    between atoms: C_8  and  O_11 
ROOT
ATOM      1  C   LIG d   1       7.227  -2.270  -3.595  0.00  0.00     0.015 C 
ATOM      2  H   LIG d   1       7.167  -3.155  -2.963  0.00  0.00     0.037 H 
ATOM      3  H   LIG d   1       8.223  -1.834  -3.517  0.00  0.00     0.037 H 
ENDROOT
BRANCH   1   4
ATOM      4  C   LIG d   1       6.954  -2.661  -5.049  0.00  0.00    -0.023 C 
ATOM      5  H   LIG d   1       6.181  -2.013  -5.461  0.00  0.00     0.085 H 
BRANCH   4   6
ATOM      6  C   LIG d   1       8.238  -2.508  -5.867  0.00  0.00    -0.021 C 
ATOM      7  H   LIG d   1       8.906  -1.806  -5.367  0.00  0.00     0.028 H 
ATOM      8  H   LIG d   1       8.730  -3.476  -5.957  0.00  0.00     0.028 H 
ATOM      9  H   LIG d   1       7.993  -2.130  -6.860  0.00  0.00     0.028 H 
ENDBRANCH   4   6
BRANCH   4  10
ATOM     10  N   LIG d   1       6.504  -4.058  -5.104  0.00  0.00     0.221 N 
ATOM     11  H   LIG d   1       7.305  -4.668  -5.166  0.00  0.00     0.200 HD
ATOM     12  H   LIG d   1       5.979  -4.275  -4.269  0.00  0.00     0.200 HD
ATOM     13  H   LIG d   1       5.916  -4.190  -5.913  0.00  0.00     0.200 HD
ENDBRANCH   4  10
ENDBRANCH   1   4
BRANCH   1  14
ATOM     14  C   LIG d   1       6.201  -1.261  -3.146  0.00  0.00    -0.042 A 
ATOM     15  C   LIG d   1       5.011  -1.690  -2.586  0.00  0.00    -0.055 A 
ATOM     16  C   LIG d   1       4.071  -0.767  -2.169  0.00  0.00    -0.020 A 
ATOM     17  H   LIG d   1       4.819  -2.746  -2.472  0.00  0.00     0.062 H 
ATOM     18  C   LIG d   1       4.317   0.590  -2.321  0.00  0.00     0.117 A 
ATOM     19  H   LIG d   1       3.144  -1.102  -1.727  0.00  0.00     0.065 H 
ATOM     20  C   LIG d   1       5.510   1.017  -2.888  0.00  0.00    -0.020 A 
ATOM     21  C   LIG d   1       6.448   0.091  -3.299  0.00  0.00    -0.055 A 
ATOM     22  H   LIG d   1       5.703   2.072  -3.007  0.00  0.00     0.065 H 
ATOM     23  H   LIG d   1       7.376   0.422  -3.741  0.00  0.00     0.062 H 
BRANCH  18  24
ATOM     24  O   LIG d   1       3.393   1.499  -1.915  0.00  0.00    -0.507 OA
ATOM     25  H   LIG d   1       3.658   2.418  -2.054  0.00  0.00     0.292 HD
ENDBRANCH  18  24
ENDBRANCH   1  14
TORSDOF 5
ENDMDL
MODEL 5
REMARK VINA RESULT:      -4.2      3.261      4.858
REMARK  5 active torsions:
REMARK  status: ('A' for Active; 'I' for Inactive)
REMARK    1  A    between atoms: C_1  and  C_2 
REMARK    2  A    between atoms: C_2  and  C_4 
REMARK    3  A    between atoms: C_2  and  N_12 
REMARK    4  A    between atoms: C_4  and  C_5 
REMARK    5  A    between atoms: C_8  and  O_11 
ROOT
ATOM      1  C   LIG d   1       4.967  -0.668  -2.271  0.00  0.00     0.015 C 
ATOM      2  H   LIG d   1       5.739  -0.419  -1.542  0.00  0.00     0.037 H 
ATOM      3  H   LIG d   1       4.075  -1.015  -1.750  0.00  0.00     0.037 H 
ENDROOT
BRANCH   1   4
ATOM      4  C   LIG d   1       4.626   0.573  -3.098  0.00  0.00    -0.023 C 
ATOM      5  H   LIG d   1       4.263   0.267  -4.079  0.00  0.00     0.085 H 
BRANCH   4   6
ATOM      6  C   LIG d   1       3.540   1.380  -2.382  0.00  0.00    -0.021 C 
ATOM      7  H   LIG d   1       3.623   1.224  -1.306  0.00  0.00     0.028 H 
ATOM      8  H   LIG d   1       3.666   2.439  -2.607  0.00  0.00     0.028 H 
ATOM      9  H   LIG d   1       2.559   1.050  -2.722  0.00  0.00     0.028 H 
ENDBRANCH   4   6
BRANCH   4  10
ATOM     10  N   LIG d   1       5.827   1.402  -3.256  0.00  0.00     0.221 N 
ATOM     11  H   LIG d   1       6.019   1.885  -2.391  0.00  0.00     0.200 HD
ATOM     12  H   LIG d   1       6.612   0.814  -3.494  0.00  0.00     0.200 HD
ATOM     13  H   LIG d   1       5.677   2.076  -3.992  0.00  0.00     0.200 HD
ENDBRANCH   4  10
ENDBRANCH   1   4
BRANCH   1  14
ATOM     14  C   LIG d   1       5.471  -1.757  -3.183  0.00  0.00    -0.042 A 
ATOM     15  C   LIG d   1       6.831  -1.934  -3.360  0.00  0.00    -0.055 A 
ATOM     16  C   LIG d   1       7.296  -2.935  -4.191  0.00  0.00    -0.020 A 
ATOM     17  H   LIG d   1       7.530  -1.293  -2.844  0.00  0.00     0.062 H 
ATOM     18  C   LIG d   1       6.397  -3.755  -4.858  0.00  0.00     0.117 A 
ATOM     19  H   LIG d   1       8.358  -3.077  -4.326  0.00  0.00     0.065 H 
ATOM     20  C   LIG d   1       5.032  -3.571  -4.684  0.00  0.00    -0.020 A 
ATOM     21  C   LIG d   1       4.573  -2.572  -3.847  0.00  0.00    -0.055 A 
ATOM     22  H   LIG d   1       4.331  -4.208  -5.201  0.00  0.00     0.065 H 
ATOM     23  H   LIG d   1       3.511  -2.428  -3.711  0.00  0.00     0.062 H 
BRANCH  18  24
ATOM     24  O   LIG d   1       6.851  -4.737  -5.680  0.00  0.00    -0.507 OA
ATOM     25  H   LIG d   1       6.973  -4.456  -6.597  0.00  0.00     0.292 HD
ENDBRANCH  18  24
ENDBRANCH   1  14
TORSDOF 5
ENDMDL
MODEL 6
REMARK VINA RESULT:      -4.1      2.611      3.998
REMARK  5 active torsions:
REMARK  status: ('A' for Active; 'I' for Inactive)
REMARK    1  A    between atoms: C_1  and  C_2 
REMARK    2  A    between atoms: C_2  and  C_4 
REMARK    3  A    between atoms: C_2  and  N_12 
REMARK    4  A    between atoms: C_4  and  C_5 
REMARK    5  A    between atoms: C_8  and  O_11 
ROOT
ATOM      1  C   LIG d   1       3.570  -1.790  -2.389  0.00  0.00     0.015 C 
ATOM      2  H   LIG d   1       3.862  -1.546  -1.368  0.00  0.00     0.037 H 
ATOM      3  H   LIG d   1       2.889  -2.641  -2.379  0.00  0.00     0.037 H 
ENDROOT
BRANCH   1   4
ATOM      4  C   LIG d   1       2.871  -0.585  -3.022  0.00  0.00    -0.023 C 
ATOM      5  H   LIG d   1       1.813  -0.599  -2.759  0.00  0.00     0.085 H 
BRANCH   4   6
ATOM      6  C   LIG d   1       3.508   0.705  -2.501  0.00  0.00    -0.021 C 
ATOM      7  H   LIG d   1       4.375   0.459  -1.887  0.00  0.00     0.028 H 
ATOM      8  H   LIG d   1       3.822   1.321  -3.344  0.00  0.00     0.028 H 
ATOM      9  H   LIG d   1       2.782   1.252  -1.901  0.00  0.00     0.028 H 
ENDBRANCH   4   6
BRANCH   4  10
ATOM     10  N   LIG d   1       3.014  -0.647  -4.482  0.00  0.00     0.221 N 
ATOM     11  H   LIG d   1       3.934  -0.328  -4.744  0.00  0.00     0.200 HD
ATOM     12  H   LIG d   1       2.887  -1.599  -4.792  0.00  0.00     0.200 HD
ATOM     13  H   LIG d   1       2.318  -0.057  -4.913  0.00  0.00     0.200 HD
ENDBRANCH   4  10
ENDBRANCH   1   4
BRANCH   1  14
ATOM     14  C   LIG d   1       4.796  -2.138  -3.193  0.00  0.00    -0.042 A 
ATOM     15  C   LIG d   1       4.736  -3.138  -4.147  0.00  0.00    -0.055 A 
ATOM     16  C   LIG d   1       5.858  -3.454  -4.889  0.00  0.00    -0.020 A 
ATOM     17  H   LIG d   1       3.810  -3.668  -4.313  0.00  0.00     0.062 H 
ATOM     18  C   LIG d   1       7.048  -2.777  -4.669  0.00  0.00     0.117 A 
ATOM     19  H   LIG d   1       5.809  -4.232  -5.636  0.00  0.00     0.065 H 
ATOM     20  C   LIG d   1       7.107  -1.777  -3.708  0.00  0.00    -0.020 A 
ATOM     21  C   LIG d   1       5.982  -1.460  -2.972  0.00  0.00    -0.055 A 
ATOM     22  H   LIG d   1       8.032  -1.248  -3.536  0.00  0.00     0.065 H 
ATOM     23  H   LIG d   1       6.027  -0.683  -2.224  0.00  0.00     0.062 H 
BRANCH  18  24
ATOM     24  O   LIG d   1       8.153  -3.089  -5.395  0.00  0.00    -0.507 OA
ATOM     25  H   LIG d   1       8.214  -2.621  -6.238  0.00  0.00     0.292 HD
ENDBRANCH  18  24
ENDBRANCH   1  14
TORSDOF 5
ENDMDL
MODEL 7
REMARK VINA RESULT:      -4.1      3.786      4.998
REMARK  5 active torsions:
REMARK  status: ('A' for Active; 'I' for Inactive)
REMARK    1  A    between atoms: C_1  and  C_2 
REMARK    2  A    between atoms: C_2  and  C_4 
REMARK    3  A    between atoms: C_2  and  N_12 
REMARK    4  A    between atoms: C_4  and  C_5 
REMARK    5  A    between atoms: C_8  and  O_11 
ROOT
ATOM      1  C   LIG d   1       3.125  -0.052  -3.378  0.00  0.00     0.015 C 
ATOM      2  H   LIG d   1       2.392  -0.812  -3.109  0.00  0.00     0.037 H 
ATOM      3  H   LIG d   1       2.717   0.936  -3.171  0.00  0.00     0.037 H 
ENDROOT
BRANCH   1   4
ATOM      4  C   LIG d   1       4.400  -0.260  -2.559  0.00  0.00    -0.023 C 
ATOM      5  H   LIG d   1       5.259  -0.310  -3.228  0.00  0.00     0.085 H 
BRANCH   4   6
ATOM      6  C   LIG d   1       4.578   0.909  -1.587  0.00  0.00    -0.021 C 
ATOM      7  H   LIG d   1       3.621   1.138  -1.117  0.00  0.00     0.028 H 
ATOM      8  H   LIG d   1       5.305   0.639  -0.822  0.00  0.00     0.028 H 
ATOM      9  H   LIG d   1       4.932   1.784  -2.133  0.00  0.00     0.028 H 
ENDBRANCH   4   6
BRANCH   4  10
ATOM     10  N   LIG d   1       4.297  -1.514  -1.801  0.00  0.00     0.221 N 
ATOM     11  H   LIG d   1       4.322  -1.313  -0.813  0.00  0.00     0.200 HD
ATOM     12  H   LIG d   1       3.428  -1.973  -2.030  0.00  0.00     0.200 HD
ATOM     13  H   LIG d   1       5.069  -2.117  -2.042  0.00  0.00     0.200 HD
ENDBRANCH   4  10
ENDBRANCH   1   4
BRANCH   1  14
ATOM     14  C   LIG d   1       3.448  -0.164  -4.846  0.00  0.00    -0.042 A 
ATOM     15  C   LIG d   1       2.580   0.361  -5.786  0.00  0.00    -0.055 A 
ATOM     16  C   LIG d   1       2.877   0.264  -7.132  0.00  0.00    -0.020 A 
ATOM     17  H   LIG d   1       1.672   0.849  -5.467  0.00  0.00     0.062 H 
ATOM     18  C   LIG d   1       4.041  -0.370  -7.541  0.00  0.00     0.117 A 
ATOM     19  H   LIG d   1       2.201   0.678  -7.865  0.00  0.00     0.065 H 
ATOM     20  C   LIG d   1       4.908  -0.901  -6.596  0.00  0.00    -0.020 A 
ATOM     21  C   LIG d   1       4.610  -0.797  -5.252  0.00  0.00    -0.055 A 
ATOM     22  H   LIG d   1       5.815  -1.393  -6.912  0.00  0.00     0.065 H 
ATOM     23  H   LIG d   1       5.284  -1.210  -4.516  0.00  0.00     0.062 H 
BRANCH  18  24
ATOM     24  O   LIG d   1       4.333  -0.470  -8.864  0.00  0.00    -0.507 OA
ATOM     25  H   LIG d   1       4.925   0.221  -9.189  0.00  0.00     0.292 HD
ENDBRANCH  18  24
ENDBRANCH   1  14
TORSDOF 5
ENDMDL
MODEL 8
REMARK VINA RESULT:      -4.1      3.333      3.511
REMARK  5 active torsions:
REMARK  status: ('A' for Active; 'I' for Inactive)
REMARK    1  A    between atoms: C_1  and  C_2 
REMARK    2  A    between atoms: C_2  and  C_4 
REMARK    3  A    between atoms: C_2  and  N_12 
REMARK    4  A    between atoms: C_4  and  C_5 
REMARK    5  A    between atoms: C_8  and  O_11 
ROOT
ATOM      1  C   LIG d   1       2.805   0.421  -6.586  0.00  0.00     0.015 C 
ATOM      2  H   LIG d   1       2.762   1.509  -6.531  0.00  0.00     0.037 H 
ATOM      3  H   LIG d   1       1.818   0.031  -6.833  0.00  0.00     0.037 H 
ENDROOT
BRANCH   1   4
ATOM      4  C   LIG d   1       3.804   0.004  -7.667  0.00  0.00    -0.023 C 
ATOM      5  H   LIG d   1       4.587  -0.610  -7.222  0.00  0.00     0.085 H 
BRANCH   4   6
ATOM      6  C   LIG d   1       3.079  -0.800  -8.749  0.00  0.00    -0.021 C 
ATOM      7  H   LIG d   1       2.970  -1.834  -8.421  0.00  0.00     0.028 H 
ATOM      8  H   LIG d   1       2.094  -0.368  -8.923  0.00  0.00     0.028 H 
ATOM      9  H   LIG d   1       3.658  -0.771  -9.672  0.00  0.00     0.028 H 
ENDBRANCH   4   6
BRANCH   4  10
ATOM     10  N   LIG d   1       4.404   1.202  -8.268  0.00  0.00     0.221 N 
ATOM     11  H   LIG d   1       5.405   1.176  -8.146  0.00  0.00     0.200 HD
ATOM     12  H   LIG d   1       4.186   1.229  -9.253  0.00  0.00     0.200 HD
ATOM     13  H   LIG d   1       4.031   2.026  -7.820  0.00  0.00     0.200 HD
ENDBRANCH   4  10
ENDBRANCH   1   4
BRANCH   1  14
ATOM     14  C   LIG d   1       3.245  -0.133  -5.255  0.00  0.00    -0.042 A 
ATOM     15  C   LIG d   1       2.417  -0.021  -4.153  0.00  0.00    -0.055 A 
ATOM     16  C   LIG d   1       2.817  -0.533  -2.934  0.00  0.00    -0.020 A 
ATOM     17  H   LIG d   1       1.457   0.463  -4.248  0.00  0.00     0.062 H 
ATOM     18  C   LIG d   1       4.054  -1.149  -2.812  0.00  0.00     0.117 A 
ATOM     19  H   LIG d   1       2.168  -0.450  -2.074  0.00  0.00     0.065 H 
ATOM     20  C   LIG d   1       4.886  -1.255  -3.918  0.00  0.00    -0.020 A 
ATOM     21  C   LIG d   1       4.480  -0.746  -5.137  0.00  0.00    -0.055 A 
ATOM     22  H   LIG d   1       5.848  -1.734  -3.826  0.00  0.00     0.065 H 
ATOM     23  H   LIG d   1       5.126  -0.828  -5.998  0.00  0.00     0.062 H 
BRANCH  18  24
ATOM     24  O   LIG d   1       4.450  -1.649  -1.613  0.00  0.00    -0.507 OA
ATOM     25  H   LIG d   1       4.061  -1.198  -0.851  0.00  0.00     0.292 HD
ENDBRANCH  18  24
ENDBRANCH   1  14
TORSDOF 5
ENDMDL
MODEL 9
REMARK VINA RESULT:      -3.8     10.815     12.689
REMARK  5 active torsions:
REMARK  status: ('A' for Active; 'I' for Inactive)
REMARK    1  A    between atoms: C_1  and  C_2 
REMARK    2  A    between atoms: C_2  and  C_4 
REMARK    3  A    between atoms: C_2  and  N_12 
REMARK    4  A    between atoms: C_4  and  C_5 
REMARK    5  A    between atoms: C_8  and  O_11 
ROOT
ATOM      1  C   LIG d   1       9.035   9.543  -0.819  0.00  0.00     0.015 C 
ATOM      2  H   LIG d   1       8.256   9.599  -0.058  0.00  0.00     0.037 H 
ATOM      3  H   LIG d   1       8.591   9.682  -1.805  0.00  0.00     0.037 H 
ENDROOT
BRANCH   1   4
ATOM      4  C   LIG d   1      10.074  10.637  -0.568  0.00  0.00    -0.023 C 
ATOM      5  H   LIG d   1      11.025  10.180  -0.298  0.00  0.00     0.085 H 
BRANCH   4   6
ATOM      6  C   LIG d   1      10.251  11.472  -1.839  0.00  0.00    -0.021 C 
ATOM      7  H   LIG d   1      11.315  11.612  -2.035  0.00  0.00     0.028 H 
ATOM      8  H   LIG d   1       9.790  10.955  -2.680  0.00  0.00     0.028 H 
ATOM      9  H   LIG d   1       9.776  12.443  -1.704  0.00  0.00     0.028 H 
ENDBRANCH   4   6
BRANCH   4  10
ATOM     10  N   LIG d   1       9.618  11.504   0.526  0.00  0.00     0.221 N 
ATOM     11  H   LIG d   1       8.620  11.636   0.458  0.00  0.00     0.200 HD
ATOM     12  H   LIG d   1       9.841  11.073   1.411  0.00  0.00     0.200 HD
ATOM     13  H   LIG d   1      10.081  12.398   0.462  0.00  0.00     0.200 HD
ENDBRANCH   4  10
ENDBRANCH   1   4
BRANCH   1  14
ATOM     14  C   LIG d   1       9.702   8.193  -0.755  0.00  0.00    -0.042 A 
ATOM     15  C   LIG d   1      10.616   7.921   0.247  0.00  0.00    -0.055 A 
ATOM     16  C   LIG d   1      11.225   6.682   0.310  0.00  0.00    -0.020 A 
ATOM     17  H   LIG d   1      10.850   8.677   0.981  0.00  0.00     0.062 H 
ATOM     18  C   LIG d   1      10.927   5.715  -0.638  0.00  0.00     0.117 A 
ATOM     19  H   LIG d   1      11.935   6.469   1.095  0.00  0.00     0.065 H 
ATOM     20  C   LIG d   1      10.013   5.991  -1.646  0.00  0.00    -0.020 A 
ATOM     21  C   LIG d   1       9.403   7.229  -1.702  0.00  0.00    -0.055 A 
ATOM     22  H   LIG d   1       9.780   5.239  -2.384  0.00  0.00     0.065 H 
ATOM     23  H   LIG d   1       8.693   7.446  -2.486  0.00  0.00     0.062 H 
BRANCH  18  24
ATOM     24  O   LIG d   1      11.528   4.497  -0.580  0.00  0.00    -0.507 OA
ATOM     25  H   LIG d   1      11.630   4.152   0.317  0.00  0.00     0.292 HD
ENDBRANCH  18  24
ENDBRANCH   1  14
TORSDOF 5
ENDMDL
MODEL 10
REMARK VINA RESULT:      -3.7     10.862     12.577
REMARK  5 active torsions:
REMARK  status: ('A' for Active; 'I' for Inactive)
REMARK    1  A    between atoms: C_1  and  C_2 
REMARK    2  A    between atoms: C_2  and  C_4 
REMARK    3  A    between atoms: C_2  and  N_12 
REMARK    4  A    between atoms: C_4  and  C_5 
REMARK    5  A    between atoms: C_8  and  O_11 
ROOT
ATOM      1  C   LIG d   1       8.961   9.599  -0.868  0.00  0.00     0.015 C 
ATOM      2  H   LIG d   1       8.621   9.922   0.115  0.00  0.00     0.037 H 
ATOM      3  H   LIG d   1       8.105   9.500  -1.535  0.00  0.00     0.037 H 
ENDROOT
BRANCH   1   4
ATOM      4  C   LIG d   1       9.934  10.634  -1.437  0.00  0.00    -0.023 C 
ATOM      5  H   LIG d   1      10.938  10.210  -1.469  0.00  0.00     0.085 H 
BRANCH   4   6
ATOM      6  C   LIG d   1       9.498  11.020  -2.852  0.00  0.00    -0.021 C 
ATOM      7  H   LIG d   1       8.469  11.379  -2.829  0.00  0.00     0.028 H 
ATOM      8  H   LIG d   1      10.150  11.807  -3.232  0.00  0.00     0.028 H 
ATOM      9  H   LIG d   1       9.564  10.148  -3.502  0.00  0.00     0.028 H 
ENDBRANCH   4   6
BRANCH   4  10
ATOM     10  N   LIG d   1       9.934  11.828  -0.582  0.00  0.00     0.221 N 
ATOM     11  H   LIG d   1       9.039  12.288  -0.647  0.00  0.00     0.200 HD
ATOM     12  H   LIG d   1      10.104  11.557   0.374  0.00  0.00     0.200 HD
ATOM     13  H   LIG d   1      10.660  12.460  -0.886  0.00  0.00     0.200 HD
ENDBRANCH   4  10
ENDBRANCH   1   4
BRANCH   1  14
ATOM     14  C   LIG d   1       9.659   8.269  -0.746  0.00  0.00    -0.042 A 
ATOM     15  C   LIG d   1       9.354   7.246  -1.625  0.00  0.00    -0.055 A 
ATOM     16  C   LIG d   1       9.996   6.027  -1.518  0.00  0.00    -0.020 A 
ATOM     17  H   LIG d   1       8.617   7.402  -2.398  0.00  0.00     0.062 H 
ATOM     18  C   LIG d   1      10.939   5.826  -0.520  0.00  0.00     0.117 A 
ATOM     19  H   LIG d   1       9.761   5.230  -2.208  0.00  0.00     0.065 H 
ATOM     20  C   LIG d   1      11.239   6.852   0.365  0.00  0.00    -0.020 A 
ATOM     21  C   LIG d   1      10.598   8.071   0.250  0.00  0.00    -0.055 A 
ATOM     22  H   LIG d   1      11.973   6.698   1.141  0.00  0.00     0.065 H 
ATOM     23  H   LIG d   1      10.831   8.870   0.939  0.00  0.00     0.062 H 
BRANCH  18  24
ATOM     24  O   LIG d   1      11.568   4.627  -0.410  0.00  0.00    -0.507 OA
ATOM     25  H   LIG d   1      11.834   4.243  -1.257  0.00  0.00     0.292 HD
ENDBRANCH  18  24
ENDBRANCH   1  14
TORSDOF 5
ENDMDL
