MODEL 1
REMARK VINA RESULT:      -5.5      0.000      0.000
REMARK  7 active torsions:
REMARK  status: ('A' for Active; 'I' for Inactive)
REMARK    1  A    between atoms: C_1  and  C_2 
REMARK    2  A    between atoms: C_2  and  C_4 
REMARK    3  A    between atoms: C_2  and  O_19 
REMARK    4  A    between atoms: C_4  and  C_5 
REMARK    5  A    between atoms: C_9  and  O_17 
REMARK    6  A    between atoms: C_11  and  O_16 
REMARK    7  A    between atoms: O_17  and  C_18 
ROOT
ATOM      1  C   LIG d   1       5.387  -3.612  -5.000  0.00  0.00     0.112 A 
ATOM      2  C   LIG d   1       6.181  -2.580  -5.311  0.00  0.00    -0.015 A 
ATOM      3  C   LIG d   1       6.088  -1.343  -4.529  0.00  0.00    -0.001 A 
ATOM      4  C   LIG d   1       6.880  -0.234  -4.803  0.00  0.00    -0.012 A 
ATOM      5  C   LIG d   1       6.752   0.908  -4.027  0.00  0.00     0.124 A 
ATOM      6  C   LIG d   1       5.833   0.959  -2.982  0.00  0.00     0.022 A 
ATOM      7  C   LIG d   1       5.033  -0.132  -2.696  0.00  0.00     0.135 A 
ATOM      8  C   LIG d   1       5.153  -1.295  -3.467  0.00  0.00     0.108 A 
ATOM      9  C   LIG d   1       4.336  -2.483  -3.216  0.00  0.00     0.348 A 
ATOM     10  O   LIG d   1       3.517  -2.489  -2.315  0.00  0.00    -0.244 OA
ATOM     11  O   LIG d   1       4.500  -3.568  -3.995  0.00  0.00    -0.427 OA
ATOM     12  H   LIG d   1       6.882  -2.658  -6.130  0.00  0.00     0.066 H 
ATOM     13  H   LIG d   1       7.592  -0.262  -5.614  0.00  0.00     0.066 H 
ATOM     14  H   LIG d   1       5.745   1.857  -2.390  0.00  0.00     0.069 H 
ENDROOT
BRANCH   1  15
ATOM     15  C   LIG d   1       5.493  -4.876  -5.814  0.00  0.00     0.031 C 
ATOM     16  H   LIG d   1       6.458  -4.903  -6.320  0.00  0.00     0.037 H 
ATOM     17  H   LIG d   1       5.403  -5.740  -5.157  0.00  0.00     0.037 H 
BRANCH  15  18
ATOM     18  C   LIG d   1       4.371  -4.906  -6.855  0.00  0.00     0.059 C 
ATOM     19  H   LIG d   1       4.372  -3.973  -7.417  0.00  0.00     0.059 H 
BRANCH  18  20
ATOM     20  C   LIG d   1       4.596  -6.078  -7.813  0.00  0.00    -0.038 C 
ATOM     21  H   LIG d   1       4.982  -5.702  -8.761  0.00  0.00     0.025 H 
ATOM     22  H   LIG d   1       5.317  -6.770  -7.378  0.00  0.00     0.025 H 
ATOM     23  H   LIG d   1       3.652  -6.594  -7.984  0.00  0.00     0.025 H 
ENDBRANCH  18  20
BRANCH  18  24
ATOM     24  O   LIG d   1       3.114  -5.065  -6.194  0.00  0.00    -0.392 OA
ATOM     25  H   LIG d   1       2.687  -5.917  -6.360  0.00  0.00     0.210 HD
ENDBRANCH  18  24
ENDBRANCH  15  18
ENDBRANCH   1  15
BRANCH   7  26
ATOM     26  O   LIG d   1       4.139  -0.077  -1.677  0.00  0.00    -0.506 OA
ATOM     27  H   LIG d   1       4.414   0.492  -0.945  0.00  0.00     0.292 HD
ENDBRANCH   7  26
BRANCH   5  28
ATOM     28  O   LIG d   1       7.528   1.990  -4.291  0.00  0.00    -0.495 OA
BRANCH  28  29
ATOM     29  C   LIG d   1       8.856   1.980  -3.762  0.00  0.00     0.079 C 
ATOM     30  H   LIG d   1       8.985   2.827  -3.088  0.00  0.00     0.066 H 
ATOM     31  H   LIG d   1       9.574   2.054  -4.579  0.00  0.00     0.066 H 
ATOM     32  H   LIG d   1       9.022   1.052  -3.216  0.00  0.00     0.066 H 
ENDBRANCH  28  29
ENDBRANCH   5  28
TORSDOF 7
ENDMDL
MODEL 2
REMARK VINA RESULT:      -5.1      4.023      6.349
REMARK  7 active torsions:
REMARK  status: ('A' for Active; 'I' for Inactive)
REMARK    1  A    between atoms: C_1  and  C_2 
REMARK    2  A    between atoms: C_2  and  C_4 
REMARK    3  A    between atoms: C_2  and  O_19 
REMARK    4  A    between atoms: C_4  and  C_5 
REMARK    5  A    between atoms: C_9  and  O_17 
REMARK    6  A    between atoms: C_11  and  O_16 
REMARK    7  A    between atoms: O_17  and  C_18 
ROOT
ATOM      1  C   LIG d   1       3.545  -0.121  -4.525  0.00  0.00     0.112 A 
ATOM      2  C   LIG d   1       2.755   0.013  -5.597  0.00  0.00    -0.015 A 
ATOM      3  C   LIG d   1       3.341  -0.093  -6.938  0.00  0.00    -0.001 A 
ATOM      4  C   LIG d   1       2.577   0.041  -8.092  0.00  0.00    -0.012 A 
ATOM      5  C   LIG d   1       3.185  -0.074  -9.333  0.00  0.00     0.124 A 
ATOM      6  C   LIG d   1       4.552  -0.312  -9.435  0.00  0.00     0.022 A 
ATOM      7  C   LIG d   1       5.331  -0.443  -8.300  0.00  0.00     0.135 A 
ATOM      8  C   LIG d   1       4.733  -0.336  -7.039  0.00  0.00     0.108 A 
ATOM      9  C   LIG d   1       5.499  -0.465  -5.800  0.00  0.00     0.348 A 
ATOM     10  O   LIG d   1       6.699  -0.672  -5.836  0.00  0.00    -0.244 OA
ATOM     11  O   LIG d   1       4.864  -0.350  -4.619  0.00  0.00    -0.427 OA
ATOM     12  H   LIG d   1       1.697   0.198  -5.477  0.00  0.00     0.066 H 
ATOM     13  H   LIG d   1       1.516   0.230  -8.022  0.00  0.00     0.066 H 
ATOM     14  H   LIG d   1       5.009  -0.395 -10.410  0.00  0.00     0.069 H 
ENDROOT
BRANCH   1  15
ATOM     15  C   LIG d   1       2.928  -0.007  -3.155  0.00  0.00     0.031 C 
ATOM     16  H   LIG d   1       1.849   0.117  -3.250  0.00  0.00     0.037 H 
ATOM     17  H   LIG d   1       3.141  -0.911  -2.584  0.00  0.00     0.037 H 
BRANCH  15  18
ATOM     18  C   LIG d   1       3.518   1.205  -2.430  0.00  0.00     0.059 C 
ATOM     19  H   LIG d   1       2.747   1.675  -1.820  0.00  0.00     0.059 H 
BRANCH  18  20
ATOM     20  C   LIG d   1       4.671   0.750  -1.532  0.00  0.00    -0.038 C 
ATOM     21  H   LIG d   1       4.818   1.479  -0.734  0.00  0.00     0.025 H 
ATOM     22  H   LIG d   1       4.432  -0.220  -1.097  0.00  0.00     0.025 H 
ATOM     23  H   LIG d   1       5.583   0.670  -2.124  0.00  0.00     0.025 H 
ENDBRANCH  18  20
BRANCH  18  24
ATOM     24  O   LIG d   1       4.004   2.144  -3.391  0.00  0.00    -0.392 OA
ATOM     25  H   LIG d   1       3.323   2.490  -3.984  0.00  0.00     0.210 HD
ENDBRANCH  18  24
ENDBRANCH  15  18
ENDBRANCH   1  15
BRANCH   7  26
ATOM     26  O   LIG d   1       6.663  -0.675  -8.407  0.00  0.00    -0.506 OA
ATOM     27  H   LIG d   1       6.961  -1.476  -7.953  0.00  0.00     0.292 HD
ENDBRANCH   7  26
BRANCH   5  28
ATOM     28  O   LIG d   1       2.438   0.052 -10.459  0.00  0.00    -0.495 OA
BRANCH  28  29
ATOM     29  C   LIG d   1       2.862  -0.692 -11.604  0.00  0.00     0.079 C 
ATOM     30  H   LIG d   1       3.932  -0.887 -11.535  0.00  0.00     0.066 H 
ATOM     31  H   LIG d   1       2.655  -0.118 -12.508  0.00  0.00     0.066 H 
ATOM     32  H   LIG d   1       2.322  -1.638 -11.643  0.00  0.00     0.066 H 
ENDBRANCH  28  29
ENDBRANCH   5  28
TORSDOF 7
ENDMDL
MODEL 3
REMARK VINA RESULT:      -5.0      2.816      4.367
REMARK  7 active torsions:
REMARK  status: ('A' for Active; 'I' for Inactive)
REMARK    1  A    between atoms: C_1  and  C_2 
REMARK    2  A    between atoms: C_2  and  C_4 
REMARK    3  A    between atoms: C_2  and  O_19 
REMARK    4  A    between atoms: C_4  and  C_5 
REMARK    5  A    between atoms: C_9  and  O_17 
REMARK    6  A    between atoms: C_11  and  O_16 
REMARK    7  A    between atoms: O_17  and  C_18 
ROOT
ATOM      1  C   LIG d   1       5.319  -0.213  -2.927  0.00  0.00     0.112 A 
ATOM      2  C   LIG d   1       5.969   0.943  -3.110  0.00  0.00    -0.015 A 
ATOM      3  C   LIG d   1       7.240   0.942  -3.843  0.00  0.00    -0.001 A 
ATOM      4  C   LIG d   1       7.967   2.106  -4.063  0.00  0.00    -0.012 A 
ATOM      5  C   LIG d   1       9.160   2.046  -4.767  0.00  0.00     0.124 A 
ATOM      6  C   LIG d   1       9.642   0.832  -5.247  0.00  0.00     0.022 A 
ATOM      7  C   LIG d   1       8.936  -0.339  -5.035  0.00  0.00     0.135 A 
ATOM      8  C   LIG d   1       7.727  -0.295  -4.331  0.00  0.00     0.108 A 
ATOM      9  C   LIG d   1       6.933  -1.496  -4.072  0.00  0.00     0.348 A 
ATOM     10  O   LIG d   1       7.311  -2.583  -4.470  0.00  0.00    -0.244 OA
ATOM     11  O   LIG d   1       5.780  -1.386  -3.387  0.00  0.00    -0.427 OA
ATOM     12  H   LIG d   1       5.563   1.865  -2.722  0.00  0.00     0.066 H 
ATOM     13  H   LIG d   1       7.603   3.053  -3.691  0.00  0.00     0.066 H 
ATOM     14  H   LIG d   1      10.574   0.804  -5.791  0.00  0.00     0.069 H 
ENDROOT
BRANCH   1  15
ATOM     15  C   LIG d   1       4.016  -0.196  -2.170  0.00  0.00     0.031 C 
ATOM     16  H   LIG d   1       4.067  -0.903  -1.342  0.00  0.00     0.037 H 
ATOM     17  H   LIG d   1       3.834   0.805  -1.782  0.00  0.00     0.037 H 
BRANCH  15  18
ATOM     18  C   LIG d   1       2.876  -0.594  -3.110  0.00  0.00     0.059 C 
ATOM     19  H   LIG d   1       1.939  -0.621  -2.555  0.00  0.00     0.059 H 
BRANCH  18  20
ATOM     20  C   LIG d   1       2.768   0.430  -4.242  0.00  0.00    -0.038 C 
ATOM     21  H   LIG d   1       3.181   0.005  -5.157  0.00  0.00     0.025 H 
ATOM     22  H   LIG d   1       1.720   0.686  -4.401  0.00  0.00     0.025 H 
ATOM     23  H   LIG d   1       3.325   1.328  -3.974  0.00  0.00     0.025 H 
ENDBRANCH  18  20
BRANCH  18  24
ATOM     24  O   LIG d   1       3.142  -1.886  -3.661  0.00  0.00    -0.392 OA
ATOM     25  H   LIG d   1       3.943  -2.304  -3.316  0.00  0.00     0.210 HD
ENDBRANCH  18  24
ENDBRANCH  15  18
ENDBRANCH   1  15
BRANCH   7  26
ATOM     26  O   LIG d   1       9.411  -1.519  -5.506  0.00  0.00    -0.506 OA
ATOM     27  H   LIG d   1       9.182  -1.695  -6.428  0.00  0.00     0.292 HD
ENDBRANCH   7  26
BRANCH   5  28
ATOM     28  O   LIG d   1       9.867   3.184  -4.987  0.00  0.00    -0.495 OA
BRANCH  28  29
ATOM     29  C   LIG d   1       9.584   4.297  -4.136  0.00  0.00     0.079 C 
ATOM     30  H   LIG d   1      10.119   4.180  -3.194  0.00  0.00     0.066 H 
ATOM     31  H   LIG d   1       8.512   4.343  -3.942  0.00  0.00     0.066 H 
ATOM     32  H   LIG d   1       9.905   5.217  -4.624  0.00  0.00     0.066 H 
ENDBRANCH  28  29
ENDBRANCH   5  28
TORSDOF 7
ENDMDL
MODEL 4
REMARK VINA RESULT:      -5.0      2.470      4.778
REMARK  7 active torsions:
REMARK  status: ('A' for Active; 'I' for Inactive)
REMARK    1  A    between atoms: C_1  and  C_2 
REMARK    2  A    between atoms: C_2  and  C_4 
REMARK    3  A    between atoms: C_2  and  O_19 
REMARK    4  A    between atoms: C_4  and  C_5 
REMARK    5  A    between atoms: C_9  and  O_17 
REMARK    6  A    between atoms: C_11  and  O_16 
REMARK    7  A    between atoms: O_17  and  C_18 
ROOT
ATOM      1  C   LIG d   1       4.682  -2.246  -3.186  0.00  0.00     0.112 A 
ATOM      2  C   LIG d   1       5.974  -1.905  -3.272  0.00  0.00    -0.015 A 
ATOM      3  C   LIG d   1       6.833  -2.591  -4.243  0.00  0.00    -0.001 A 
ATOM      4  C   LIG d   1       8.183  -2.289  -4.379  0.00  0.00    -0.012 A 
ATOM      5  C   LIG d   1       8.946  -2.967  -5.318  0.00  0.00     0.124 A 
ATOM      6  C   LIG d   1       8.377  -3.953  -6.118  0.00  0.00     0.022 A 
ATOM      7  C   LIG d   1       7.037  -4.273  -5.995  0.00  0.00     0.135 A 
ATOM      8  C   LIG d   1       6.251  -3.594  -5.056  0.00  0.00     0.108 A 
ATOM      9  C   LIG d   1       4.828  -3.885  -4.876  0.00  0.00     0.348 A 
ATOM     10  O   LIG d   1       4.283  -4.739  -5.551  0.00  0.00    -0.244 OA
ATOM     11  O   LIG d   1       4.129  -3.197  -3.955  0.00  0.00    -0.427 OA
ATOM     12  H   LIG d   1       6.379  -1.135  -2.633  0.00  0.00     0.066 H 
ATOM     13  H   LIG d   1       8.634  -1.528  -3.760  0.00  0.00     0.066 H 
ATOM     14  H   LIG d   1       8.987  -4.473  -6.842  0.00  0.00     0.069 H 
ENDROOT
BRANCH   1  15
ATOM     15  C   LIG d   1       3.813  -1.534  -2.182  0.00  0.00     0.031 C 
ATOM     16  H   LIG d   1       3.176  -2.258  -1.673  0.00  0.00     0.037 H 
ATOM     17  H   LIG d   1       4.442  -1.027  -1.451  0.00  0.00     0.037 H 
BRANCH  15  18
ATOM     18  C   LIG d   1       2.939  -0.506  -2.904  0.00  0.00     0.059 C 
ATOM     19  H   LIG d   1       1.929  -0.535  -2.495  0.00  0.00     0.059 H 
BRANCH  18  20
ATOM     20  C   LIG d   1       3.528   0.893  -2.706  0.00  0.00    -0.038 C 
ATOM     21  H   LIG d   1       4.616   0.836  -2.738  0.00  0.00     0.025 H 
ATOM     22  H   LIG d   1       3.175   1.551  -3.500  0.00  0.00     0.025 H 
ATOM     23  H   LIG d   1       3.212   1.286  -1.740  0.00  0.00     0.025 H 
ENDBRANCH  18  20
BRANCH  18  24
ATOM     24  O   LIG d   1       2.898  -0.812  -4.299  0.00  0.00    -0.392 OA
ATOM     25  H   LIG d   1       3.472  -0.254  -4.842  0.00  0.00     0.210 HD
ENDBRANCH  18  24
ENDBRANCH  15  18
ENDBRANCH   1  15
BRANCH   7  26
ATOM     26  O   LIG d   1       6.488  -5.235  -6.778  0.00  0.00    -0.506 OA
ATOM     27  H   LIG d   1       6.571  -6.129  -6.418  0.00  0.00     0.292 HD
ENDBRANCH   7  26
BRANCH   5  28
ATOM     28  O   LIG d   1      10.263  -2.668  -5.454  0.00  0.00    -0.495 OA
BRANCH  28  29
ATOM     29  C   LIG d   1      10.595  -1.300  -5.701  0.00  0.00     0.079 C 
ATOM     30  H   LIG d   1      10.585  -0.748  -4.761  0.00  0.00     0.066 H 
ATOM     31  H   LIG d   1       9.864  -0.866  -6.384  0.00  0.00     0.066 H 
ATOM     32  H   LIG d   1      11.588  -1.242  -6.146  0.00  0.00     0.066 H 
ENDBRANCH  28  29
ENDBRANCH   5  28
TORSDOF 7
ENDMDL
MODEL 5
REMARK VINA RESULT:      -4.9      2.614      5.834
REMARK  7 active torsions:
REMARK  status: ('A' for Active; 'I' for Inactive)
REMARK    1  A    between atoms: C_1  and  C_2 
REMARK    2  A    between atoms: C_2  and  C_4 
REMARK    3  A    between atoms: C_2  and  O_19 
REMARK    4  A    between atoms: C_4  and  C_5 
REMARK    5  A    between atoms: C_9  and  O_17 
REMARK    6  A    between atoms: C_11  and  O_16 
REMARK    7  A    between atoms: O_17  and  C_18 
ROOT
ATOM      1  C   LIG d   1       3.637  -0.664  -4.006  0.00  0.00     0.112 A 
ATOM      2  C   LIG d   1       4.094  -1.913  -3.857  0.00  0.00    -0.015 A 
ATOM      3  C   LIG d   1       4.878  -2.522  -4.937  0.00  0.00    -0.001 A 
ATOM      4  C   LIG d   1       5.377  -3.817  -4.849  0.00  0.00    -0.012 A 
ATOM      5  C   LIG d   1       6.117  -4.339  -5.899  0.00  0.00     0.124 A 
ATOM      6  C   LIG d   1       6.356  -3.585  -7.044  0.00  0.00     0.022 A 
ATOM      7  C   LIG d   1       5.865  -2.297  -7.154  0.00  0.00     0.135 A 
ATOM      8  C   LIG d   1       5.121  -1.752  -6.101  0.00  0.00     0.108 A 
ATOM      9  C   LIG d   1       4.572  -0.397  -6.154  0.00  0.00     0.348 A 
ATOM     10  O   LIG d   1       4.753   0.303  -7.134  0.00  0.00    -0.244 OA
ATOM     11  O   LIG d   1       3.865   0.067  -5.108  0.00  0.00    -0.427 OA
ATOM     12  H   LIG d   1       3.887  -2.467  -2.953  0.00  0.00     0.066 H 
ATOM     13  H   LIG d   1       5.193  -4.411  -3.966  0.00  0.00     0.066 H 
ATOM     14  H   LIG d   1       6.931  -4.009  -7.854  0.00  0.00     0.069 H 
ENDROOT
BRANCH   1  15
ATOM     15  C   LIG d   1       2.831  -0.052  -2.888  0.00  0.00     0.031 C 
ATOM     16  H   LIG d   1       1.839   0.211  -3.257  0.00  0.00     0.037 H 
ATOM     17  H   LIG d   1       2.737  -0.770  -2.073  0.00  0.00     0.037 H 
BRANCH  15  18
ATOM     18  C   LIG d   1       3.538   1.207  -2.381  0.00  0.00     0.059 C 
ATOM     19  H   LIG d   1       2.978   1.626  -1.544  0.00  0.00     0.059 H 
BRANCH  18  20
ATOM     20  C   LIG d   1       4.951   0.847  -1.918  0.00  0.00    -0.038 C 
ATOM     21  H   LIG d   1       5.664   1.091  -2.706  0.00  0.00     0.025 H 
ATOM     22  H   LIG d   1       5.195   1.414  -1.020  0.00  0.00     0.025 H 
ATOM     23  H   LIG d   1       5.001  -0.220  -1.700  0.00  0.00     0.025 H 
ENDBRANCH  18  20
BRANCH  18  24
ATOM     24  O   LIG d   1       3.612   2.168  -3.435  0.00  0.00    -0.392 OA
ATOM     25  H   LIG d   1       3.511   1.792  -4.320  0.00  0.00     0.210 HD
ENDBRANCH  18  24
ENDBRANCH  15  18
ENDBRANCH   1  15
BRANCH   7  26
ATOM     26  O   LIG d   1       6.102  -1.567  -8.273  0.00  0.00    -0.506 OA
ATOM     27  H   LIG d   1       6.469  -2.080  -9.006  0.00  0.00     0.292 HD
ENDBRANCH   7  26
BRANCH   5  28
ATOM     28  O   LIG d   1       6.608  -5.601  -5.811  0.00  0.00    -0.495 OA
BRANCH  28  29
ATOM     29  C   LIG d   1       7.889  -5.757  -5.196  0.00  0.00     0.079 C 
ATOM     30  H   LIG d   1       8.187  -6.804  -5.237  0.00  0.00     0.066 H 
ATOM     31  H   LIG d   1       7.834  -5.436  -4.155  0.00  0.00     0.066 H 
ATOM     32  H   LIG d   1       8.622  -5.148  -5.725  0.00  0.00     0.066 H 
ENDBRANCH  28  29
ENDBRANCH   5  28
TORSDOF 7
ENDMDL
MODEL 6
REMARK VINA RESULT:      -4.9      3.210      5.385
REMARK  7 active torsions:
REMARK  status: ('A' for Active; 'I' for Inactive)
REMARK    1  A    between atoms: C_1  and  C_2 
REMARK    2  A    between atoms: C_2  and  C_4 
REMARK    3  A    between atoms: C_2  and  O_19 
REMARK    4  A    between atoms: C_4  and  C_5 
REMARK    5  A    between atoms: C_9  and  O_17 
REMARK    6  A    between atoms: C_11  and  O_16 
REMARK    7  A    between atoms: O_17  and  C_18 
ROOT
ATOM      1  C   LIG d   1       4.738  -0.831  -3.880  0.00  0.00     0.112 A 
ATOM      2  C   LIG d   1       5.608  -1.733  -3.408  0.00  0.00    -0.015 A 
ATOM      3  C   LIG d   1       6.885  -1.927  -4.102  0.00  0.00    -0.001 A 
ATOM      4  C   LIG d   1       7.830  -2.849  -3.667  0.00  0.00    -0.012 A 
ATOM      5  C   LIG d   1       9.023  -2.987  -4.360  0.00  0.00     0.124 A 
ATOM      6  C   LIG d   1       9.281  -2.218  -5.492  0.00  0.00     0.022 A 
ATOM      7  C   LIG d   1       8.352  -1.298  -5.944  0.00  0.00     0.135 A 
ATOM      8  C   LIG d   1       7.145  -1.143  -5.253  0.00  0.00     0.108 A 
ATOM      9  C   LIG d   1       6.121  -0.188  -5.678  0.00  0.00     0.348 A 
ATOM     10  O   LIG d   1       6.298   0.507  -6.662  0.00  0.00    -0.244 OA
ATOM     11  O   LIG d   1       4.981  -0.088  -4.971  0.00  0.00    -0.427 OA
ATOM     12  H   LIG d   1       5.371  -2.311  -2.527  0.00  0.00     0.066 H 
ATOM     13  H   LIG d   1       7.637  -3.453  -2.793  0.00  0.00     0.066 H 
ATOM     14  H   LIG d   1      10.214  -2.341  -6.021  0.00  0.00     0.069 H 
ENDROOT
BRANCH   1  15
ATOM     15  C   LIG d   1       3.428  -0.645  -3.157  0.00  0.00     0.031 C 
ATOM     16  H   LIG d   1       2.603  -0.794  -3.854  0.00  0.00     0.037 H 
ATOM     17  H   LIG d   1       3.354  -1.369  -2.347  0.00  0.00     0.037 H 
BRANCH  15  18
ATOM     18  C   LIG d   1       3.361   0.772  -2.584  0.00  0.00     0.059 C 
ATOM     19  H   LIG d   1       2.417   0.906  -2.055  0.00  0.00     0.059 H 
BRANCH  18  20
ATOM     20  C   LIG d   1       4.523   0.985  -1.612  0.00  0.00    -0.038 C 
ATOM     21  H   LIG d   1       4.152   1.451  -0.699  0.00  0.00     0.025 H 
ATOM     22  H   LIG d   1       4.975   0.023  -1.370  0.00  0.00     0.025 H 
ATOM     23  H   LIG d   1       5.269   1.632  -2.073  0.00  0.00     0.025 H 
ENDBRANCH  18  20
BRANCH  18  24
ATOM     24  O   LIG d   1       3.451   1.721  -3.649  0.00  0.00    -0.392 OA
ATOM     25  H   LIG d   1       2.651   2.251  -3.772  0.00  0.00     0.210 HD
ENDBRANCH  18  24
ENDBRANCH  15  18
ENDBRANCH   1  15
BRANCH   7  26
ATOM     26  O   LIG d   1       8.610  -0.552  -7.047  0.00  0.00    -0.506 OA
ATOM     27  H   LIG d   1       9.547  -0.348  -7.173  0.00  0.00     0.292 HD
ENDBRANCH   7  26
BRANCH   5  28
ATOM     28  O   LIG d   1       9.948  -3.884  -3.933  0.00  0.00    -0.495 OA
BRANCH  28  29
ATOM     29  C   LIG d   1       9.698  -4.525  -2.680  0.00  0.00     0.079 C 
ATOM     30  H   LIG d   1      10.465  -5.277  -2.497  0.00  0.00     0.066 H 
ATOM     31  H   LIG d   1       8.719  -5.005  -2.706  0.00  0.00     0.066 H 
ATOM     32  H   LIG d   1       9.718  -3.784  -1.882  0.00  0.00     0.066 H 
ENDBRANCH  28  29
ENDBRANCH   5  28
TORSDOF 7
ENDMDL
MODEL 7
REMARK VINA RESULT:      -4.9      1.327      5.801
REMARK  7 active torsions:
REMARK  status: ('A' for Active; 'I' for Inactive)
REMARK    1  A    between atoms: C_1  and  C_2 
REMARK    2  A    between atoms: C_2  and  C_4 
REMARK    3  A    between atoms: C_2  and  O_19 
REMARK    4  A    between atoms: C_4  and  C_5 
REMARK    5  A    between atoms: C_9  and  O_17 
REMARK    6  A    between atoms: C_11  and  O_16 
REMARK    7  A    between atoms: O_17  and  C_18 
ROOT
ATOM      1  C   LIG d   1       7.513   1.023  -4.930  0.00  0.00     0.112 A 
ATOM      2  C   LIG d   1       7.219  -0.204  -5.377  0.00  0.00    -0.015 A 
ATOM      3  C   LIG d   1       6.214  -1.004  -4.669  0.00  0.00    -0.001 A 
ATOM      4  C   LIG d   1       5.866  -2.286  -5.078  0.00  0.00    -0.012 A 
ATOM      5  C   LIG d   1       4.905  -2.994  -4.372  0.00  0.00     0.124 A 
ATOM      6  C   LIG d   1       4.291  -2.438  -3.254  0.00  0.00     0.022 A 
ATOM      7  C   LIG d   1       4.626  -1.165  -2.827  0.00  0.00     0.135 A 
ATOM      8  C   LIG d   1       5.591  -0.435  -3.531  0.00  0.00     0.108 A 
ATOM      9  C   LIG d   1       5.989   0.915  -3.133  0.00  0.00     0.348 A 
ATOM     10  O   LIG d   1       5.483   1.445  -2.161  0.00  0.00    -0.244 OA
ATOM     11  O   LIG d   1       6.924   1.563  -3.852  0.00  0.00    -0.427 OA
ATOM     12  H   LIG d   1       7.718  -0.602  -6.249  0.00  0.00     0.066 H 
ATOM     13  H   LIG d   1       6.341  -2.728  -5.942  0.00  0.00     0.066 H 
ATOM     14  H   LIG d   1       3.547  -3.005  -2.714  0.00  0.00     0.069 H 
ENDROOT
BRANCH   1  15
ATOM     15  C   LIG d   1       8.550   1.831  -5.667  0.00  0.00     0.031 C 
ATOM     16  H   LIG d   1       8.609   1.490  -6.701  0.00  0.00     0.037 H 
ATOM     17  H   LIG d   1       8.271   2.884  -5.647  0.00  0.00     0.037 H 
BRANCH  15  18
ATOM     18  C   LIG d   1       9.911   1.650  -4.991  0.00  0.00     0.059 C 
ATOM     19  H   LIG d   1      10.315   0.670  -5.245  0.00  0.00     0.059 H 
BRANCH  18  20
ATOM     20  C   LIG d   1      10.870   2.738  -5.478  0.00  0.00    -0.038 C 
ATOM     21  H   LIG d   1      11.681   2.854  -4.759  0.00  0.00     0.025 H 
ATOM     22  H   LIG d   1      11.282   2.454  -6.446  0.00  0.00     0.025 H 
ATOM     23  H   LIG d   1      10.332   3.681  -5.574  0.00  0.00     0.025 H 
ENDBRANCH  18  20
BRANCH  18  24
ATOM     24  O   LIG d   1       9.756   1.749  -3.575  0.00  0.00    -0.392 OA
ATOM     25  H   LIG d   1      10.255   2.474  -3.173  0.00  0.00     0.210 HD
ENDBRANCH  18  24
ENDBRANCH  15  18
ENDBRANCH   1  15
BRANCH   7  26
ATOM     26  O   LIG d   1       4.024  -0.629  -1.736  0.00  0.00    -0.506 OA
ATOM     27  H   LIG d   1       4.637  -0.379  -1.032  0.00  0.00     0.292 HD
ENDBRANCH   7  26
BRANCH   5  28
ATOM     28  O   LIG d   1       4.563  -4.244  -4.774  0.00  0.00    -0.495 OA
BRANCH  28  29
ATOM     29  C   LIG d   1       4.399  -4.451  -6.179  0.00  0.00     0.079 C 
ATOM     30  H   LIG d   1       3.352  -4.308  -6.448  0.00  0.00     0.066 H 
ATOM     31  H   LIG d   1       4.703  -5.466  -6.436  0.00  0.00     0.066 H 
ATOM     32  H   LIG d   1       5.015  -3.738  -6.726  0.00  0.00     0.066 H 
ENDBRANCH  28  29
ENDBRANCH   5  28
TORSDOF 7
ENDMDL
MODEL 8
REMARK VINA RESULT:      -4.9      3.966      5.144
REMARK  7 active torsions:
REMARK  status: ('A' for Active; 'I' for Inactive)
REMARK    1  A    between atoms: C_1  and  C_2 
REMARK    2  A    between atoms: C_2  and  C_4 
REMARK    3  A    between atoms: C_2  and  O_19 
REMARK    4  A    between atoms: C_4  and  C_5 
REMARK    5  A    between atoms: C_9  and  O_17 
REMARK    6  A    between atoms: C_11  and  O_16 
REMARK    7  A    between atoms: O_17  and  C_18 
ROOT
ATOM      1  C   LIG d   1       3.104  -0.306  -8.343  0.00  0.00     0.112 A 
ATOM      2  C   LIG d   1       2.819   0.297  -7.182  0.00  0.00    -0.015 A 
ATOM      3  C   LIG d   1       3.366  -0.251  -5.937  0.00  0.00    -0.001 A 
ATOM      4  C   LIG d   1       3.105   0.323  -4.698  0.00  0.00    -0.012 A 
ATOM      5  C   LIG d   1       3.652  -0.236  -3.554  0.00  0.00     0.124 A 
ATOM      6  C   LIG d   1       4.452  -1.372  -3.631  0.00  0.00     0.022 A 
ATOM      7  C   LIG d   1       4.720  -1.963  -4.853  0.00  0.00     0.135 A 
ATOM      8  C   LIG d   1       4.180  -1.408  -6.019  0.00  0.00     0.108 A 
ATOM      9  C   LIG d   1       4.424  -1.983  -7.341  0.00  0.00     0.348 A 
ATOM     10  O   LIG d   1       5.117  -2.978  -7.462  0.00  0.00    -0.244 OA
ATOM     11  O   LIG d   1       3.874  -1.402  -8.422  0.00  0.00    -0.427 OA
ATOM     12  H   LIG d   1       2.193   1.178  -7.163  0.00  0.00     0.066 H 
ATOM     13  H   LIG d   1       2.481   1.202  -4.628  0.00  0.00     0.066 H 
ATOM     14  H   LIG d   1       4.868  -1.796  -2.729  0.00  0.00     0.069 H 
ENDROOT
BRANCH   1  15
ATOM     15  C   LIG d   1       2.533   0.269  -9.614  0.00  0.00     0.031 C 
ATOM     16  H   LIG d   1       2.195  -0.541 -10.260  0.00  0.00     0.037 H 
ATOM     17  H   LIG d   1       1.691   0.918  -9.374  0.00  0.00     0.037 H 
BRANCH  15  18
ATOM     18  C   LIG d   1       3.612   1.079 -10.336  0.00  0.00     0.059 C 
ATOM     19  H   LIG d   1       3.387   1.116 -11.402  0.00  0.00     0.059 H 
BRANCH  18  20
ATOM     20  C   LIG d   1       3.645   2.501  -9.772  0.00  0.00    -0.038 C 
ATOM     21  H   LIG d   1       3.756   3.213 -10.590  0.00  0.00     0.025 H 
ATOM     22  H   LIG d   1       2.715   2.703  -9.241  0.00  0.00     0.025 H 
ATOM     23  H   LIG d   1       4.485   2.601  -9.086  0.00  0.00     0.025 H 
ENDBRANCH  18  20
BRANCH  18  24
ATOM     24  O   LIG d   1       4.884   0.459 -10.138  0.00  0.00    -0.392 OA
ATOM     25  H   LIG d   1       5.438   0.433 -10.931  0.00  0.00     0.210 HD
ENDBRANCH  18  24
ENDBRANCH  15  18
ENDBRANCH   1  15
BRANCH   7  26
ATOM     26  O   LIG d   1       5.501  -3.070  -4.921  0.00  0.00    -0.506 OA
ATOM     27  H   LIG d   1       5.152  -3.762  -5.499  0.00  0.00     0.292 HD
ENDBRANCH   7  26
BRANCH   5  28
ATOM     28  O   LIG d   1       3.401   0.328  -2.345  0.00  0.00    -0.495 OA
BRANCH  28  29
ATOM     29  C   LIG d   1       4.507   0.930  -1.668  0.00  0.00     0.079 C 
ATOM     30  H   LIG d   1       4.791   1.848  -2.182  0.00  0.00     0.066 H 
ATOM     31  H   LIG d   1       5.351   0.240  -1.666  0.00  0.00     0.066 H 
ATOM     32  H   LIG d   1       4.223   1.160  -0.642  0.00  0.00     0.066 H 
ENDBRANCH  28  29
ENDBRANCH   5  28
TORSDOF 7
ENDMDL
MODEL 9
REMARK VINA RESULT:      -4.8     11.327     13.186
REMARK  7 active torsions:
REMARK  status: ('A' for Active; 'I' for Inactive)
REMARK    1  A    between atoms: C_1  and  C_2 
REMARK    2  A    between atoms: C_2  and  C_4 
REMARK    3  A    between atoms: C_2  and  O_19 
REMARK    4  A    between atoms: C_4  and  C_5 
REMARK    5  A    between atoms: C_9  and  O_17 
REMARK    6  A    between atoms: C_11  and  O_16 
REMARK    7  A    between atoms: O_17  and  C_18 
ROOT
ATOM      1  C   LIG d   1      10.068  10.730  -1.754  0.00  0.00     0.112 A 
ATOM      2  C   LIG d   1      11.366  10.464  -1.561  0.00  0.00    -0.015 A 
ATOM      3  C   LIG d   1      11.760   9.142  -1.061  0.00  0.00    -0.001 A 
ATOM      4  C   LIG d   1      13.089   8.803  -0.835  0.00  0.00    -0.012 A 
ATOM      5  C   LIG d   1      13.403   7.537  -0.365  0.00  0.00     0.124 A 
ATOM      6  C   LIG d   1      12.402   6.605  -0.110  0.00  0.00     0.022 A 
ATOM      7  C   LIG d   1      11.073   6.923  -0.324  0.00  0.00     0.135 A 
ATOM      8  C   LIG d   1      10.738   8.196  -0.803  0.00  0.00     0.108 A 
ATOM      9  C   LIG d   1       9.353   8.596  -1.050  0.00  0.00     0.348 A 
ATOM     10  O   LIG d   1       8.441   7.817  -0.841  0.00  0.00    -0.244 OA
ATOM     11  O   LIG d   1       9.099   9.835  -1.509  0.00  0.00    -0.427 OA
ATOM     12  H   LIG d   1      12.115  11.214  -1.771  0.00  0.00     0.066 H 
ATOM     13  H   LIG d   1      13.873   9.522  -1.026  0.00  0.00     0.066 H 
ATOM     14  H   LIG d   1      12.665   5.624   0.258  0.00  0.00     0.069 H 
ENDROOT
BRANCH   1  15
ATOM     15  C   LIG d   1       9.679  12.093  -2.266  0.00  0.00     0.031 C 
ATOM     16  H   LIG d   1       9.192  12.655  -1.470  0.00  0.00     0.037 H 
ATOM     17  H   LIG d   1      10.571  12.626  -2.594  0.00  0.00     0.037 H 
BRANCH  15  18
ATOM     18  C   LIG d   1       8.715  11.937  -3.444  0.00  0.00     0.059 C 
ATOM     19  H   LIG d   1       8.556  12.908  -3.915  0.00  0.00     0.059 H 
BRANCH  18  20
ATOM     20  C   LIG d   1       9.311  10.967  -4.467  0.00  0.00    -0.038 C 
ATOM     21  H   LIG d   1       9.287   9.955  -4.063  0.00  0.00     0.025 H 
ATOM     22  H   LIG d   1       8.728  11.005  -5.386  0.00  0.00     0.025 H 
ATOM     23  H   LIG d   1      10.343  11.250  -4.677  0.00  0.00     0.025 H 
ENDBRANCH  18  20
BRANCH  18  24
ATOM     24  O   LIG d   1       7.467  11.426  -2.973  0.00  0.00    -0.392 OA
ATOM     25  H   LIG d   1       6.697  11.935  -3.263  0.00  0.00     0.210 HD
ENDBRANCH  18  24
ENDBRANCH  15  18
ENDBRANCH   1  15
BRANCH   7  26
ATOM     26  O   LIG d   1      10.102   6.010  -0.073  0.00  0.00    -0.506 OA
ATOM     27  H   LIG d   1      10.370   5.096  -0.239  0.00  0.00     0.292 HD
ENDBRANCH   7  26
BRANCH   5  28
ATOM     28  O   LIG d   1      14.701   7.205  -0.149  0.00  0.00    -0.495 OA
BRANCH  28  29
ATOM     29  C   LIG d   1      15.105   5.888  -0.530  0.00  0.00     0.079 C 
ATOM     30  H   LIG d   1      15.384   5.884  -1.584  0.00  0.00     0.066 H 
ATOM     31  H   LIG d   1      14.280   5.193  -0.370  0.00  0.00     0.066 H 
ATOM     32  H   LIG d   1      15.960   5.581   0.073  0.00  0.00     0.066 H 
ENDBRANCH  28  29
ENDBRANCH   5  28
TORSDOF 7
ENDMDL
