MODEL 1
REMARK VINA RESULT:      -7.6      0.000      0.000
REMARK  5 active torsions:
REMARK  status: ('A' for Active; 'I' for Inactive)
REMARK    1  A    between atoms: C_1  and  C_2 
REMARK    2  A    between atoms: C_2  and  C_3 
REMARK    3  A    between atoms: C_2  and  N_4 
REMARK       I    between atoms: N_4  and  C_5 
REMARK       I    between atoms: C_5  and  N_7 
REMARK    4  A    between atoms: C_18  and  C_23 
REMARK    5  A    between atoms: C_27  and  C_29 
ROOT
ATOM      1  N   LIG d   1       7.419   1.198  -4.573  0.00  0.00    -0.297 N 
ATOM      2  C   LIG d   1       7.338  -0.109  -4.252  0.00  0.00     0.302 C 
ATOM      3  O   LIG d   1       8.095  -0.909  -4.767  0.00  0.00    -0.253 OA
ATOM      4  N   LIG d   1       6.418  -0.529  -3.362  0.00  0.00    -0.285 N 
ATOM      5  C   LIG d   1       5.569   0.434  -2.650  0.00  0.00     0.021 C 
ATOM      6  C   LIG d   1       4.106   0.028  -2.760  0.00  0.00    -0.006 C 
ATOM      7  H   LIG d   1       3.542   0.637  -2.053  0.00  0.00     0.033 H 
ATOM      8  C   LIG d   1       3.913  -1.440  -2.379  0.00  0.00    -0.037 C 
ATOM      9  C   LIG d   1       4.760  -2.299  -3.321  0.00  0.00     0.016 C 
ATOM     10  H   LIG d   1       4.579  -3.356  -3.130  0.00  0.00     0.038 H 
ATOM     11  C   LIG d   1       6.242  -1.962  -3.082  0.00  0.00     0.024 C 
ATOM     12  C   LIG d   1       4.438  -1.952  -4.757  0.00  0.00     0.027 A 
ATOM     13  C   LIG d   1       4.656  -2.917  -5.692  0.00  0.00    -0.041 A 
ATOM     14  C   LIG d   1       4.494  -2.645  -7.051  0.00  0.00    -0.047 A 
ATOM     15  C   LIG d   1       4.104  -1.370  -7.431  0.00  0.00     0.047 A 
ATOM     16  C   LIG d   1       3.865  -0.406  -6.428  0.00  0.00     0.259 A 
ATOM     17  O   LIG d   1       3.555   0.731  -6.744  0.00  0.00    -0.267 OA
ATOM     18  N   LIG d   1       3.978  -0.731  -5.117  0.00  0.00    -0.311 N 
ATOM     19  C   LIG d   1       3.547   0.278  -4.149  0.00  0.00     0.031 C 
ATOM     20  H   LIG d   1       6.866   1.846  -4.108  0.00  0.00     0.150 HD
ATOM     21  H   LIG d   1       5.702   1.424  -3.086  0.00  0.00     0.047 H 
ATOM     22  H   LIG d   1       5.858   0.463  -1.599  0.00  0.00     0.047 H 
ATOM     23  H   LIG d   1       4.234  -1.598  -1.349  0.00  0.00     0.028 H 
ATOM     24  H   LIG d   1       2.862  -1.711  -2.481  0.00  0.00     0.028 H 
ATOM     25  H   LIG d   1       6.506  -2.173  -2.045  0.00  0.00     0.047 H 
ATOM     26  H   LIG d   1       6.868  -2.551  -3.751  0.00  0.00     0.047 H 
ATOM     27  H   LIG d   1       4.963  -3.904  -5.379  0.00  0.00     0.064 H 
ATOM     28  H   LIG d   1       4.664  -3.413  -7.792  0.00  0.00     0.063 H 
ATOM     29  H   LIG d   1       3.878   1.259  -4.490  0.00  0.00     0.050 H 
ATOM     30  H   LIG d   1       2.458   0.275  -4.096  0.00  0.00     0.050 H 
ENDROOT
BRANCH   1  31
ATOM     31  C   LIG d   1       8.341   1.640  -5.622  0.00  0.00     0.019 C 
ATOM     32  H   LIG d   1       9.213   0.983  -5.639  0.00  0.00     0.049 H 
BRANCH  31  33
ATOM     33  C   LIG d   1       7.636   1.585  -6.978  0.00  0.00    -0.047 C 
ATOM     34  H   LIG d   1       6.810   2.296  -6.986  0.00  0.00     0.025 H 
ATOM     35  H   LIG d   1       8.343   1.840  -7.767  0.00  0.00     0.025 H 
ATOM     36  H   LIG d   1       7.250   0.579  -7.147  0.00  0.00     0.025 H 
ENDBRANCH  31  33
BRANCH  31  37
ATOM     37  C   LIG d   1       8.789   3.074  -5.337  0.00  0.00    -0.047 C 
ATOM     38  H   LIG d   1       9.107   3.156  -4.297  0.00  0.00     0.025 H 
ATOM     39  H   LIG d   1       9.619   3.333  -5.993  0.00  0.00     0.025 H 
ATOM     40  H   LIG d   1       7.958   3.756  -5.517  0.00  0.00     0.025 H 
ENDBRANCH  31  37
ENDBRANCH   1  31
BRANCH  15  41
ATOM     41  C   LIG d   1       3.941  -1.026  -8.863  0.00  0.00    -0.012 A 
ATOM     42  C   LIG d   1       2.772  -1.373  -9.539  0.00  0.00    -0.042 A 
ATOM     43  C   LIG d   1       2.624  -1.047 -10.871  0.00  0.00     0.055 A 
ATOM     44  H   LIG d   1       1.982  -1.896  -9.019  0.00  0.00     0.063 H 
ATOM     45  C   LIG d   1       3.637  -0.383 -11.540  0.00  0.00    -0.050 A 
ATOM     46  C   LIG d   1       4.802  -0.039 -10.877  0.00  0.00    -0.061 A 
ATOM     47  H   LIG d   1       3.519  -0.133 -12.584  0.00  0.00     0.062 H 
ATOM     48  C   LIG d   1       4.959  -0.356  -9.543  0.00  0.00    -0.054 A 
ATOM     49  H   LIG d   1       5.589   0.479 -11.404  0.00  0.00     0.062 H 
ATOM     50  H   LIG d   1       5.869  -0.089  -9.027  0.00  0.00     0.062 H 
BRANCH  43  51
ATOM     51  C   LIG d   1       1.358  -1.417 -11.601  0.00  0.00     0.417 C 
ATOM     52  F   LIG d   1       1.624  -1.523 -12.970  0.00  0.00    -0.166 F 
ATOM     53  F   LIG d   1       0.886  -2.644 -11.120  0.00  0.00    -0.166 F 
ATOM     54  F   LIG d   1       0.392  -0.430 -11.389  0.00  0.00    -0.166 F 
ENDBRANCH  43  51
ENDBRANCH  15  41
TORSDOF 5
ENDMDL
MODEL 2
REMARK VINA RESULT:      -7.4      3.295      5.979
REMARK  5 active torsions:
REMARK  status: ('A' for Active; 'I' for Inactive)
REMARK    1  A    between atoms: C_1  and  C_2 
REMARK    2  A    between atoms: C_2  and  C_3 
REMARK    3  A    between atoms: C_2  and  N_4 
REMARK       I    between atoms: N_4  and  C_5 
REMARK       I    between atoms: C_5  and  N_7 
REMARK    4  A    between atoms: C_18  and  C_23 
REMARK    5  A    between atoms: C_27  and  C_29 
ROOT
ATOM      1  N   LIG d   1       2.984  -0.438  -6.340  0.00  0.00    -0.297 N 
ATOM      2  C   LIG d   1       2.984   0.253  -5.182  0.00  0.00     0.302 C 
ATOM      3  O   LIG d   1       2.858   1.462  -5.195  0.00  0.00    -0.253 OA
ATOM      4  N   LIG d   1       3.124  -0.397  -4.010  0.00  0.00    -0.285 N 
ATOM      5  C   LIG d   1       3.169  -1.863  -3.966  0.00  0.00     0.021 C 
ATOM      6  C   LIG d   1       4.372  -2.330  -3.158  0.00  0.00    -0.006 C 
ATOM      7  H   LIG d   1       4.251  -3.397  -2.974  0.00  0.00     0.033 H 
ATOM      8  C   LIG d   1       4.434  -1.620  -1.805  0.00  0.00    -0.037 C 
ATOM      9  C   LIG d   1       4.531  -0.113  -2.054  0.00  0.00     0.016 C 
ATOM     10  H   LIG d   1       4.661   0.415  -1.110  0.00  0.00     0.038 H 
ATOM     11  C   LIG d   1       3.236   0.347  -2.745  0.00  0.00     0.024 C 
ATOM     12  C   LIG d   1       5.680   0.177  -2.993  0.00  0.00     0.027 A 
ATOM     13  C   LIG d   1       6.250   1.410  -2.913  0.00  0.00    -0.041 A 
ATOM     14  C   LIG d   1       7.239   1.801  -3.817  0.00  0.00    -0.047 A 
ATOM     15  C   LIG d   1       7.630   0.905  -4.801  0.00  0.00     0.047 A 
ATOM     16  C   LIG d   1       7.031  -0.372  -4.833  0.00  0.00     0.259 A 
ATOM     17  O   LIG d   1       7.337  -1.162  -5.711  0.00  0.00    -0.267 OA
ATOM     18  N   LIG d   1       6.116  -0.730  -3.898  0.00  0.00    -0.311 N 
ATOM     19  C   LIG d   1       5.676  -2.126  -3.907  0.00  0.00     0.031 C 
ATOM     20  H   LIG d   1       3.010  -1.407  -6.326  0.00  0.00     0.150 HD
ATOM     21  H   LIG d   1       3.244  -2.253  -4.981  0.00  0.00     0.047 H 
ATOM     22  H   LIG d   1       2.256  -2.240  -3.504  0.00  0.00     0.047 H 
ATOM     23  H   LIG d   1       3.533  -1.841  -1.232  0.00  0.00     0.028 H 
ATOM     24  H   LIG d   1       5.311  -1.958  -1.252  0.00  0.00     0.028 H 
ATOM     25  H   LIG d   1       2.378   0.128  -2.108  0.00  0.00     0.047 H 
ATOM     26  H   LIG d   1       3.284   1.417  -2.948  0.00  0.00     0.047 H 
ATOM     27  H   LIG d   1       5.930   2.097  -2.143  0.00  0.00     0.064 H 
ATOM     28  H   LIG d   1       7.692   2.779  -3.750  0.00  0.00     0.063 H 
ATOM     29  H   LIG d   1       5.543  -2.447  -4.940  0.00  0.00     0.050 H 
ATOM     30  H   LIG d   1       6.448  -2.742  -3.445  0.00  0.00     0.050 H 
ENDROOT
BRANCH   1  31
ATOM     31  C   LIG d   1       2.945   0.276  -7.618  0.00  0.00     0.019 C 
ATOM     32  H   LIG d   1       2.451   1.239  -7.481  0.00  0.00     0.049 H 
BRANCH  31  33
ATOM     33  C   LIG d   1       4.372   0.503  -8.120  0.00  0.00    -0.047 C 
ATOM     34  H   LIG d   1       4.486   0.050  -9.105  0.00  0.00     0.025 H 
ATOM     35  H   LIG d   1       4.568   1.573  -8.188  0.00  0.00     0.025 H 
ATOM     36  H   LIG d   1       5.078   0.048  -7.426  0.00  0.00     0.025 H 
ENDBRANCH  31  33
BRANCH  31  37
ATOM     37  C   LIG d   1       2.169  -0.554  -8.642  0.00  0.00    -0.047 C 
ATOM     38  H   LIG d   1       1.999  -1.555  -8.246  0.00  0.00     0.025 H 
ATOM     39  H   LIG d   1       1.211  -0.076  -8.847  0.00  0.00     0.025 H 
ATOM     40  H   LIG d   1       2.745  -0.622  -9.565  0.00  0.00     0.025 H 
ENDBRANCH  31  37
ENDBRANCH   1  31
BRANCH  15  41
ATOM     41  C   LIG d   1       8.659   1.282  -5.798  0.00  0.00    -0.012 A 
ATOM     42  C   LIG d   1       8.295   1.972  -6.954  0.00  0.00    -0.042 A 
ATOM     43  C   LIG d   1       9.259   2.323  -7.877  0.00  0.00     0.055 A 
ATOM     44  H   LIG d   1       7.261   2.233  -7.125  0.00  0.00     0.063 H 
ATOM     45  C   LIG d   1      10.582   1.984  -7.663  0.00  0.00    -0.050 A 
ATOM     46  C   LIG d   1      10.950   1.295  -6.520  0.00  0.00    -0.061 A 
ATOM     47  H   LIG d   1      11.332   2.257  -8.390  0.00  0.00     0.062 H 
ATOM     48  C   LIG d   1       9.996   0.942  -5.587  0.00  0.00    -0.054 A 
ATOM     49  H   LIG d   1      11.984   1.033  -6.358  0.00  0.00     0.062 H 
ATOM     50  H   LIG d   1      10.283   0.403  -4.697  0.00  0.00     0.062 H 
BRANCH  43  51
ATOM     51  C   LIG d   1       8.867   3.074  -9.124  0.00  0.00     0.417 C 
ATOM     52  F   LIG d   1       9.494   4.324  -9.130  0.00  0.00    -0.166 F 
ATOM     53  F   LIG d   1       9.266   2.346 -10.250  0.00  0.00    -0.166 F 
ATOM     54  F   LIG d   1       7.480   3.248  -9.147  0.00  0.00    -0.166 F 
ENDBRANCH  43  51
ENDBRANCH  15  41
TORSDOF 5
ENDMDL
MODEL 3
REMARK VINA RESULT:      -7.2      4.270      7.286
REMARK  5 active torsions:
REMARK  status: ('A' for Active; 'I' for Inactive)
REMARK    1  A    between atoms: C_1  and  C_2 
REMARK    2  A    between atoms: C_2  and  C_3 
REMARK    3  A    between atoms: C_2  and  N_4 
REMARK       I    between atoms: N_4  and  C_5 
REMARK       I    between atoms: C_5  and  N_7 
REMARK    4  A    between atoms: C_18  and  C_23 
REMARK    5  A    between atoms: C_27  and  C_29 
ROOT
ATOM      1  N   LIG d   1       6.198  -2.027 -11.265  0.00  0.00    -0.297 N 
ATOM      2  C   LIG d   1       5.129  -1.226 -11.452  0.00  0.00     0.302 C 
ATOM      3  O   LIG d   1       5.276  -0.022 -11.521  0.00  0.00    -0.253 OA
ATOM      4  N   LIG d   1       3.898  -1.763 -11.560  0.00  0.00    -0.285 N 
ATOM      5  C   LIG d   1       3.713  -3.218 -11.586  0.00  0.00     0.021 C 
ATOM      6  C   LIG d   1       2.652  -3.633 -10.576  0.00  0.00    -0.006 C 
ATOM      7  H   LIG d   1       2.398  -4.674 -10.776  0.00  0.00     0.033 H 
ATOM      8  C   LIG d   1       1.382  -2.796 -10.738  0.00  0.00    -0.037 C 
ATOM      9  C   LIG d   1       1.745  -1.324 -10.532  0.00  0.00     0.016 C 
ATOM     10  H   LIG d   1       0.846  -0.709 -10.558  0.00  0.00     0.038 H 
ATOM     11  C   LIG d   1       2.708  -0.902 -11.654  0.00  0.00     0.024 C 
ATOM     12  C   LIG d   1       2.471  -1.155  -9.216  0.00  0.00     0.027 A 
ATOM     13  C   LIG d   1       2.398   0.066  -8.620  0.00  0.00    -0.041 A 
ATOM     14  C   LIG d   1       3.129   0.342  -7.464  0.00  0.00    -0.047 A 
ATOM     15  C   LIG d   1       3.935  -0.655  -6.935  0.00  0.00     0.047 A 
ATOM     16  C   LIG d   1       3.964  -1.914  -7.571  0.00  0.00     0.259 A 
ATOM     17  O   LIG d   1       4.692  -2.793  -7.141  0.00  0.00    -0.267 OA
ATOM     18  N   LIG d   1       3.191  -2.157  -8.659  0.00  0.00    -0.311 N 
ATOM     19  C   LIG d   1       3.156  -3.535  -9.148  0.00  0.00     0.031 C 
ATOM     20  H   LIG d   1       6.092  -2.990 -11.283  0.00  0.00     0.150 HD
ATOM     21  H   LIG d   1       4.656  -3.707 -11.341  0.00  0.00     0.047 H 
ATOM     22  H   LIG d   1       3.400  -3.525 -12.585  0.00  0.00     0.047 H 
ATOM     23  H   LIG d   1       0.974  -2.938 -11.738  0.00  0.00     0.028 H 
ATOM     24  H   LIG d   1       0.645  -3.100  -9.994  0.00  0.00     0.028 H 
ATOM     25  H   LIG d   1       2.228  -1.036 -12.624  0.00  0.00     0.047 H 
ATOM     26  H   LIG d   1       2.994   0.142 -11.524  0.00  0.00     0.047 H 
ATOM     27  H   LIG d   1       1.768   0.832  -9.048  0.00  0.00     0.064 H 
ATOM     28  H   LIG d   1       3.067   1.310  -6.990  0.00  0.00     0.063 H 
ATOM     29  H   LIG d   1       4.161  -3.952  -9.100  0.00  0.00     0.050 H 
ATOM     30  H   LIG d   1       2.502  -4.122  -8.503  0.00  0.00     0.050 H 
ENDROOT
BRANCH   1  31
ATOM     31  C   LIG d   1       7.521  -1.440 -11.035  0.00  0.00     0.019 C 
ATOM     32  H   LIG d   1       7.532  -0.413 -11.403  0.00  0.00     0.049 H 
BRANCH  31  33
ATOM     33  C   LIG d   1       7.828  -1.446  -9.536  0.00  0.00    -0.047 C 
ATOM     34  H   LIG d   1       8.516  -0.633  -9.303  0.00  0.00     0.025 H 
ATOM     35  H   LIG d   1       6.904  -1.312  -8.975  0.00  0.00     0.025 H 
ATOM     36  H   LIG d   1       8.285  -2.397  -9.263  0.00  0.00     0.025 H 
ENDBRANCH  31  33
BRANCH  31  37
ATOM     37  C   LIG d   1       8.579  -2.259 -11.776  0.00  0.00    -0.047 C 
ATOM     38  H   LIG d   1       9.075  -2.931 -11.076  0.00  0.00     0.025 H 
ATOM     39  H   LIG d   1       8.100  -2.843 -12.563  0.00  0.00     0.025 H 
ATOM     40  H   LIG d   1       9.314  -1.588 -12.219  0.00  0.00     0.025 H 
ENDBRANCH  31  37
ENDBRANCH   1  31
BRANCH  15  41
ATOM     41  C   LIG d   1       4.749  -0.403  -5.723  0.00  0.00    -0.012 A 
ATOM     42  C   LIG d   1       4.134  -0.292  -4.476  0.00  0.00    -0.042 A 
ATOM     43  C   LIG d   1       4.899  -0.062  -3.351  0.00  0.00     0.055 A 
ATOM     44  H   LIG d   1       3.062  -0.389  -4.391  0.00  0.00     0.063 H 
ATOM     45  C   LIG d   1       6.272   0.068  -3.458  0.00  0.00    -0.050 A 
ATOM     46  C   LIG d   1       6.888  -0.036  -4.692  0.00  0.00    -0.061 A 
ATOM     47  H   LIG d   1       6.866   0.253  -2.575  0.00  0.00     0.062 H 
ATOM     48  C   LIG d   1       6.135  -0.271  -5.825  0.00  0.00    -0.054 A 
ATOM     49  H   LIG d   1       7.960   0.066  -4.770  0.00  0.00     0.062 H 
ATOM     50  H   LIG d   1       6.616  -0.351  -6.788  0.00  0.00     0.062 H 
BRANCH  43  51
ATOM     51  C   LIG d   1       4.236   0.052  -2.002  0.00  0.00     0.417 C 
ATOM     52  F   LIG d   1       2.878   0.342  -2.174  0.00  0.00    -0.166 F 
ATOM     53  F   LIG d   1       4.371  -1.158  -1.312  0.00  0.00    -0.166 F 
ATOM     54  F   LIG d   1       4.842   1.077  -1.269  0.00  0.00    -0.166 F 
ENDBRANCH  43  51
ENDBRANCH  15  41
TORSDOF 5
ENDMDL
MODEL 4
REMARK VINA RESULT:      -7.1      4.110      7.026
REMARK  5 active torsions:
REMARK  status: ('A' for Active; 'I' for Inactive)
REMARK    1  A    between atoms: C_1  and  C_2 
REMARK    2  A    between atoms: C_2  and  C_3 
REMARK    3  A    between atoms: C_2  and  N_4 
REMARK       I    between atoms: N_4  and  C_5 
REMARK       I    between atoms: C_5  and  N_7 
REMARK    4  A    between atoms: C_18  and  C_23 
REMARK    5  A    between atoms: C_27  and  C_29 
ROOT
ATOM      1  N   LIG d   1       7.491   0.120  -9.785  0.00  0.00    -0.297 N 
ATOM      2  C   LIG d   1       6.338   0.751 -10.088  0.00  0.00     0.302 C 
ATOM      3  O   LIG d   1       6.128   1.870  -9.664  0.00  0.00    -0.253 OA
ATOM      4  N   LIG d   1       5.419   0.140 -10.862  0.00  0.00    -0.285 N 
ATOM      5  C   LIG d   1       5.701  -1.165 -11.472  0.00  0.00     0.021 C 
ATOM      6  C   LIG d   1       4.563  -2.136 -11.188  0.00  0.00    -0.006 C 
ATOM      7  H   LIG d   1       4.708  -3.008 -11.825  0.00  0.00     0.033 H 
ATOM      8  C   LIG d   1       3.210  -1.514 -11.538  0.00  0.00    -0.037 C 
ATOM      9  C   LIG d   1       3.030  -0.247 -10.699  0.00  0.00     0.016 C 
ATOM     10  H   LIG d   1       2.039   0.175 -10.864  0.00  0.00     0.038 H 
ATOM     11  C   LIG d   1       4.112   0.765 -11.114  0.00  0.00     0.024 C 
ATOM     12  C   LIG d   1       3.240  -0.567  -9.236  0.00  0.00     0.027 A 
ATOM     13  C   LIG d   1       2.624   0.240  -8.330  0.00  0.00    -0.041 A 
ATOM     14  C   LIG d   1       2.854   0.086  -6.962  0.00  0.00    -0.047 A 
ATOM     15  C   LIG d   1       3.724  -0.909  -6.544  0.00  0.00     0.047 A 
ATOM     16  C   LIG d   1       4.323  -1.740  -7.515  0.00  0.00     0.259 A 
ATOM     17  O   LIG d   1       5.117  -2.598  -7.169  0.00  0.00    -0.267 OA
ATOM     18  N   LIG d   1       4.025  -1.592  -8.830  0.00  0.00    -0.311 N 
ATOM     19  C   LIG d   1       4.558  -2.602  -9.744  0.00  0.00     0.031 C 
ATOM     20  H   LIG d   1       7.692  -0.741 -10.183  0.00  0.00     0.150 HD
ATOM     21  H   LIG d   1       6.627  -1.565 -11.059  0.00  0.00     0.047 H 
ATOM     22  H   LIG d   1       5.812  -1.044 -12.550  0.00  0.00     0.047 H 
ATOM     23  H   LIG d   1       3.185  -1.260 -12.597  0.00  0.00     0.028 H 
ATOM     24  H   LIG d   1       2.411  -2.220 -11.310  0.00  0.00     0.028 H 
ATOM     25  H   LIG d   1       4.011   1.001 -12.174  0.00  0.00     0.047 H 
ATOM     26  H   LIG d   1       4.016   1.675 -10.521  0.00  0.00     0.047 H 
ATOM     27  H   LIG d   1       1.952   1.013  -8.674  0.00  0.00     0.064 H 
ATOM     28  H   LIG d   1       2.361   0.725  -6.244  0.00  0.00     0.063 H 
ATOM     29  H   LIG d   1       5.579  -2.842  -9.448  0.00  0.00     0.050 H 
ATOM     30  H   LIG d   1       3.950  -3.504  -9.667  0.00  0.00     0.050 H 
ENDROOT
BRANCH   1  31
ATOM     31  C   LIG d   1       8.440   0.736  -8.854  0.00  0.00     0.019 C 
ATOM     32  H   LIG d   1       8.282   1.816  -8.836  0.00  0.00     0.049 H 
BRANCH  31  33
ATOM     33  C   LIG d   1       8.223   0.166  -7.452  0.00  0.00    -0.047 C 
ATOM     34  H   LIG d   1       8.842  -0.722  -7.321  0.00  0.00     0.025 H 
ATOM     35  H   LIG d   1       8.499   0.913  -6.708  0.00  0.00     0.025 H 
ATOM     36  H   LIG d   1       7.174  -0.102  -7.327  0.00  0.00     0.025 H 
ENDBRANCH  31  33
BRANCH  31  37
ATOM     37  C   LIG d   1       9.869   0.438  -9.311  0.00  0.00    -0.047 C 
ATOM     38  H   LIG d   1      10.061   0.943 -10.258  0.00  0.00     0.025 H 
ATOM     39  H   LIG d   1      10.573   0.795  -8.559  0.00  0.00     0.025 H 
ATOM     40  H   LIG d   1       9.991  -0.637  -9.442  0.00  0.00     0.025 H 
ENDBRANCH  31  37
ENDBRANCH   1  31
BRANCH  15  41
ATOM     41  C   LIG d   1       4.019  -1.098  -5.104  0.00  0.00    -0.012 A 
ATOM     42  C   LIG d   1       4.133   0.008  -4.261  0.00  0.00    -0.042 A 
ATOM     43  C   LIG d   1       4.404  -0.175  -2.921  0.00  0.00     0.055 A 
ATOM     44  H   LIG d   1       4.007   1.005  -4.657  0.00  0.00     0.063 H 
ATOM     45  C   LIG d   1       4.571  -1.450  -2.413  0.00  0.00    -0.050 A 
ATOM     46  C   LIG d   1       4.463  -2.551  -3.245  0.00  0.00    -0.061 A 
ATOM     47  H   LIG d   1       4.787  -1.588  -1.364  0.00  0.00     0.062 H 
ATOM     48  C   LIG d   1       4.188  -2.382  -4.586  0.00  0.00    -0.054 A 
ATOM     49  H   LIG d   1       4.595  -3.545  -2.843  0.00  0.00     0.062 H 
ATOM     50  H   LIG d   1       4.106  -3.242  -5.235  0.00  0.00     0.062 H 
BRANCH  43  51
ATOM     51  C   LIG d   1       4.521   1.019  -2.008  0.00  0.00     0.417 C 
ATOM     52  F   LIG d   1       3.312   1.722  -2.004  0.00  0.00    -0.166 F 
ATOM     53  F   LIG d   1       4.814   0.586  -0.710  0.00  0.00    -0.166 F 
ATOM     54  F   LIG d   1       5.545   1.855  -2.464  0.00  0.00    -0.166 F 
ENDBRANCH  43  51
ENDBRANCH  15  41
TORSDOF 5
ENDMDL
MODEL 5
REMARK VINA RESULT:      -6.9      1.791      3.212
REMARK  5 active torsions:
REMARK  status: ('A' for Active; 'I' for Inactive)
REMARK    1  A    between atoms: C_1  and  C_2 
REMARK    2  A    between atoms: C_2  and  C_3 
REMARK    3  A    between atoms: C_2  and  N_4 
REMARK       I    between atoms: N_4  and  C_5 
REMARK       I    between atoms: C_5  and  N_7 
REMARK    4  A    between atoms: C_18  and  C_23 
REMARK    5  A    between atoms: C_27  and  C_29 
ROOT
ATOM      1  N   LIG d   1       6.244  -3.593  -4.937  0.00  0.00    -0.297 N 
ATOM      2  C   LIG d   1       5.160  -3.253  -4.211  0.00  0.00     0.302 C 
ATOM      3  O   LIG d   1       4.106  -3.834  -4.384  0.00  0.00    -0.253 OA
ATOM      4  N   LIG d   1       5.244  -2.269  -3.295  0.00  0.00    -0.285 N 
ATOM      5  C   LIG d   1       6.531  -1.631  -2.996  0.00  0.00     0.021 C 
ATOM      6  C   LIG d   1       6.396  -0.116  -3.062  0.00  0.00    -0.006 C 
ATOM      7  H   LIG d   1       7.301   0.314  -2.632  0.00  0.00     0.033 H 
ATOM      8  C   LIG d   1       5.204   0.366  -2.233  0.00  0.00    -0.037 C 
ATOM      9  C   LIG d   1       3.936  -0.291  -2.784  0.00  0.00     0.016 C 
ATOM     10  H   LIG d   1       3.058   0.097  -2.268  0.00  0.00     0.038 H 
ATOM     11  C   LIG d   1       4.047  -1.811  -2.572  0.00  0.00     0.024 C 
ATOM     12  C   LIG d   1       3.836  -0.042  -4.272  0.00  0.00     0.027 A 
ATOM     13  C   LIG d   1       2.591  -0.062  -4.822  0.00  0.00    -0.041 A 
ATOM     14  C   LIG d   1       2.418   0.045  -6.203  0.00  0.00    -0.047 A 
ATOM     15  C   LIG d   1       3.542   0.172  -7.005  0.00  0.00     0.047 A 
ATOM     16  C   LIG d   1       4.813   0.213  -6.392  0.00  0.00     0.259 A 
ATOM     17  O   LIG d   1       5.815   0.290  -7.082  0.00  0.00    -0.267 OA
ATOM     18  N   LIG d   1       4.931   0.164  -5.042  0.00  0.00    -0.311 N 
ATOM     19  C   LIG d   1       6.267   0.384  -4.489  0.00  0.00     0.031 C 
ATOM     20  H   LIG d   1       7.102  -3.182  -4.749  0.00  0.00     0.150 HD
ATOM     21  H   LIG d   1       7.274  -1.959  -3.723  0.00  0.00     0.047 H 
ATOM     22  H   LIG d   1       6.855  -1.921  -1.996  0.00  0.00     0.047 H 
ATOM     23  H   LIG d   1       5.342   0.081  -1.190  0.00  0.00     0.028 H 
ATOM     24  H   LIG d   1       5.118   1.450  -2.310  0.00  0.00     0.028 H 
ATOM     25  H   LIG d   1       4.150  -2.029  -1.508  0.00  0.00     0.047 H 
ATOM     26  H   LIG d   1       3.161  -2.306  -2.968  0.00  0.00     0.047 H 
ATOM     27  H   LIG d   1       1.728  -0.167  -4.183  0.00  0.00     0.064 H 
ATOM     28  H   LIG d   1       1.429   0.032  -6.637  0.00  0.00     0.063 H 
ATOM     29  H   LIG d   1       6.996  -0.136  -5.111  0.00  0.00     0.050 H 
ATOM     30  H   LIG d   1       6.487   1.451  -4.510  0.00  0.00     0.050 H 
ENDROOT
BRANCH   1  31
ATOM     31  C   LIG d   1       6.126  -4.584  -6.010  0.00  0.00     0.019 C 
ATOM     32  H   LIG d   1       5.153  -5.073  -5.948  0.00  0.00     0.049 H 
BRANCH  31  33
ATOM     33  C   LIG d   1       6.259  -3.886  -7.365  0.00  0.00    -0.047 C 
ATOM     34  H   LIG d   1       5.883  -2.866  -7.287  0.00  0.00     0.025 H 
ATOM     35  H   LIG d   1       7.307  -3.865  -7.662  0.00  0.00     0.025 H 
ATOM     36  H   LIG d   1       5.681  -4.430  -8.112  0.00  0.00     0.025 H 
ENDBRANCH  31  33
BRANCH  31  37
ATOM     37  C   LIG d   1       7.234  -5.629  -5.864  0.00  0.00    -0.047 C 
ATOM     38  H   LIG d   1       6.845  -6.611  -6.133  0.00  0.00     0.025 H 
ATOM     39  H   LIG d   1       8.064  -5.373  -6.521  0.00  0.00     0.025 H 
ATOM     40  H   LIG d   1       7.581  -5.647  -4.831  0.00  0.00     0.025 H 
ENDBRANCH  31  37
ENDBRANCH   1  31
BRANCH  15  41
ATOM     41  C   LIG d   1       3.411   0.266  -8.478  0.00  0.00    -0.012 A 
ATOM     42  C   LIG d   1       2.607  -0.640  -9.169  0.00  0.00    -0.042 A 
ATOM     43  C   LIG d   1       2.486  -0.545 -10.540  0.00  0.00     0.055 A 
ATOM     44  H   LIG d   1       2.078  -1.413  -8.631  0.00  0.00     0.063 H 
ATOM     45  C   LIG d   1       3.168   0.440 -11.231  0.00  0.00    -0.050 A 
ATOM     46  C   LIG d   1       3.971   1.339 -10.552  0.00  0.00    -0.061 A 
ATOM     47  H   LIG d   1       3.074   0.507 -12.305  0.00  0.00     0.062 H 
ATOM     48  C   LIG d   1       4.096   1.257  -9.180  0.00  0.00    -0.054 A 
ATOM     49  H   LIG d   1       4.501   2.106 -11.096  0.00  0.00     0.062 H 
ATOM     50  H   LIG d   1       4.725   1.959  -8.651  0.00  0.00     0.062 H 
BRANCH  43  51
ATOM     51  C   LIG d   1       1.612  -1.520 -11.287  0.00  0.00     0.417 C 
ATOM     52  F   LIG d   1       2.365  -2.149 -12.285  0.00  0.00    -0.166 F 
ATOM     53  F   LIG d   1       1.122  -2.482 -10.397  0.00  0.00    -0.166 F 
ATOM     54  F   LIG d   1       0.543  -0.835 -11.871  0.00  0.00    -0.166 F 
ENDBRANCH  43  51
ENDBRANCH  15  41
TORSDOF 5
ENDMDL
MODEL 6
REMARK VINA RESULT:      -6.9      1.555      2.074
REMARK  5 active torsions:
REMARK  status: ('A' for Active; 'I' for Inactive)
REMARK    1  A    between atoms: C_1  and  C_2 
REMARK    2  A    between atoms: C_2  and  C_3 
REMARK    3  A    between atoms: C_2  and  N_4 
REMARK       I    between atoms: N_4  and  C_5 
REMARK       I    between atoms: C_5  and  N_7 
REMARK    4  A    between atoms: C_18  and  C_23 
REMARK    5  A    between atoms: C_27  and  C_29 
ROOT
ATOM      1  N   LIG d   1       7.508   1.308  -4.985  0.00  0.00    -0.297 N 
ATOM      2  C   LIG d   1       7.511   0.098  -4.390  0.00  0.00     0.302 C 
ATOM      3  O   LIG d   1       8.269  -0.769  -4.778  0.00  0.00    -0.253 OA
ATOM      4  N   LIG d   1       6.671  -0.151  -3.366  0.00  0.00    -0.285 N 
ATOM      5  C   LIG d   1       5.826   0.914  -2.814  0.00  0.00     0.021 C 
ATOM      6  C   LIG d   1       4.379   0.447  -2.727  0.00  0.00    -0.006 C 
ATOM      7  H   LIG d   1       3.835   1.175  -2.126  0.00  0.00     0.033 H 
ATOM      8  C   LIG d   1       4.282  -0.911  -2.030  0.00  0.00    -0.037 C 
ATOM      9  C   LIG d   1       5.105  -1.923  -2.830  0.00  0.00     0.016 C 
ATOM     10  H   LIG d   1       4.988  -2.920  -2.405  0.00  0.00     0.038 H 
ATOM     11  C   LIG d   1       6.581  -1.495  -2.776  0.00  0.00     0.024 C 
ATOM     12  C   LIG d   1       4.674  -1.904  -4.279  0.00  0.00     0.027 A 
ATOM     13  C   LIG d   1       4.877  -3.039  -5.001  0.00  0.00    -0.041 A 
ATOM     14  C   LIG d   1       4.613  -3.071  -6.372  0.00  0.00    -0.047 A 
ATOM     15  C   LIG d   1       4.140  -1.920  -6.983  0.00  0.00     0.047 A 
ATOM     16  C   LIG d   1       3.921  -0.772  -6.192  0.00  0.00     0.259 A 
ATOM     17  O   LIG d   1       3.538   0.260  -6.718  0.00  0.00    -0.267 OA
ATOM     18  N   LIG d   1       4.135  -0.803  -4.854  0.00  0.00    -0.311 N 
ATOM     19  C   LIG d   1       3.720   0.375  -4.092  0.00  0.00     0.031 C 
ATOM     20  H   LIG d   1       6.957   2.022  -4.630  0.00  0.00     0.150 HD
ATOM     21  H   LIG d   1       5.883   1.792  -3.458  0.00  0.00     0.047 H 
ATOM     22  H   LIG d   1       6.181   1.178  -1.817  0.00  0.00     0.047 H 
ATOM     23  H   LIG d   1       4.676  -0.833  -1.017  0.00  0.00     0.028 H 
ATOM     24  H   LIG d   1       3.240  -1.231  -1.996  0.00  0.00     0.028 H 
ATOM     25  H   LIG d   1       6.922  -1.470  -1.740  0.00  0.00     0.047 H 
ATOM     26  H   LIG d   1       7.191  -2.194  -3.350  0.00  0.00     0.047 H 
ATOM     27  H   LIG d   1       5.250  -3.925  -4.509  0.00  0.00     0.064 H 
ATOM     28  H   LIG d   1       4.772  -3.974  -6.943  0.00  0.00     0.063 H 
ATOM     29  H   LIG d   1       3.982   1.270  -4.657  0.00  0.00     0.050 H 
ATOM     30  H   LIG d   1       2.639   0.348  -3.960  0.00  0.00     0.050 H 
ENDROOT
BRANCH   1  31
ATOM     31  C   LIG d   1       8.339   1.543  -6.169  0.00  0.00     0.019 C 
ATOM     32  H   LIG d   1       9.106   0.770  -6.235  0.00  0.00     0.049 H 
BRANCH  31  33
ATOM     33  C   LIG d   1       7.464   1.500  -7.423  0.00  0.00    -0.047 C 
ATOM     34  H   LIG d   1       8.032   1.871  -8.275  0.00  0.00     0.025 H 
ATOM     35  H   LIG d   1       7.153   0.473  -7.614  0.00  0.00     0.025 H 
ATOM     36  H   LIG d   1       6.583   2.124  -7.274  0.00  0.00     0.025 H 
ENDBRANCH  31  33
BRANCH  31  37
ATOM     37  C   LIG d   1       9.006   2.916  -6.059  0.00  0.00    -0.047 C 
ATOM     38  H   LIG d   1       8.775   3.355  -5.089  0.00  0.00     0.025 H 
ATOM     39  H   LIG d   1      10.085   2.804  -6.161  0.00  0.00     0.025 H 
ATOM     40  H   LIG d   1       8.631   3.565  -6.850  0.00  0.00     0.025 H 
ENDBRANCH  31  37
ENDBRANCH   1  31
BRANCH  15  41
ATOM     41  C   LIG d   1       3.868  -1.897  -8.440  0.00  0.00    -0.012 A 
ATOM     42  C   LIG d   1       4.476  -0.939  -9.251  0.00  0.00    -0.042 A 
ATOM     43  C   LIG d   1       4.221  -0.925 -10.607  0.00  0.00     0.055 A 
ATOM     44  H   LIG d   1       5.146  -0.211  -8.818  0.00  0.00     0.063 H 
ATOM     45  C   LIG d   1       3.359  -1.853 -11.161  0.00  0.00    -0.050 A 
ATOM     46  C   LIG d   1       2.749  -2.803 -10.362  0.00  0.00    -0.061 A 
ATOM     47  H   LIG d   1       3.159  -1.835 -12.223  0.00  0.00     0.062 H 
ATOM     48  C   LIG d   1       2.999  -2.831  -9.005  0.00  0.00    -0.054 A 
ATOM     49  H   LIG d   1       2.076  -3.525 -10.800  0.00  0.00     0.062 H 
ATOM     50  H   LIG d   1       2.521  -3.572  -8.381  0.00  0.00     0.062 H 
BRANCH  43  51
ATOM     51  C   LIG d   1       4.882   0.106 -11.485  0.00  0.00     0.417 C 
ATOM     52  F   LIG d   1       4.041   1.217 -11.612  0.00  0.00    -0.166 F 
ATOM     53  F   LIG d   1       6.094   0.502 -10.908  0.00  0.00    -0.166 F 
ATOM     54  F   LIG d   1       5.124  -0.442 -12.748  0.00  0.00    -0.166 F 
ENDBRANCH  43  51
ENDBRANCH  15  41
TORSDOF 5
ENDMDL
MODEL 7
REMARK VINA RESULT:      -6.7      4.606      6.565
REMARK  5 active torsions:
REMARK  status: ('A' for Active; 'I' for Inactive)
REMARK    1  A    between atoms: C_1  and  C_2 
REMARK    2  A    between atoms: C_2  and  C_3 
REMARK    3  A    between atoms: C_2  and  N_4 
REMARK       I    between atoms: N_4  and  C_5 
REMARK       I    between atoms: C_5  and  N_7 
REMARK    4  A    between atoms: C_18  and  C_23 
REMARK    5  A    between atoms: C_27  and  C_29 
ROOT
ATOM      1  N   LIG d   1       3.350  -0.655  -6.645  0.00  0.00    -0.297 N 
ATOM      2  C   LIG d   1       4.394  -0.129  -5.973  0.00  0.00     0.302 C 
ATOM      3  O   LIG d   1       5.377   0.250  -6.578  0.00  0.00    -0.253 OA
ATOM      4  N   LIG d   1       4.347  -0.025  -4.630  0.00  0.00    -0.285 N 
ATOM      5  C   LIG d   1       3.128  -0.377  -3.893  0.00  0.00     0.021 C 
ATOM      6  C   LIG d   1       3.459  -1.327  -2.751  0.00  0.00    -0.006 C 
ATOM      7  H   LIG d   1       2.578  -1.392  -2.112  0.00  0.00     0.033 H 
ATOM      8  C   LIG d   1       4.617  -0.790  -1.908  0.00  0.00    -0.037 C 
ATOM      9  C   LIG d   1       5.838  -0.627  -2.815  0.00  0.00     0.016 C 
ATOM     10  H   LIG d   1       6.705  -0.326  -2.227  0.00  0.00     0.038 H 
ATOM     11  C   LIG d   1       5.516   0.444  -3.871  0.00  0.00     0.024 C 
ATOM     12  C   LIG d   1       6.111  -1.923  -3.545  0.00  0.00     0.027 A 
ATOM     13  C   LIG d   1       7.391  -2.149  -3.950  0.00  0.00    -0.041 A 
ATOM     14  C   LIG d   1       7.708  -3.263  -4.728  0.00  0.00    -0.047 A 
ATOM     15  C   LIG d   1       6.691  -4.139  -5.079  0.00  0.00     0.047 A 
ATOM     16  C   LIG d   1       5.383  -3.880  -4.617  0.00  0.00     0.259 A 
ATOM     17  O   LIG d   1       4.469  -4.619  -4.943  0.00  0.00    -0.267 OA
ATOM     18  N   LIG d   1       5.131  -2.816  -3.815  0.00  0.00    -0.311 N 
ATOM     19  C   LIG d   1       3.786  -2.723  -3.247  0.00  0.00     0.031 C 
ATOM     20  H   LIG d   1       2.537  -0.889  -6.171  0.00  0.00     0.150 HD
ATOM     21  H   LIG d   1       2.422  -0.858  -4.570  0.00  0.00     0.047 H 
ATOM     22  H   LIG d   1       2.675   0.530  -3.489  0.00  0.00     0.047 H 
ATOM     23  H   LIG d   1       4.344   0.174  -1.480  0.00  0.00     0.028 H 
ATOM     24  H   LIG d   1       4.846  -1.495  -1.108  0.00  0.00     0.028 H 
ATOM     25  H   LIG d   1       5.286   1.390  -3.380  0.00  0.00     0.047 H 
ATOM     26  H   LIG d   1       6.367   0.572  -4.541  0.00  0.00     0.047 H 
ATOM     27  H   LIG d   1       8.169  -1.454  -3.671  0.00  0.00     0.064 H 
ATOM     28  H   LIG d   1       8.724  -3.443  -5.046  0.00  0.00     0.063 H 
ATOM     29  H   LIG d   1       3.060  -3.004  -4.010  0.00  0.00     0.050 H 
ATOM     30  H   LIG d   1       3.705  -3.421  -2.413  0.00  0.00     0.050 H 
ENDROOT
BRANCH   1  31
ATOM     31  C   LIG d   1       3.444  -0.872  -8.091  0.00  0.00     0.019 C 
ATOM     32  H   LIG d   1       4.276  -0.292  -8.492  0.00  0.00     0.049 H 
BRANCH  31  33
ATOM     33  C   LIG d   1       3.677  -2.358  -8.370  0.00  0.00    -0.047 C 
ATOM     34  H   LIG d   1       3.748  -2.897  -7.425  0.00  0.00     0.025 H 
ATOM     35  H   LIG d   1       2.846  -2.754  -8.953  0.00  0.00     0.025 H 
ATOM     36  H   LIG d   1       4.605  -2.482  -8.929  0.00  0.00     0.025 H 
ENDBRANCH  31  33
BRANCH  31  37
ATOM     37  C   LIG d   1       2.143  -0.426  -8.760  0.00  0.00    -0.047 C 
ATOM     38  H   LIG d   1       2.336   0.445  -9.386  0.00  0.00     0.025 H 
ATOM     39  H   LIG d   1       1.753  -1.238  -9.374  0.00  0.00     0.025 H 
ATOM     40  H   LIG d   1       1.412  -0.167  -7.994  0.00  0.00     0.025 H 
ENDBRANCH  31  37
ENDBRANCH   1  31
BRANCH  15  41
ATOM     41  C   LIG d   1       6.974  -5.324  -5.922  0.00  0.00    -0.012 A 
ATOM     42  C   LIG d   1       7.228  -6.560  -5.331  0.00  0.00    -0.042 A 
ATOM     43  C   LIG d   1       7.487  -7.661  -6.122  0.00  0.00     0.055 A 
ATOM     44  H   LIG d   1       7.222  -6.656  -4.255  0.00  0.00     0.063 H 
ATOM     45  C   LIG d   1       7.502  -7.538  -7.499  0.00  0.00    -0.050 A 
ATOM     46  C   LIG d   1       7.254  -6.313  -8.093  0.00  0.00    -0.061 A 
ATOM     47  H   LIG d   1       7.708  -8.402  -8.115  0.00  0.00     0.062 H 
ATOM     48  C   LIG d   1       6.990  -5.206  -7.313  0.00  0.00    -0.054 A 
ATOM     49  H   LIG d   1       7.267  -6.223  -9.169  0.00  0.00     0.062 H 
ATOM     50  H   LIG d   1       6.798  -4.250  -7.777  0.00  0.00     0.062 H 
BRANCH  43  51
ATOM     51  C   LIG d   1       7.757  -8.999  -5.483  0.00  0.00     0.417 C 
ATOM     52  F   LIG d   1       9.111  -9.318  -5.626  0.00  0.00    -0.166 F 
ATOM     53  F   LIG d   1       7.432  -8.940  -4.123  0.00  0.00    -0.166 F 
ATOM     54  F   LIG d   1       6.979  -9.979  -6.106  0.00  0.00    -0.166 F 
ENDBRANCH  43  51
ENDBRANCH  15  41
TORSDOF 5
ENDMDL
MODEL 8
REMARK VINA RESULT:      -6.7      3.988      6.918
REMARK  5 active torsions:
REMARK  status: ('A' for Active; 'I' for Inactive)
REMARK    1  A    between atoms: C_1  and  C_2 
REMARK    2  A    between atoms: C_2  and  C_3 
REMARK    3  A    between atoms: C_2  and  N_4 
REMARK       I    between atoms: N_4  and  C_5 
REMARK       I    between atoms: C_5  and  N_7 
REMARK    4  A    between atoms: C_18  and  C_23 
REMARK    5  A    between atoms: C_27  and  C_29 
ROOT
ATOM      1  N   LIG d   1       7.298  -0.838  -9.652  0.00  0.00    -0.297 N 
ATOM      2  C   LIG d   1       6.417  -0.011 -10.252  0.00  0.00     0.302 C 
ATOM      3  O   LIG d   1       6.529   1.192 -10.124  0.00  0.00    -0.253 OA
ATOM      4  N   LIG d   1       5.412  -0.519 -10.991  0.00  0.00    -0.285 N 
ATOM      5  C   LIG d   1       5.323  -1.962 -11.246  0.00  0.00     0.021 C 
ATOM      6  C   LIG d   1       3.926  -2.470 -10.917  0.00  0.00    -0.006 C 
ATOM      7  H   LIG d   1       3.842  -3.481 -11.316  0.00  0.00     0.033 H 
ATOM      8  C   LIG d   1       2.856  -1.607 -11.588  0.00  0.00    -0.037 C 
ATOM      9  C   LIG d   1       3.014  -0.169 -11.089  0.00  0.00     0.016 C 
ATOM     10  H   LIG d   1       2.213   0.455 -11.485  0.00  0.00     0.038 H 
ATOM     11  C   LIG d   1       4.379   0.360 -11.562  0.00  0.00     0.024 C 
ATOM     12  C   LIG d   1       3.012  -0.148  -9.578  0.00  0.00     0.027 A 
ATOM     13  C   LIG d   1       2.611   1.004  -8.973  0.00  0.00    -0.041 A 
ATOM     14  C   LIG d   1       2.686   1.148  -7.587  0.00  0.00    -0.047 A 
ATOM     15  C   LIG d   1       3.180   0.092  -6.836  0.00  0.00     0.047 A 
ATOM     16  C   LIG d   1       3.563  -1.093  -7.500  0.00  0.00     0.259 A 
ATOM     17  O   LIG d   1       4.031  -2.020  -6.861  0.00  0.00    -0.267 OA
ATOM     18  N   LIG d   1       3.417  -1.211  -8.843  0.00  0.00    -0.311 N 
ATOM     19  C   LIG d   1       3.678  -2.529  -9.422  0.00  0.00     0.031 C 
ATOM     20  H   LIG d   1       7.253  -1.793  -9.814  0.00  0.00     0.150 HD
ATOM     21  H   LIG d   1       6.052  -2.484 -10.626  0.00  0.00     0.047 H 
ATOM     22  H   LIG d   1       5.541  -2.158 -12.296  0.00  0.00     0.047 H 
ATOM     23  H   LIG d   1       2.984  -1.638 -12.670  0.00  0.00     0.028 H 
ATOM     24  H   LIG d   1       1.866  -1.979 -11.325  0.00  0.00     0.028 H 
ATOM     25  H   LIG d   1       4.429   0.334 -12.651  0.00  0.00     0.047 H 
ATOM     26  H   LIG d   1       4.524   1.381 -11.208  0.00  0.00     0.047 H 
ATOM     27  H   LIG d   1       2.233   1.818  -9.575  0.00  0.00     0.064 H 
ATOM     28  H   LIG d   1       2.364   2.061  -7.109  0.00  0.00     0.063 H 
ATOM     29  H   LIG d   1       4.553  -2.960  -8.937  0.00  0.00     0.050 H 
ATOM     30  H   LIG d   1       2.820  -3.174  -9.232  0.00  0.00     0.050 H 
ENDROOT
BRANCH   1  31
ATOM     31  C   LIG d   1       8.322  -0.294  -8.758  0.00  0.00     0.019 C 
ATOM     32  H   LIG d   1       8.442   0.774  -8.950  0.00  0.00     0.049 H 
BRANCH  31  33
ATOM     33  C   LIG d   1       7.895  -0.504  -7.305  0.00  0.00    -0.047 C 
ATOM     34  H   LIG d   1       8.149   0.380  -6.720  0.00  0.00     0.025 H 
ATOM     35  H   LIG d   1       6.818  -0.670  -7.262  0.00  0.00     0.025 H 
ATOM     36  H   LIG d   1       8.412  -1.371  -6.895  0.00  0.00     0.025 H 
ENDBRANCH  31  33
BRANCH  31  37
ATOM     37  C   LIG d   1       9.651  -1.010  -9.008  0.00  0.00    -0.047 C 
ATOM     38  H   LIG d   1      10.437  -0.532  -8.423  0.00  0.00     0.025 H 
ATOM     39  H   LIG d   1       9.561  -2.055  -8.713  0.00  0.00     0.025 H 
ATOM     40  H   LIG d   1       9.900  -0.951 -10.067  0.00  0.00     0.025 H 
ENDBRANCH  31  37
ENDBRANCH   1  31
BRANCH  15  41
ATOM     41  C   LIG d   1       3.301   0.205  -5.364  0.00  0.00    -0.012 A 
ATOM     42  C   LIG d   1       3.865  -0.835  -4.626  0.00  0.00    -0.042 A 
ATOM     43  C   LIG d   1       3.979  -0.722  -3.255  0.00  0.00     0.055 A 
ATOM     44  H   LIG d   1       4.213  -1.726  -5.126  0.00  0.00     0.063 H 
ATOM     45  C   LIG d   1       3.528   0.417  -2.612  0.00  0.00    -0.050 A 
ATOM     46  C   LIG d   1       2.964   1.451  -3.338  0.00  0.00    -0.061 A 
ATOM     47  H   LIG d   1       3.615   0.499  -1.539  0.00  0.00     0.062 H 
ATOM     48  C   LIG d   1       2.848   1.351  -4.710  0.00  0.00    -0.054 A 
ATOM     49  H   LIG d   1       2.613   2.337  -2.831  0.00  0.00     0.062 H 
ATOM     50  H   LIG d   1       2.406   2.158  -5.276  0.00  0.00     0.062 H 
BRANCH  43  51
ATOM     51  C   LIG d   1       4.593  -1.843  -2.457  0.00  0.00     0.417 C 
ATOM     52  F   LIG d   1       5.909  -2.051  -2.884  0.00  0.00    -0.166 F 
ATOM     53  F   LIG d   1       4.591  -1.504  -1.099  0.00  0.00    -0.166 F 
ATOM     54  F   LIG d   1       3.851  -3.012  -2.647  0.00  0.00    -0.166 F 
ENDBRANCH  43  51
ENDBRANCH  15  41
TORSDOF 5
ENDMDL
MODEL 9
REMARK VINA RESULT:      -6.6      4.176      7.673
REMARK  5 active torsions:
REMARK  status: ('A' for Active; 'I' for Inactive)
REMARK    1  A    between atoms: C_1  and  C_2 
REMARK    2  A    between atoms: C_2  and  C_3 
REMARK    3  A    between atoms: C_2  and  N_4 
REMARK       I    between atoms: N_4  and  C_5 
REMARK       I    between atoms: C_5  and  N_7 
REMARK    4  A    between atoms: C_18  and  C_23 
REMARK    5  A    between atoms: C_27  and  C_29 
ROOT
ATOM      1  N   LIG d   1       3.909  -4.584 -10.523  0.00  0.00    -0.297 N 
ATOM      2  C   LIG d   1       4.997  -3.839 -10.808  0.00  0.00     0.302 C 
ATOM      3  O   LIG d   1       6.047  -4.053 -10.235  0.00  0.00    -0.253 OA
ATOM      4  N   LIG d   1       4.919  -2.857 -11.728  0.00  0.00    -0.285 N 
ATOM      5  C   LIG d   1       3.692  -2.655 -12.506  0.00  0.00     0.021 C 
ATOM      6  C   LIG d   1       3.269  -1.194 -12.453  0.00  0.00    -0.006 C 
ATOM      7  H   LIG d   1       2.491  -1.049 -13.204  0.00  0.00     0.033 H 
ATOM      8  C   LIG d   1       4.438  -0.271 -12.799  0.00  0.00    -0.037 C 
ATOM      9  C   LIG d   1       5.563  -0.520 -11.793  0.00  0.00     0.016 C 
ATOM     10  H   LIG d   1       6.379   0.182 -11.962  0.00  0.00     0.038 H 
ATOM     11  C   LIG d   1       6.062  -1.964 -11.973  0.00  0.00     0.024 C 
ATOM     12  C   LIG d   1       5.029  -0.392 -10.385  0.00  0.00     0.027 A 
ATOM     13  C   LIG d   1       5.918  -0.050  -9.412  0.00  0.00    -0.041 A 
ATOM     14  C   LIG d   1       5.534  -0.021  -8.071  0.00  0.00    -0.047 A 
ATOM     15  C   LIG d   1       4.225  -0.347  -7.748  0.00  0.00     0.047 A 
ATOM     16  C   LIG d   1       3.329  -0.672  -8.789  0.00  0.00     0.259 A 
ATOM     17  O   LIG d   1       2.184  -0.994  -8.523  0.00  0.00    -0.267 OA
ATOM     18  N   LIG d   1       3.731  -0.631 -10.084  0.00  0.00    -0.311 N 
ATOM     19  C   LIG d   1       2.695  -0.815 -11.101  0.00  0.00     0.031 C 
ATOM     20  H   LIG d   1       3.093  -4.464 -11.032  0.00  0.00     0.150 HD
ATOM     21  H   LIG d   1       2.896  -3.276 -12.095  0.00  0.00     0.047 H 
ATOM     22  H   LIG d   1       3.870  -2.942 -13.543  0.00  0.00     0.047 H 
ATOM     23  H   LIG d   1       4.791  -0.487 -13.808  0.00  0.00     0.028 H 
ATOM     24  H   LIG d   1       4.115   0.769 -12.738  0.00  0.00     0.028 H 
ATOM     25  H   LIG d   1       6.431  -2.104 -12.990  0.00  0.00     0.047 H 
ATOM     26  H   LIG d   1       6.857  -2.174 -11.257  0.00  0.00     0.047 H 
ATOM     27  H   LIG d   1       6.934   0.197  -9.682  0.00  0.00     0.064 H 
ATOM     28  H   LIG d   1       6.240   0.254  -7.301  0.00  0.00     0.063 H 
ATOM     29  H   LIG d   1       2.015  -1.601 -10.774  0.00  0.00     0.050 H 
ATOM     30  H   LIG d   1       2.132   0.113 -11.204  0.00  0.00     0.050 H 
ENDROOT
BRANCH   1  31
ATOM     31  C   LIG d   1       3.962  -5.575  -9.445  0.00  0.00     0.019 C 
ATOM     32  H   LIG d   1       4.983  -5.948  -9.345  0.00  0.00     0.049 H 
BRANCH  31  33
ATOM     33  C   LIG d   1       3.527  -4.924  -8.132  0.00  0.00    -0.047 C 
ATOM     34  H   LIG d   1       3.756  -3.859  -8.161  0.00  0.00     0.025 H 
ATOM     35  H   LIG d   1       2.454  -5.061  -7.996  0.00  0.00     0.025 H 
ATOM     36  H   LIG d   1       4.060  -5.388  -7.302  0.00  0.00     0.025 H 
ENDBRANCH  31  33
BRANCH  31  37
ATOM     37  C   LIG d   1       3.024  -6.738  -9.775  0.00  0.00    -0.047 C 
ATOM     38  H   LIG d   1       2.625  -7.156  -8.851  0.00  0.00     0.025 H 
ATOM     39  H   LIG d   1       2.204  -6.377 -10.395  0.00  0.00     0.025 H 
ATOM     40  H   LIG d   1       3.576  -7.507 -10.314  0.00  0.00     0.025 H 
ENDBRANCH  31  37
ENDBRANCH   1  31
BRANCH  15  41
ATOM     41  C   LIG d   1       3.776  -0.353  -6.336  0.00  0.00    -0.012 A 
ATOM     42  C   LIG d   1       4.284  -1.295  -5.443  0.00  0.00    -0.042 A 
ATOM     43  C   LIG d   1       3.864  -1.293  -4.128  0.00  0.00     0.055 A 
ATOM     44  H   LIG d   1       5.007  -2.024  -5.779  0.00  0.00     0.063 H 
ATOM     45  C   LIG d   1       2.934  -0.365  -3.698  0.00  0.00    -0.050 A 
ATOM     46  C   LIG d   1       2.422   0.571  -4.580  0.00  0.00    -0.061 A 
ATOM     47  H   LIG d   1       2.605  -0.369  -2.669  0.00  0.00     0.062 H 
ATOM     48  C   LIG d   1       2.838   0.582  -5.896  0.00  0.00    -0.054 A 
ATOM     49  H   LIG d   1       1.696   1.293  -4.238  0.00  0.00     0.062 H 
ATOM     50  H   LIG d   1       2.437   1.311  -6.584  0.00  0.00     0.062 H 
BRANCH  43  51
ATOM     51  C   LIG d   1       4.417  -2.308  -3.161  0.00  0.00     0.417 C 
ATOM     52  F   LIG d   1       3.505  -2.502  -2.118  0.00  0.00    -0.166 F 
ATOM     53  F   LIG d   1       4.630  -3.519  -3.828  0.00  0.00    -0.166 F 
ATOM     54  F   LIG d   1       5.629  -1.843  -2.640  0.00  0.00    -0.166 F 
ENDBRANCH  43  51
ENDBRANCH  15  41
TORSDOF 5
ENDMDL
