MODEL 1
REMARK VINA RESULT:      -7.5      0.000      0.000
REMARK  7 active torsions:
REMARK  status: ('A' for Active; 'I' for Inactive)
REMARK    1  A    between atoms: C_1  and  C_2 
REMARK    2  A    between atoms: C_5  and  N_9 
REMARK    3  A    between atoms: C_7  and  C_8 
REMARK    4  A    between atoms: C_14  and  C_25 
REMARK    5  A    between atoms: C_20  and  C_24 
REMARK    6  A    between atoms: C_28  and  O_31 
REMARK    7  A    between atoms: O_31  and  C_32 
ROOT
ATOM      1  N   LIG d   1       6.947   1.278  -4.814  0.00  0.00    -0.293 NA
ATOM      2  C   LIG d   1       7.889   1.956  -3.911  0.00  0.00     0.044 C 
ATOM      3  C   LIG d   1       8.847   2.795  -4.719  0.00  0.00     0.013 A 
ATOM      4  C   LIG d   1       9.569   3.772  -4.090  0.00  0.00    -0.042 A 
ATOM      5  C   LIG d   1      10.458   4.563  -4.819  0.00  0.00     0.026 A 
ATOM      6  C   LIG d   1      11.240   5.624  -4.160  0.00  0.00    -0.000 A 
ATOM      7  C   LIG d   1      12.105   6.361  -4.951  0.00  0.00     0.031 A 
ATOM      8  C   LIG d   1      12.198   6.071  -6.320  0.00  0.00     0.338 A 
ATOM      9  O   LIG d   1      12.963   6.729  -7.003  0.00  0.00    -0.245 OA
ATOM     10  O   LIG d   1      11.486   5.105  -6.909  0.00  0.00    -0.422 OA
ATOM     11  C   LIG d   1      10.625   4.352  -6.197  0.00  0.00     0.146 A 
ATOM     12  C   LIG d   1       9.890   3.353  -6.820  0.00  0.00     0.035 A 
ATOM     13  C   LIG d   1       9.005   2.579  -6.084  0.00  0.00     0.134 A 
ATOM     14  O   LIG d   1       8.293   1.610  -6.719  0.00  0.00    -0.473 OA
ATOM     15  C   LIG d   1       7.680   0.611  -5.902  0.00  0.00     0.157 C 
ATOM     16  H   LIG d   1       8.447   1.211  -3.343  0.00  0.00     0.051 H 
ATOM     17  H   LIG d   1       7.335   2.596  -3.224  0.00  0.00     0.051 H 
ATOM     18  H   LIG d   1       9.446   3.935  -3.029  0.00  0.00     0.063 H 
ATOM     19  H   LIG d   1      12.700   7.151  -4.519  0.00  0.00     0.070 H 
ATOM     20  H   LIG d   1       8.446  -0.041  -5.482  0.00  0.00     0.091 H 
ATOM     21  H   LIG d   1       6.986   0.020  -6.501  0.00  0.00     0.091 H 
ENDROOT
BRANCH   1  22
ATOM     22  C   LIG d   1       6.151   0.369  -4.114  0.00  0.00     0.033 A 
ATOM     23  C   LIG d   1       5.541   0.747  -2.924  0.00  0.00    -0.040 A 
ATOM     24  C   LIG d   1       4.754  -0.155  -2.237  0.00  0.00    -0.057 A 
ATOM     25  H   LIG d   1       5.683   1.746  -2.539  0.00  0.00     0.064 H 
ATOM     26  C   LIG d   1       4.572  -1.433  -2.730  0.00  0.00    -0.047 A 
ATOM     27  H   LIG d   1       4.280   0.139  -1.312  0.00  0.00     0.062 H 
ATOM     28  C   LIG d   1       5.177  -1.813  -3.914  0.00  0.00    -0.046 A 
ATOM     29  C   LIG d   1       5.962  -0.915  -4.610  0.00  0.00    -0.037 A 
ATOM     30  H   LIG d   1       6.431  -1.212  -5.536  0.00  0.00     0.064 H 
BRANCH  26  31
ATOM     31  C   LIG d   1       3.712  -2.415  -1.977  0.00  0.00    -0.040 C 
ATOM     32  H   LIG d   1       3.504  -2.025  -0.980  0.00  0.00     0.028 H 
ATOM     33  H   LIG d   1       2.774  -2.563  -2.512  0.00  0.00     0.028 H 
ATOM     34  H   LIG d   1       4.236  -3.367  -1.892  0.00  0.00     0.028 H 
ENDBRANCH  26  31
BRANCH  28  35
ATOM     35  C   LIG d   1       4.976  -3.208  -4.448  0.00  0.00    -0.039 C 
ATOM     36  H   LIG d   1       4.216  -3.719  -3.856  0.00  0.00     0.028 H 
ATOM     37  H   LIG d   1       4.652  -3.156  -5.488  0.00  0.00     0.028 H 
ATOM     38  H   LIG d   1       5.915  -3.760  -4.388  0.00  0.00     0.028 H 
ENDBRANCH  28  35
ENDBRANCH   1  22
BRANCH  12  39
ATOM     39  C   LIG d   1      10.054   3.109  -8.297  0.00  0.00    -0.033 C 
ATOM     40  H   LIG d   1      10.861   3.733  -8.682  0.00  0.00     0.028 H 
ATOM     41  H   LIG d   1      10.293   2.060  -8.468  0.00  0.00     0.028 H 
ATOM     42  H   LIG d   1       9.125   3.359  -8.812  0.00  0.00     0.028 H 
ENDBRANCH  12  39
BRANCH   6  43
ATOM     43  C   LIG d   1      11.106   5.892  -2.713  0.00  0.00    -0.017 A 
ATOM     44  C   LIG d   1      10.222   6.875  -2.262  0.00  0.00    -0.051 A 
ATOM     45  C   LIG d   1      10.100   7.123  -0.913  0.00  0.00    -0.019 A 
ATOM     46  H   LIG d   1       9.633   7.440  -2.971  0.00  0.00     0.062 H 
ATOM     47  C   LIG d   1      10.855   6.397   0.000  0.00  0.00     0.120 A 
ATOM     48  H   LIG d   1       9.417   7.883  -0.564  0.00  0.00     0.065 H 
ATOM     49  C   LIG d   1      11.737   5.418  -0.444  0.00  0.00    -0.019 A 
ATOM     50  C   LIG d   1      11.859   5.161  -1.792  0.00  0.00    -0.051 A 
ATOM     51  H   LIG d   1      12.321   4.856   0.268  0.00  0.00     0.065 H 
ATOM     52  H   LIG d   1      12.542   4.397  -2.136  0.00  0.00     0.062 H 
BRANCH  47  53
ATOM     53  O   LIG d   1      10.732   6.643   1.329  0.00  0.00    -0.495 OA
BRANCH  53  54
ATOM     54  C   LIG d   1      10.895   5.531   2.213  0.00  0.00     0.079 C 
ATOM     55  H   LIG d   1      10.405   5.748   3.163  0.00  0.00     0.066 H 
ATOM     56  H   LIG d   1      10.446   4.645   1.767  0.00  0.00     0.066 H 
ATOM     57  H   LIG d   1      11.956   5.356   2.383  0.00  0.00     0.066 H 
ENDBRANCH  53  54
ENDBRANCH  47  53
ENDBRANCH   6  43
TORSDOF 7
ENDMDL
MODEL 2
REMARK VINA RESULT:      -7.3      6.395     12.566
REMARK  7 active torsions:
REMARK  status: ('A' for Active; 'I' for Inactive)
REMARK    1  A    between atoms: C_1  and  C_2 
REMARK    2  A    between atoms: C_5  and  N_9 
REMARK    3  A    between atoms: C_7  and  C_8 
REMARK    4  A    between atoms: C_14  and  C_25 
REMARK    5  A    between atoms: C_20  and  C_24 
REMARK    6  A    between atoms: C_28  and  O_31 
REMARK    7  A    between atoms: O_31  and  C_32 
ROOT
ATOM      1  N   LIG d   1       5.067  -3.067  -5.356  0.00  0.00    -0.293 NA
ATOM      2  C   LIG d   1       4.848  -4.389  -4.751  0.00  0.00     0.044 C 
ATOM      3  C   LIG d   1       4.775  -5.434  -5.835  0.00  0.00     0.013 A 
ATOM      4  C   LIG d   1       4.931  -6.752  -5.501  0.00  0.00    -0.042 A 
ATOM      5  C   LIG d   1       4.871  -7.735  -6.489  0.00  0.00     0.026 A 
ATOM      6  C   LIG d   1       5.041  -9.159  -6.149  0.00  0.00    -0.000 A 
ATOM      7  C   LIG d   1       4.963 -10.074  -7.185  0.00  0.00     0.031 A 
ATOM      8  C   LIG d   1       4.728  -9.615  -8.490  0.00  0.00     0.338 A 
ATOM      9  O   LIG d   1       4.663 -10.433  -9.391  0.00  0.00    -0.245 OA
ATOM     10  O   LIG d   1       4.573  -8.321  -8.789  0.00  0.00    -0.422 OA
ATOM     11  C   LIG d   1       4.639  -7.379  -7.828  0.00  0.00     0.146 A 
ATOM     12  C   LIG d   1       4.479  -6.040  -8.150  0.00  0.00     0.035 A 
ATOM     13  C   LIG d   1       4.547  -5.071  -7.159  0.00  0.00     0.134 A 
ATOM     14  O   LIG d   1       4.390  -3.765  -7.502  0.00  0.00    -0.473 OA
ATOM     15  C   LIG d   1       4.104  -2.844  -6.447  0.00  0.00     0.157 C 
ATOM     16  H   LIG d   1       3.914  -4.381  -4.189  0.00  0.00     0.051 H 
ATOM     17  H   LIG d   1       5.674  -4.620  -4.078  0.00  0.00     0.051 H 
ATOM     18  H   LIG d   1       5.105  -7.030  -4.471  0.00  0.00     0.063 H 
ATOM     19  H   LIG d   1       5.083 -11.129  -6.991  0.00  0.00     0.070 H 
ATOM     20  H   LIG d   1       3.092  -3.008  -6.081  0.00  0.00     0.091 H 
ATOM     21  H   LIG d   1       4.200  -1.822  -6.815  0.00  0.00     0.091 H 
ENDROOT
BRANCH   1  22
ATOM     22  C   LIG d   1       4.978  -2.057  -4.395  0.00  0.00     0.033 A 
ATOM     23  C   LIG d   1       4.020  -2.131  -3.392  0.00  0.00    -0.040 A 
ATOM     24  C   LIG d   1       3.936  -1.131  -2.444  0.00  0.00    -0.057 A 
ATOM     25  H   LIG d   1       3.342  -2.971  -3.354  0.00  0.00     0.064 H 
ATOM     26  C   LIG d   1       4.804  -0.056  -2.492  0.00  0.00    -0.047 A 
ATOM     27  H   LIG d   1       3.191  -1.188  -1.665  0.00  0.00     0.062 H 
ATOM     28  C   LIG d   1       5.759   0.021  -3.489  0.00  0.00    -0.046 A 
ATOM     29  C   LIG d   1       5.853  -0.978  -4.438  0.00  0.00    -0.037 A 
ATOM     30  H   LIG d   1       6.601  -0.919  -5.213  0.00  0.00     0.064 H 
BRANCH  26  31
ATOM     31  C   LIG d   1       4.710   1.034  -1.455  0.00  0.00    -0.040 C 
ATOM     32  H   LIG d   1       3.784   1.591  -1.598  0.00  0.00     0.028 H 
ATOM     33  H   LIG d   1       4.718   0.591  -0.460  0.00  0.00     0.028 H 
ATOM     34  H   LIG d   1       5.559   1.709  -1.560  0.00  0.00     0.028 H 
ENDBRANCH  26  31
BRANCH  28  35
ATOM     35  C   LIG d   1       6.704   1.194  -3.537  0.00  0.00    -0.039 C 
ATOM     36  H   LIG d   1       7.487   1.063  -2.790  0.00  0.00     0.028 H 
ATOM     37  H   LIG d   1       7.154   1.258  -4.528  0.00  0.00     0.028 H 
ATOM     38  H   LIG d   1       6.154   2.113  -3.330  0.00  0.00     0.028 H 
ENDBRANCH  28  35
ENDBRANCH   1  22
BRANCH  12  39
ATOM     39  C   LIG d   1       4.229  -5.635  -9.580  0.00  0.00    -0.033 C 
ATOM     40  H   LIG d   1       3.745  -6.455 -10.111  0.00  0.00     0.028 H 
ATOM     41  H   LIG d   1       3.584  -4.757  -9.601  0.00  0.00     0.028 H 
ATOM     42  H   LIG d   1       5.178  -5.400 -10.062  0.00  0.00     0.028 H 
ENDBRANCH  12  39
BRANCH   6  43
ATOM     43  C   LIG d   1       5.288  -9.593  -4.758  0.00  0.00    -0.017 A 
ATOM     44  C   LIG d   1       6.571  -9.501  -4.213  0.00  0.00    -0.051 A 
ATOM     45  C   LIG d   1       6.797  -9.908  -2.917  0.00  0.00    -0.019 A 
ATOM     46  H   LIG d   1       7.384  -9.111  -4.806  0.00  0.00     0.062 H 
ATOM     47  C   LIG d   1       5.751 -10.409  -2.151  0.00  0.00     0.120 A 
ATOM     48  H   LIG d   1       7.788  -9.837  -2.494  0.00  0.00     0.065 H 
ATOM     49  C   LIG d   1       4.473 -10.503  -2.690  0.00  0.00    -0.019 A 
ATOM     50  C   LIG d   1       4.239 -10.093  -3.984  0.00  0.00    -0.051 A 
ATOM     51  H   LIG d   1       3.663 -10.893  -2.092  0.00  0.00     0.065 H 
ATOM     52  H   LIG d   1       3.244 -10.162  -4.401  0.00  0.00     0.062 H 
BRANCH  47  53
ATOM     53  O   LIG d   1       5.977 -10.808  -0.874  0.00  0.00    -0.495 OA
BRANCH  53  54
ATOM     54  C   LIG d   1       6.402 -12.159  -0.680  0.00  0.00     0.079 C 
ATOM     55  H   LIG d   1       6.805 -12.273   0.326  0.00  0.00     0.066 H 
ATOM     56  H   LIG d   1       5.552 -12.828  -0.810  0.00  0.00     0.066 H 
ATOM     57  H   LIG d   1       7.173 -12.405  -1.410  0.00  0.00     0.066 H 
ENDBRANCH  53  54
ENDBRANCH  47  53
ENDBRANCH   6  43
TORSDOF 7
ENDMDL
MODEL 3
REMARK VINA RESULT:      -6.6      1.631      2.207
REMARK  7 active torsions:
REMARK  status: ('A' for Active; 'I' for Inactive)
REMARK    1  A    between atoms: C_1  and  C_2 
REMARK    2  A    between atoms: C_5  and  N_9 
REMARK    3  A    between atoms: C_7  and  C_8 
REMARK    4  A    between atoms: C_14  and  C_25 
REMARK    5  A    between atoms: C_20  and  C_24 
REMARK    6  A    between atoms: C_28  and  O_31 
REMARK    7  A    between atoms: O_31  and  C_32 
ROOT
ATOM      1  N   LIG d   1       8.101   0.569  -4.716  0.00  0.00    -0.293 NA
ATOM      2  C   LIG d   1       8.598   1.668  -3.875  0.00  0.00     0.044 C 
ATOM      3  C   LIG d   1       9.854   2.240  -4.483  0.00  0.00     0.013 A 
ATOM      4  C   LIG d   1      10.286   3.473  -4.080  0.00  0.00    -0.042 A 
ATOM      5  C   LIG d   1      11.444   4.023  -4.632  0.00  0.00     0.026 A 
ATOM      6  C   LIG d   1      11.922   5.353  -4.214  0.00  0.00    -0.000 A 
ATOM      7  C   LIG d   1      13.081   5.826  -4.805  0.00  0.00     0.031 A 
ATOM      8  C   LIG d   1      13.739   5.034  -5.758  0.00  0.00     0.338 A 
ATOM      9  O   LIG d   1      14.757   5.465  -6.269  0.00  0.00    -0.245 OA
ATOM     10  O   LIG d   1      13.298   3.828  -6.130  0.00  0.00    -0.422 OA
ATOM     11  C   LIG d   1      12.176   3.309  -5.595  0.00  0.00     0.146 A 
ATOM     12  C   LIG d   1      11.727   2.057  -5.990  0.00  0.00     0.035 A 
ATOM     13  C   LIG d   1      10.572   1.525  -5.437  0.00  0.00     0.134 A 
ATOM     14  O   LIG d   1      10.151   0.298  -5.845  0.00  0.00    -0.473 OA
ATOM     15  C   LIG d   1       9.194  -0.369  -5.021  0.00  0.00     0.157 C 
ATOM     16  H   LIG d   1       8.817   1.290  -2.876  0.00  0.00     0.051 H 
ATOM     17  H   LIG d   1       7.838   2.446  -3.810  0.00  0.00     0.051 H 
ATOM     18  H   LIG d   1       9.728   4.024  -3.336  0.00  0.00     0.063 H 
ATOM     19  H   LIG d   1      13.474   6.795  -4.536  0.00  0.00     0.070 H 
ATOM     20  H   LIG d   1       9.668  -0.692  -4.095  0.00  0.00     0.091 H 
ATOM     21  H   LIG d   1       8.794  -1.237  -5.548  0.00  0.00     0.091 H 
ENDROOT
BRANCH   1  22
ATOM     22  C   LIG d   1       7.034  -0.088  -4.099  0.00  0.00     0.033 A 
ATOM     23  C   LIG d   1       6.858  -1.454  -4.280  0.00  0.00    -0.040 A 
ATOM     24  C   LIG d   1       5.802  -2.100  -3.669  0.00  0.00    -0.057 A 
ATOM     25  H   LIG d   1       7.547  -2.010  -4.899  0.00  0.00     0.064 H 
ATOM     26  C   LIG d   1       4.920  -1.389  -2.877  0.00  0.00    -0.047 A 
ATOM     27  H   LIG d   1       5.665  -3.162  -3.809  0.00  0.00     0.062 H 
ATOM     28  C   LIG d   1       5.092  -0.029  -2.694  0.00  0.00    -0.046 A 
ATOM     29  C   LIG d   1       6.149   0.623  -3.298  0.00  0.00    -0.037 A 
ATOM     30  H   LIG d   1       6.284   1.684  -3.152  0.00  0.00     0.064 H 
BRANCH  26  31
ATOM     31  C   LIG d   1       3.768  -2.097  -2.210  0.00  0.00    -0.040 C 
ATOM     32  H   LIG d   1       3.026  -2.370  -2.961  0.00  0.00     0.028 H 
ATOM     33  H   LIG d   1       4.132  -2.998  -1.716  0.00  0.00     0.028 H 
ATOM     34  H   LIG d   1       3.313  -1.436  -1.473  0.00  0.00     0.028 H 
ENDBRANCH  26  31
BRANCH  28  35
ATOM     35  C   LIG d   1       4.128   0.742  -1.830  0.00  0.00    -0.039 C 
ATOM     36  H   LIG d   1       4.552   1.718  -1.592  0.00  0.00     0.028 H 
ATOM     37  H   LIG d   1       3.186   0.875  -2.363  0.00  0.00     0.028 H 
ATOM     38  H   LIG d   1       3.946   0.191  -0.906  0.00  0.00     0.028 H 
ENDBRANCH  28  35
ENDBRANCH   1  22
BRANCH  12  39
ATOM     39  C   LIG d   1      12.497   1.274  -7.021  0.00  0.00    -0.033 C 
ATOM     40  H   LIG d   1      11.958   1.290  -7.968  0.00  0.00     0.028 H 
ATOM     41  H   LIG d   1      13.482   1.721  -7.156  0.00  0.00     0.028 H 
ATOM     42  H   LIG d   1      12.610   0.243  -6.685  0.00  0.00     0.028 H 
ENDBRANCH  12  39
BRANCH   6  43
ATOM     43  C   LIG d   1      11.194   6.150  -3.206  0.00  0.00    -0.017 A 
ATOM     44  C   LIG d   1      10.420   7.244  -3.603  0.00  0.00    -0.051 A 
ATOM     45  C   LIG d   1       9.743   7.985  -2.661  0.00  0.00    -0.019 A 
ATOM     46  H   LIG d   1      10.352   7.507  -4.649  0.00  0.00     0.062 H 
ATOM     47  C   LIG d   1       9.828   7.647  -1.315  0.00  0.00     0.120 A 
ATOM     48  H   LIG d   1       9.145   8.830  -2.967  0.00  0.00     0.065 H 
ATOM     49  C   LIG d   1      10.597   6.560  -0.915  0.00  0.00    -0.019 A 
ATOM     50  C   LIG d   1      11.272   5.811  -1.853  0.00  0.00    -0.051 A 
ATOM     51  H   LIG d   1      10.660   6.301   0.131  0.00  0.00     0.065 H 
ATOM     52  H   LIG d   1      11.866   4.964  -1.542  0.00  0.00     0.062 H 
BRANCH  47  53
ATOM     53  O   LIG d   1       9.158   8.379  -0.389  0.00  0.00    -0.495 OA
BRANCH  53  54
ATOM     54  C   LIG d   1       9.294   9.800  -0.463  0.00  0.00     0.079 C 
ATOM     55  H   LIG d   1       8.312  10.264  -0.378  0.00  0.00     0.066 H 
ATOM     56  H   LIG d   1       9.931  10.146   0.351  0.00  0.00     0.066 H 
ATOM     57  H   LIG d   1       9.744  10.073  -1.417  0.00  0.00     0.066 H 
ENDBRANCH  53  54
ENDBRANCH  47  53
ENDBRANCH   6  43
TORSDOF 7
ENDMDL
MODEL 4
REMARK VINA RESULT:      -6.5      7.739     10.520
REMARK  7 active torsions:
REMARK  status: ('A' for Active; 'I' for Inactive)
REMARK    1  A    between atoms: C_1  and  C_2 
REMARK    2  A    between atoms: C_5  and  N_9 
REMARK    3  A    between atoms: C_7  and  C_8 
REMARK    4  A    between atoms: C_14  and  C_25 
REMARK    5  A    between atoms: C_20  and  C_24 
REMARK    6  A    between atoms: C_28  and  O_31 
REMARK    7  A    between atoms: O_31  and  C_32 
ROOT
ATOM      1  N   LIG d   1       2.954  -0.769  -9.858  0.00  0.00    -0.293 NA
ATOM      2  C   LIG d   1       4.004  -1.504  -9.137  0.00  0.00     0.044 C 
ATOM      3  C   LIG d   1       3.927  -1.182  -7.666  0.00  0.00     0.013 A 
ATOM      4  C   LIG d   1       4.558  -2.002  -6.772  0.00  0.00    -0.042 A 
ATOM      5  C   LIG d   1       4.496  -1.726  -5.405  0.00  0.00     0.026 A 
ATOM      6  C   LIG d   1       5.164  -2.601  -4.426  0.00  0.00    -0.000 A 
ATOM      7  C   LIG d   1       5.061  -2.255  -3.089  0.00  0.00     0.031 A 
ATOM      8  C   LIG d   1       4.338  -1.108  -2.731  0.00  0.00     0.338 A 
ATOM      9  O   LIG d   1       4.255  -0.817  -1.551  0.00  0.00    -0.245 OA
ATOM     10  O   LIG d   1       3.736  -0.319  -3.627  0.00  0.00    -0.422 OA
ATOM     11  C   LIG d   1       3.796  -0.599  -4.943  0.00  0.00     0.146 A 
ATOM     12  C   LIG d   1       3.166   0.227  -5.863  0.00  0.00     0.035 A 
ATOM     13  C   LIG d   1       3.230  -0.064  -7.218  0.00  0.00     0.134 A 
ATOM     14  O   LIG d   1       2.600   0.759  -8.099  0.00  0.00    -0.473 OA
ATOM     15  C   LIG d   1       2.976   0.652  -9.473  0.00  0.00     0.157 C 
ATOM     16  H   LIG d   1       4.981  -1.212  -9.523  0.00  0.00     0.051 H 
ATOM     17  H   LIG d   1       3.862  -2.574  -9.284  0.00  0.00     0.051 H 
ATOM     18  H   LIG d   1       5.100  -2.868  -7.124  0.00  0.00     0.063 H 
ATOM     19  H   LIG d   1       5.530  -2.863  -2.331  0.00  0.00     0.070 H 
ATOM     20  H   LIG d   1       3.980   1.053  -9.611  0.00  0.00     0.091 H 
ATOM     21  H   LIG d   1       2.272   1.209 -10.092  0.00  0.00     0.091 H 
ENDROOT
BRANCH   1  22
ATOM     22  C   LIG d   1       3.098  -0.916 -11.239  0.00  0.00     0.033 A 
ATOM     23  C   LIG d   1       4.174  -0.331 -11.894  0.00  0.00    -0.040 A 
ATOM     24  C   LIG d   1       4.313  -0.480 -13.260  0.00  0.00    -0.057 A 
ATOM     25  H   LIG d   1       4.901   0.241 -11.336  0.00  0.00     0.064 H 
ATOM     26  C   LIG d   1       3.384  -1.212 -13.975  0.00  0.00    -0.047 A 
ATOM     27  H   LIG d   1       5.149  -0.025 -13.769  0.00  0.00     0.062 H 
ATOM     28  C   LIG d   1       2.312  -1.796 -13.326  0.00  0.00    -0.046 A 
ATOM     29  C   LIG d   1       2.169  -1.656 -11.960  0.00  0.00    -0.037 A 
ATOM     30  H   LIG d   1       1.334  -2.116 -11.453  0.00  0.00     0.064 H 
BRANCH  26  31
ATOM     31  C   LIG d   1       3.539  -1.373 -15.466  0.00  0.00    -0.040 C 
ATOM     32  H   LIG d   1       3.003  -2.265 -15.792  0.00  0.00     0.028 H 
ATOM     33  H   LIG d   1       3.129  -0.499 -15.971  0.00  0.00     0.028 H 
ATOM     34  H   LIG d   1       4.596  -1.475 -15.712  0.00  0.00     0.028 H 
ENDBRANCH  26  31
BRANCH  28  35
ATOM     35  C   LIG d   1       1.301  -2.594 -14.110  0.00  0.00    -0.039 C 
ATOM     36  H   LIG d   1       0.433  -2.799 -13.483  0.00  0.00     0.028 H 
ATOM     37  H   LIG d   1       0.990  -2.025 -14.986  0.00  0.00     0.028 H 
ATOM     38  H   LIG d   1       1.749  -3.535 -14.429  0.00  0.00     0.028 H 
ENDBRANCH  28  35
ENDBRANCH   1  22
BRANCH  12  39
ATOM     39  C   LIG d   1       2.410   1.441  -5.390  0.00  0.00    -0.033 C 
ATOM     40  H   LIG d   1       3.024   1.999  -4.683  0.00  0.00     0.028 H 
ATOM     41  H   LIG d   1       2.172   2.076  -6.243  0.00  0.00     0.028 H 
ATOM     42  H   LIG d   1       1.488   1.128  -4.901  0.00  0.00     0.028 H 
ENDBRANCH  12  39
BRANCH   6  43
ATOM     43  C   LIG d   1       5.914  -3.800  -4.853  0.00  0.00    -0.017 A 
ATOM     44  C   LIG d   1       5.230  -4.924  -5.321  0.00  0.00    -0.051 A 
ATOM     45  C   LIG d   1       5.932  -6.041  -5.717  0.00  0.00    -0.019 A 
ATOM     46  H   LIG d   1       4.151  -4.918  -5.374  0.00  0.00     0.062 H 
ATOM     47  C   LIG d   1       7.320  -6.051  -5.652  0.00  0.00     0.120 A 
ATOM     48  H   LIG d   1       5.403  -6.910  -6.079  0.00  0.00     0.065 H 
ATOM     49  C   LIG d   1       8.005  -4.934  -5.186  0.00  0.00    -0.019 A 
ATOM     50  C   LIG d   1       7.310  -3.812  -4.794  0.00  0.00    -0.051 A 
ATOM     51  H   LIG d   1       9.084  -4.946  -5.138  0.00  0.00     0.065 H 
ATOM     52  H   LIG d   1       7.843  -2.943  -4.436  0.00  0.00     0.062 H 
BRANCH  47  53
ATOM     53  O   LIG d   1       8.009  -7.152  -6.045  0.00  0.00    -0.495 OA
BRANCH  53  54
ATOM     54  C   LIG d   1       8.059  -8.247  -5.127  0.00  0.00     0.079 C 
ATOM     55  H   LIG d   1       8.218  -9.175  -5.677  0.00  0.00     0.066 H 
ATOM     56  H   LIG d   1       8.880  -8.095  -4.427  0.00  0.00     0.066 H 
ATOM     57  H   LIG d   1       7.119  -8.306  -4.579  0.00  0.00     0.066 H 
ENDBRANCH  53  54
ENDBRANCH  47  53
ENDBRANCH   6  43
TORSDOF 7
ENDMDL
MODEL 5
REMARK VINA RESULT:      -6.4      7.377     11.579
REMARK  7 active torsions:
REMARK  status: ('A' for Active; 'I' for Inactive)
REMARK    1  A    between atoms: C_1  and  C_2 
REMARK    2  A    between atoms: C_5  and  N_9 
REMARK    3  A    between atoms: C_7  and  C_8 
REMARK    4  A    between atoms: C_14  and  C_25 
REMARK    5  A    between atoms: C_20  and  C_24 
REMARK    6  A    between atoms: C_28  and  O_31 
REMARK    7  A    between atoms: O_31  and  C_32 
ROOT
ATOM      1  N   LIG d   1       4.914  -5.279  -6.909  0.00  0.00    -0.293 NA
ATOM      2  C   LIG d   1       3.994  -4.719  -7.910  0.00  0.00     0.044 C 
ATOM      3  C   LIG d   1       4.024  -3.213  -7.835  0.00  0.00     0.013 A 
ATOM      4  C   LIG d   1       3.531  -2.485  -8.883  0.00  0.00    -0.042 A 
ATOM      5  C   LIG d   1       3.551  -1.091  -8.837  0.00  0.00     0.026 A 
ATOM      6  C   LIG d   1       3.030  -0.290  -9.959  0.00  0.00    -0.000 A 
ATOM      7  C   LIG d   1       3.082   1.088  -9.834  0.00  0.00     0.031 A 
ATOM      8  C   LIG d   1       3.617   1.652  -8.666  0.00  0.00     0.338 A 
ATOM      9  O   LIG d   1       3.655   2.866  -8.572  0.00  0.00    -0.245 OA
ATOM     10  O   LIG d   1       4.086   0.918  -7.653  0.00  0.00    -0.422 OA
ATOM     11  C   LIG d   1       4.067  -0.428  -7.711  0.00  0.00     0.146 A 
ATOM     12  C   LIG d   1       4.558  -1.181  -6.653  0.00  0.00     0.035 A 
ATOM     13  C   LIG d   1       4.537  -2.566  -6.715  0.00  0.00     0.134 A 
ATOM     14  O   LIG d   1       5.028  -3.280  -5.668  0.00  0.00    -0.473 OA
ATOM     15  C   LIG d   1       4.671  -4.661  -5.595  0.00  0.00     0.157 C 
ATOM     16  H   LIG d   1       2.983  -5.074  -7.711  0.00  0.00     0.051 H 
ATOM     17  H   LIG d   1       4.302  -5.040  -8.905  0.00  0.00     0.051 H 
ATOM     18  H   LIG d   1       3.130  -2.991  -9.750  0.00  0.00     0.063 H 
ATOM     19  H   LIG d   1       2.715   1.722 -10.627  0.00  0.00     0.070 H 
ATOM     20  H   LIG d   1       3.617  -4.755  -5.337  0.00  0.00     0.091 H 
ATOM     21  H   LIG d   1       5.278  -5.160  -4.839  0.00  0.00     0.091 H 
ENDROOT
BRANCH   1  22
ATOM     22  C   LIG d   1       4.792  -6.668  -6.840  0.00  0.00     0.033 A 
ATOM     23  C   LIG d   1       4.402  -7.391  -7.961  0.00  0.00    -0.040 A 
ATOM     24  C   LIG d   1       4.283  -8.764  -7.888  0.00  0.00    -0.057 A 
ATOM     25  H   LIG d   1       4.192  -6.877  -8.888  0.00  0.00     0.064 H 
ATOM     26  C   LIG d   1       4.553  -9.421  -6.702  0.00  0.00    -0.047 A 
ATOM     27  H   LIG d   1       3.980  -9.326  -8.759  0.00  0.00     0.062 H 
ATOM     28  C   LIG d   1       4.941  -8.706  -5.585  0.00  0.00    -0.046 A 
ATOM     29  C   LIG d   1       5.067  -7.333  -5.651  0.00  0.00    -0.037 A 
ATOM     30  H   LIG d   1       5.374  -6.775  -4.779  0.00  0.00     0.064 H 
BRANCH  26  31
ATOM     31  C   LIG d   1       4.422 -10.921  -6.627  0.00  0.00    -0.040 C 
ATOM     32  H   LIG d   1       5.276 -11.385  -7.123  0.00  0.00     0.028 H 
ATOM     33  H   LIG d   1       4.396 -11.232  -5.583  0.00  0.00     0.028 H 
ATOM     34  H   LIG d   1       3.503 -11.231  -7.123  0.00  0.00     0.028 H 
ENDBRANCH  26  31
BRANCH  28  35
ATOM     35  C   LIG d   1       5.234  -9.427  -4.294  0.00  0.00    -0.039 C 
ATOM     36  H   LIG d   1       5.597  -8.714  -3.553  0.00  0.00     0.028 H 
ATOM     37  H   LIG d   1       4.323  -9.900  -3.927  0.00  0.00     0.028 H 
ATOM     38  H   LIG d   1       5.994 -10.189  -4.467  0.00  0.00     0.028 H 
ENDBRANCH  28  35
ENDBRANCH   1  22
BRANCH  12  39
ATOM     39  C   LIG d   1       5.115  -0.491  -5.435  0.00  0.00    -0.033 C 
ATOM     40  H   LIG d   1       5.500  -1.236  -4.739  0.00  0.00     0.028 H 
ATOM     41  H   LIG d   1       5.922   0.178  -5.733  0.00  0.00     0.028 H 
ATOM     42  H   LIG d   1       4.326   0.085  -4.951  0.00  0.00     0.028 H 
ENDBRANCH  12  39
BRANCH   6  43
ATOM     43  C   LIG d   1       2.477  -0.931 -11.170  0.00  0.00    -0.017 A 
ATOM     44  C   LIG d   1       1.119  -1.249 -11.235  0.00  0.00    -0.051 A 
ATOM     45  C   LIG d   1       0.606  -1.847 -12.365  0.00  0.00    -0.019 A 
ATOM     46  H   LIG d   1       0.470  -1.025 -10.401  0.00  0.00     0.062 H 
ATOM     47  C   LIG d   1       1.440  -2.134 -13.440  0.00  0.00     0.120 A 
ATOM     48  H   LIG d   1      -0.444  -2.093 -12.417  0.00  0.00     0.065 H 
ATOM     49  C   LIG d   1       2.793  -1.819 -13.379  0.00  0.00    -0.019 A 
ATOM     50  C   LIG d   1       3.310  -1.216 -12.254  0.00  0.00    -0.051 A 
ATOM     51  H   LIG d   1       3.436  -2.044 -14.216  0.00  0.00     0.065 H 
ATOM     52  H   LIG d   1       4.361  -0.968 -12.209  0.00  0.00     0.062 H 
BRANCH  47  53
ATOM     53  O   LIG d   1       0.931  -2.722 -14.552  0.00  0.00    -0.495 OA
BRANCH  53  54
ATOM     54  C   LIG d   1      -0.421  -2.408 -14.893  0.00  0.00     0.079 C 
ATOM     55  H   LIG d   1      -1.094  -2.860 -14.164  0.00  0.00     0.066 H 
ATOM     56  H   LIG d   1      -0.554  -1.327 -14.888  0.00  0.00     0.066 H 
ATOM     57  H   LIG d   1      -0.645  -2.798 -15.885  0.00  0.00     0.066 H 
ENDBRANCH  53  54
ENDBRANCH  47  53
ENDBRANCH   6  43
TORSDOF 7
ENDMDL
MODEL 6
REMARK VINA RESULT:      -6.2      6.332     10.688
REMARK  7 active torsions:
REMARK  status: ('A' for Active; 'I' for Inactive)
REMARK    1  A    between atoms: C_1  and  C_2 
REMARK    2  A    between atoms: C_5  and  N_9 
REMARK    3  A    between atoms: C_7  and  C_8 
REMARK    4  A    between atoms: C_14  and  C_25 
REMARK    5  A    between atoms: C_20  and  C_24 
REMARK    6  A    between atoms: C_28  and  O_31 
REMARK    7  A    between atoms: O_31  and  C_32 
ROOT
ATOM      1  N   LIG d   1       7.447  -1.907  -4.168  0.00  0.00    -0.293 NA
ATOM      2  C   LIG d   1       7.284  -3.367  -4.229  0.00  0.00     0.044 C 
ATOM      3  C   LIG d   1       8.641  -4.024  -4.271  0.00  0.00     0.013 A 
ATOM      4  C   LIG d   1       8.744  -5.356  -3.977  0.00  0.00    -0.042 A 
ATOM      5  C   LIG d   1       9.990  -5.984  -4.006  0.00  0.00     0.026 A 
ATOM      6  C   LIG d   1      10.121  -7.417  -3.687  0.00  0.00    -0.000 A 
ATOM      7  C   LIG d   1      11.391  -7.967  -3.742  0.00  0.00     0.031 A 
ATOM      8  C   LIG d   1      12.477  -7.152  -4.095  0.00  0.00     0.338 A 
ATOM      9  O   LIG d   1      13.587  -7.651  -4.139  0.00  0.00    -0.245 OA
ATOM     10  O   LIG d   1      12.348  -5.853  -4.384  0.00  0.00    -0.422 OA
ATOM     11  C   LIG d   1      11.141  -5.255  -4.347  0.00  0.00     0.146 A 
ATOM     12  C   LIG d   1      11.019  -3.907  -4.648  0.00  0.00     0.035 A 
ATOM     13  C   LIG d   1       9.775  -3.294  -4.609  0.00  0.00     0.134 A 
ATOM     14  O   LIG d   1       9.684  -1.970  -4.904  0.00  0.00    -0.473 OA
ATOM     15  C   LIG d   1       8.385  -1.458  -5.209  0.00  0.00     0.157 C 
ATOM     16  H   LIG d   1       6.723  -3.632  -5.125  0.00  0.00     0.051 H 
ATOM     17  H   LIG d   1       6.742  -3.708  -3.348  0.00  0.00     0.051 H 
ATOM     18  H   LIG d   1       7.860  -5.921  -3.717  0.00  0.00     0.063 H 
ATOM     19  H   LIG d   1      11.543  -9.011  -3.516  0.00  0.00     0.070 H 
ATOM     20  H   LIG d   1       8.062  -1.833  -6.180  0.00  0.00     0.091 H 
ATOM     21  H   LIG d   1       8.414  -0.368  -5.229  0.00  0.00     0.091 H 
ENDROOT
BRANCH   1  22
ATOM     22  C   LIG d   1       6.215  -1.261  -4.291  0.00  0.00     0.033 A 
ATOM     23  C   LIG d   1       5.486  -1.369  -5.469  0.00  0.00    -0.040 A 
ATOM     24  C   LIG d   1       4.268  -0.729  -5.586  0.00  0.00    -0.057 A 
ATOM     25  H   LIG d   1       5.872  -1.952  -6.291  0.00  0.00     0.064 H 
ATOM     26  C   LIG d   1       3.773   0.017  -4.533  0.00  0.00    -0.047 A 
ATOM     27  H   LIG d   1       3.701  -0.812  -6.501  0.00  0.00     0.062 H 
ATOM     28  C   LIG d   1       4.495   0.126  -3.359  0.00  0.00    -0.046 A 
ATOM     29  C   LIG d   1       5.712  -0.515  -3.232  0.00  0.00    -0.037 A 
ATOM     30  H   LIG d   1       6.274  -0.432  -2.314  0.00  0.00     0.064 H 
BRANCH  26  31
ATOM     31  C   LIG d   1       2.443   0.714  -4.664  0.00  0.00    -0.040 C 
ATOM     32  H   LIG d   1       2.418   1.277  -5.598  0.00  0.00     0.028 H 
ATOM     33  H   LIG d   1       1.643  -0.027  -4.666  0.00  0.00     0.028 H 
ATOM     34  H   LIG d   1       2.305   1.396  -3.825  0.00  0.00     0.028 H 
ENDBRANCH  26  31
BRANCH  28  35
ATOM     35  C   LIG d   1       3.952   0.941  -2.213  0.00  0.00    -0.039 C 
ATOM     36  H   LIG d   1       4.199   0.453  -1.270  0.00  0.00     0.028 H 
ATOM     37  H   LIG d   1       4.393   1.938  -2.234  0.00  0.00     0.028 H 
ATOM     38  H   LIG d   1       2.869   1.022  -2.307  0.00  0.00     0.028 H 
ENDBRANCH  28  35
ENDBRANCH   1  22
BRANCH  12  39
ATOM     39  C   LIG d   1      12.241  -3.106  -5.018  0.00  0.00    -0.033 C 
ATOM     40  H   LIG d   1      12.147  -2.752  -6.045  0.00  0.00     0.028 H 
ATOM     41  H   LIG d   1      12.332  -2.252  -4.347  0.00  0.00     0.028 H 
ATOM     42  H   LIG d   1      13.128  -3.734  -4.929  0.00  0.00     0.028 H 
ENDBRANCH  12  39
BRANCH   6  43
ATOM     43  C   LIG d   1       8.946  -8.234  -3.319  0.00  0.00    -0.017 A 
ATOM     44  C   LIG d   1       8.068  -8.682  -4.309  0.00  0.00    -0.051 A 
ATOM     45  C   LIG d   1       6.973  -9.443  -3.963  0.00  0.00    -0.019 A 
ATOM     46  H   LIG d   1       8.247  -8.433  -5.345  0.00  0.00     0.062 H 
ATOM     47  C   LIG d   1       6.742  -9.766  -2.631  0.00  0.00     0.120 A 
ATOM     48  H   LIG d   1       6.294  -9.790  -4.727  0.00  0.00     0.065 H 
ATOM     49  C   LIG d   1       7.613  -9.321  -1.643  0.00  0.00    -0.019 A 
ATOM     50  C   LIG d   1       8.713  -8.565  -1.983  0.00  0.00    -0.051 A 
ATOM     51  H   LIG d   1       7.430  -9.575  -0.609  0.00  0.00     0.065 H 
ATOM     52  H   LIG d   1       9.392  -8.224  -1.215  0.00  0.00     0.062 H 
BRANCH  47  53
ATOM     53  O   LIG d   1       5.663 -10.517  -2.293  0.00  0.00    -0.495 OA
BRANCH  53  54
ATOM     54  C   LIG d   1       4.478 -10.338  -3.073  0.00  0.00     0.079 C 
ATOM     55  H   LIG d   1       3.804  -9.654  -2.558  0.00  0.00     0.066 H 
ATOM     56  H   LIG d   1       4.743  -9.924  -4.045  0.00  0.00     0.066 H 
ATOM     57  H   LIG d   1       3.985 -11.300  -3.209  0.00  0.00     0.066 H 
ENDBRANCH  53  54
ENDBRANCH  47  53
ENDBRANCH   6  43
TORSDOF 7
ENDMDL
MODEL 7
REMARK VINA RESULT:      -6.1      3.751      7.150
REMARK  7 active torsions:
REMARK  status: ('A' for Active; 'I' for Inactive)
REMARK    1  A    between atoms: C_1  and  C_2 
REMARK    2  A    between atoms: C_5  and  N_9 
REMARK    3  A    between atoms: C_7  and  C_8 
REMARK    4  A    between atoms: C_14  and  C_25 
REMARK    5  A    between atoms: C_20  and  C_24 
REMARK    6  A    between atoms: C_28  and  O_31 
REMARK    7  A    between atoms: O_31  and  C_32 
ROOT
ATOM      1  N   LIG d   1      10.260   4.656  -4.213  0.00  0.00    -0.293 NA
ATOM      2  C   LIG d   1       9.848   6.066  -4.173  0.00  0.00     0.044 C 
ATOM      3  C   LIG d   1      10.230   6.667  -2.844  0.00  0.00     0.013 A 
ATOM      4  C   LIG d   1      10.268   8.028  -2.715  0.00  0.00    -0.042 A 
ATOM      5  C   LIG d   1      10.624   8.605  -1.494  0.00  0.00     0.026 A 
ATOM      6  C   LIG d   1      10.676  10.069  -1.338  0.00  0.00    -0.000 A 
ATOM      7  C   LIG d   1      11.032  10.563  -0.094  0.00  0.00     0.031 A 
ATOM      8  C   LIG d   1      11.322   9.665   0.944  0.00  0.00     0.338 A 
ATOM      9  O   LIG d   1      11.634  10.116   2.032  0.00  0.00    -0.245 OA
ATOM     10  O   LIG d   1      11.271   8.338   0.793  0.00  0.00    -0.422 OA
ATOM     11  C   LIG d   1      10.933   7.792  -0.392  0.00  0.00     0.146 A 
ATOM     12  C   LIG d   1      10.884   6.413  -0.537  0.00  0.00     0.035 A 
ATOM     13  C   LIG d   1      10.535   5.853  -1.757  0.00  0.00     0.134 A 
ATOM     14  O   LIG d   1      10.500   4.499  -1.874  0.00  0.00    -0.473 OA
ATOM     15  C   LIG d   1       9.802   3.960  -2.999  0.00  0.00     0.157 C 
ATOM     16  H   LIG d   1       8.767   6.133  -4.305  0.00  0.00     0.051 H 
ATOM     17  H   LIG d   1      10.345   6.612  -4.975  0.00  0.00     0.051 H 
ATOM     18  H   LIG d   1      10.027   8.657  -3.559  0.00  0.00     0.063 H 
ATOM     19  H   LIG d   1      11.087  11.628   0.074  0.00  0.00     0.070 H 
ATOM     20  H   LIG d   1       8.731   4.111  -2.873  0.00  0.00     0.091 H 
ATOM     21  H   LIG d   1      10.014   2.893  -3.088  0.00  0.00     0.091 H 
ENDROOT
BRANCH   1  22
ATOM     22  C   LIG d   1       9.778   4.027  -5.363  0.00  0.00     0.033 A 
ATOM     23  C   LIG d   1       9.137   2.798  -5.269  0.00  0.00    -0.040 A 
ATOM     24  C   LIG d   1       8.661   2.180  -6.408  0.00  0.00    -0.057 A 
ATOM     25  H   LIG d   1       9.010   2.327  -4.305  0.00  0.00     0.064 H 
ATOM     26  C   LIG d   1       8.822   2.782  -7.642  0.00  0.00    -0.047 A 
ATOM     27  H   LIG d   1       8.163   1.225  -6.335  0.00  0.00     0.062 H 
ATOM     28  C   LIG d   1       9.460   4.005  -7.740  0.00  0.00    -0.046 A 
ATOM     29  C   LIG d   1       9.934   4.632  -6.604  0.00  0.00    -0.037 A 
ATOM     30  H   LIG d   1      10.428   5.589  -6.681  0.00  0.00     0.064 H 
BRANCH  26  31
ATOM     31  C   LIG d   1       8.302   2.105  -8.884  0.00  0.00    -0.040 C 
ATOM     32  H   LIG d   1       8.138   2.851  -9.663  0.00  0.00     0.028 H 
ATOM     33  H   LIG d   1       9.029   1.371  -9.230  0.00  0.00     0.028 H 
ATOM     34  H   LIG d   1       7.360   1.605  -8.657  0.00  0.00     0.028 H 
ENDBRANCH  26  31
BRANCH  28  35
ATOM     35  C   LIG d   1       9.633   4.659  -9.087  0.00  0.00    -0.039 C 
ATOM     36  H   LIG d   1      10.572   5.212  -9.105  0.00  0.00     0.028 H 
ATOM     37  H   LIG d   1       9.646   3.894  -9.863  0.00  0.00     0.028 H 
ATOM     38  H   LIG d   1       8.805   5.344  -9.268  0.00  0.00     0.028 H 
ENDBRANCH  28  35
ENDBRANCH   1  22
BRANCH  12  39
ATOM     39  C   LIG d   1      11.211   5.521   0.633  0.00  0.00    -0.033 C 
ATOM     40  H   LIG d   1      11.751   4.642   0.282  0.00  0.00     0.028 H 
ATOM     41  H   LIG d   1      11.830   6.068   1.344  0.00  0.00     0.028 H 
ATOM     42  H   LIG d   1      10.287   5.209   1.121  0.00  0.00     0.028 H 
ENDBRANCH  12  39
BRANCH   6  43
ATOM     43  C   LIG d   1      10.362  10.974  -2.462  0.00  0.00    -0.017 A 
ATOM     44  C   LIG d   1       9.045  11.382  -2.687  0.00  0.00    -0.051 A 
ATOM     45  C   LIG d   1       8.757  12.226  -3.737  0.00  0.00    -0.019 A 
ATOM     46  H   LIG d   1       8.254  11.038  -2.038  0.00  0.00     0.062 H 
ATOM     47  C   LIG d   1       9.774  12.672  -4.573  0.00  0.00     0.120 A 
ATOM     48  H   LIG d   1       7.739  12.541  -3.911  0.00  0.00     0.065 H 
ATOM     49  C   LIG d   1      11.086  12.268  -4.353  0.00  0.00    -0.019 A 
ATOM     50  C   LIG d   1      11.382  11.429  -3.301  0.00  0.00    -0.051 A 
ATOM     51  H   LIG d   1      11.873  12.617  -5.004  0.00  0.00     0.065 H 
ATOM     52  H   LIG d   1      12.403  11.119  -3.128  0.00  0.00     0.062 H 
BRANCH  47  53
ATOM     53  O   LIG d   1       9.487  13.504  -5.605  0.00  0.00    -0.495 OA
BRANCH  53  54
ATOM     54  C   LIG d   1       9.547  12.950  -6.922  0.00  0.00     0.079 C 
ATOM     55  H   LIG d   1       8.677  13.274  -7.492  0.00  0.00     0.066 H 
ATOM     56  H   LIG d   1      10.455  13.293  -7.418  0.00  0.00     0.066 H 
ATOM     57  H   LIG d   1       9.556  11.863  -6.858  0.00  0.00     0.066 H 
ENDBRANCH  53  54
ENDBRANCH  47  53
ENDBRANCH   6  43
TORSDOF 7
ENDMDL
MODEL 8
REMARK VINA RESULT:      -6.1      3.559      8.633
REMARK  7 active torsions:
REMARK  status: ('A' for Active; 'I' for Inactive)
REMARK    1  A    between atoms: C_1  and  C_2 
REMARK    2  A    between atoms: C_5  and  N_9 
REMARK    3  A    between atoms: C_7  and  C_8 
REMARK    4  A    between atoms: C_14  and  C_25 
REMARK    5  A    between atoms: C_20  and  C_24 
REMARK    6  A    between atoms: C_28  and  O_31 
REMARK    7  A    between atoms: O_31  and  C_32 
ROOT
ATOM      1  N   LIG d   1      10.049   6.894  -1.663  0.00  0.00    -0.293 NA
ATOM      2  C   LIG d   1      10.522   7.152  -3.030  0.00  0.00     0.044 C 
ATOM      3  C   LIG d   1      10.175   5.981  -3.915  0.00  0.00     0.013 A 
ATOM      4  C   LIG d   1      10.198   6.143  -5.273  0.00  0.00    -0.042 A 
ATOM      5  C   LIG d   1       9.876   5.073  -6.110  0.00  0.00     0.026 A 
ATOM      6  C   LIG d   1       9.889   5.230  -7.575  0.00  0.00    -0.000 A 
ATOM      7  C   LIG d   1       9.563   4.121  -8.336  0.00  0.00     0.031 A 
ATOM      8  C   LIG d   1       9.241   2.917  -7.692  0.00  0.00     0.338 A 
ATOM      9  O   LIG d   1       8.957   1.950  -8.376  0.00  0.00    -0.245 OA
ATOM     10  O   LIG d   1       9.233   2.784  -6.362  0.00  0.00    -0.422 OA
ATOM     11  C   LIG d   1       9.539   3.824  -5.563  0.00  0.00     0.146 A 
ATOM     12  C   LIG d   1       9.526   3.674  -4.184  0.00  0.00     0.035 A 
ATOM     13  C   LIG d   1       9.842   4.748  -3.363  0.00  0.00     0.134 A 
ATOM     14  O   LIG d   1       9.817   4.575  -2.015  0.00  0.00    -0.473 OA
ATOM     15  C   LIG d   1      10.483   5.559  -1.220  0.00  0.00     0.157 C 
ATOM     16  H   LIG d   1      11.604   7.292  -3.020  0.00  0.00     0.051 H 
ATOM     17  H   LIG d   1      10.044   8.052  -3.415  0.00  0.00     0.051 H 
ATOM     18  H   LIG d   1      10.460   7.101  -5.697  0.00  0.00     0.063 H 
ATOM     19  H   LIG d   1       9.556   4.181  -9.414  0.00  0.00     0.070 H 
ATOM     20  H   LIG d   1      11.561   5.464  -1.347  0.00  0.00     0.091 H 
ATOM     21  H   LIG d   1      10.225   5.420  -0.170  0.00  0.00     0.091 H 
ENDROOT
BRANCH   1  22
ATOM     22  C   LIG d   1      10.495   7.883  -0.784  0.00  0.00     0.033 A 
ATOM     23  C   LIG d   1      11.141   7.530   0.394  0.00  0.00    -0.040 A 
ATOM     24  C   LIG d   1      11.581   8.511   1.259  0.00  0.00    -0.057 A 
ATOM     25  H   LIG d   1      11.299   6.488   0.631  0.00  0.00     0.064 H 
ATOM     26  C   LIG d   1      11.379   9.844   0.955  0.00  0.00    -0.047 A 
ATOM     27  H   LIG d   1      12.083   8.237   2.175  0.00  0.00     0.062 H 
ATOM     28  C   LIG d   1      10.737  10.200  -0.216  0.00  0.00    -0.046 A 
ATOM     29  C   LIG d   1      10.298   9.224  -1.090  0.00  0.00    -0.037 A 
ATOM     30  H   LIG d   1       9.800   9.503  -2.006  0.00  0.00     0.064 H 
BRANCH  26  31
ATOM     31  C   LIG d   1      11.862  10.913   1.902  0.00  0.00    -0.040 C 
ATOM     32  H   LIG d   1      11.918  11.866   1.375  0.00  0.00     0.028 H 
ATOM     33  H   LIG d   1      11.166  11.000   2.737  0.00  0.00     0.028 H 
ATOM     34  H   LIG d   1      12.850  10.647   2.277  0.00  0.00     0.028 H 
ENDBRANCH  26  31
BRANCH  28  35
ATOM     35  C   LIG d   1      10.519  11.655  -0.544  0.00  0.00    -0.039 C 
ATOM     36  H   LIG d   1      10.916  11.868  -1.537  0.00  0.00     0.028 H 
ATOM     37  H   LIG d   1       9.452  11.877  -0.523  0.00  0.00     0.028 H 
ATOM     38  H   LIG d   1      11.033  12.274   0.192  0.00  0.00     0.028 H 
ENDBRANCH  28  35
ENDBRANCH   1  22
BRANCH  12  39
ATOM     39  C   LIG d   1       9.168   2.343  -3.576  0.00  0.00    -0.033 C 
ATOM     40  H   LIG d   1      10.026   1.951  -3.028  0.00  0.00     0.028 H 
ATOM     41  H   LIG d   1       8.328   2.469  -2.893  0.00  0.00     0.028 H 
ATOM     42  H   LIG d   1       8.893   1.645  -4.366  0.00  0.00     0.028 H 
ENDBRANCH  12  39
BRANCH   6  43
ATOM     43  C   LIG d   1      10.235   6.520  -8.207  0.00  0.00    -0.017 A 
ATOM     44  C   LIG d   1      11.539   6.759  -8.646  0.00  0.00    -0.051 A 
ATOM     45  C   LIG d   1      11.858   7.962  -9.234  0.00  0.00    -0.019 A 
ATOM     46  H   LIG d   1      12.298   5.999  -8.525  0.00  0.00     0.062 H 
ATOM     47  C   LIG d   1      10.883   8.940  -9.392  0.00  0.00     0.120 A 
ATOM     48  H   LIG d   1      12.866   8.147  -9.573  0.00  0.00     0.065 H 
ATOM     49  C   LIG d   1       9.583   8.708  -8.956  0.00  0.00    -0.019 A 
ATOM     50  C   LIG d   1       9.257   7.504  -8.372  0.00  0.00    -0.051 A 
ATOM     51  H   LIG d   1       8.829   9.470  -9.081  0.00  0.00     0.065 H 
ATOM     52  H   LIG d   1       8.246   7.322  -8.038  0.00  0.00     0.062 H 
BRANCH  47  53
ATOM     53  O   LIG d   1      11.200  10.125  -9.973  0.00  0.00    -0.495 OA
BRANCH  53  54
ATOM     54  C   LIG d   1      12.281  10.862  -9.398  0.00  0.00     0.079 C 
ATOM     55  H   LIG d   1      12.895  10.194  -8.792  0.00  0.00     0.066 H 
ATOM     56  H   LIG d   1      12.889  11.294 -10.192  0.00  0.00     0.066 H 
ATOM     57  H   LIG d   1      11.883  11.659  -8.770  0.00  0.00     0.066 H 
ENDBRANCH  53  54
ENDBRANCH  47  53
ENDBRANCH   6  43
TORSDOF 7
ENDMDL
MODEL 9
REMARK VINA RESULT:      -6.1      3.320      8.050
REMARK  7 active torsions:
REMARK  status: ('A' for Active; 'I' for Inactive)
REMARK    1  A    between atoms: C_1  and  C_2 
REMARK    2  A    between atoms: C_5  and  N_9 
REMARK    3  A    between atoms: C_7  and  C_8 
REMARK    4  A    between atoms: C_14  and  C_25 
REMARK    5  A    between atoms: C_20  and  C_24 
REMARK    6  A    between atoms: C_28  and  O_31 
REMARK    7  A    between atoms: O_31  and  C_32 
ROOT
ATOM      1  N   LIG d   1       9.803   5.401  -2.574  0.00  0.00    -0.293 NA
ATOM      2  C   LIG d   1      10.316   5.874  -3.867  0.00  0.00     0.044 C 
ATOM      3  C   LIG d   1       9.969   4.877  -4.944  0.00  0.00     0.013 A 
ATOM      4  C   LIG d   1      10.029   5.264  -6.254  0.00  0.00    -0.042 A 
ATOM      5  C   LIG d   1       9.709   4.358  -7.266  0.00  0.00     0.026 A 
ATOM      6  C   LIG d   1       9.763   4.759  -8.683  0.00  0.00    -0.000 A 
ATOM      7  C   LIG d   1       9.435   3.800  -9.628  0.00  0.00     0.031 A 
ATOM      8  C   LIG d   1       9.074   2.513  -9.203  0.00  0.00     0.338 A 
ATOM      9  O   LIG d   1       8.789   1.682 -10.046  0.00  0.00    -0.245 OA
ATOM     10  O   LIG d   1       9.030   2.159  -7.915  0.00  0.00    -0.422 OA
ATOM     11  C   LIG d   1       9.335   3.043  -6.945  0.00  0.00     0.146 A 
ATOM     12  C   LIG d   1       9.284   2.664  -5.612  0.00  0.00     0.035 A 
ATOM     13  C   LIG d   1       9.599   3.576  -4.616  0.00  0.00     0.134 A 
ATOM     14  O   LIG d   1       9.537   3.180  -3.317  0.00  0.00    -0.473 OA
ATOM     15  C   LIG d   1      10.201   4.001  -2.353  0.00  0.00     0.157 C 
ATOM     16  H   LIG d   1      11.399   5.986  -3.810  0.00  0.00     0.051 H 
ATOM     17  H   LIG d   1       9.865   6.837  -4.105  0.00  0.00     0.051 H 
ATOM     18  H   LIG d   1      10.321   6.274  -6.505  0.00  0.00     0.063 H 
ATOM     19  H   LIG d   1       9.457   4.042 -10.680  0.00  0.00     0.070 H 
ATOM     20  H   LIG d   1      11.280   3.904  -2.470  0.00  0.00     0.091 H 
ATOM     21  H   LIG d   1       9.913   3.694  -1.346  0.00  0.00     0.091 H 
ENDROOT
BRANCH   1  22
ATOM     22  C   LIG d   1      10.245   6.218  -1.531  0.00  0.00     0.033 A 
ATOM     23  C   LIG d   1      11.110   5.713  -0.569  0.00  0.00    -0.040 A 
ATOM     24  C   LIG d   1      11.546   6.525   0.460  0.00  0.00    -0.057 A 
ATOM     25  H   LIG d   1      11.443   4.687  -0.626  0.00  0.00     0.064 H 
ATOM     26  C   LIG d   1      11.122   7.839   0.533  0.00  0.00    -0.047 A 
ATOM     27  H   LIG d   1      12.218   6.133   1.208  0.00  0.00     0.062 H 
ATOM     28  C   LIG d   1      10.260   8.344  -0.423  0.00  0.00    -0.046 A 
ATOM     29  C   LIG d   1       9.825   7.540  -1.458  0.00  0.00    -0.037 A 
ATOM     30  H   LIG d   1       9.155   7.937  -2.206  0.00  0.00     0.064 H 
BRANCH  26  31
ATOM     31  C   LIG d   1      11.599   8.722   1.657  0.00  0.00    -0.040 C 
ATOM     32  H   LIG d   1      12.678   8.612   1.772  0.00  0.00     0.028 H 
ATOM     33  H   LIG d   1      11.363   9.761   1.428  0.00  0.00     0.028 H 
ATOM     34  H   LIG d   1      11.104   8.431   2.583  0.00  0.00     0.028 H 
ENDBRANCH  26  31
BRANCH  28  35
ATOM     35  C   LIG d   1       9.801   9.777  -0.340  0.00  0.00    -0.039 C 
ATOM     36  H   LIG d   1      10.510  10.419  -0.864  0.00  0.00     0.028 H 
ATOM     37  H   LIG d   1       8.817   9.871  -0.801  0.00  0.00     0.028 H 
ATOM     38  H   LIG d   1       9.742  10.080   0.706  0.00  0.00     0.028 H 
ENDBRANCH  28  35
ENDBRANCH   1  22
BRANCH  12  39
ATOM     39  C   LIG d   1       8.886   1.258  -5.245  0.00  0.00    -0.033 C 
ATOM     40  H   LIG d   1       8.760   1.185  -4.164  0.00  0.00     0.028 H 
ATOM     41  H   LIG d   1       7.947   1.005  -5.738  0.00  0.00     0.028 H 
ATOM     42  H   LIG d   1       9.663   0.564  -5.567  0.00  0.00     0.028 H 
ENDBRANCH  12  39
BRANCH   6  43
ATOM     43  C   LIG d   1      10.148   6.128  -9.082  0.00  0.00    -0.017 A 
ATOM     44  C   LIG d   1       9.248   7.184  -8.920  0.00  0.00    -0.051 A 
ATOM     45  C   LIG d   1       9.611   8.460  -9.293  0.00  0.00    -0.019 A 
ATOM     46  H   LIG d   1       8.269   7.001  -8.502  0.00  0.00     0.062 H 
ATOM     47  C   LIG d   1      10.871   8.697  -9.829  0.00  0.00     0.120 A 
ATOM     48  H   LIG d   1       8.915   9.276  -9.168  0.00  0.00     0.065 H 
ATOM     49  C   LIG d   1      11.769   7.649  -9.992  0.00  0.00    -0.019 A 
ATOM     50  C   LIG d   1      11.415   6.372  -9.616  0.00  0.00    -0.051 A 
ATOM     51  H   LIG d   1      12.747   7.838 -10.409  0.00  0.00     0.065 H 
ATOM     52  H   LIG d   1      12.116   5.559  -9.739  0.00  0.00     0.062 H 
BRANCH  47  53
ATOM     53  O   LIG d   1      11.225   9.955 -10.194  0.00  0.00    -0.495 OA
BRANCH  53  54
ATOM     54  C   LIG d   1      11.862  10.107 -11.465  0.00  0.00     0.079 C 
ATOM     55  H   LIG d   1      12.651  10.856 -11.389  0.00  0.00     0.066 H 
ATOM     56  H   LIG d   1      12.293   9.155 -11.771  0.00  0.00     0.066 H 
ATOM     57  H   LIG d   1      11.127  10.427 -12.203  0.00  0.00     0.066 H 
ENDBRANCH  53  54
ENDBRANCH  47  53
ENDBRANCH   6  43
TORSDOF 7
ENDMDL
