MODEL 1
REMARK VINA RESULT:      -6.2      0.000      0.000
REMARK  9 active torsions:
REMARK  status: ('A' for Active; 'I' for Inactive)
REMARK    1  A    between atoms: C_1  and  O_2 
REMARK    2  A    between atoms: O_2  and  C_3 
REMARK    3  A    between atoms: C_3  and  C_4 
REMARK    4  A    between atoms: C_4  and  N_5 
REMARK    5  A    between atoms: N_5  and  C_6 
REMARK    6  A    between atoms: C_9  and  C_12 
REMARK    7  A    between atoms: C_14  and  C_17 
REMARK    8  A    between atoms: N_22  and  C_23 
REMARK    9  A    between atoms: C_23  and  C_24 
ROOT
ATOM      1  C   LIG d   1       8.042   1.613  -3.892  0.00  0.00     0.204 A 
ATOM      2  N   LIG d   1       6.767   1.640  -3.463  0.00  0.00    -0.186 NA
ATOM      3  C   LIG d   1       6.263   0.441  -3.490  0.00  0.00     0.276 A 
ATOM      4  O   LIG d   1       7.199  -0.406  -3.938  0.00  0.00    -0.332 OA
ATOM      5  N   LIG d   1       8.354   0.378  -4.201  0.00  0.00    -0.056 NA
ENDROOT
BRANCH   3   6
ATOM      6  C   LIG d   1       4.860   0.066  -3.083  0.00  0.00     0.060 C 
ATOM      7  H   LIG d   1       4.335   0.945  -2.707  0.00  0.00     0.095 H 
ATOM      8  N   LIG d   1       4.137  -0.495  -4.238  0.00  0.00     0.247 N 
ATOM      9  C   LIG d   1       3.756  -1.890  -3.919  0.00  0.00    -0.031 C 
ATOM     10  H   LIG d   1       3.308   0.052  -4.418  0.00  0.00     0.204 HD
ATOM     11  C   LIG d   1       3.713  -1.945  -2.370  0.00  0.00    -0.007 C 
ATOM     12  H   LIG d   1       4.503  -2.586  -4.302  0.00  0.00     0.082 H 
ATOM     13  H   LIG d   1       2.774  -2.120  -4.334  0.00  0.00     0.082 H 
ATOM     14  C   LIG d   1       4.904  -1.025  -1.992  0.00  0.00     0.004 C 
ATOM     15  H   LIG d   1       3.875  -2.962  -2.011  0.00  0.00     0.032 H 
ATOM     16  H   LIG d   1       2.774  -1.543  -1.992  0.00  0.00     0.032 H 
ATOM     17  H   LIG d   1       5.844  -1.575  -2.034  0.00  0.00     0.033 H 
ATOM     18  H   LIG d   1       4.755  -0.589  -1.004  0.00  0.00     0.033 H 
BRANCH   8  19
ATOM     19  C   LIG d   1       5.005  -0.477  -5.422  0.00  0.00    -0.005 C 
ATOM     20  H   LIG d   1       5.472   0.504  -5.515  0.00  0.00     0.087 H 
ATOM     21  H   LIG d   1       5.777  -1.239  -5.317  0.00  0.00     0.087 H 
BRANCH  19  22
ATOM     22  C   LIG d   1       4.183  -0.759  -6.653  0.00  0.00    -0.000 A 
ATOM     23  C   LIG d   1       4.452  -1.861  -7.451  0.00  0.00    -0.035 A 
ATOM     24  C   LIG d   1       3.673  -2.090  -8.569  0.00  0.00     0.028 A 
ATOM     25  H   LIG d   1       5.259  -2.534  -7.199  0.00  0.00     0.064 H 
ATOM     26  N   LIG d   1       2.691  -1.269  -8.886  0.00  0.00    -0.263 NA
ATOM     27  H   LIG d   1       3.873  -2.949  -9.193  0.00  0.00     0.083 H 
ATOM     28  C   LIG d   1       2.410  -0.208  -8.155  0.00  0.00     0.028 A 
ATOM     29  C   LIG d   1       3.142   0.082  -7.019  0.00  0.00    -0.035 A 
ATOM     30  H   LIG d   1       1.598   0.441  -8.446  0.00  0.00     0.083 H 
ATOM     31  H   LIG d   1       2.907   0.952  -6.423  0.00  0.00     0.064 H 
ENDBRANCH  19  22
ENDBRANCH   8  19
ENDBRANCH   3   6
BRANCH   1  32
ATOM     32  C   LIG d   1       8.944   2.786  -4.002  0.00  0.00     0.041 A 
ATOM     33  C   LIG d   1       8.841   3.659  -5.092  0.00  0.00    -0.046 A 
ATOM     34  C   LIG d   1       9.700   4.738  -5.152  0.00  0.00    -0.021 A 
ATOM     35  H   LIG d   1       8.108   3.492  -5.867  0.00  0.00     0.063 H 
ATOM     36  C   LIG d   1      10.633   4.921  -4.134  0.00  0.00     0.119 A 
ATOM     37  H   LIG d   1       9.649   5.432  -5.978  0.00  0.00     0.065 H 
ATOM     38  N   LIG d   1      10.706   4.073  -3.119  0.00  0.00    -0.240 NA
ATOM     39  C   LIG d   1       9.901   3.034  -3.023  0.00  0.00     0.041 A 
ATOM     40  H   LIG d   1       9.988   2.368  -2.179  0.00  0.00     0.084 H 
BRANCH  36  41
ATOM     41  N   LIG d   1      11.500   6.003  -4.187  0.00  0.00    -0.327 N 
ATOM     42  H   LIG d   1      12.064   6.136  -4.965  0.00  0.00     0.147 HD
BRANCH  41  43
ATOM     43  C   LIG d   1      11.565   6.946  -3.068  0.00  0.00     0.034 C 
ATOM     44  H   LIG d   1      12.373   7.657  -3.237  0.00  0.00     0.048 H 
ATOM     45  H   LIG d   1      11.750   6.400  -2.143  0.00  0.00     0.048 H 
BRANCH  43  46
ATOM     46  C   LIG d   1      10.238   7.700  -2.957  0.00  0.00     0.063 C 
ATOM     47  H   LIG d   1       9.643   7.520  -3.853  0.00  0.00     0.058 H 
ATOM     48  H   LIG d   1      10.434   8.768  -2.859  0.00  0.00     0.058 H 
BRANCH  46  49
ATOM     49  O   LIG d   1       9.522   7.239  -1.810  0.00  0.00    -0.381 OA
BRANCH  49  50
ATOM     50  C   LIG d   1      10.359   6.834  -0.725  0.00  0.00     0.036 C 
ATOM     51  H   LIG d   1      10.880   7.703  -0.325  0.00  0.00     0.052 H 
ATOM     52  H   LIG d   1       9.747   6.385   0.058  0.00  0.00     0.052 H 
ATOM     53  H   LIG d   1      11.086   6.105  -1.080  0.00  0.00     0.052 H 
ENDBRANCH  49  50
ENDBRANCH  46  49
ENDBRANCH  43  46
ENDBRANCH  41  43
ENDBRANCH  36  41
ENDBRANCH   1  32
TORSDOF 9
ENDMDL
MODEL 2
REMARK VINA RESULT:      -6.1      5.442      9.817
REMARK  9 active torsions:
REMARK  status: ('A' for Active; 'I' for Inactive)
REMARK    1  A    between atoms: C_1  and  O_2 
REMARK    2  A    between atoms: O_2  and  C_3 
REMARK    3  A    between atoms: C_3  and  C_4 
REMARK    4  A    between atoms: C_4  and  N_5 
REMARK    5  A    between atoms: N_5  and  C_6 
REMARK    6  A    between atoms: C_9  and  C_12 
REMARK    7  A    between atoms: C_14  and  C_17 
REMARK    8  A    between atoms: N_22  and  C_23 
REMARK    9  A    between atoms: C_23  and  C_24 
ROOT
ATOM      1  C   LIG d   1       5.865  -3.649  -5.542  0.00  0.00     0.204 A 
ATOM      2  N   LIG d   1       5.097  -2.802  -4.833  0.00  0.00    -0.186 NA
ATOM      3  C   LIG d   1       5.592  -1.599  -4.887  0.00  0.00     0.276 A 
ATOM      4  O   LIG d   1       6.702  -1.629  -5.636  0.00  0.00    -0.332 OA
ATOM      5  N   LIG d   1       6.868  -2.977  -6.052  0.00  0.00    -0.056 NA
ENDROOT
BRANCH   3   6
ATOM      6  C   LIG d   1       5.014  -0.378  -4.219  0.00  0.00     0.060 C 
ATOM      7  H   LIG d   1       5.806   0.343  -4.014  0.00  0.00     0.095 H 
ATOM      8  N   LIG d   1       3.993   0.233  -5.089  0.00  0.00     0.247 N 
ATOM      9  C   LIG d   1       2.693   0.200  -4.379  0.00  0.00    -0.031 C 
ATOM     10  H   LIG d   1       4.247   1.188  -5.292  0.00  0.00     0.204 HD
ATOM     11  C   LIG d   1       3.065   0.136  -2.876  0.00  0.00    -0.007 C 
ATOM     12  H   LIG d   1       2.123  -0.683  -4.667  0.00  0.00     0.082 H 
ATOM     13  H   LIG d   1       2.123   1.106  -4.590  0.00  0.00     0.082 H 
ATOM     14  C   LIG d   1       4.316  -0.780  -2.902  0.00  0.00     0.004 C 
ATOM     15  H   LIG d   1       2.261  -0.318  -2.294  0.00  0.00     0.032 H 
ATOM     16  H   LIG d   1       3.313   1.125  -2.493  0.00  0.00     0.032 H 
ATOM     17  H   LIG d   1       4.025  -1.831  -2.926  0.00  0.00     0.033 H 
ATOM     18  H   LIG d   1       4.961  -0.578  -2.047  0.00  0.00     0.033 H 
BRANCH   8  19
ATOM     19  C   LIG d   1       3.891  -0.527  -6.342  0.00  0.00    -0.005 C 
ATOM     20  H   LIG d   1       4.688  -1.271  -6.381  0.00  0.00     0.087 H 
ATOM     21  H   LIG d   1       2.924  -1.028  -6.385  0.00  0.00     0.087 H 
BRANCH  19  22
ATOM     22  C   LIG d   1       4.025   0.412  -7.512  0.00  0.00    -0.000 A 
ATOM     23  C   LIG d   1       5.232   0.545  -8.183  0.00  0.00    -0.035 A 
ATOM     24  C   LIG d   1       5.315   1.413  -9.255  0.00  0.00     0.028 A 
ATOM     25  H   LIG d   1       6.095  -0.025  -7.872  0.00  0.00     0.064 H 
ATOM     26  N   LIG d   1       4.267   2.118  -9.635  0.00  0.00    -0.263 NA
ATOM     27  H   LIG d   1       6.250   1.518  -9.786  0.00  0.00     0.083 H 
ATOM     28  C   LIG d   1       3.106   2.022  -9.017  0.00  0.00     0.028 A 
ATOM     29  C   LIG d   1       2.946   1.171  -7.941  0.00  0.00    -0.035 A 
ATOM     30  H   LIG d   1       2.270   2.615  -9.358  0.00  0.00     0.083 H 
ATOM     31  H   LIG d   1       1.992   1.095  -7.439  0.00  0.00     0.064 H 
ENDBRANCH  19  22
ENDBRANCH   8  19
ENDBRANCH   3   6
BRANCH   1  32
ATOM     32  C   LIG d   1       5.621  -5.102  -5.713  0.00  0.00     0.041 A 
ATOM     33  C   LIG d   1       6.661  -6.022  -5.535  0.00  0.00    -0.046 A 
ATOM     34  C   LIG d   1       6.387  -7.364  -5.703  0.00  0.00    -0.021 A 
ATOM     35  H   LIG d   1       7.654  -5.689  -5.271  0.00  0.00     0.063 H 
ATOM     36  C   LIG d   1       5.095  -7.756  -6.043  0.00  0.00     0.119 A 
ATOM     37  H   LIG d   1       7.165  -8.102  -5.573  0.00  0.00     0.065 H 
ATOM     38  N   LIG d   1       4.134  -6.859  -6.209  0.00  0.00    -0.240 NA
ATOM     39  C   LIG d   1       4.355  -5.569  -6.052  0.00  0.00     0.041 A 
ATOM     40  H   LIG d   1       3.546  -4.868  -6.192  0.00  0.00     0.084 H 
BRANCH  36  41
ATOM     41  N   LIG d   1       4.811  -9.104  -6.214  0.00  0.00    -0.327 N 
ATOM     42  H   LIG d   1       4.423  -9.416  -7.047  0.00  0.00     0.147 HD
BRANCH  41  43
ATOM     43  C   LIG d   1       5.098 -10.056  -5.139  0.00  0.00     0.034 C 
ATOM     44  H   LIG d   1       5.043  -9.545  -4.178  0.00  0.00     0.048 H 
ATOM     45  H   LIG d   1       6.098 -10.467  -5.275  0.00  0.00     0.048 H 
BRANCH  43  46
ATOM     46  C   LIG d   1       4.072 -11.190  -5.173  0.00  0.00     0.063 C 
ATOM     47  H   LIG d   1       4.539 -12.113  -4.828  0.00  0.00     0.058 H 
ATOM     48  H   LIG d   1       3.712 -11.324  -6.193  0.00  0.00     0.058 H 
BRANCH  46  49
ATOM     49  O   LIG d   1       2.973 -10.865  -4.319  0.00  0.00    -0.381 OA
BRANCH  49  50
ATOM     50  C   LIG d   1       3.348 -10.174  -3.127  0.00  0.00     0.036 C 
ATOM     51  H   LIG d   1       2.463 -10.000  -2.514  0.00  0.00     0.052 H 
ATOM     52  H   LIG d   1       4.064 -10.776  -2.567  0.00  0.00     0.052 H 
ATOM     53  H   LIG d   1       3.802  -9.218  -3.388  0.00  0.00     0.052 H 
ENDBRANCH  49  50
ENDBRANCH  46  49
ENDBRANCH  43  46
ENDBRANCH  41  43
ENDBRANCH  36  41
ENDBRANCH   1  32
TORSDOF 9
ENDMDL
MODEL 3
REMARK VINA RESULT:      -6.0      2.535      3.386
REMARK  9 active torsions:
REMARK  status: ('A' for Active; 'I' for Inactive)
REMARK    1  A    between atoms: C_1  and  O_2 
REMARK    2  A    between atoms: O_2  and  C_3 
REMARK    3  A    between atoms: C_3  and  C_4 
REMARK    4  A    between atoms: C_4  and  N_5 
REMARK    5  A    between atoms: N_5  and  C_6 
REMARK    6  A    between atoms: C_9  and  C_12 
REMARK    7  A    between atoms: C_14  and  C_17 
REMARK    8  A    between atoms: N_22  and  C_23 
REMARK    9  A    between atoms: C_23  and  C_24 
ROOT
ATOM      1  C   LIG d   1       8.051   2.044  -4.615  0.00  0.00     0.204 A 
ATOM      2  N   LIG d   1       7.069   1.493  -3.878  0.00  0.00    -0.186 NA
ATOM      3  C   LIG d   1       6.328   0.726  -4.625  0.00  0.00     0.276 A 
ATOM      4  O   LIG d   1       6.808   0.756  -5.875  0.00  0.00    -0.332 OA
ATOM      5  N   LIG d   1       7.931   1.626  -5.851  0.00  0.00    -0.056 NA
ENDROOT
BRANCH   3   6
ATOM      6  C   LIG d   1       5.131  -0.064  -4.161  0.00  0.00     0.060 C 
ATOM      7  H   LIG d   1       4.438  -0.208  -4.991  0.00  0.00     0.095 H 
ATOM      8  N   LIG d   1       5.566  -1.371  -3.637  0.00  0.00     0.247 N 
ATOM      9  C   LIG d   1       5.181  -1.452  -2.208  0.00  0.00    -0.031 C 
ATOM     10  H   LIG d   1       5.115  -2.111  -4.154  0.00  0.00     0.204 HD
ATOM     11  C   LIG d   1       3.995  -0.466  -2.060  0.00  0.00    -0.007 C 
ATOM     12  H   LIG d   1       6.012  -1.145  -1.572  0.00  0.00     0.082 H 
ATOM     13  H   LIG d   1       4.865  -2.466  -1.958  0.00  0.00     0.082 H 
ATOM     14  C   LIG d   1       4.423   0.683  -3.010  0.00  0.00     0.004 C 
ATOM     15  H   LIG d   1       3.909  -0.111  -1.032  0.00  0.00     0.032 H 
ATOM     16  H   LIG d   1       3.065  -0.923  -2.393  0.00  0.00     0.032 H 
ATOM     17  H   LIG d   1       5.114   1.361  -2.509  0.00  0.00     0.033 H 
ATOM     18  H   LIG d   1       3.551   1.223  -3.380  0.00  0.00     0.033 H 
BRANCH   8  19
ATOM     19  C   LIG d   1       7.023  -1.496  -3.765  0.00  0.00    -0.005 C 
ATOM     20  H   LIG d   1       7.383  -0.787  -4.512  0.00  0.00     0.087 H 
ATOM     21  H   LIG d   1       7.492  -1.283  -2.805  0.00  0.00     0.087 H 
BRANCH  19  22
ATOM     22  C   LIG d   1       7.371  -2.897  -4.196  0.00  0.00    -0.000 A 
ATOM     23  C   LIG d   1       6.573  -3.582  -5.099  0.00  0.00    -0.035 A 
ATOM     24  C   LIG d   1       6.929  -4.864  -5.475  0.00  0.00     0.028 A 
ATOM     25  H   LIG d   1       5.687  -3.119  -5.507  0.00  0.00     0.064 H 
ATOM     26  N   LIG d   1       8.005  -5.439  -4.976  0.00  0.00    -0.263 NA
ATOM     27  H   LIG d   1       6.314  -5.403  -6.182  0.00  0.00     0.083 H 
ATOM     28  C   LIG d   1       8.784  -4.820  -4.110  0.00  0.00     0.028 A 
ATOM     29  C   LIG d   1       8.496  -3.535  -3.693  0.00  0.00    -0.035 A 
ATOM     30  H   LIG d   1       9.658  -5.324  -3.724  0.00  0.00     0.083 H 
ATOM     31  H   LIG d   1       9.138  -3.032  -2.984  0.00  0.00     0.064 H 
ENDBRANCH  19  22
ENDBRANCH   8  19
ENDBRANCH   3   6
BRANCH   1  32
ATOM     32  C   LIG d   1       9.091   2.974  -4.113  0.00  0.00     0.041 A 
ATOM     33  C   LIG d   1       9.200   4.268  -4.638  0.00  0.00    -0.046 A 
ATOM     34  C   LIG d   1      10.182   5.098  -4.140  0.00  0.00    -0.021 A 
ATOM     35  H   LIG d   1       8.530   4.607  -5.415  0.00  0.00     0.063 H 
ATOM     36  C   LIG d   1      11.027   4.627  -3.138  0.00  0.00     0.119 A 
ATOM     37  H   LIG d   1      10.295   6.103  -4.521  0.00  0.00     0.065 H 
ATOM     38  N   LIG d   1      10.901   3.396  -2.667  0.00  0.00    -0.240 NA
ATOM     39  C   LIG d   1       9.972   2.574  -3.113  0.00  0.00     0.041 A 
ATOM     40  H   LIG d   1       9.897   1.579  -2.701  0.00  0.00     0.084 H 
BRANCH  36  41
ATOM     41  N   LIG d   1      12.018   5.456  -2.632  0.00  0.00    -0.327 N 
ATOM     42  H   LIG d   1      12.649   5.883  -3.233  0.00  0.00     0.147 HD
BRANCH  41  43
ATOM     43  C   LIG d   1      12.112   5.689  -1.189  0.00  0.00     0.034 C 
ATOM     44  H   LIG d   1      13.118   6.028  -0.940  0.00  0.00     0.048 H 
ATOM     45  H   LIG d   1      11.900   4.761  -0.657  0.00  0.00     0.048 H 
BRANCH  43  46
ATOM     46  C   LIG d   1      11.097   6.756  -0.776  0.00  0.00     0.063 C 
ATOM     47  H   LIG d   1      10.452   6.991  -1.623  0.00  0.00     0.058 H 
ATOM     48  H   LIG d   1      11.624   7.656  -0.459  0.00  0.00     0.058 H 
BRANCH  46  49
ATOM     49  O   LIG d   1      10.301   6.265   0.305  0.00  0.00    -0.381 OA
BRANCH  49  50
ATOM     50  C   LIG d   1      11.061   5.787   1.417  0.00  0.00     0.036 C 
ATOM     51  H   LIG d   1      10.552   4.935   1.865  0.00  0.00     0.052 H 
ATOM     52  H   LIG d   1      12.051   5.481   1.077  0.00  0.00     0.052 H 
ATOM     53  H   LIG d   1      11.160   6.581   2.156  0.00  0.00     0.052 H 
ENDBRANCH  49  50
ENDBRANCH  46  49
ENDBRANCH  43  46
ENDBRANCH  41  43
ENDBRANCH  36  41
ENDBRANCH   1  32
TORSDOF 9
ENDMDL
MODEL 4
REMARK VINA RESULT:      -5.8      1.678      2.015
REMARK  9 active torsions:
REMARK  status: ('A' for Active; 'I' for Inactive)
REMARK    1  A    between atoms: C_1  and  O_2 
REMARK    2  A    between atoms: O_2  and  C_3 
REMARK    3  A    between atoms: C_3  and  C_4 
REMARK    4  A    between atoms: C_4  and  N_5 
REMARK    5  A    between atoms: N_5  and  C_6 
REMARK    6  A    between atoms: C_9  and  C_12 
REMARK    7  A    between atoms: C_14  and  C_17 
REMARK    8  A    between atoms: N_22  and  C_23 
REMARK    9  A    between atoms: C_23  and  C_24 
ROOT
ATOM      1  C   LIG d   1       8.019   1.662  -4.015  0.00  0.00     0.204 A 
ATOM      2  N   LIG d   1       6.726   1.708  -3.643  0.00  0.00    -0.186 NA
ATOM      3  C   LIG d   1       6.267   0.501  -3.481  0.00  0.00     0.276 A 
ATOM      4  O   LIG d   1       7.251  -0.369  -3.744  0.00  0.00    -0.332 OA
ATOM      5  N   LIG d   1       8.387   0.407  -4.096  0.00  0.00    -0.056 NA
ENDROOT
BRANCH   3   6
ATOM      6  C   LIG d   1       4.863   0.141  -3.067  0.00  0.00     0.060 C 
ATOM      7  H   LIG d   1       4.341   1.030  -2.712  0.00  0.00     0.095 H 
ATOM      8  N   LIG d   1       4.138  -0.444  -4.209  0.00  0.00     0.247 N 
ATOM      9  C   LIG d   1       3.752  -1.831  -3.856  0.00  0.00    -0.031 C 
ATOM     10  H   LIG d   1       3.311   0.101  -4.402  0.00  0.00     0.204 HD
ATOM     11  C   LIG d   1       3.708  -1.848  -2.307  0.00  0.00    -0.007 C 
ATOM     12  H   LIG d   1       4.496  -2.538  -4.223  0.00  0.00     0.082 H 
ATOM     13  H   LIG d   1       2.769  -2.066  -4.267  0.00  0.00     0.082 H 
ATOM     14  C   LIG d   1       4.901  -0.925  -1.950  0.00  0.00     0.004 C 
ATOM     15  H   LIG d   1       3.866  -2.857  -1.924  0.00  0.00     0.032 H 
ATOM     16  H   LIG d   1       2.769  -1.434  -1.940  0.00  0.00     0.032 H 
ATOM     17  H   LIG d   1       5.840  -1.479  -1.979  0.00  0.00     0.033 H 
ATOM     18  H   LIG d   1       4.754  -0.464  -0.973  0.00  0.00     0.033 H 
BRANCH   8  19
ATOM     19  C   LIG d   1       5.007  -0.458  -5.392  0.00  0.00    -0.005 C 
ATOM     20  H   LIG d   1       5.488   0.514  -5.500  0.00  0.00     0.087 H 
ATOM     21  H   LIG d   1       5.768  -1.229  -5.275  0.00  0.00     0.087 H 
BRANCH  19  22
ATOM     22  C   LIG d   1       4.181  -0.747  -6.619  0.00  0.00    -0.000 A 
ATOM     23  C   LIG d   1       4.435  -1.865  -7.399  0.00  0.00    -0.035 A 
ATOM     24  C   LIG d   1       3.652  -2.100  -8.514  0.00  0.00     0.028 A 
ATOM     25  H   LIG d   1       5.232  -2.545  -7.137  0.00  0.00     0.064 H 
ATOM     26  N   LIG d   1       2.683  -1.270  -8.845  0.00  0.00    -0.263 NA
ATOM     27  H   LIG d   1       3.841  -2.971  -9.124  0.00  0.00     0.083 H 
ATOM     28  C   LIG d   1       2.417  -0.194  -8.130  0.00  0.00     0.028 A 
ATOM     29  C   LIG d   1       3.153   0.103  -6.999  0.00  0.00    -0.035 A 
ATOM     30  H   LIG d   1       1.614   0.463  -8.432  0.00  0.00     0.083 H 
ATOM     31  H   LIG d   1       2.930   0.985  -6.417  0.00  0.00     0.064 H 
ENDBRANCH  19  22
ENDBRANCH   8  19
ENDBRANCH   3   6
BRANCH   1  32
ATOM     32  C   LIG d   1       8.881   2.837  -4.292  0.00  0.00     0.041 A 
ATOM     33  C   LIG d   1       9.083   3.273  -5.607  0.00  0.00    -0.046 A 
ATOM     34  C   LIG d   1       9.893   4.371  -5.817  0.00  0.00    -0.021 A 
ATOM     35  H   LIG d   1       8.617   2.763  -6.437  0.00  0.00     0.063 H 
ATOM     36  C   LIG d   1      10.477   5.004  -4.724  0.00  0.00     0.119 A 
ATOM     37  H   LIG d   1      10.070   4.736  -6.818  0.00  0.00     0.065 H 
ATOM     38  N   LIG d   1      10.269   4.562  -3.492  0.00  0.00    -0.240 NA
ATOM     39  C   LIG d   1       9.498   3.521  -3.249  0.00  0.00     0.041 A 
ATOM     40  H   LIG d   1       9.349   3.193  -2.232  0.00  0.00     0.084 H 
BRANCH  36  41
ATOM     41  N   LIG d   1      11.292   6.109  -4.926  0.00  0.00    -0.327 N 
ATOM     42  H   LIG d   1      11.508   6.695  -4.184  0.00  0.00     0.147 HD
BRANCH  41  43
ATOM     43  C   LIG d   1      11.828   6.389  -6.260  0.00  0.00     0.034 C 
ATOM     44  H   LIG d   1      11.555   5.581  -6.939  0.00  0.00     0.048 H 
ATOM     45  H   LIG d   1      12.914   6.467  -6.207  0.00  0.00     0.048 H 
BRANCH  43  46
ATOM     46  C   LIG d   1      11.247   7.707  -6.777  0.00  0.00     0.063 C 
ATOM     47  H   LIG d   1      11.988   8.211  -7.399  0.00  0.00     0.058 H 
ATOM     48  H   LIG d   1      10.986   8.345  -5.934  0.00  0.00     0.058 H 
BRANCH  46  49
ATOM     49  O   LIG d   1      10.078   7.441  -7.554  0.00  0.00    -0.381 OA
BRANCH  49  50
ATOM     50  C   LIG d   1       9.118   8.499  -7.542  0.00  0.00     0.036 C 
ATOM     51  H   LIG d   1       9.328   9.190  -8.358  0.00  0.00     0.052 H 
ATOM     52  H   LIG d   1       8.117   8.083  -7.667  0.00  0.00     0.052 H 
ATOM     53  H   LIG d   1       9.174   9.030  -6.592  0.00  0.00     0.052 H 
ENDBRANCH  49  50
ENDBRANCH  46  49
ENDBRANCH  43  46
ENDBRANCH  41  43
ENDBRANCH  36  41
ENDBRANCH   1  32
TORSDOF 9
ENDMDL
MODEL 5
REMARK VINA RESULT:      -5.6      2.480      8.765
REMARK  9 active torsions:
REMARK  status: ('A' for Active; 'I' for Inactive)
REMARK    1  A    between atoms: C_1  and  O_2 
REMARK    2  A    between atoms: O_2  and  C_3 
REMARK    3  A    between atoms: C_3  and  C_4 
REMARK    4  A    between atoms: C_4  and  N_5 
REMARK    5  A    between atoms: N_5  and  C_6 
REMARK    6  A    between atoms: C_9  and  C_12 
REMARK    7  A    between atoms: C_14  and  C_17 
REMARK    8  A    between atoms: N_22  and  C_23 
REMARK    9  A    between atoms: C_23  and  C_24 
ROOT
ATOM      1  C   LIG d   1       9.466   3.135  -4.719  0.00  0.00     0.204 A 
ATOM      2  N   LIG d   1       9.612   3.963  -3.669  0.00  0.00    -0.186 NA
ATOM      3  C   LIG d   1      10.614   4.769  -3.873  0.00  0.00     0.276 A 
ATOM      4  O   LIG d   1      11.150   4.488  -5.068  0.00  0.00    -0.332 OA
ATOM      5  N   LIG d   1      10.390   3.414  -5.605  0.00  0.00    -0.056 NA
ENDROOT
BRANCH   3   6
ATOM      6  C   LIG d   1      11.090   5.840  -2.926  0.00  0.00     0.060 C 
ATOM      7  H   LIG d   1      12.151   6.034  -3.088  0.00  0.00     0.095 H 
ATOM      8  N   LIG d   1      10.315   7.076  -3.135  0.00  0.00     0.247 N 
ATOM      9  C   LIG d   1       9.594   7.394  -1.881  0.00  0.00    -0.031 C 
ATOM     10  H   LIG d   1      10.940   7.832  -3.371  0.00  0.00     0.204 HD
ATOM     11  C   LIG d   1      10.417   6.703  -0.764  0.00  0.00    -0.007 C 
ATOM     12  H   LIG d   1       8.581   6.991  -1.911  0.00  0.00     0.082 H 
ATOM     13  H   LIG d   1       9.570   8.473  -1.721  0.00  0.00     0.082 H 
ATOM     14  C   LIG d   1      10.857   5.392  -1.467  0.00  0.00     0.004 C 
ATOM     15  H   LIG d   1       9.793   6.490   0.105  0.00  0.00     0.032 H 
ATOM     16  H   LIG d   1      11.280   7.306  -0.486  0.00  0.00     0.032 H 
ATOM     17  H   LIG d   1      10.066   4.643  -1.416  0.00  0.00     0.033 H 
ATOM     18  H   LIG d   1      11.779   5.010  -1.029  0.00  0.00     0.033 H 
BRANCH   8  19
ATOM     19  C   LIG d   1       9.350   6.876  -4.224  0.00  0.00    -0.005 C 
ATOM     20  H   LIG d   1       9.527   5.907  -4.692  0.00  0.00     0.087 H 
ATOM     21  H   LIG d   1       8.338   6.907  -3.822  0.00  0.00     0.087 H 
BRANCH  19  22
ATOM     22  C   LIG d   1       9.518   7.966  -5.251  0.00  0.00    -0.000 A 
ATOM     23  C   LIG d   1       9.804   9.267  -4.867  0.00  0.00    -0.035 A 
ATOM     24  C   LIG d   1       9.957  10.238  -5.838  0.00  0.00     0.028 A 
ATOM     25  H   LIG d   1       9.910   9.517  -3.821  0.00  0.00     0.064 H 
ATOM     26  N   LIG d   1       9.821   9.942  -7.116  0.00  0.00    -0.263 NA
ATOM     27  H   LIG d   1      10.185  11.253  -5.547  0.00  0.00     0.083 H 
ATOM     28  C   LIG d   1       9.543   8.717  -7.518  0.00  0.00     0.028 A 
ATOM     29  C   LIG d   1       9.383   7.692  -6.604  0.00  0.00    -0.035 A 
ATOM     30  H   LIG d   1       9.440   8.512  -8.573  0.00  0.00     0.083 H 
ATOM     31  H   LIG d   1       9.156   6.690  -6.939  0.00  0.00     0.064 H 
ENDBRANCH  19  22
ENDBRANCH   8  19
ENDBRANCH   3   6
BRANCH   1  32
ATOM     32  C   LIG d   1       8.433   2.078  -4.851  0.00  0.00     0.041 A 
ATOM     33  C   LIG d   1       7.867   1.495  -3.711  0.00  0.00    -0.046 A 
ATOM     34  C   LIG d   1       6.909   0.517  -3.881  0.00  0.00    -0.021 A 
ATOM     35  H   LIG d   1       8.172   1.804  -2.722  0.00  0.00     0.063 H 
ATOM     36  C   LIG d   1       6.539   0.144  -5.171  0.00  0.00     0.119 A 
ATOM     37  H   LIG d   1       6.450   0.045  -3.024  0.00  0.00     0.065 H 
ATOM     38  N   LIG d   1       7.098   0.713  -6.228  0.00  0.00    -0.240 NA
ATOM     39  C   LIG d   1       8.013   1.655  -6.108  0.00  0.00     0.041 A 
ATOM     40  H   LIG d   1       8.443   2.098  -6.993  0.00  0.00     0.084 H 
BRANCH  36  41
ATOM     41  N   LIG d   1       5.576  -0.839  -5.351  0.00  0.00    -0.327 N 
ATOM     42  H   LIG d   1       5.619  -1.424  -6.123  0.00  0.00     0.147 HD
BRANCH  41  43
ATOM     43  C   LIG d   1       4.496  -0.994  -4.374  0.00  0.00     0.034 C 
ATOM     44  H   LIG d   1       4.866  -0.744  -3.380  0.00  0.00     0.048 H 
ATOM     45  H   LIG d   1       4.145  -2.027  -4.381  0.00  0.00     0.048 H 
BRANCH  43  46
ATOM     46  C   LIG d   1       3.340  -0.061  -4.738  0.00  0.00     0.063 C 
ATOM     47  H   LIG d   1       2.392  -0.556  -4.524  0.00  0.00     0.058 H 
ATOM     48  H   LIG d   1       3.390   0.184  -5.798  0.00  0.00     0.058 H 
BRANCH  46  49
ATOM     49  O   LIG d   1       3.434   1.138  -3.966  0.00  0.00    -0.381 OA
BRANCH  49  50
ATOM     50  C   LIG d   1       3.492   0.920  -2.556  0.00  0.00     0.036 C 
ATOM     51  H   LIG d   1       2.676   0.262  -2.256  0.00  0.00     0.052 H 
ATOM     52  H   LIG d   1       4.445   0.456  -2.299  0.00  0.00     0.052 H 
ATOM     53  H   LIG d   1       3.400   1.873  -2.036  0.00  0.00     0.052 H 
ENDBRANCH  49  50
ENDBRANCH  46  49
ENDBRANCH  43  46
ENDBRANCH  41  43
ENDBRANCH  36  41
ENDBRANCH   1  32
TORSDOF 9
ENDMDL
MODEL 6
REMARK VINA RESULT:      -5.6      6.174     10.939
REMARK  9 active torsions:
REMARK  status: ('A' for Active; 'I' for Inactive)
REMARK    1  A    between atoms: C_1  and  O_2 
REMARK    2  A    between atoms: O_2  and  C_3 
REMARK    3  A    between atoms: C_3  and  C_4 
REMARK    4  A    between atoms: C_4  and  N_5 
REMARK    5  A    between atoms: N_5  and  C_6 
REMARK    6  A    between atoms: C_9  and  C_12 
REMARK    7  A    between atoms: C_14  and  C_17 
REMARK    8  A    between atoms: N_22  and  C_23 
REMARK    9  A    between atoms: C_23  and  C_24 
ROOT
ATOM      1  C   LIG d   1       5.116  -6.309  -5.701  0.00  0.00     0.204 A 
ATOM      2  N   LIG d   1       5.896  -5.310  -6.151  0.00  0.00    -0.186 NA
ATOM      3  C   LIG d   1       5.168  -4.266  -6.426  0.00  0.00     0.276 A 
ATOM      4  O   LIG d   1       3.888  -4.558  -6.161  0.00  0.00    -0.332 OA
ATOM      5  N   LIG d   1       3.872  -5.898  -5.692  0.00  0.00    -0.056 NA
ENDROOT
BRANCH   3   6
ATOM      6  C   LIG d   1       5.680  -2.950  -6.954  0.00  0.00     0.060 C 
ATOM      7  H   LIG d   1       5.103  -2.652  -7.830  0.00  0.00     0.095 H 
ATOM      8  N   LIG d   1       5.576  -1.917  -5.908  0.00  0.00     0.247 N 
ATOM      9  C   LIG d   1       6.939  -1.423  -5.603  0.00  0.00    -0.031 C 
ATOM     10  H   LIG d   1       5.003  -1.155  -6.240  0.00  0.00     0.204 HD
ATOM     11  C   LIG d   1       7.763  -1.717  -6.882  0.00  0.00    -0.007 C 
ATOM     12  H   LIG d   1       7.357  -1.959  -4.751  0.00  0.00     0.082 H 
ATOM     13  H   LIG d   1       6.917  -0.350  -5.404  0.00  0.00     0.082 H 
ATOM     14  C   LIG d   1       7.172  -3.079  -7.328  0.00  0.00     0.004 C 
ATOM     15  H   LIG d   1       8.825  -1.809  -6.650  0.00  0.00     0.032 H 
ATOM     16  H   LIG d   1       7.595  -0.951  -7.639  0.00  0.00     0.032 H 
ATOM     17  H   LIG d   1       7.637  -3.900  -6.781  0.00  0.00     0.033 H 
ATOM     18  H   LIG d   1       7.289  -3.217  -8.404  0.00  0.00     0.033 H 
BRANCH   8  19
ATOM     19  C   LIG d   1       4.977  -2.495  -4.699  0.00  0.00    -0.005 C 
ATOM     20  H   LIG d   1       4.147  -3.144  -4.980  0.00  0.00     0.087 H 
ATOM     21  H   LIG d   1       5.727  -3.076  -4.164  0.00  0.00     0.087 H 
BRANCH  19  22
ATOM     22  C   LIG d   1       4.469  -1.388  -3.811  0.00  0.00    -0.000 A 
ATOM     23  C   LIG d   1       3.599  -0.426  -4.301  0.00  0.00    -0.035 A 
ATOM     24  C   LIG d   1       3.151   0.571  -3.455  0.00  0.00     0.028 A 
ATOM     25  H   LIG d   1       3.274  -0.457  -5.331  0.00  0.00     0.064 H 
ATOM     26  N   LIG d   1       3.549   0.619  -2.199  0.00  0.00    -0.263 NA
ATOM     27  H   LIG d   1       2.469   1.321  -3.828  0.00  0.00     0.083 H 
ATOM     28  C   LIG d   1       4.380  -0.276  -1.700  0.00  0.00     0.028 A 
ATOM     29  C   LIG d   1       4.866  -1.304  -2.484  0.00  0.00    -0.035 A 
ATOM     30  H   LIG d   1       4.684  -0.204  -0.666  0.00  0.00     0.083 H 
ATOM     31  H   LIG d   1       5.546  -2.035  -2.071  0.00  0.00     0.064 H 
ENDBRANCH  19  22
ENDBRANCH   8  19
ENDBRANCH   3   6
BRANCH   1  32
ATOM     32  C   LIG d   1       5.586  -7.655  -5.287  0.00  0.00     0.041 A 
ATOM     33  C   LIG d   1       6.918  -7.854  -4.906  0.00  0.00    -0.046 A 
ATOM     34  C   LIG d   1       7.310  -9.122  -4.529  0.00  0.00    -0.021 A 
ATOM     35  H   LIG d   1       7.622  -7.035  -4.908  0.00  0.00     0.063 H 
ATOM     36  C   LIG d   1       6.375 -10.154  -4.539  0.00  0.00     0.119 A 
ATOM     37  H   LIG d   1       8.330  -9.312  -4.228  0.00  0.00     0.065 H 
ATOM     38  N   LIG d   1       5.123  -9.932  -4.910  0.00  0.00    -0.240 NA
ATOM     39  C   LIG d   1       4.708  -8.734  -5.272  0.00  0.00     0.041 A 
ATOM     40  H   LIG d   1       3.679  -8.591  -5.564  0.00  0.00     0.084 H 
BRANCH  36  41
ATOM     41  N   LIG d   1       6.761 -11.432  -4.160  0.00  0.00    -0.327 N 
ATOM     42  H   LIG d   1       6.754 -12.153  -4.809  0.00  0.00     0.147 HD
BRANCH  41  43
ATOM     43  C   LIG d   1       7.180 -11.693  -2.781  0.00  0.00     0.034 C 
ATOM     44  H   LIG d   1       8.067 -11.103  -2.553  0.00  0.00     0.048 H 
ATOM     45  H   LIG d   1       7.409 -12.753  -2.666  0.00  0.00     0.048 H 
BRANCH  43  46
ATOM     46  C   LIG d   1       6.051 -11.309  -1.823  0.00  0.00     0.063 C 
ATOM     47  H   LIG d   1       5.596 -12.213  -1.416  0.00  0.00     0.058 H 
ATOM     48  H   LIG d   1       5.297 -10.734  -2.360  0.00  0.00     0.058 H 
BRANCH  46  49
ATOM     49  O   LIG d   1       6.580 -10.521  -0.755  0.00  0.00    -0.381 OA
BRANCH  49  50
ATOM     50  C   LIG d   1       7.922 -10.081  -0.966  0.00  0.00     0.036 C 
ATOM     51  H   LIG d   1       7.918  -9.039  -1.286  0.00  0.00     0.052 H 
ATOM     52  H   LIG d   1       8.485 -10.171  -0.035  0.00  0.00     0.052 H 
ATOM     53  H   LIG d   1       8.390 -10.696  -1.734  0.00  0.00     0.052 H 
ENDBRANCH  49  50
ENDBRANCH  46  49
ENDBRANCH  43  46
ENDBRANCH  41  43
ENDBRANCH  36  41
ENDBRANCH   1  32
TORSDOF 9
ENDMDL
MODEL 7
REMARK VINA RESULT:      -5.6      2.925      4.631
REMARK  9 active torsions:
REMARK  status: ('A' for Active; 'I' for Inactive)
REMARK    1  A    between atoms: C_1  and  O_2 
REMARK    2  A    between atoms: O_2  and  C_3 
REMARK    3  A    between atoms: C_3  and  C_4 
REMARK    4  A    between atoms: C_4  and  N_5 
REMARK    5  A    between atoms: N_5  and  C_6 
REMARK    6  A    between atoms: C_9  and  C_12 
REMARK    7  A    between atoms: C_14  and  C_17 
REMARK    8  A    between atoms: N_22  and  C_23 
REMARK    9  A    between atoms: C_23  and  C_24 
ROOT
ATOM      1  C   LIG d   1       9.748   4.363  -4.149  0.00  0.00     0.204 A 
ATOM      2  N   LIG d   1       9.572   3.331  -4.994  0.00  0.00    -0.186 NA
ATOM      3  C   LIG d   1       9.626   2.207  -4.340  0.00  0.00     0.276 A 
ATOM      4  O   LIG d   1       9.840   2.476  -3.046  0.00  0.00    -0.332 OA
ATOM      5  N   LIG d   1       9.922   3.890  -2.939  0.00  0.00    -0.056 NA
ENDROOT
BRANCH   3   6
ATOM      6  C   LIG d   1       9.474   0.832  -4.939  0.00  0.00     0.060 C 
ATOM      7  H   LIG d   1      10.206   0.153  -4.502  0.00  0.00     0.095 H 
ATOM      8  N   LIG d   1       8.111   0.326  -4.693  0.00  0.00     0.247 N 
ATOM      9  C   LIG d   1       7.451   0.107  -6.001  0.00  0.00    -0.031 C 
ATOM     10  H   LIG d   1       8.159  -0.544  -4.185  0.00  0.00     0.204 HD
ATOM     11  C   LIG d   1       8.615  -0.103  -7.002  0.00  0.00    -0.007 C 
ATOM     12  H   LIG d   1       6.861   0.980  -6.282  0.00  0.00     0.082 H 
ATOM     13  H   LIG d   1       6.820  -0.782  -5.962  0.00  0.00     0.082 H 
ATOM     14  C   LIG d   1       9.671   0.901  -6.469  0.00  0.00     0.004 C 
ATOM     15  H   LIG d   1       8.309   0.155  -8.017  0.00  0.00     0.032 H 
ATOM     16  H   LIG d   1       8.990  -1.125  -6.957  0.00  0.00     0.032 H 
ATOM     17  H   LIG d   1       9.469   1.906  -6.839  0.00  0.00     0.033 H 
ATOM     18  H   LIG d   1      10.677   0.584  -6.742  0.00  0.00     0.033 H 
BRANCH   8  19
ATOM     19  C   LIG d   1       7.351   1.312  -3.915  0.00  0.00    -0.005 C 
ATOM     20  H   LIG d   1       8.002   1.763  -3.165  0.00  0.00     0.087 H 
ATOM     21  H   LIG d   1       6.972   2.087  -4.580  0.00  0.00     0.087 H 
BRANCH  19  22
ATOM     22  C   LIG d   1       6.196   0.629  -3.229  0.00  0.00    -0.000 A 
ATOM     23  C   LIG d   1       6.164  -0.751  -3.096  0.00  0.00    -0.035 A 
ATOM     24  C   LIG d   1       5.091  -1.341  -2.455  0.00  0.00     0.028 A 
ATOM     25  H   LIG d   1       6.969  -1.356  -3.485  0.00  0.00     0.064 H 
ATOM     26  N   LIG d   1       4.101  -0.609  -1.984  0.00  0.00    -0.263 NA
ATOM     27  H   LIG d   1       5.061  -2.415  -2.343  0.00  0.00     0.083 H 
ATOM     28  C   LIG d   1       4.095   0.705  -2.098  0.00  0.00     0.028 A 
ATOM     29  C   LIG d   1       5.136   1.366  -2.720  0.00  0.00    -0.035 A 
ATOM     30  H   LIG d   1       3.266   1.272  -1.699  0.00  0.00     0.083 H 
ATOM     31  H   LIG d   1       5.127   2.442  -2.810  0.00  0.00     0.064 H 
ENDBRANCH  19  22
ENDBRANCH   8  19
ENDBRANCH   3   6
BRANCH   1  32
ATOM     32  C   LIG d   1       9.751   5.799  -4.525  0.00  0.00     0.041 A 
ATOM     33  C   LIG d   1       9.556   6.182  -5.857  0.00  0.00    -0.046 A 
ATOM     34  C   LIG d   1       9.565   7.528  -6.161  0.00  0.00    -0.021 A 
ATOM     35  H   LIG d   1       9.401   5.443  -6.629  0.00  0.00     0.063 H 
ATOM     36  C   LIG d   1       9.767   8.454  -5.140  0.00  0.00     0.119 A 
ATOM     37  H   LIG d   1       9.417   7.861  -7.178  0.00  0.00     0.065 H 
ATOM     38  N   LIG d   1       9.953   8.057  -3.890  0.00  0.00    -0.240 NA
ATOM     39  C   LIG d   1       9.946   6.781  -3.559  0.00  0.00     0.041 A 
ATOM     40  H   LIG d   1      10.097   6.495  -2.529  0.00  0.00     0.084 H 
BRANCH  36  41
ATOM     41  N   LIG d   1       9.778   9.810  -5.437  0.00  0.00    -0.327 N 
ATOM     42  H   LIG d   1       9.543  10.114  -6.327  0.00  0.00     0.147 HD
BRANCH  41  43
ATOM     43  C   LIG d   1      10.144  10.783  -4.405  0.00  0.00     0.034 C 
ATOM     44  H   LIG d   1      10.889  11.471  -4.803  0.00  0.00     0.048 H 
ATOM     45  H   LIG d   1      10.558  10.259  -3.542  0.00  0.00     0.048 H 
BRANCH  43  46
ATOM     46  C   LIG d   1       8.902  11.566  -3.977  0.00  0.00     0.063 C 
ATOM     47  H   LIG d   1       8.067  11.308  -4.630  0.00  0.00     0.058 H 
ATOM     48  H   LIG d   1       9.103  12.635  -4.050  0.00  0.00     0.058 H 
BRANCH  46  49
ATOM     49  O   LIG d   1       8.570  11.235  -2.627  0.00  0.00    -0.381 OA
BRANCH  49  50
ATOM     50  C   LIG d   1       9.704  11.013  -1.787  0.00  0.00     0.036 C 
ATOM     51  H   LIG d   1      10.503  11.699  -2.066  0.00  0.00     0.052 H 
ATOM     52  H   LIG d   1       9.425  11.186  -0.747  0.00  0.00     0.052 H 
ATOM     53  H   LIG d   1      10.049   9.986  -1.905  0.00  0.00     0.052 H 
ENDBRANCH  49  50
ENDBRANCH  46  49
ENDBRANCH  43  46
ENDBRANCH  41  43
ENDBRANCH  36  41
ENDBRANCH   1  32
TORSDOF 9
ENDMDL
MODEL 8
REMARK VINA RESULT:      -5.6      2.864      9.105
REMARK  9 active torsions:
REMARK  status: ('A' for Active; 'I' for Inactive)
REMARK    1  A    between atoms: C_1  and  O_2 
REMARK    2  A    between atoms: O_2  and  C_3 
REMARK    3  A    between atoms: C_3  and  C_4 
REMARK    4  A    between atoms: C_4  and  N_5 
REMARK    5  A    between atoms: N_5  and  C_6 
REMARK    6  A    between atoms: C_9  and  C_12 
REMARK    7  A    between atoms: C_14  and  C_17 
REMARK    8  A    between atoms: N_22  and  C_23 
REMARK    9  A    between atoms: C_23  and  C_24 
ROOT
ATOM      1  C   LIG d   1       9.200   1.995  -5.223  0.00  0.00     0.204 A 
ATOM      2  N   LIG d   1       9.011   3.321  -5.355  0.00  0.00    -0.186 NA
ATOM      3  C   LIG d   1      10.036   3.860  -5.947  0.00  0.00     0.276 A 
ATOM      4  O   LIG d   1      10.927   2.897  -6.220  0.00  0.00    -0.332 OA
ATOM      5  N   LIG d   1      10.366   1.686  -5.735  0.00  0.00    -0.056 NA
ENDROOT
BRANCH   3   6
ATOM      6  C   LIG d   1      10.196   5.323  -6.273  0.00  0.00     0.060 C 
ATOM      7  H   LIG d   1       9.229   5.752  -6.540  0.00  0.00     0.095 H 
ATOM      8  N   LIG d   1      10.758   6.037  -5.113  0.00  0.00     0.247 N 
ATOM      9  C   LIG d   1      12.063   6.617  -5.508  0.00  0.00    -0.031 C 
ATOM     10  H   LIG d   1      10.129   6.773  -4.829  0.00  0.00     0.204 HD
ATOM     11  C   LIG d   1      11.979   6.769  -7.048  0.00  0.00    -0.007 C 
ATOM     12  H   LIG d   1      12.877   5.945  -5.236  0.00  0.00     0.082 H 
ATOM     13  H   LIG d   1      12.201   7.592  -5.038  0.00  0.00     0.082 H 
ATOM     14  C   LIG d   1      11.187   5.496  -7.444  0.00  0.00     0.004 C 
ATOM     15  H   LIG d   1      12.974   6.765  -7.494  0.00  0.00     0.032 H 
ATOM     16  H   LIG d   1      11.432   7.670  -7.321  0.00  0.00     0.032 H 
ATOM     17  H   LIG d   1      11.852   4.634  -7.516  0.00  0.00     0.033 H 
ATOM     18  H   LIG d   1      10.653   5.650  -8.382  0.00  0.00     0.033 H 
BRANCH   8  19
ATOM     19  C   LIG d   1      10.951   5.098  -4.000  0.00  0.00    -0.005 C 
ATOM     20  H   LIG d   1      10.326   4.218  -4.156  0.00  0.00     0.087 H 
ATOM     21  H   LIG d   1      11.997   4.797  -3.956  0.00  0.00     0.087 H 
BRANCH  19  22
ATOM     22  C   LIG d   1      10.563   5.765  -2.706  0.00  0.00    -0.000 A 
ATOM     23  C   LIG d   1       9.655   6.813  -2.690  0.00  0.00    -0.035 A 
ATOM     24  C   LIG d   1       9.320   7.396  -1.482  0.00  0.00     0.028 A 
ATOM     25  H   LIG d   1       9.213   7.167  -3.610  0.00  0.00     0.064 H 
ATOM     26  N   LIG d   1       9.860   6.974  -0.357  0.00  0.00    -0.263 NA
ATOM     27  H   LIG d   1       8.609   8.209  -1.462  0.00  0.00     0.083 H 
ATOM     28  C   LIG d   1      10.732   5.984  -0.334  0.00  0.00     0.028 A 
ATOM     29  C   LIG d   1      11.111   5.348  -1.501  0.00  0.00    -0.035 A 
ATOM     30  H   LIG d   1      11.154   5.665   0.608  0.00  0.00     0.083 H 
ATOM     31  H   LIG d   1      11.824   4.538  -1.477  0.00  0.00     0.064 H 
ENDBRANCH  19  22
ENDBRANCH   8  19
ENDBRANCH   3   6
BRANCH   1  32
ATOM     32  C   LIG d   1       8.250   1.043  -4.597  0.00  0.00     0.041 A 
ATOM     33  C   LIG d   1       7.240   1.507  -3.746  0.00  0.00    -0.046 A 
ATOM     34  C   LIG d   1       6.378   0.585  -3.187  0.00  0.00    -0.021 A 
ATOM     35  H   LIG d   1       7.137   2.561  -3.531  0.00  0.00     0.063 H 
ATOM     36  C   LIG d   1       6.540  -0.765  -3.485  0.00  0.00     0.119 A 
ATOM     37  H   LIG d   1       5.587   0.907  -2.526  0.00  0.00     0.065 H 
ATOM     38  N   LIG d   1       7.510  -1.171  -4.292  0.00  0.00    -0.240 NA
ATOM     39  C   LIG d   1       8.350  -0.322  -4.849  0.00  0.00     0.041 A 
ATOM     40  H   LIG d   1       9.124  -0.689  -5.504  0.00  0.00     0.084 H 
BRANCH  36  41
ATOM     41  N   LIG d   1       5.678  -1.698  -2.928  0.00  0.00    -0.327 N 
ATOM     42  H   LIG d   1       5.810  -2.644  -3.097  0.00  0.00     0.147 HD
BRANCH  41  43
ATOM     43  C   LIG d   1       4.567  -1.256  -2.081  0.00  0.00     0.034 C 
ATOM     44  H   LIG d   1       4.674  -0.193  -1.867  0.00  0.00     0.048 H 
ATOM     45  H   LIG d   1       4.577  -1.817  -1.146  0.00  0.00     0.048 H 
BRANCH  43  46
ATOM     46  C   LIG d   1       3.243  -1.500  -2.807  0.00  0.00     0.063 C 
ATOM     47  H   LIG d   1       2.579  -2.082  -2.167  0.00  0.00     0.058 H 
ATOM     48  H   LIG d   1       3.429  -2.047  -3.731  0.00  0.00     0.058 H 
BRANCH  46  49
ATOM     49  O   LIG d   1       2.628  -0.246  -3.111  0.00  0.00    -0.381 OA
BRANCH  49  50
ATOM     50  C   LIG d   1       2.899   0.230  -4.431  0.00  0.00     0.036 C 
ATOM     51  H   LIG d   1       3.703   0.964  -4.395  0.00  0.00     0.052 H 
ATOM     52  H   LIG d   1       3.199  -0.606  -5.065  0.00  0.00     0.052 H 
ATOM     53  H   LIG d   1       2.002   0.693  -4.841  0.00  0.00     0.052 H 
ENDBRANCH  49  50
ENDBRANCH  46  49
ENDBRANCH  43  46
ENDBRANCH  41  43
ENDBRANCH  36  41
ENDBRANCH   1  32
TORSDOF 9
ENDMDL
MODEL 9
REMARK VINA RESULT:      -5.6      3.091      5.098
REMARK  9 active torsions:
REMARK  status: ('A' for Active; 'I' for Inactive)
REMARK    1  A    between atoms: C_1  and  O_2 
REMARK    2  A    between atoms: O_2  and  C_3 
REMARK    3  A    between atoms: C_3  and  C_4 
REMARK    4  A    between atoms: C_4  and  N_5 
REMARK    5  A    between atoms: N_5  and  C_6 
REMARK    6  A    between atoms: C_9  and  C_12 
REMARK    7  A    between atoms: C_14  and  C_17 
REMARK    8  A    between atoms: N_22  and  C_23 
REMARK    9  A    between atoms: C_23  and  C_24 
ROOT
ATOM      1  C   LIG d   1      10.149   4.267  -3.232  0.00  0.00     0.204 A 
ATOM      2  N   LIG d   1       9.718   3.609  -4.324  0.00  0.00    -0.186 NA
ATOM      3  C   LIG d   1       9.991   2.341  -4.217  0.00  0.00     0.276 A 
ATOM      4  O   LIG d   1      10.611   2.136  -3.047  0.00  0.00    -0.332 OA
ATOM      5  N   LIG d   1      10.710   3.406  -2.419  0.00  0.00    -0.056 NA
ENDROOT
BRANCH   3   6
ATOM      6  C   LIG d   1       9.665   1.281  -5.238  0.00  0.00     0.060 C 
ATOM      7  H   LIG d   1      10.355   0.442  -5.135  0.00  0.00     0.095 H 
ATOM      8  N   LIG d   1       8.279   0.817  -5.053  0.00  0.00     0.247 N 
ATOM      9  C   LIG d   1       7.516   1.120  -6.286  0.00  0.00    -0.031 C 
ATOM     10  H   LIG d   1       8.274  -0.178  -4.884  0.00  0.00     0.204 HD
ATOM     11  C   LIG d   1       8.586   1.198  -7.405  0.00  0.00    -0.007 C 
ATOM     12  H   LIG d   1       6.998   2.074  -6.189  0.00  0.00     0.082 H 
ATOM     13  H   LIG d   1       6.804   0.320  -6.497  0.00  0.00     0.082 H 
ATOM     14  C   LIG d   1       9.768   1.872  -6.660  0.00  0.00     0.004 C 
ATOM     15  H   LIG d   1       8.240   1.818  -8.232  0.00  0.00     0.032 H 
ATOM     16  H   LIG d   1       8.860   0.202  -7.752  0.00  0.00     0.032 H 
ATOM     17  H   LIG d   1       9.642   2.955  -6.637  0.00  0.00     0.033 H 
ATOM     18  H   LIG d   1      10.718   1.604  -7.122  0.00  0.00     0.033 H 
BRANCH   8  19
ATOM     19  C   LIG d   1       7.672   1.514  -3.911  0.00  0.00    -0.005 C 
ATOM     20  H   LIG d   1       8.434   1.705  -3.156  0.00  0.00     0.087 H 
ATOM     21  H   LIG d   1       7.248   2.460  -4.247  0.00  0.00     0.087 H 
BRANCH  19  22
ATOM     22  C   LIG d   1       6.584   0.656  -3.319  0.00  0.00    -0.000 A 
ATOM     23  C   LIG d   1       5.480   1.230  -2.706  0.00  0.00    -0.035 A 
ATOM     24  C   LIG d   1       4.500   0.410  -2.180  0.00  0.00     0.028 A 
ATOM     25  H   LIG d   1       5.387   2.304  -2.645  0.00  0.00     0.064 H 
ATOM     26  N   LIG d   1       4.611  -0.902  -2.245  0.00  0.00    -0.263 NA
ATOM     27  H   LIG d   1       3.635   0.850  -1.705  0.00  0.00     0.083 H 
ATOM     28  C   LIG d   1       5.649  -1.483  -2.815  0.00  0.00     0.028 A 
ATOM     29  C   LIG d   1       6.666  -0.728  -3.368  0.00  0.00    -0.035 A 
ATOM     30  H   LIG d   1       5.705  -2.561  -2.849  0.00  0.00     0.083 H 
ATOM     31  H   LIG d   1       7.513  -1.209  -3.835  0.00  0.00     0.064 H 
ENDBRANCH  19  22
ENDBRANCH   8  19
ENDBRANCH   3   6
BRANCH   1  32
ATOM     32  C   LIG d   1      10.017   5.725  -2.992  0.00  0.00     0.041 A 
ATOM     33  C   LIG d   1       9.871   6.218  -1.690  0.00  0.00    -0.046 A 
ATOM     34  C   LIG d   1       9.752   7.582  -1.514  0.00  0.00    -0.021 A 
ATOM     35  H   LIG d   1       9.852   5.548  -0.843  0.00  0.00     0.063 H 
ATOM     36  C   LIG d   1       9.780   8.416  -2.629  0.00  0.00     0.119 A 
ATOM     37  H   LIG d   1       9.638   7.998  -0.524  0.00  0.00     0.065 H 
ATOM     38  N   LIG d   1       9.915   7.916  -3.848  0.00  0.00    -0.240 NA
ATOM     39  C   LIG d   1      10.037   6.620  -4.057  0.00  0.00     0.041 A 
ATOM     40  H   LIG d   1      10.149   6.250  -5.064  0.00  0.00     0.084 H 
BRANCH  36  41
ATOM     41  N   LIG d   1       9.661   9.788  -2.461  0.00  0.00    -0.327 N 
ATOM     42  H   LIG d   1       9.252  10.145  -1.657  0.00  0.00     0.147 HD
BRANCH  41  43
ATOM     43  C   LIG d   1      10.153  10.699  -3.498  0.00  0.00     0.034 C 
ATOM     44  H   LIG d   1      10.716  10.134  -4.240  0.00  0.00     0.048 H 
ATOM     45  H   LIG d   1      10.801  11.449  -3.044  0.00  0.00     0.048 H 
BRANCH  43  46
ATOM     46  C   LIG d   1       8.968  11.391  -4.174  0.00  0.00     0.063 C 
ATOM     47  H   LIG d   1       8.725  12.306  -3.634  0.00  0.00     0.058 H 
ATOM     48  H   LIG d   1       8.106  10.725  -4.168  0.00  0.00     0.058 H 
BRANCH  46  49
ATOM     49  O   LIG d   1       9.311  11.713  -5.523  0.00  0.00    -0.381 OA
BRANCH  49  50
ATOM     50  C   LIG d   1       9.877  10.624  -6.256  0.00  0.00     0.036 C 
ATOM     51  H   LIG d   1       9.510   9.682  -5.849  0.00  0.00     0.052 H 
ATOM     52  H   LIG d   1       9.589  10.703  -7.305  0.00  0.00     0.052 H 
ATOM     53  H   LIG d   1      10.963  10.657  -6.174  0.00  0.00     0.052 H 
ENDBRANCH  49  50
ENDBRANCH  46  49
ENDBRANCH  43  46
ENDBRANCH  41  43
ENDBRANCH  36  41
ENDBRANCH   1  32
TORSDOF 9
ENDMDL
