MODEL 1
REMARK VINA RESULT:      -5.0      0.000      0.000
REMARK  3 active torsions:
REMARK  status: ('A' for Active; 'I' for Inactive)
REMARK    1  A    between atoms: C_1  and  C_2 
REMARK    2  A    between atoms: CA_3  and  C_13 
REMARK    3  A    between atoms: CA_7  and  N_22 
ROOT
ATOM      1  C   LIG d   1       4.371  -1.131  -3.558  0.00  0.00    -0.040 C 
ATOM      2  CA  LIG d   1       5.035   0.012  -3.479  0.00  0.00     0.060 C 
ATOM      3  N   LIG d   1       6.229   0.191  -4.196  0.00  0.00    -0.247 N 
ATOM      4  C   LIG d   1       6.683  -0.604  -5.381  0.00  0.00     0.129 C 
ATOM      5  H   LIG d   1       6.262  -0.325  -6.347  0.00  0.00     0.068 H 
ATOM      6  CA  LIG d   1       8.067  -0.042  -5.077  0.00  0.00     0.082 C 
ATOM      7  HA  LIG d   1       8.526   0.471  -5.922  0.00  0.00     0.098 H 
ATOM      8  C   LIG d   1       7.375   0.891  -4.097  0.00  0.00     0.272 C 
ATOM      9  O   LIG d   1       7.715   1.877  -3.479  0.00  0.00    -0.269 OA
ATOM     10  S   LIG d   1       6.430  -2.351  -4.921  0.00  0.00    -0.128 SA
ATOM     11  C   LIG d   1       4.691  -2.336  -4.383  0.00  0.00     0.018 C 
ATOM     12  H   LIG d   1       4.495  -3.231  -3.793  0.00  0.00     0.042 H 
ATOM     13  H   LIG d   1       4.048  -2.344  -5.263  0.00  0.00     0.042 H 
ENDROOT
BRANCH   6  14
ATOM     14  N   LIG d   1       8.970  -1.025  -4.453  0.00  0.00     0.229 N 
ATOM     15  H1  LIG d   1       8.587  -1.963  -4.552  0.00  0.00     0.200 HD
ATOM     16  H2  LIG d   1       9.888  -0.984  -4.893  0.00  0.00     0.200 HD
ATOM     17  H3  LIG d   1       9.067  -0.807  -3.455  0.00  0.00     0.200 HD
ENDBRANCH   6  14
BRANCH   2  18
ATOM     18  C   LIG d   1       4.514   1.106  -2.641  0.00  0.00     0.086 C 
ATOM     19  O   LIG d   1       4.817   1.170  -1.466  0.00  0.00    -0.543 OA
ATOM     20  OXT LIG d   1       3.701   2.037  -3.177  0.00  0.00    -0.543 OA
ENDBRANCH   2  18
BRANCH   1  21
ATOM     21  C   LIG d   1       3.133  -1.230  -2.706  0.00  0.00    -0.041 C 
ATOM     22  H   LIG d   1       3.370  -1.754  -1.781  0.00  0.00     0.028 H 
ATOM     23  H   LIG d   1       2.770  -0.229  -2.474  0.00  0.00     0.028 H 
ATOM     24  H   LIG d   1       2.363  -1.780  -3.247  0.00  0.00     0.028 H 
ENDBRANCH   1  21
TORSDOF 3
ENDMDL
MODEL 2
REMARK VINA RESULT:      -4.6      1.636      3.792
REMARK  3 active torsions:
REMARK  status: ('A' for Active; 'I' for Inactive)
REMARK    1  A    between atoms: C_1  and  C_2 
REMARK    2  A    between atoms: CA_3  and  C_13 
REMARK    3  A    between atoms: CA_7  and  N_22 
ROOT
ATOM      1  C   LIG d   1       7.069  -1.218  -4.275  0.00  0.00    -0.040 C 
ATOM      2  CA  LIG d   1       6.571  -0.048  -3.906  0.00  0.00     0.060 C 
ATOM      3  N   LIG d   1       5.328   0.022  -3.257  0.00  0.00    -0.247 N 
ATOM      4  C   LIG d   1       4.631  -1.098  -2.548  0.00  0.00     0.129 C 
ATOM      5  H   LIG d   1       4.958  -1.311  -1.530  0.00  0.00     0.068 H 
ATOM      6  CA  LIG d   1       3.379  -0.237  -2.672  0.00  0.00     0.082 C 
ATOM      7  HA  LIG d   1       2.885  -0.042  -1.720  0.00  0.00     0.098 H 
ATOM      8  C   LIG d   1       4.302   0.883  -3.122  0.00  0.00     0.272 C 
ATOM      9  O   LIG d   1       4.171   2.077  -3.287  0.00  0.00    -0.269 OA
ATOM     10  S   LIG d   1       4.716  -2.522  -3.685  0.00  0.00    -0.128 SA
ATOM     11  C   LIG d   1       6.496  -2.582  -4.057  0.00  0.00     0.018 C 
ATOM     12  H   LIG d   1       6.651  -3.179  -4.956  0.00  0.00     0.042 H 
ATOM     13  H   LIG d   1       7.017  -3.055  -3.224  0.00  0.00     0.042 H 
ENDROOT
BRANCH   6  14
ATOM     14  N   LIG d   1       2.445  -0.714  -3.707  0.00  0.00     0.229 N 
ATOM     15  H1  LIG d   1       1.783   0.022  -3.946  0.00  0.00     0.200 HD
ATOM     16  H2  LIG d   1       2.960  -0.992  -4.541  0.00  0.00     0.200 HD
ATOM     17  H3  LIG d   1       1.928  -1.524  -3.346  0.00  0.00     0.200 HD
ENDBRANCH   6  14
BRANCH   2  18
ATOM     18  C   LIG d   1       7.329   1.187  -4.172  0.00  0.00     0.086 C 
ATOM     19  O   LIG d   1       7.956   1.720  -3.278  0.00  0.00    -0.543 OA
ATOM     20  OXT LIG d   1       7.326   1.727  -5.407  0.00  0.00    -0.543 OA
ENDBRANCH   2  18
BRANCH   1  21
ATOM     21  C   LIG d   1       8.383  -1.169  -5.011  0.00  0.00    -0.041 C 
ATOM     22  H   LIG d   1       8.861  -0.206  -4.836  0.00  0.00     0.028 H 
ATOM     23  H   LIG d   1       9.032  -1.968  -4.650  0.00  0.00     0.028 H 
ATOM     24  H   LIG d   1       8.207  -1.298  -6.078  0.00  0.00     0.028 H 
ENDBRANCH   1  21
TORSDOF 3
ENDMDL
MODEL 3
REMARK VINA RESULT:      -4.5      3.915      4.719
REMARK  3 active torsions:
REMARK  status: ('A' for Active; 'I' for Inactive)
REMARK    1  A    between atoms: C_1  and  C_2 
REMARK    2  A    between atoms: CA_3  and  C_13 
REMARK    3  A    between atoms: CA_7  and  N_22 
ROOT
ATOM      1  C   LIG d   1       3.796  -1.453  -3.632  0.00  0.00    -0.040 C 
ATOM      2  CA  LIG d   1       4.383  -2.002  -4.684  0.00  0.00     0.060 C 
ATOM      3  N   LIG d   1       4.325  -1.375  -5.939  0.00  0.00    -0.247 N 
ATOM      4  C   LIG d   1       4.016   0.068  -6.197  0.00  0.00     0.129 C 
ATOM      5  H   LIG d   1       4.837   0.773  -6.074  0.00  0.00     0.068 H 
ATOM      6  CA  LIG d   1       3.736  -0.374  -7.629  0.00  0.00     0.082 C 
ATOM      7  HA  LIG d   1       4.313   0.171  -8.376  0.00  0.00     0.098 H 
ATOM      8  C   LIG d   1       4.346  -1.711  -7.241  0.00  0.00     0.272 C 
ATOM      9  O   LIG d   1       4.712  -2.688  -7.859  0.00  0.00    -0.269 OA
ATOM     10  S   LIG d   1       2.540   0.438  -5.191  0.00  0.00    -0.128 SA
ATOM     11  C   LIG d   1       3.063  -0.153  -3.551  0.00  0.00     0.018 C 
ATOM     12  H   LIG d   1       2.182  -0.281  -2.923  0.00  0.00     0.042 H 
ATOM     13  H   LIG d   1       3.714   0.594  -3.097  0.00  0.00     0.042 H 
ENDROOT
BRANCH   6  14
ATOM     14  N   LIG d   1       2.299  -0.426  -7.952  0.00  0.00     0.229 N 
ATOM     15  H1  LIG d   1       1.818   0.369  -7.536  0.00  0.00     0.200 HD
ATOM     16  H2  LIG d   1       2.167  -0.413  -8.962  0.00  0.00     0.200 HD
ATOM     17  H3  LIG d   1       1.901  -1.294  -7.574  0.00  0.00     0.200 HD
ENDBRANCH   6  14
BRANCH   2  18
ATOM     18  C   LIG d   1       5.108  -3.277  -4.536  0.00  0.00     0.086 C 
ATOM     19  O   LIG d   1       6.296  -3.275  -4.282  0.00  0.00    -0.543 OA
ATOM     20  OXT LIG d   1       4.453  -4.445  -4.682  0.00  0.00    -0.543 OA
ENDBRANCH   2  18
BRANCH   1  21
ATOM     21  C   LIG d   1       3.878  -2.240  -2.350  0.00  0.00    -0.041 C 
ATOM     22  H   LIG d   1       2.892  -2.631  -2.100  0.00  0.00     0.028 H 
ATOM     23  H   LIG d   1       4.576  -3.067  -2.475  0.00  0.00     0.028 H 
ATOM     24  H   LIG d   1       4.224  -1.590  -1.546  0.00  0.00     0.028 H 
ENDBRANCH   1  21
TORSDOF 3
ENDMDL
MODEL 4
REMARK VINA RESULT:      -4.4      2.262      3.770
REMARK  3 active torsions:
REMARK  status: ('A' for Active; 'I' for Inactive)
REMARK    1  A    between atoms: C_1  and  C_2 
REMARK    2  A    between atoms: CA_3  and  C_13 
REMARK    3  A    between atoms: CA_7  and  N_22 
ROOT
ATOM      1  C   LIG d   1       5.385  -2.453  -4.033  0.00  0.00    -0.040 C 
ATOM      2  CA  LIG d   1       6.205  -1.417  -3.929  0.00  0.00     0.060 C 
ATOM      3  N   LIG d   1       5.832  -0.288  -3.183  0.00  0.00    -0.247 N 
ATOM      4  C   LIG d   1       4.768  -0.230  -2.129  0.00  0.00     0.129 C 
ATOM      5  H   LIG d   1       5.045  -0.583  -1.136  0.00  0.00     0.068 H 
ATOM      6  CA  LIG d   1       4.821   1.280  -2.331  0.00  0.00     0.082 C 
ATOM      7  HA  LIG d   1       5.007   1.838  -1.413  0.00  0.00     0.098 H 
ATOM      8  C   LIG d   1       6.070   1.036  -3.162  0.00  0.00     0.272 C 
ATOM      9  O   LIG d   1       6.938   1.749  -3.618  0.00  0.00    -0.269 OA
ATOM     10  S   LIG d   1       3.318  -1.065  -2.855  0.00  0.00    -0.128 SA
ATOM     11  C   LIG d   1       4.045  -2.643  -3.400  0.00  0.00     0.018 C 
ATOM     12  H   LIG d   1       3.376  -3.111  -4.122  0.00  0.00     0.042 H 
ATOM     13  H   LIG d   1       4.150  -3.301  -2.538  0.00  0.00     0.042 H 
ENDROOT
BRANCH   6  14
ATOM     14  N   LIG d   1       3.673   1.806  -3.090  0.00  0.00     0.229 N 
ATOM     15  H1  LIG d   1       3.999   2.407  -3.845  0.00  0.00     0.200 HD
ATOM     16  H2  LIG d   1       3.129   1.037  -3.479  0.00  0.00     0.200 HD
ATOM     17  H3  LIG d   1       3.076   2.354  -2.461  0.00  0.00     0.200 HD
ENDBRANCH   6  14
BRANCH   2  18
ATOM     18  C   LIG d   1       7.519  -1.454  -4.594  0.00  0.00     0.086 C 
ATOM     19  O   LIG d   1       8.441  -2.060  -4.087  0.00  0.00    -0.543 OA
ATOM     20  OXT LIG d   1       7.698  -0.814  -5.767  0.00  0.00    -0.543 OA
ENDBRANCH   2  18
BRANCH   1  21
ATOM     21  C   LIG d   1       5.867  -3.586  -4.901  0.00  0.00    -0.041 C 
ATOM     22  H   LIG d   1       5.130  -3.787  -5.678  0.00  0.00     0.028 H 
ATOM     23  H   LIG d   1       6.816  -3.313  -5.363  0.00  0.00     0.028 H 
ATOM     24  H   LIG d   1       6.003  -4.479  -4.291  0.00  0.00     0.028 H 
ENDBRANCH   1  21
TORSDOF 3
ENDMDL
MODEL 5
REMARK VINA RESULT:      -4.4      2.548      3.316
REMARK  3 active torsions:
REMARK  status: ('A' for Active; 'I' for Inactive)
REMARK    1  A    between atoms: C_1  and  C_2 
REMARK    2  A    between atoms: CA_3  and  C_13 
REMARK    3  A    between atoms: CA_7  and  N_22 
ROOT
ATOM      1  C   LIG d   1       5.357   0.230  -2.935  0.00  0.00    -0.040 C 
ATOM      2  CA  LIG d   1       4.872  -0.935  -3.338  0.00  0.00     0.060 C 
ATOM      3  N   LIG d   1       5.540  -1.679  -4.324  0.00  0.00    -0.247 N 
ATOM      4  C   LIG d   1       6.974  -1.533  -4.730  0.00  0.00     0.129 C 
ATOM      5  H   LIG d   1       7.713  -2.028  -4.100  0.00  0.00     0.068 H 
ATOM      6  CA  LIG d   1       6.569  -2.291  -5.989  0.00  0.00     0.082 C 
ATOM      7  HA  LIG d   1       7.166  -3.183  -6.175  0.00  0.00     0.098 H 
ATOM      8  C   LIG d   1       5.250  -2.571  -5.289  0.00  0.00     0.272 C 
ATOM      9  O   LIG d   1       4.313  -3.309  -5.507  0.00  0.00    -0.269 OA
ATOM     10  S   LIG d   1       7.238   0.259  -4.946  0.00  0.00    -0.128 SA
ATOM     11  C   LIG d   1       6.617   0.910  -3.364  0.00  0.00     0.018 C 
ATOM     12  H   LIG d   1       6.425   1.977  -3.471  0.00  0.00     0.042 H 
ATOM     13  H   LIG d   1       7.378   0.763  -2.597  0.00  0.00     0.042 H 
ENDROOT
BRANCH   6  14
ATOM     14  N   LIG d   1       6.459  -1.426  -7.178  0.00  0.00     0.229 N 
ATOM     15  H1  LIG d   1       7.228  -1.614  -7.819  0.00  0.00     0.200 HD
ATOM     16  H2  LIG d   1       5.573  -1.595  -7.652  0.00  0.00     0.200 HD
ATOM     17  H3  LIG d   1       6.500  -0.444  -6.885  0.00  0.00     0.200 HD
ENDBRANCH   6  14
BRANCH   2  18
ATOM     18  C   LIG d   1       3.630  -1.457  -2.742  0.00  0.00     0.086 C 
ATOM     19  O   LIG d   1       3.673  -2.385  -1.961  0.00  0.00    -0.543 OA
ATOM     20  OXT LIG d   1       2.444  -0.902  -3.064  0.00  0.00    -0.543 OA
ENDBRANCH   2  18
BRANCH   1  21
ATOM     21  C   LIG d   1       4.531   0.966  -1.912  0.00  0.00    -0.041 C 
ATOM     22  H   LIG d   1       5.147   1.190  -1.041  0.00  0.00     0.028 H 
ATOM     23  H   LIG d   1       4.161   1.896  -2.344  0.00  0.00     0.028 H 
ATOM     24  H   LIG d   1       3.689   0.344  -1.611  0.00  0.00     0.028 H 
ENDBRANCH   1  21
TORSDOF 3
ENDMDL
MODEL 6
REMARK VINA RESULT:      -4.3      3.087      3.984
REMARK  3 active torsions:
REMARK  status: ('A' for Active; 'I' for Inactive)
REMARK    1  A    between atoms: C_1  and  C_2 
REMARK    2  A    between atoms: CA_3  and  C_13 
REMARK    3  A    between atoms: CA_7  and  N_22 
ROOT
ATOM      1  C   LIG d   1       3.772  -0.492  -6.869  0.00  0.00    -0.040 C 
ATOM      2  CA  LIG d   1       3.848  -0.762  -5.575  0.00  0.00     0.060 C 
ATOM      3  N   LIG d   1       4.514  -1.914  -5.127  0.00  0.00    -0.247 N 
ATOM      4  C   LIG d   1       5.521  -2.714  -5.896  0.00  0.00     0.129 C 
ATOM      5  H   LIG d   1       6.542  -2.335  -5.904  0.00  0.00     0.068 H 
ATOM      6  CA  LIG d   1       5.236  -3.819  -4.884  0.00  0.00     0.082 C 
ATOM      7  HA  LIG d   1       6.127  -4.187  -4.376  0.00  0.00     0.098 H 
ATOM      8  C   LIG d   1       4.469  -2.772  -4.092  0.00  0.00     0.272 C 
ATOM      9  O   LIG d   1       4.006  -2.726  -2.972  0.00  0.00    -0.269 OA
ATOM     10  S   LIG d   1       4.788  -2.960  -7.548  0.00  0.00    -0.128 SA
ATOM     11  C   LIG d   1       4.362  -1.253  -8.013  0.00  0.00     0.018 C 
ATOM     12  H   LIG d   1       3.643  -1.277  -8.831  0.00  0.00     0.042 H 
ATOM     13  H   LIG d   1       5.264  -0.742  -8.350  0.00  0.00     0.042 H 
ENDROOT
BRANCH   6  14
ATOM     14  N   LIG d   1       4.404  -4.906  -5.428  0.00  0.00     0.229 N 
ATOM     15  H1  LIG d   1       4.043  -4.646  -6.344  0.00  0.00     0.200 HD
ATOM     16  H2  LIG d   1       4.954  -5.760  -5.509  0.00  0.00     0.200 HD
ATOM     17  H3  LIG d   1       3.615  -5.076  -4.794  0.00  0.00     0.200 HD
ENDBRANCH   6  14
BRANCH   2  18
ATOM     18  C   LIG d   1       3.237   0.157  -4.598  0.00  0.00     0.086 C 
ATOM     19  O   LIG d   1       2.076   0.014  -4.273  0.00  0.00    -0.543 OA
ATOM     20  OXT LIG d   1       3.968   1.156  -4.064  0.00  0.00    -0.543 OA
ENDBRANCH   2  18
BRANCH   1  21
ATOM     21  C   LIG d   1       2.989   0.741  -7.237  0.00  0.00    -0.041 C 
ATOM     22  H   LIG d   1       2.056   0.449  -7.719  0.00  0.00     0.028 H 
ATOM     23  H   LIG d   1       2.768   1.314  -6.337  0.00  0.00     0.028 H 
ATOM     24  H   LIG d   1       3.575   1.352  -7.923  0.00  0.00     0.028 H 
ENDBRANCH   1  21
TORSDOF 3
ENDMDL
MODEL 7
REMARK VINA RESULT:      -4.3      2.556      2.941
REMARK  3 active torsions:
REMARK  status: ('A' for Active; 'I' for Inactive)
REMARK    1  A    between atoms: C_1  and  C_2 
REMARK    2  A    between atoms: CA_3  and  C_13 
REMARK    3  A    between atoms: CA_7  and  N_22 
ROOT
ATOM      1  C   LIG d   1       4.966  -1.421  -3.541  0.00  0.00    -0.040 C 
ATOM      2  CA  LIG d   1       4.244  -0.786  -4.452  0.00  0.00     0.060 C 
ATOM      3  N   LIG d   1       4.543  -0.921  -5.817  0.00  0.00    -0.247 N 
ATOM      4  C   LIG d   1       5.344  -2.019  -6.447  0.00  0.00     0.129 C 
ATOM      5  H   LIG d   1       4.821  -2.954  -6.645  0.00  0.00     0.068 H 
ATOM      6  CA  LIG d   1       5.478  -1.074  -7.636  0.00  0.00     0.082 C 
ATOM      7  HA  LIG d   1       5.144  -1.506  -8.579  0.00  0.00     0.098 H 
ATOM      8  C   LIG d   1       4.431  -0.210  -6.954  0.00  0.00     0.272 C 
ATOM      9  O   LIG d   1       3.757   0.738  -7.298  0.00  0.00    -0.269 OA
ATOM     10  S   LIG d   1       6.836  -2.189  -5.412  0.00  0.00    -0.128 SA
ATOM     11  C   LIG d   1       6.108  -2.363  -3.753  0.00  0.00     0.018 C 
ATOM     12  H   LIG d   1       6.875  -2.163  -3.005  0.00  0.00     0.042 H 
ATOM     13  H   LIG d   1       5.751  -3.385  -3.628  0.00  0.00     0.042 H 
ENDROOT
BRANCH   6  14
ATOM     14  N   LIG d   1       6.811  -0.453  -7.739  0.00  0.00     0.229 N 
ATOM     15  H1  LIG d   1       7.062  -0.324  -8.717  0.00  0.00     0.200 HD
ATOM     16  H2  LIG d   1       6.814   0.449  -7.265  0.00  0.00     0.200 HD
ATOM     17  H3  LIG d   1       7.503  -1.067  -7.294  0.00  0.00     0.200 HD
ENDBRANCH   6  14
BRANCH   2  18
ATOM     18  C   LIG d   1       3.115   0.062  -4.030  0.00  0.00     0.086 C 
ATOM     19  O   LIG d   1       2.035  -0.439  -3.790  0.00  0.00    -0.543 OA
ATOM     20  OXT LIG d   1       3.281   1.394  -3.910  0.00  0.00    -0.543 OA
ENDBRANCH   2  18
BRANCH   1  21
ATOM     21  C   LIG d   1       4.589  -1.161  -2.106  0.00  0.00    -0.041 C 
ATOM     22  H   LIG d   1       4.751  -2.065  -1.519  0.00  0.00     0.028 H 
ATOM     23  H   LIG d   1       5.204  -0.355  -1.708  0.00  0.00     0.028 H 
ATOM     24  H   LIG d   1       3.538  -0.878  -2.053  0.00  0.00     0.028 H 
ENDBRANCH   1  21
TORSDOF 3
ENDMDL
MODEL 8
REMARK VINA RESULT:      -4.2      2.239      2.835
REMARK  3 active torsions:
REMARK  status: ('A' for Active; 'I' for Inactive)
REMARK    1  A    between atoms: C_1  and  C_2 
REMARK    2  A    between atoms: CA_3  and  C_13 
REMARK    3  A    between atoms: CA_7  and  N_22 
ROOT
ATOM      1  C   LIG d   1       4.181  -0.388  -6.545  0.00  0.00    -0.040 C 
ATOM      2  CA  LIG d   1       4.091  -0.062  -5.264  0.00  0.00     0.060 C 
ATOM      3  N   LIG d   1       5.203  -0.195  -4.418  0.00  0.00    -0.247 N 
ATOM      4  C   LIG d   1       6.637  -0.289  -4.841  0.00  0.00     0.129 C 
ATOM      5  H   LIG d   1       7.141   0.649  -5.073  0.00  0.00     0.068 H 
ATOM      6  CA  LIG d   1       6.887  -0.844  -3.444  0.00  0.00     0.082 C 
ATOM      7  HA  LIG d   1       7.647  -0.298  -2.886  0.00  0.00     0.098 H 
ATOM      8  C   LIG d   1       5.465  -0.420  -3.117  0.00  0.00     0.272 C 
ATOM      9  O   LIG d   1       4.824  -0.319  -2.093  0.00  0.00    -0.269 OA
ATOM     10  S   LIG d   1       6.666  -1.519  -6.188  0.00  0.00    -0.128 SA
ATOM     11  C   LIG d   1       5.378  -0.870  -7.298  0.00  0.00     0.018 C 
ATOM     12  H   LIG d   1       5.070  -1.660  -7.984  0.00  0.00     0.042 H 
ATOM     13  H   LIG d   1       5.791  -0.043  -7.875  0.00  0.00     0.042 H 
ENDROOT
BRANCH   6  14
ATOM     14  N   LIG d   1       7.111  -2.301  -3.428  0.00  0.00     0.229 N 
ATOM     15  H1  LIG d   1       6.827  -2.708  -4.317  0.00  0.00     0.200 HD
ATOM     16  H2  LIG d   1       8.096  -2.501  -3.262  0.00  0.00     0.200 HD
ATOM     17  H3  LIG d   1       6.553  -2.719  -2.675  0.00  0.00     0.200 HD
ENDBRANCH   6  14
BRANCH   2  18
ATOM     18  C   LIG d   1       2.819   0.451  -4.726  0.00  0.00     0.086 C 
ATOM     19  O   LIG d   1       2.059  -0.297  -4.145  0.00  0.00    -0.543 OA
ATOM     20  OXT LIG d   1       2.498   1.751  -4.879  0.00  0.00    -0.543 OA
ENDBRANCH   2  18
BRANCH   1  21
ATOM     21  C   LIG d   1       2.912  -0.255  -7.346  0.00  0.00    -0.041 C 
ATOM     22  H   LIG d   1       2.592  -1.240  -7.685  0.00  0.00     0.028 H 
ATOM     23  H   LIG d   1       2.133   0.185  -6.723  0.00  0.00     0.028 H 
ATOM     24  H   LIG d   1       3.092   0.384  -8.209  0.00  0.00     0.028 H 
ENDBRANCH   1  21
TORSDOF 3
ENDMDL
MODEL 9
REMARK VINA RESULT:      -4.2      2.469      3.599
REMARK  3 active torsions:
REMARK  status: ('A' for Active; 'I' for Inactive)
REMARK    1  A    between atoms: C_1  and  C_2 
REMARK    2  A    between atoms: CA_3  and  C_13 
REMARK    3  A    between atoms: CA_7  and  N_22 
ROOT
ATOM      1  C   LIG d   1       6.160  -1.671  -4.491  0.00  0.00    -0.040 C 
ATOM      2  CA  LIG d   1       5.027  -1.048  -4.203  0.00  0.00     0.060 C 
ATOM      3  N   LIG d   1       4.136  -0.684  -5.226  0.00  0.00    -0.247 N 
ATOM      4  C   LIG d   1       4.089  -1.258  -6.609  0.00  0.00     0.129 C 
ATOM      5  H   LIG d   1       3.568  -2.208  -6.726  0.00  0.00     0.068 H 
ATOM      6  CA  LIG d   1       3.283  -0.014  -6.966  0.00  0.00     0.082 C 
ATOM      7  HA  LIG d   1       2.317  -0.235  -7.421  0.00  0.00     0.098 H 
ATOM      8  C   LIG d   1       3.207   0.257  -5.473  0.00  0.00     0.272 C 
ATOM      9  O   LIG d   1       2.562   1.014  -4.779  0.00  0.00    -0.269 OA
ATOM     10  S   LIG d   1       5.817  -1.262  -7.192  0.00  0.00    -0.128 SA
ATOM     11  C   LIG d   1       6.659  -2.121  -5.825  0.00  0.00     0.018 C 
ATOM     12  H   LIG d   1       7.729  -1.925  -5.888  0.00  0.00     0.042 H 
ATOM     13  H   LIG d   1       6.490  -3.193  -5.924  0.00  0.00     0.042 H 
ENDROOT
BRANCH   6  14
ATOM     14  N   LIG d   1       4.055   0.981  -7.731  0.00  0.00     0.229 N 
ATOM     15  H1  LIG d   1       4.818   1.343  -7.163  0.00  0.00     0.200 HD
ATOM     16  H2  LIG d   1       4.433   0.555  -8.576  0.00  0.00     0.200 HD
ATOM     17  H3  LIG d   1       3.437   1.756  -7.995  0.00  0.00     0.200 HD
ENDBRANCH   6  14
BRANCH   2  18
ATOM     18  C   LIG d   1       4.696  -0.740  -2.800  0.00  0.00     0.086 C 
ATOM     19  O   LIG d   1       4.035  -1.521  -2.146  0.00  0.00    -0.543 OA
ATOM     20  OXT LIG d   1       5.127   0.409  -2.243  0.00  0.00    -0.543 OA
ENDBRANCH   2  18
BRANCH   1  21
ATOM     21  C   LIG d   1       7.062  -1.965  -3.321  0.00  0.00    -0.041 C 
ATOM     22  H   LIG d   1       6.458  -2.126  -2.428  0.00  0.00     0.028 H 
ATOM     23  H   LIG d   1       7.648  -2.860  -3.529  0.00  0.00     0.028 H 
ATOM     24  H   LIG d   1       7.732  -1.121  -3.158  0.00  0.00     0.028 H 
ENDBRANCH   1  21
TORSDOF 3
ENDMDL
