MODEL 1
REMARK VINA RESULT:      -4.9      0.000      0.000
REMARK  2 active torsions:
REMARK  status: ('A' for Active; 'I' for Inactive)
REMARK    1  A    between atoms: C_3  and  O_11 
REMARK    2  A    between atoms: C_6  and  C_7 
ROOT
ATOM      1  C   LIG d   1       4.520   0.280  -1.788  0.00  0.00     0.060 C 
ATOM      2  C   LIG d   1       3.984   1.356  -2.635  0.00  0.00     0.067 C 
ATOM      3  N   LIG d   1       3.571   2.189  -3.289  0.00  0.00    -0.196 NA
ATOM      4  H   LIG d   1       3.754  -0.045  -1.084  0.00  0.00     0.047 H 
ATOM      5  H   LIG d   1       5.386   0.647  -1.237  0.00  0.00     0.047 H 
ENDROOT
BRANCH   1   6
ATOM      6  C   LIG d   1       4.933  -0.883  -2.654  0.00  0.00    -0.032 A 
ATOM      7  C   LIG d   1       4.042  -1.912  -2.898  0.00  0.00    -0.054 A 
ATOM      8  C   LIG d   1       4.419  -2.981  -3.686  0.00  0.00    -0.019 A 
ATOM      9  H   LIG d   1       3.052  -1.881  -2.467  0.00  0.00     0.062 H 
ATOM     10  C   LIG d   1       5.689  -3.018  -4.244  0.00  0.00     0.131 A 
ATOM     11  H   LIG d   1       3.724  -3.787  -3.873  0.00  0.00     0.065 H 
ATOM     12  C   LIG d   1       6.579  -1.981  -4.001  0.00  0.00     0.059 A 
ATOM     13  C   LIG d   1       6.199  -0.916  -3.207  0.00  0.00    -0.040 A 
ATOM     14 BR   LIG d   1       8.312  -2.025  -4.759  0.00  0.00    -0.046 Br
ATOM     15  H   LIG d   1       6.892  -0.110  -3.019  0.00  0.00     0.063 H 
BRANCH  10  16
ATOM     16  O   LIG d   1       6.060  -4.066  -5.025  0.00  0.00    -0.506 OA
ATOM     17  H   LIG d   1       5.637  -4.902  -4.786  0.00  0.00     0.292 HD
ENDBRANCH  10  16
ENDBRANCH   1   6
TORSDOF 2
ENDMDL
MODEL 2
REMARK VINA RESULT:      -4.8      3.090      4.067
REMARK  2 active torsions:
REMARK  status: ('A' for Active; 'I' for Inactive)
REMARK    1  A    between atoms: C_3  and  O_11 
REMARK    2  A    between atoms: C_6  and  C_7 
ROOT
ATOM      1  C   LIG d   1       4.908  -3.653  -4.500  0.00  0.00     0.060 C 
ATOM      2  C   LIG d   1       4.793  -3.360  -5.937  0.00  0.00     0.067 C 
ATOM      3  N   LIG d   1       4.703  -3.135  -7.047  0.00  0.00    -0.196 NA
ATOM      4  H   LIG d   1       5.826  -4.210  -4.315  0.00  0.00     0.047 H 
ATOM      5  H   LIG d   1       4.052  -4.247  -4.180  0.00  0.00     0.047 H 
ENDROOT
BRANCH   1   6
ATOM      6  C   LIG d   1       4.941  -2.360  -3.725  0.00  0.00    -0.032 A 
ATOM      7  C   LIG d   1       4.038  -2.148  -2.700  0.00  0.00    -0.054 A 
ATOM      8  C   LIG d   1       4.061  -0.963  -1.991  0.00  0.00    -0.019 A 
ATOM      9  H   LIG d   1       3.311  -2.909  -2.456  0.00  0.00     0.062 H 
ATOM     10  C   LIG d   1       4.999   0.011  -2.301  0.00  0.00     0.131 A 
ATOM     11  H   LIG d   1       3.353  -0.796  -1.193  0.00  0.00     0.065 H 
ATOM     12  C   LIG d   1       5.907  -0.206  -3.328  0.00  0.00     0.059 A 
ATOM     13  C   LIG d   1       5.876  -1.391  -4.037  0.00  0.00    -0.040 A 
ATOM     14 BR   LIG d   1       7.188   1.119  -3.754  0.00  0.00    -0.046 Br
ATOM     15  H   LIG d   1       6.583  -1.561  -4.836  0.00  0.00     0.063 H 
BRANCH  10  16
ATOM     16  O   LIG d   1       5.027   1.176  -1.601  0.00  0.00    -0.506 OA
ATOM     17  H   LIG d   1       5.668   1.183  -0.877  0.00  0.00     0.292 HD
ENDBRANCH  10  16
ENDBRANCH   1   6
TORSDOF 2
ENDMDL
MODEL 3
REMARK VINA RESULT:      -4.6      3.807      4.781
REMARK  2 active torsions:
REMARK  status: ('A' for Active; 'I' for Inactive)
REMARK    1  A    between atoms: C_3  and  O_11 
REMARK    2  A    between atoms: C_6  and  C_7 
ROOT
ATOM      1  C   LIG d   1       5.770  -3.391  -4.678  0.00  0.00     0.060 C 
ATOM      2  C   LIG d   1       4.784  -4.404  -5.086  0.00  0.00     0.067 C 
ATOM      3  N   LIG d   1       4.023  -5.187  -5.401  0.00  0.00    -0.196 NA
ATOM      4  H   LIG d   1       6.306  -3.031  -5.556  0.00  0.00     0.047 H 
ATOM      5  H   LIG d   1       6.477  -3.834  -3.976  0.00  0.00     0.047 H 
ENDROOT
BRANCH   1   6
ATOM      6  C   LIG d   1       5.060  -2.238  -4.016  0.00  0.00    -0.032 A 
ATOM      7  C   LIG d   1       5.274  -1.974  -2.676  0.00  0.00    -0.054 A 
ATOM      8  C   LIG d   1       4.622  -0.922  -2.064  0.00  0.00    -0.019 A 
ATOM      9  H   LIG d   1       5.949  -2.596  -2.105  0.00  0.00     0.062 H 
ATOM     10  C   LIG d   1       3.759  -0.121  -2.798  0.00  0.00     0.131 A 
ATOM     11  H   LIG d   1       4.786  -0.719  -1.016  0.00  0.00     0.065 H 
ATOM     12  C   LIG d   1       3.550  -0.384  -4.145  0.00  0.00     0.059 A 
ATOM     13  C   LIG d   1       4.200  -1.442  -4.750  0.00  0.00    -0.040 A 
ATOM     14 BR   LIG d   1       2.375   0.705  -5.150  0.00  0.00    -0.046 Br
ATOM     15  H   LIG d   1       4.038  -1.647  -5.798  0.00  0.00     0.063 H 
BRANCH  10  16
ATOM     16  O   LIG d   1       3.120   0.919  -2.199  0.00  0.00    -0.506 OA
ATOM     17  H   LIG d   1       3.529   1.779  -2.367  0.00  0.00     0.292 HD
ENDBRANCH  10  16
ENDBRANCH   1   6
TORSDOF 2
ENDMDL
MODEL 4
REMARK VINA RESULT:      -4.5      3.563      4.218
REMARK  2 active torsions:
REMARK  status: ('A' for Active; 'I' for Inactive)
REMARK    1  A    between atoms: C_3  and  O_11 
REMARK    2  A    between atoms: C_6  and  C_7 
ROOT
ATOM      1  C   LIG d   1       6.994  -1.771  -3.138  0.00  0.00     0.060 C 
ATOM      2  C   LIG d   1       7.440  -2.845  -4.038  0.00  0.00     0.067 C 
ATOM      3  N   LIG d   1       7.786  -3.676  -4.733  0.00  0.00    -0.196 NA
ATOM      4  H   LIG d   1       7.622  -0.892  -3.281  0.00  0.00     0.047 H 
ATOM      5  H   LIG d   1       7.070  -2.108  -2.104  0.00  0.00     0.047 H 
ENDROOT
BRANCH   1   6
ATOM      6  C   LIG d   1       5.561  -1.420  -3.446  0.00  0.00    -0.032 A 
ATOM      7  C   LIG d   1       4.593  -1.552  -2.469  0.00  0.00    -0.054 A 
ATOM      8  C   LIG d   1       3.278  -1.237  -2.749  0.00  0.00    -0.019 A 
ATOM      9  H   LIG d   1       4.864  -1.908  -1.485  0.00  0.00     0.062 H 
ATOM     10  C   LIG d   1       2.930  -0.776  -4.011  0.00  0.00     0.131 A 
ATOM     11  H   LIG d   1       2.521  -1.345  -1.986  0.00  0.00     0.065 H 
ATOM     12  C   LIG d   1       3.905  -0.639  -4.989  0.00  0.00     0.059 A 
ATOM     13  C   LIG d   1       5.218  -0.961  -4.705  0.00  0.00    -0.040 A 
ATOM     14 BR   LIG d   1       3.436  -0.010  -6.710  0.00  0.00    -0.046 Br
ATOM     15  H   LIG d   1       5.977  -0.854  -5.466  0.00  0.00     0.063 H 
BRANCH  10  16
ATOM     16  O   LIG d   1       1.637  -0.459  -4.288  0.00  0.00    -0.506 OA
ATOM     17  H   LIG d   1       1.368  -0.666  -5.193  0.00  0.00     0.292 HD
ENDBRANCH  10  16
ENDBRANCH   1   6
TORSDOF 2
ENDMDL
MODEL 5
REMARK VINA RESULT:      -4.3      3.531      4.586
REMARK  2 active torsions:
REMARK  status: ('A' for Active; 'I' for Inactive)
REMARK    1  A    between atoms: C_3  and  O_11 
REMARK    2  A    between atoms: C_6  and  C_7 
ROOT
ATOM      1  C   LIG d   1       8.666  -2.989  -4.247  0.00  0.00     0.060 C 
ATOM      2  C   LIG d   1       9.142  -3.725  -3.066  0.00  0.00     0.067 C 
ATOM      3  N   LIG d   1       9.511  -4.294  -2.154  0.00  0.00    -0.196 NA
ATOM      4  H   LIG d   1       8.836  -3.586  -5.142  0.00  0.00     0.047 H 
ATOM      5  H   LIG d   1       9.208  -2.046  -4.331  0.00  0.00     0.047 H 
ENDROOT
BRANCH   1   6
ATOM      6  C   LIG d   1       7.192  -2.709  -4.103  0.00  0.00    -0.032 A 
ATOM      7  C   LIG d   1       6.271  -3.519  -4.740  0.00  0.00    -0.054 A 
ATOM      8  C   LIG d   1       4.919  -3.262  -4.615  0.00  0.00    -0.019 A 
ATOM      9  H   LIG d   1       6.608  -4.352  -5.340  0.00  0.00     0.062 H 
ATOM     10  C   LIG d   1       4.485  -2.196  -3.840  0.00  0.00     0.131 A 
ATOM     11  H   LIG d   1       4.200  -3.893  -5.116  0.00  0.00     0.065 H 
ATOM     12  C   LIG d   1       5.413  -1.386  -3.198  0.00  0.00     0.059 A 
ATOM     13  C   LIG d   1       6.763  -1.644  -3.331  0.00  0.00    -0.040 A 
ATOM     14 BR   LIG d   1       4.827   0.068  -2.141  0.00  0.00    -0.046 Br
ATOM     15  H   LIG d   1       7.485  -1.015  -2.832  0.00  0.00     0.063 H 
BRANCH  10  16
ATOM     16  O   LIG d   1       3.156  -1.944  -3.711  0.00  0.00    -0.506 OA
ATOM     17  H   LIG d   1       2.674  -1.943  -4.549  0.00  0.00     0.292 HD
ENDBRANCH  10  16
ENDBRANCH   1   6
TORSDOF 2
ENDMDL
MODEL 6
REMARK VINA RESULT:      -4.2      3.462      3.830
REMARK  2 active torsions:
REMARK  status: ('A' for Active; 'I' for Inactive)
REMARK    1  A    between atoms: C_3  and  O_11 
REMARK    2  A    between atoms: C_6  and  C_7 
ROOT
ATOM      1  C   LIG d   1       2.956   0.228  -6.781  0.00  0.00     0.060 C 
ATOM      2  C   LIG d   1       4.147   0.203  -7.645  0.00  0.00     0.067 C 
ATOM      3  N   LIG d   1       5.066   0.185  -8.313  0.00  0.00    -0.196 NA
ATOM      4  H   LIG d   1       2.219  -0.482  -7.156  0.00  0.00     0.047 H 
ATOM      5  H   LIG d   1       2.528   1.231  -6.780  0.00  0.00     0.047 H 
ENDROOT
BRANCH   1   6
ATOM      6  C   LIG d   1       3.348  -0.151  -5.375  0.00  0.00    -0.032 A 
ATOM      7  C   LIG d   1       2.462   0.052  -4.334  0.00  0.00    -0.054 A 
ATOM      8  C   LIG d   1       2.819  -0.288  -3.044  0.00  0.00    -0.019 A 
ATOM      9  H   LIG d   1       1.490   0.483  -4.528  0.00  0.00     0.062 H 
ATOM     10  C   LIG d   1       4.065  -0.847  -2.795  0.00  0.00     0.131 A 
ATOM     11  H   LIG d   1       2.128  -0.125  -2.230  0.00  0.00     0.065 H 
ATOM     12  C   LIG d   1       4.951  -1.054  -3.843  0.00  0.00     0.059 A 
ATOM     13  C   LIG d   1       4.590  -0.706  -5.130  0.00  0.00    -0.040 A 
ATOM     14 BR   LIG d   1       6.650  -1.815  -3.509  0.00  0.00    -0.046 Br
ATOM     15  H   LIG d   1       5.280  -0.868  -5.946  0.00  0.00     0.063 H 
BRANCH  10  16
ATOM     16  O   LIG d   1       4.416  -1.188  -1.527  0.00  0.00    -0.506 OA
ATOM     17  H   LIG d   1       5.359  -1.376  -1.419  0.00  0.00     0.292 HD
ENDBRANCH  10  16
ENDBRANCH   1   6
TORSDOF 2
ENDMDL
MODEL 7
REMARK VINA RESULT:      -4.0      3.619      4.121
REMARK  2 active torsions:
REMARK  status: ('A' for Active; 'I' for Inactive)
REMARK    1  A    between atoms: C_3  and  O_11 
REMARK    2  A    between atoms: C_6  and  C_7 
ROOT
ATOM      1  C   LIG d   1       3.414  -0.496  -7.365  0.00  0.00     0.060 C 
ATOM      2  C   LIG d   1       3.163   0.906  -7.737  0.00  0.00     0.067 C 
ATOM      3  N   LIG d   1       2.969   1.988  -8.024  0.00  0.00    -0.196 NA
ATOM      4  H   LIG d   1       3.800  -1.038  -8.228  0.00  0.00     0.047 H 
ATOM      5  H   LIG d   1       2.482  -0.956  -7.034  0.00  0.00     0.047 H 
ENDROOT
BRANCH   1   6
ATOM      6  C   LIG d   1       4.423  -0.546  -6.247  0.00  0.00    -0.032 A 
ATOM      7  C   LIG d   1       5.763  -0.339  -6.517  0.00  0.00    -0.054 A 
ATOM      8  C   LIG d   1       6.691  -0.390  -5.495  0.00  0.00    -0.019 A 
ATOM      9  H   LIG d   1       6.085  -0.143  -7.529  0.00  0.00     0.062 H 
ATOM     10  C   LIG d   1       6.277  -0.637  -4.194  0.00  0.00     0.131 A 
ATOM     11  H   LIG d   1       7.738  -0.232  -5.707  0.00  0.00     0.065 H 
ATOM     12  C   LIG d   1       4.930  -0.839  -3.925  0.00  0.00     0.059 A 
ATOM     13  C   LIG d   1       4.007  -0.793  -4.951  0.00  0.00    -0.040 A 
ATOM     14 BR   LIG d   1       4.360  -1.176  -2.153  0.00  0.00    -0.046 Br
ATOM     15  H   LIG d   1       2.959  -0.950  -4.742  0.00  0.00     0.063 H 
BRANCH  10  16
ATOM     16  O   LIG d   1       7.188  -0.681  -3.186  0.00  0.00    -0.506 OA
ATOM     17  H   LIG d   1       6.843  -1.054  -2.363  0.00  0.00     0.292 HD
ENDBRANCH  10  16
ENDBRANCH   1   6
TORSDOF 2
ENDMDL
MODEL 8
REMARK VINA RESULT:      -3.9      9.407     10.480
REMARK  2 active torsions:
REMARK  status: ('A' for Active; 'I' for Inactive)
REMARK    1  A    between atoms: C_3  and  O_11 
REMARK    2  A    between atoms: C_6  and  C_7 
ROOT
ATOM      1  C   LIG d   1       9.146   9.573  -0.787  0.00  0.00     0.060 C 
ATOM      2  C   LIG d   1       9.573  10.243  -2.025  0.00  0.00     0.067 C 
ATOM      3  N   LIG d   1       9.903  10.762  -2.981  0.00  0.00    -0.196 NA
ATOM      4  H   LIG d   1       8.062   9.457  -0.791  0.00  0.00     0.047 H 
ATOM      5  H   LIG d   1       9.444  10.174   0.073  0.00  0.00     0.047 H 
ENDROOT
BRANCH   1   6
ATOM      6  C   LIG d   1       9.796   8.216  -0.700  0.00  0.00    -0.032 A 
ATOM      7  C   LIG d   1      10.595   7.902   0.383  0.00  0.00    -0.054 A 
ATOM      8  C   LIG d   1      11.197   6.661   0.463  0.00  0.00    -0.019 A 
ATOM      9  H   LIG d   1      10.754   8.630   1.165  0.00  0.00     0.062 H 
ATOM     10  C   LIG d   1      10.989   5.724  -0.539  0.00  0.00     0.131 A 
ATOM     11  H   LIG d   1      11.825   6.418   1.307  0.00  0.00     0.065 H 
ATOM     12  C   LIG d   1      10.181   6.040  -1.623  0.00  0.00     0.059 A 
ATOM     13  C   LIG d   1       9.587   7.285  -1.701  0.00  0.00    -0.040 A 
ATOM     14 BR   LIG d   1       9.894   4.767  -2.992  0.00  0.00    -0.046 Br
ATOM     15  H   LIG d   1       8.958   7.531  -2.544  0.00  0.00     0.063 H 
BRANCH  10  16
ATOM     16  O   LIG d   1      11.575   4.501  -0.460  0.00  0.00    -0.506 OA
ATOM     17  H   LIG d   1      12.178   4.402   0.290  0.00  0.00     0.292 HD
ENDBRANCH  10  16
ENDBRANCH   1   6
TORSDOF 2
ENDMDL
MODEL 9
REMARK VINA RESULT:      -3.9     12.312     13.095
REMARK  2 active torsions:
REMARK  status: ('A' for Active; 'I' for Inactive)
REMARK    1  A    between atoms: C_3  and  O_11 
REMARK    2  A    between atoms: C_6  and  C_7 
ROOT
ATOM      1  C   LIG d   1      12.459 -11.462   4.612  0.00  0.00     0.060 C 
ATOM      2  C   LIG d   1      11.281 -12.194   5.104  0.00  0.00     0.067 C 
ATOM      3  N   LIG d   1      10.373 -12.760   5.486  0.00  0.00    -0.196 NA
ATOM      4  H   LIG d   1      13.137 -12.155   4.115  0.00  0.00     0.047 H 
ATOM      5  H   LIG d   1      12.971 -10.990   5.451  0.00  0.00     0.047 H 
ENDROOT
BRANCH   1   6
ATOM      6  C   LIG d   1      12.018 -10.403   3.633  0.00  0.00    -0.032 A 
ATOM      7  C   LIG d   1      12.328  -9.076   3.868  0.00  0.00    -0.054 A 
ATOM      8  C   LIG d   1      11.921  -8.103   2.976  0.00  0.00    -0.019 A 
ATOM      9  H   LIG d   1      12.885  -8.800   4.751  0.00  0.00     0.062 H 
ATOM     10  C   LIG d   1      11.211  -8.458   1.839  0.00  0.00     0.131 A 
ATOM     11  H   LIG d   1      12.160  -7.066   3.162  0.00  0.00     0.065 H 
ATOM     12  C   LIG d   1      10.906  -9.791   1.603  0.00  0.00     0.059 A 
ATOM     13  C   LIG d   1      11.310 -10.761   2.501  0.00  0.00    -0.040 A 
ATOM     14 BR   LIG d   1       9.938 -10.281   0.054  0.00  0.00    -0.046 Br
ATOM     15  H   LIG d   1      11.072 -11.798   2.318  0.00  0.00     0.063 H 
BRANCH  10  16
ATOM     16  O   LIG d   1      10.815  -7.502   0.957  0.00  0.00    -0.506 OA
ATOM     17  H   LIG d   1       9.876  -7.544   0.729  0.00  0.00     0.292 HD
ENDBRANCH  10  16
ENDBRANCH   1   6
TORSDOF 2
ENDMDL
