MODEL 1
REMARK VINA RESULT:      -6.9      0.000      0.000
REMARK  4 active torsions:
REMARK  status: ('A' for Active; 'I' for Inactive)
REMARK    1  A    between atoms: C_1  and  C_2 
REMARK    2  A    between atoms: C_2  and  C_4 
REMARK    3  A    between atoms: C_2  and  N_10 
REMARK    4  A    between atoms: C_18  and  C_24 
ROOT
ATOM      1  N   LIG d   1       5.023  -1.039  -7.127  0.00  0.00    -0.291 N 
ATOM      2  C   LIG d   1       4.098  -2.063  -7.645  0.00  0.00     0.049 C 
ATOM      3  C   LIG d   1       3.297  -1.348  -8.688  0.00  0.00     0.116 C 
ATOM      4  C   LIG d   1       2.669  -2.003  -9.866  0.00  0.00    -0.052 C 
ATOM      5  C   LIG d   1       1.869  -1.053 -10.368  0.00  0.00    -0.056 C 
ATOM      6  C   LIG d   1       1.983   0.169  -9.450  0.00  0.00     0.087 C 
ATOM      7  H   LIG d   1       1.132   0.851  -9.471  0.00  0.00     0.065 H 
ATOM      8  O   LIG d   1       2.249  -0.493  -8.160  0.00  0.00    -0.359 OA
ATOM      9  C   LIG d   1       3.383   0.809  -9.718  0.00  0.00     0.043 C 
ATOM     10  H   LIG d   1       3.525   1.006 -10.781  0.00  0.00     0.040 H 
ATOM     11  C   LIG d   1       4.334  -0.297  -9.230  0.00  0.00     0.080 C 
ATOM     12  H   LIG d   1       4.968  -0.689 -10.027  0.00  0.00     0.043 H 
ATOM     13  C   LIG d   1       5.104   0.016  -7.978  0.00  0.00     0.223 C 
ATOM     14  O   LIG d   1       5.703   1.048  -7.762  0.00  0.00    -0.275 OA
ATOM     15  H   LIG d   1       3.449  -2.438  -6.855  0.00  0.00     0.050 H 
ATOM     16  H   LIG d   1       4.667  -2.878  -8.091  0.00  0.00     0.050 H 
ATOM     17  H   LIG d   1       2.823  -3.008 -10.232  0.00  0.00     0.060 H 
ATOM     18  H   LIG d   1       1.255  -1.136 -11.252  0.00  0.00     0.060 H 
ENDROOT
BRANCH   1  19
ATOM     19  C   LIG d   1       5.748  -1.140  -5.858  0.00  0.00     0.049 C 
ATOM     20  H   LIG d   1       6.415  -0.283  -5.751  0.00  0.00     0.055 H 
BRANCH  19  21
ATOM     21  C   LIG d   1       6.569  -2.430  -5.840  0.00  0.00    -0.042 C 
ATOM     22  H   LIG d   1       5.897  -3.288  -5.814  0.00  0.00     0.025 H 
ATOM     23  H   LIG d   1       7.187  -2.480  -6.735  0.00  0.00     0.025 H 
ATOM     24  H   LIG d   1       7.208  -2.442  -4.956  0.00  0.00     0.025 H 
ENDBRANCH  19  21
BRANCH  19  25
ATOM     25  C   LIG d   1       4.764  -1.155  -4.717  0.00  0.00    -0.027 A 
ATOM     26  C   LIG d   1       4.868  -2.115  -3.728  0.00  0.00    -0.057 A 
ATOM     27  C   LIG d   1       3.965  -2.128  -2.680  0.00  0.00    -0.061 A 
ATOM     28  H   LIG d   1       5.653  -2.854  -3.772  0.00  0.00     0.062 H 
ATOM     29  C   LIG d   1       2.959  -1.182  -2.623  0.00  0.00    -0.062 A 
ATOM     30  H   LIG d   1       4.045  -2.878  -1.907  0.00  0.00     0.062 H 
ATOM     31  C   LIG d   1       2.854  -0.223  -3.612  0.00  0.00    -0.061 A 
ATOM     32  H   LIG d   1       2.253  -1.193  -1.805  0.00  0.00     0.062 H 
ATOM     33  C   LIG d   1       3.761  -0.205  -4.656  0.00  0.00    -0.057 A 
ATOM     34  H   LIG d   1       2.068   0.517  -3.568  0.00  0.00     0.062 H 
ATOM     35  H   LIG d   1       3.683   0.547  -5.427  0.00  0.00     0.062 H 
ENDBRANCH  19  25
ENDBRANCH   1  19
BRANCH   9  36
ATOM     36  C   LIG d   1       3.563   2.069  -8.911  0.00  0.00     0.048 C 
ATOM     37  O   LIG d   1       4.351   2.911  -9.273  0.00  0.00    -0.549 OA
ATOM     38  O   LIG d   1       2.849   2.256  -7.789  0.00  0.00    -0.549 OA
ENDBRANCH   9  36
TORSDOF 4
ENDMDL
MODEL 2
REMARK VINA RESULT:      -6.5      1.699      2.263
REMARK  4 active torsions:
REMARK  status: ('A' for Active; 'I' for Inactive)
REMARK    1  A    between atoms: C_1  and  C_2 
REMARK    2  A    between atoms: C_2  and  C_4 
REMARK    3  A    between atoms: C_2  and  N_10 
REMARK    4  A    between atoms: C_18  and  C_24 
ROOT
ATOM      1  N   LIG d   1       5.395  -1.275  -6.220  0.00  0.00    -0.291 N 
ATOM      2  C   LIG d   1       3.930  -1.138  -6.301  0.00  0.00     0.049 C 
ATOM      3  C   LIG d   1       3.698  -0.339  -7.545  0.00  0.00     0.116 C 
ATOM      4  C   LIG d   1       2.467  -0.407  -8.376  0.00  0.00    -0.052 C 
ATOM      5  C   LIG d   1       2.592   0.630  -9.214  0.00  0.00    -0.056 C 
ATOM      6  C   LIG d   1       3.891   1.357  -8.848  0.00  0.00     0.087 C 
ATOM      7  H   LIG d   1       3.937   2.407  -9.139  0.00  0.00     0.065 H 
ATOM      8  O   LIG d   1       3.947   1.085  -7.401  0.00  0.00    -0.359 OA
ATOM      9  C   LIG d   1       5.070   0.456  -9.337  0.00  0.00     0.043 C 
ATOM     10  H   LIG d   1       4.955   0.202 -10.391  0.00  0.00     0.040 H 
ATOM     11  C   LIG d   1       4.903  -0.790  -8.449  0.00  0.00     0.080 C 
ATOM     12  H   LIG d   1       4.696  -1.693  -9.025  0.00  0.00     0.043 H 
ATOM     13  C   LIG d   1       5.975  -0.996  -7.415  0.00  0.00     0.223 C 
ATOM     14  O   LIG d   1       7.168  -0.924  -7.618  0.00  0.00    -0.275 OA
ATOM     15  H   LIG d   1       3.539  -0.612  -5.430  0.00  0.00     0.050 H 
ATOM     16  H   LIG d   1       3.474  -2.123  -6.389  0.00  0.00     0.050 H 
ATOM     17  H   LIG d   1       1.662  -1.125  -8.318  0.00  0.00     0.060 H 
ATOM     18  H   LIG d   1       1.903   0.904  -9.999  0.00  0.00     0.060 H 
ENDROOT
BRANCH   1  19
ATOM     19  C   LIG d   1       6.129  -1.650  -5.009  0.00  0.00     0.049 C 
ATOM     20  H   LIG d   1       7.187  -1.421  -5.139  0.00  0.00     0.055 H 
BRANCH  19  21
ATOM     21  C   LIG d   1       5.960  -3.149  -4.752  0.00  0.00    -0.042 C 
ATOM     22  H   LIG d   1       6.286  -3.383  -3.738  0.00  0.00     0.025 H 
ATOM     23  H   LIG d   1       4.912  -3.421  -4.868  0.00  0.00     0.025 H 
ATOM     24  H   LIG d   1       6.563  -3.710  -5.466  0.00  0.00     0.025 H 
ENDBRANCH  19  21
BRANCH  19  25
ATOM     25  C   LIG d   1       5.589  -0.875  -3.834  0.00  0.00    -0.027 A 
ATOM     26  C   LIG d   1       4.849  -1.521  -2.861  0.00  0.00    -0.057 A 
ATOM     27  C   LIG d   1       4.354  -0.810  -1.783  0.00  0.00    -0.061 A 
ATOM     28  H   LIG d   1       4.658  -2.581  -2.943  0.00  0.00     0.062 H 
ATOM     29  C   LIG d   1       4.599   0.546  -1.678  0.00  0.00    -0.062 A 
ATOM     30  H   LIG d   1       3.776  -1.315  -1.023  0.00  0.00     0.062 H 
ATOM     31  C   LIG d   1       5.338   1.192  -2.651  0.00  0.00    -0.061 A 
ATOM     32  H   LIG d   1       4.212   1.101  -0.837  0.00  0.00     0.062 H 
ATOM     33  C   LIG d   1       5.839   0.481  -3.726  0.00  0.00    -0.057 A 
ATOM     34  H   LIG d   1       5.530   2.252  -2.570  0.00  0.00     0.062 H 
ATOM     35  H   LIG d   1       6.420   0.984  -4.484  0.00  0.00     0.062 H 
ENDBRANCH  19  25
ENDBRANCH   1  19
BRANCH   9  36
ATOM     36  C   LIG d   1       6.398   1.122  -9.087  0.00  0.00     0.048 C 
ATOM     37  O   LIG d   1       6.511   1.928  -8.193  0.00  0.00    -0.549 OA
ATOM     38  O   LIG d   1       7.456   0.821  -9.857  0.00  0.00    -0.549 OA
ENDBRANCH   9  36
TORSDOF 4
ENDMDL
MODEL 3
REMARK VINA RESULT:      -6.3      2.366      6.060
REMARK  4 active torsions:
REMARK  status: ('A' for Active; 'I' for Inactive)
REMARK    1  A    between atoms: C_1  and  C_2 
REMARK    2  A    between atoms: C_2  and  C_4 
REMARK    3  A    between atoms: C_2  and  N_10 
REMARK    4  A    between atoms: C_18  and  C_24 
ROOT
ATOM      1  N   LIG d   1       3.750  -0.400  -6.062  0.00  0.00    -0.291 N 
ATOM      2  C   LIG d   1       2.931   0.163  -4.974  0.00  0.00     0.049 C 
ATOM      3  C   LIG d   1       3.780   0.012  -3.750  0.00  0.00     0.116 C 
ATOM      4  C   LIG d   1       3.701   0.890  -2.553  0.00  0.00    -0.052 C 
ATOM      5  C   LIG d   1       4.440   0.248  -1.640  0.00  0.00    -0.056 C 
ATOM      6  C   LIG d   1       4.927  -1.056  -2.283  0.00  0.00     0.087 C 
ATOM      7  H   LIG d   1       5.182  -1.855  -1.585  0.00  0.00     0.065 H 
ATOM      8  O   LIG d   1       3.807  -1.332  -3.200  0.00  0.00    -0.359 OA
ATOM      9  C   LIG d   1       6.032  -0.668  -3.316  0.00  0.00     0.043 C 
ATOM     10  H   LIG d   1       6.806  -0.057  -2.849  0.00  0.00     0.040 H 
ATOM     11  C   LIG d   1       5.230   0.151  -4.343  0.00  0.00     0.080 C 
ATOM     12  H   LIG d   1       5.569   1.185  -4.415  0.00  0.00     0.043 H 
ATOM     13  C   LIG d   1       5.052  -0.496  -5.689  0.00  0.00     0.223 C 
ATOM     14  O   LIG d   1       5.932  -1.019  -6.338  0.00  0.00    -0.275 OA
ATOM     15  H   LIG d   1       1.998  -0.389  -4.862  0.00  0.00     0.050 H 
ATOM     16  H   LIG d   1       2.731   1.215  -5.173  0.00  0.00     0.050 H 
ATOM     17  H   LIG d   1       3.173   1.826  -2.447  0.00  0.00     0.060 H 
ATOM     18  H   LIG d   1       4.650   0.584  -0.636  0.00  0.00     0.060 H 
ENDROOT
BRANCH   1  19
ATOM     19  C   LIG d   1       3.228  -0.815  -7.366  0.00  0.00     0.049 C 
ATOM     20  H   LIG d   1       2.158  -1.012  -7.283  0.00  0.00     0.055 H 
BRANCH  19  21
ATOM     21  C   LIG d   1       3.947  -2.085  -7.825  0.00  0.00    -0.042 C 
ATOM     22  H   LIG d   1       3.466  -2.956  -7.378  0.00  0.00     0.025 H 
ATOM     23  H   LIG d   1       3.897  -2.159  -8.910  0.00  0.00     0.025 H 
ATOM     24  H   LIG d   1       4.990  -2.045  -7.510  0.00  0.00     0.025 H 
ENDBRANCH  19  21
BRANCH  19  25
ATOM     25  C   LIG d   1       3.459   0.284  -8.372  0.00  0.00    -0.027 A 
ATOM     26  C   LIG d   1       2.944   1.546  -8.148  0.00  0.00    -0.057 A 
ATOM     27  C   LIG d   1       3.157   2.554  -9.071  0.00  0.00    -0.061 A 
ATOM     28  H   LIG d   1       2.375   1.746  -7.253  0.00  0.00     0.062 H 
ATOM     29  C   LIG d   1       3.886   2.298 -10.218  0.00  0.00    -0.062 A 
ATOM     30  H   LIG d   1       2.755   3.541  -8.896  0.00  0.00     0.062 H 
ATOM     31  C   LIG d   1       4.400   1.035 -10.442  0.00  0.00    -0.061 A 
ATOM     32  H   LIG d   1       4.052   3.084 -10.939  0.00  0.00     0.062 H 
ATOM     33  C   LIG d   1       4.193   0.029  -9.517  0.00  0.00    -0.057 A 
ATOM     34  H   LIG d   1       4.969   0.834 -11.338  0.00  0.00     0.062 H 
ATOM     35  H   LIG d   1       4.599  -0.956  -9.689  0.00  0.00     0.062 H 
ENDBRANCH  19  25
ENDBRANCH   1  19
BRANCH   9  36
ATOM     36  C   LIG d   1       6.630  -1.895  -3.954  0.00  0.00     0.048 C 
ATOM     37  O   LIG d   1       7.781  -1.886  -4.320  0.00  0.00    -0.549 OA
ATOM     38  O   LIG d   1       5.882  -2.999  -4.115  0.00  0.00    -0.549 OA
ENDBRANCH   9  36
TORSDOF 4
ENDMDL
MODEL 4
REMARK VINA RESULT:      -6.2      3.358      6.222
REMARK  4 active torsions:
REMARK  status: ('A' for Active; 'I' for Inactive)
REMARK    1  A    between atoms: C_1  and  C_2 
REMARK    2  A    between atoms: C_2  and  C_4 
REMARK    3  A    between atoms: C_2  and  N_10 
REMARK    4  A    between atoms: C_18  and  C_24 
ROOT
ATOM      1  N   LIG d   1       7.505   0.036  -4.370  0.00  0.00    -0.291 N 
ATOM      2  C   LIG d   1       6.866   1.143  -3.635  0.00  0.00     0.049 C 
ATOM      3  C   LIG d   1       5.549   0.587  -3.194  0.00  0.00     0.116 C 
ATOM      4  C   LIG d   1       4.801   1.040  -1.991  0.00  0.00    -0.052 C 
ATOM      5  C   LIG d   1       3.601   0.463  -2.128  0.00  0.00    -0.056 C 
ATOM      6  C   LIG d   1       3.613  -0.305  -3.455  0.00  0.00     0.087 C 
ATOM      7  H   LIG d   1       2.635  -0.482  -3.902  0.00  0.00     0.065 H 
ATOM      8  O   LIG d   1       4.539   0.534  -4.236  0.00  0.00    -0.359 OA
ATOM      9  C   LIG d   1       4.509  -1.567  -3.240  0.00  0.00     0.043 C 
ATOM     10  H   LIG d   1       4.180  -2.136  -2.371  0.00  0.00     0.040 H 
ATOM     11  C   LIG d   1       5.890  -0.934  -2.992  0.00  0.00     0.080 C 
ATOM     12  H   LIG d   1       6.285  -1.160  -2.000  0.00  0.00     0.043 H 
ATOM     13  C   LIG d   1       6.904  -1.147  -4.081  0.00  0.00     0.223 C 
ATOM     14  O   LIG d   1       7.147  -2.207  -4.617  0.00  0.00    -0.275 OA
ATOM     15  H   LIG d   1       6.719   2.008  -4.283  0.00  0.00     0.050 H 
ATOM     16  H   LIG d   1       7.477   1.411  -2.773  0.00  0.00     0.050 H 
ATOM     17  H   LIG d   1       5.146   1.682  -1.193  0.00  0.00     0.060 H 
ATOM     18  H   LIG d   1       2.776   0.531  -1.434  0.00  0.00     0.060 H 
ENDROOT
BRANCH   1  19
ATOM     19  C   LIG d   1       8.628   0.193  -5.297  0.00  0.00     0.049 C 
ATOM     20  H   LIG d   1       9.037  -0.788  -5.541  0.00  0.00     0.055 H 
BRANCH  19  21
ATOM     21  C   LIG d   1       9.714   1.050  -4.644  0.00  0.00    -0.042 C 
ATOM     22  H   LIG d   1       9.708   0.884  -3.566  0.00  0.00     0.025 H 
ATOM     23  H   LIG d   1      10.687   0.774  -5.048  0.00  0.00     0.025 H 
ATOM     24  H   LIG d   1       9.519   2.103  -4.850  0.00  0.00     0.025 H 
ENDBRANCH  19  21
BRANCH  19  25
ATOM     25  C   LIG d   1       8.149   0.866  -6.558  0.00  0.00    -0.027 A 
ATOM     26  C   LIG d   1       6.998   0.424  -7.183  0.00  0.00    -0.057 A 
ATOM     27  C   LIG d   1       6.559   1.042  -8.339  0.00  0.00    -0.061 A 
ATOM     28  H   LIG d   1       6.442  -0.404  -6.768  0.00  0.00     0.062 H 
ATOM     29  C   LIG d   1       7.270   2.101  -8.870  0.00  0.00    -0.062 A 
ATOM     30  H   LIG d   1       5.659   0.697  -8.828  0.00  0.00     0.062 H 
ATOM     31  C   LIG d   1       8.421   2.543  -8.246  0.00  0.00    -0.061 A 
ATOM     32  H   LIG d   1       6.927   2.583  -9.773  0.00  0.00     0.062 H 
ATOM     33  C   LIG d   1       8.858   1.930  -7.086  0.00  0.00    -0.057 A 
ATOM     34  H   LIG d   1       8.978   3.370  -8.660  0.00  0.00     0.062 H 
ATOM     35  H   LIG d   1       9.754   2.277  -6.595  0.00  0.00     0.062 H 
ENDBRANCH  19  25
ENDBRANCH   1  19
BRANCH   9  36
ATOM     36  C   LIG d   1       4.527  -2.432  -4.474  0.00  0.00     0.048 C 
ATOM     37  O   LIG d   1       4.629  -3.631  -4.369  0.00  0.00    -0.549 OA
ATOM     38  O   LIG d   1       4.430  -1.869  -5.689  0.00  0.00    -0.549 OA
ENDBRANCH   9  36
TORSDOF 4
ENDMDL
MODEL 5
REMARK VINA RESULT:      -6.1      2.021      5.670
REMARK  4 active torsions:
REMARK  status: ('A' for Active; 'I' for Inactive)
REMARK    1  A    between atoms: C_1  and  C_2 
REMARK    2  A    between atoms: C_2  and  C_4 
REMARK    3  A    between atoms: C_2  and  N_10 
REMARK    4  A    between atoms: C_18  and  C_24 
ROOT
ATOM      1  N   LIG d   1       4.178  -0.092  -6.435  0.00  0.00    -0.291 N 
ATOM      2  C   LIG d   1       3.099  -0.184  -5.435  0.00  0.00     0.049 C 
ATOM      3  C   LIG d   1       3.701  -0.963  -4.307  0.00  0.00     0.116 C 
ATOM      4  C   LIG d   1       3.284  -0.849  -2.885  0.00  0.00    -0.052 C 
ATOM      5  C   LIG d   1       3.897  -1.880  -2.291  0.00  0.00    -0.056 C 
ATOM      6  C   LIG d   1       4.652  -2.650  -3.381  0.00  0.00     0.087 C 
ATOM      7  H   LIG d   1       4.856  -3.698  -3.157  0.00  0.00     0.065 H 
ATOM      8  O   LIG d   1       3.777  -2.395  -4.538  0.00  0.00    -0.359 OA
ATOM      9  C   LIG d   1       5.887  -1.780  -3.780  0.00  0.00     0.043 C 
ATOM     10  H   LIG d   1       6.475  -1.511  -2.902  0.00  0.00     0.040 H 
ATOM     11  C   LIG d   1       5.213  -0.539  -4.391  0.00  0.00     0.080 C 
ATOM     12  H   LIG d   1       5.435   0.376  -3.840  0.00  0.00     0.043 H 
ATOM     13  C   LIG d   1       5.382  -0.376  -5.876  0.00  0.00     0.223 C 
ATOM     14  O   LIG d   1       6.429  -0.482  -6.479  0.00  0.00    -0.275 OA
ATOM     15  H   LIG d   1       2.234  -0.708  -5.842  0.00  0.00     0.050 H 
ATOM     16  H   LIG d   1       2.820   0.815  -5.104  0.00  0.00     0.050 H 
ATOM     17  H   LIG d   1       2.639  -0.107  -2.436  0.00  0.00     0.060 H 
ATOM     18  H   LIG d   1       3.863  -2.125  -1.240  0.00  0.00     0.060 H 
ENDROOT
BRANCH   1  19
ATOM     19  C   LIG d   1       3.977   0.247  -7.846  0.00  0.00     0.049 C 
ATOM     20  H   LIG d   1       4.940   0.464  -8.308  0.00  0.00     0.055 H 
BRANCH  19  21
ATOM     21  C   LIG d   1       3.073   1.477  -7.951  0.00  0.00    -0.042 C 
ATOM     22  H   LIG d   1       3.331   2.186  -7.164  0.00  0.00     0.025 H 
ATOM     23  H   LIG d   1       3.211   1.948  -8.923  0.00  0.00     0.025 H 
ATOM     24  H   LIG d   1       2.032   1.174  -7.839  0.00  0.00     0.025 H 
ENDBRANCH  19  21
BRANCH  19  25
ATOM     25  C   LIG d   1       3.328  -0.914  -8.555  0.00  0.00    -0.027 A 
ATOM     26  C   LIG d   1       3.870  -2.181  -8.445  0.00  0.00    -0.057 A 
ATOM     27  C   LIG d   1       3.275  -3.246  -9.096  0.00  0.00    -0.061 A 
ATOM     28  H   LIG d   1       4.759  -2.338  -7.852  0.00  0.00     0.062 H 
ATOM     29  C   LIG d   1       2.137  -3.044  -9.855  0.00  0.00    -0.062 A 
ATOM     30  H   LIG d   1       3.698  -4.236  -9.010  0.00  0.00     0.062 H 
ATOM     31  C   LIG d   1       1.596  -1.777  -9.965  0.00  0.00    -0.061 A 
ATOM     32  H   LIG d   1       1.673  -3.875 -10.363  0.00  0.00     0.062 H 
ATOM     33  C   LIG d   1       2.187  -0.713  -9.310  0.00  0.00    -0.057 A 
ATOM     34  H   LIG d   1       0.708  -1.618 -10.559  0.00  0.00     0.062 H 
ATOM     35  H   LIG d   1       1.762   0.276  -9.392  0.00  0.00     0.062 H 
ENDBRANCH  19  25
ENDBRANCH   1  19
BRANCH   9  36
ATOM     36  C   LIG d   1       6.739  -2.489  -4.800  0.00  0.00     0.048 C 
ATOM     37  O   LIG d   1       7.916  -2.232  -4.887  0.00  0.00    -0.549 OA
ATOM     38  O   LIG d   1       6.189  -3.404  -5.614  0.00  0.00    -0.549 OA
ENDBRANCH   9  36
TORSDOF 4
ENDMDL
MODEL 6
REMARK VINA RESULT:      -5.9      2.511      5.853
REMARK  4 active torsions:
REMARK  status: ('A' for Active; 'I' for Inactive)
REMARK    1  A    between atoms: C_1  and  C_2 
REMARK    2  A    between atoms: C_2  and  C_4 
REMARK    3  A    between atoms: C_2  and  N_10 
REMARK    4  A    between atoms: C_18  and  C_24 
ROOT
ATOM      1  N   LIG d   1       5.055  -0.971  -6.570  0.00  0.00    -0.291 N 
ATOM      2  C   LIG d   1       6.397  -0.667  -7.099  0.00  0.00     0.049 C 
ATOM      3  C   LIG d   1       7.171  -0.197  -5.907  0.00  0.00     0.116 C 
ATOM      4  C   LIG d   1       8.645  -0.317  -5.757  0.00  0.00    -0.052 C 
ATOM      5  C   LIG d   1       8.917   0.439  -4.686  0.00  0.00    -0.056 C 
ATOM      6  C   LIG d   1       7.594   1.059  -4.218  0.00  0.00     0.087 C 
ATOM      7  H   LIG d   1       7.687   1.980  -3.643  0.00  0.00     0.065 H 
ATOM      8  O   LIG d   1       6.885   1.169  -5.505  0.00  0.00    -0.359 OA
ATOM      9  C   LIG d   1       6.767  -0.087  -3.552  0.00  0.00     0.043 C 
ATOM     10  H   LIG d   1       7.349  -0.591  -2.779  0.00  0.00     0.040 H 
ATOM     11  C   LIG d   1       6.509  -1.025  -4.745  0.00  0.00     0.080 C 
ATOM     12  H   LIG d   1       6.956  -2.011  -4.610  0.00  0.00     0.043 H 
ATOM     13  C   LIG d   1       5.084  -1.094  -5.218  0.00  0.00     0.223 C 
ATOM     14  O   LIG d   1       4.114  -1.236  -4.505  0.00  0.00    -0.275 OA
ATOM     15  H   LIG d   1       6.349   0.116  -7.857  0.00  0.00     0.050 H 
ATOM     16  H   LIG d   1       6.841  -1.572  -7.512  0.00  0.00     0.050 H 
ATOM     17  H   LIG d   1       9.334  -0.881  -6.368  0.00  0.00     0.060 H 
ATOM     18  H   LIG d   1       9.888   0.588  -4.237  0.00  0.00     0.060 H 
ENDROOT
BRANCH   1  19
ATOM     19  C   LIG d   1       3.850  -1.110  -7.391  0.00  0.00     0.049 C 
ATOM     20  H   LIG d   1       2.975  -1.172  -6.743  0.00  0.00     0.055 H 
BRANCH  19  21
ATOM     21  C   LIG d   1       3.951  -2.382  -8.235  0.00  0.00    -0.042 C 
ATOM     22  H   LIG d   1       2.952  -2.693  -8.544  0.00  0.00     0.025 H 
ATOM     23  H   LIG d   1       4.559  -2.186  -9.116  0.00  0.00     0.025 H 
ATOM     24  H   LIG d   1       4.411  -3.175  -7.644  0.00  0.00     0.025 H 
ENDBRANCH  19  21
BRANCH  19  25
ATOM     25  C   LIG d   1       3.719   0.086  -8.299  0.00  0.00    -0.027 A 
ATOM     26  C   LIG d   1       3.161   1.257  -7.823  0.00  0.00    -0.057 A 
ATOM     27  C   LIG d   1       3.042   2.354  -8.656  0.00  0.00    -0.061 A 
ATOM     28  H   LIG d   1       2.818   1.316  -6.801  0.00  0.00     0.062 H 
ATOM     29  C   LIG d   1       3.481   2.279  -9.965  0.00  0.00    -0.062 A 
ATOM     30  H   LIG d   1       2.606   3.270  -8.285  0.00  0.00     0.062 H 
ATOM     31  C   LIG d   1       4.039   1.108 -10.440  0.00  0.00    -0.061 A 
ATOM     32  H   LIG d   1       3.388   3.136 -10.615  0.00  0.00     0.062 H 
ATOM     33  C   LIG d   1       4.164   0.013  -9.606  0.00  0.00    -0.057 A 
ATOM     34  H   LIG d   1       4.382   1.049 -11.463  0.00  0.00     0.062 H 
ATOM     35  H   LIG d   1       4.604  -0.901  -9.976  0.00  0.00     0.062 H 
ENDBRANCH  19  25
ENDBRANCH   1  19
BRANCH   9  36
ATOM     36  C   LIG d   1       5.471   0.439  -2.991  0.00  0.00     0.048 C 
ATOM     37  O   LIG d   1       4.922  -0.147  -2.088  0.00  0.00    -0.549 OA
ATOM     38  O   LIG d   1       4.928   1.559  -3.494  0.00  0.00    -0.549 OA
ENDBRANCH   9  36
TORSDOF 4
ENDMDL
MODEL 7
REMARK VINA RESULT:      -5.7      1.029      1.276
REMARK  4 active torsions:
REMARK  status: ('A' for Active; 'I' for Inactive)
REMARK    1  A    between atoms: C_1  and  C_2 
REMARK    2  A    between atoms: C_2  and  C_4 
REMARK    3  A    between atoms: C_2  and  N_10 
REMARK    4  A    between atoms: C_18  and  C_24 
ROOT
ATOM      1  N   LIG d   1       5.130  -2.126  -7.269  0.00  0.00    -0.291 N 
ATOM      2  C   LIG d   1       3.874  -2.789  -7.667  0.00  0.00     0.049 C 
ATOM      3  C   LIG d   1       3.286  -1.882  -8.702  0.00  0.00     0.116 C 
ATOM      4  C   LIG d   1       2.383  -2.324  -9.797  0.00  0.00    -0.052 C 
ATOM      5  C   LIG d   1       1.918  -1.176 -10.307  0.00  0.00    -0.056 C 
ATOM      6  C   LIG d   1       2.512  -0.034  -9.474  0.00  0.00     0.087 C 
ATOM      7  H   LIG d   1       1.945   0.897  -9.486  0.00  0.00     0.065 H 
ATOM      8  O   LIG d   1       2.636  -0.699  -8.165  0.00  0.00    -0.359 OA
ATOM      9  C   LIG d   1       4.021   0.076  -9.864  0.00  0.00     0.043 C 
ATOM     10  H   LIG d   1       4.139   0.171 -10.944  0.00  0.00     0.040 H 
ATOM     11  C   LIG d   1       4.574  -1.272  -9.368  0.00  0.00     0.080 C 
ATOM     12  H   LIG d   1       4.973  -1.887 -10.176  0.00  0.00     0.043 H 
ATOM     13  C   LIG d   1       5.498  -1.196  -8.186  0.00  0.00     0.223 C 
ATOM     14  O   LIG d   1       6.427  -0.425  -8.070  0.00  0.00    -0.275 OA
ATOM     15  H   LIG d   1       3.199  -2.888  -6.817  0.00  0.00     0.050 H 
ATOM     16  H   LIG d   1       4.096  -3.766  -8.095  0.00  0.00     0.050 H 
ATOM     17  H   LIG d   1       2.157  -3.333 -10.109  0.00  0.00     0.060 H 
ATOM     18  H   LIG d   1       1.246  -1.075 -11.146  0.00  0.00     0.060 H 
ENDROOT
BRANCH   1  19
ATOM     19  C   LIG d   1       5.873  -2.423  -6.041  0.00  0.00     0.049 C 
ATOM     20  H   LIG d   1       6.850  -1.942  -6.083  0.00  0.00     0.055 H 
BRANCH  19  21
ATOM     21  C   LIG d   1       6.055  -3.936  -5.908  0.00  0.00    -0.042 C 
ATOM     22  H   LIG d   1       6.553  -4.322  -6.797  0.00  0.00     0.025 H 
ATOM     23  H   LIG d   1       6.661  -4.154  -5.029  0.00  0.00     0.025 H 
ATOM     24  H   LIG d   1       5.079  -4.412  -5.803  0.00  0.00     0.025 H 
ENDBRANCH  19  21
BRANCH  19  25
ATOM     25  C   LIG d   1       5.107  -1.903  -4.851  0.00  0.00    -0.027 A 
ATOM     26  C   LIG d   1       4.643  -2.781  -3.891  0.00  0.00    -0.057 A 
ATOM     27  C   LIG d   1       3.941  -2.303  -2.799  0.00  0.00    -0.061 A 
ATOM     28  H   LIG d   1       4.828  -3.840  -3.992  0.00  0.00     0.062 H 
ATOM     29  C   LIG d   1       3.704  -0.947  -2.669  0.00  0.00    -0.062 A 
ATOM     30  H   LIG d   1       3.579  -2.989  -2.047  0.00  0.00     0.062 H 
ATOM     31  C   LIG d   1       4.168  -0.070  -3.631  0.00  0.00    -0.061 A 
ATOM     32  H   LIG d   1       3.156  -0.574  -1.817  0.00  0.00     0.062 H 
ATOM     33  C   LIG d   1       4.875  -0.546  -4.719  0.00  0.00    -0.057 A 
ATOM     34  H   LIG d   1       3.982   0.990  -3.530  0.00  0.00     0.062 H 
ATOM     35  H   LIG d   1       5.241   0.140  -5.468  0.00  0.00     0.062 H 
ENDBRANCH  19  25
ENDBRANCH   1  19
BRANCH   9  36
ATOM     36  C   LIG d   1       4.681   1.226  -9.148  0.00  0.00     0.048 C 
ATOM     37  O   LIG d   1       4.222   1.631  -8.106  0.00  0.00    -0.549 OA
ATOM     38  O   LIG d   1       5.778   1.800  -9.668  0.00  0.00    -0.549 OA
ENDBRANCH   9  36
TORSDOF 4
ENDMDL
MODEL 8
REMARK VINA RESULT:      -5.5      3.263      4.725
REMARK  4 active torsions:
REMARK  status: ('A' for Active; 'I' for Inactive)
REMARK    1  A    between atoms: C_1  and  C_2 
REMARK    2  A    between atoms: C_2  and  C_4 
REMARK    3  A    between atoms: C_2  and  N_10 
REMARK    4  A    between atoms: C_18  and  C_24 
ROOT
ATOM      1  N   LIG d   1       7.237  -1.300  -5.536  0.00  0.00    -0.291 N 
ATOM      2  C   LIG d   1       6.256  -0.749  -6.488  0.00  0.00     0.049 C 
ATOM      3  C   LIG d   1       7.022   0.279  -7.261  0.00  0.00     0.116 C 
ATOM      4  C   LIG d   1       6.710   0.695  -8.654  0.00  0.00    -0.052 C 
ATOM      5  C   LIG d   1       7.471   1.781  -8.838  0.00  0.00    -0.056 C 
ATOM      6  C   LIG d   1       8.212   2.047  -7.523  0.00  0.00     0.087 C 
ATOM      7  H   LIG d   1       8.539   3.075  -7.370  0.00  0.00     0.065 H 
ATOM      8  O   LIG d   1       7.226   1.533  -6.556  0.00  0.00    -0.359 OA
ATOM      9  C   LIG d   1       9.315   0.948  -7.393  0.00  0.00     0.043 C 
ATOM     10  H   LIG d   1       9.940   0.915  -8.286  0.00  0.00     0.040 H 
ATOM     11  C   LIG d   1       8.471  -0.332  -7.265  0.00  0.00     0.080 C 
ATOM     12  H   LIG d   1       8.641  -1.033  -8.084  0.00  0.00     0.043 H 
ATOM     13  C   LIG d   1       8.505  -0.997  -5.918  0.00  0.00     0.223 C 
ATOM     14  O   LIG d   1       9.506  -1.228  -5.273  0.00  0.00    -0.275 OA
ATOM     15  H   LIG d   1       5.420  -0.287  -5.963  0.00  0.00     0.050 H 
ATOM     16  H   LIG d   1       5.903  -1.540  -7.149  0.00  0.00     0.050 H 
ATOM     17  H   LIG d   1       6.029   0.230  -9.352  0.00  0.00     0.060 H 
ATOM     18  H   LIG d   1       7.545   2.363  -9.745  0.00  0.00     0.060 H 
ENDROOT
BRANCH   1  19
ATOM     19  C   LIG d   1       6.891  -2.060  -4.333  0.00  0.00     0.049 C 
ATOM     20  H   LIG d   1       7.796  -2.267  -3.761  0.00  0.00     0.055 H 
BRANCH  19  21
ATOM     21  C   LIG d   1       6.229  -3.380  -4.735  0.00  0.00    -0.042 C 
ATOM     22  H   LIG d   1       5.893  -3.905  -3.841  0.00  0.00     0.025 H 
ATOM     23  H   LIG d   1       5.376  -3.177  -5.380  0.00  0.00     0.025 H 
ATOM     24  H   LIG d   1       6.950  -3.999  -5.271  0.00  0.00     0.025 H 
ENDBRANCH  19  21
BRANCH  19  25
ATOM     25  C   LIG d   1       5.935  -1.257  -3.488  0.00  0.00    -0.027 A 
ATOM     26  C   LIG d   1       4.776  -1.840  -3.012  0.00  0.00    -0.057 A 
ATOM     27  C   LIG d   1       3.900  -1.102  -2.237  0.00  0.00    -0.061 A 
ATOM     28  H   LIG d   1       4.554  -2.870  -3.246  0.00  0.00     0.062 H 
ATOM     29  C   LIG d   1       4.184   0.217  -1.937  0.00  0.00    -0.062 A 
ATOM     30  H   LIG d   1       2.994  -1.558  -1.864  0.00  0.00     0.062 H 
ATOM     31  C   LIG d   1       5.343   0.800  -2.414  0.00  0.00    -0.061 A 
ATOM     32  H   LIG d   1       3.500   0.793  -1.333  0.00  0.00     0.062 H 
ATOM     33  C   LIG d   1       6.222   0.062  -3.184  0.00  0.00    -0.057 A 
ATOM     34  H   LIG d   1       5.565   1.831  -2.181  0.00  0.00     0.062 H 
ATOM     35  H   LIG d   1       7.130   0.515  -3.553  0.00  0.00     0.062 H 
ENDBRANCH  19  25
ENDBRANCH   1  19
BRANCH   9  36
ATOM     36  C   LIG d   1      10.152   1.168  -6.159  0.00  0.00     0.048 C 
ATOM     37  O   LIG d   1       9.699   1.783  -5.224  0.00  0.00    -0.549 OA
ATOM     38  O   LIG d   1      11.402   0.679  -6.101  0.00  0.00    -0.549 OA
ENDBRANCH   9  36
TORSDOF 4
ENDMDL
MODEL 9
REMARK VINA RESULT:      -5.3      4.129      6.505
REMARK  4 active torsions:
REMARK  status: ('A' for Active; 'I' for Inactive)
REMARK    1  A    between atoms: C_1  and  C_2 
REMARK    2  A    between atoms: C_2  and  C_4 
REMARK    3  A    between atoms: C_2  and  N_10 
REMARK    4  A    between atoms: C_18  and  C_24 
ROOT
ATOM      1  N   LIG d   1       7.118   0.622  -4.272  0.00  0.00    -0.291 N 
ATOM      2  C   LIG d   1       6.057   0.928  -3.296  0.00  0.00     0.049 C 
ATOM      3  C   LIG d   1       5.337  -0.370  -3.108  0.00  0.00     0.116 C 
ATOM      4  C   LIG d   1       4.606  -0.760  -1.873  0.00  0.00    -0.052 C 
ATOM      5  C   LIG d   1       3.929  -1.856  -2.238  0.00  0.00    -0.056 C 
ATOM      6  C   LIG d   1       4.220  -2.097  -3.724  0.00  0.00     0.087 C 
ATOM      7  H   LIG d   1       3.466  -2.673  -4.261  0.00  0.00     0.065 H 
ATOM      8  O   LIG d   1       4.421  -0.711  -4.182  0.00  0.00    -0.359 OA
ATOM      9  C   LIG d   1       5.686  -2.628  -3.819  0.00  0.00     0.043 C 
ATOM     10  H   LIG d   1       5.833  -3.488  -3.166  0.00  0.00     0.040 H 
ATOM     11  C   LIG d   1       6.493  -1.415  -3.321  0.00  0.00     0.080 C 
ATOM     12  H   LIG d   1       7.055  -1.629  -2.411  0.00  0.00     0.043 H 
ATOM     13  C   LIG d   1       7.321  -0.717  -4.363  0.00  0.00     0.223 C 
ATOM     14  O   LIG d   1       8.054  -1.263  -5.160  0.00  0.00    -0.275 OA
ATOM     15  H   LIG d   1       5.379   1.689  -3.682  0.00  0.00     0.050 H 
ATOM     16  H   LIG d   1       6.505   1.257  -2.359  0.00  0.00     0.050 H 
ATOM     17  H   LIG d   1       4.620  -0.274  -0.908  0.00  0.00     0.060 H 
ATOM     18  H   LIG d   1       3.293  -2.455  -1.604  0.00  0.00     0.060 H 
ENDROOT
BRANCH   1  19
ATOM     19  C   LIG d   1       7.847   1.628  -5.049  0.00  0.00     0.049 C 
ATOM     20  H   LIG d   1       7.322   2.582  -4.993  0.00  0.00     0.055 H 
BRANCH  19  21
ATOM     21  C   LIG d   1       7.935   1.180  -6.509  0.00  0.00    -0.042 C 
ATOM     22  H   LIG d   1       8.696   0.405  -6.606  0.00  0.00     0.025 H 
ATOM     23  H   LIG d   1       6.972   0.785  -6.827  0.00  0.00     0.025 H 
ATOM     24  H   LIG d   1       8.203   2.032  -7.135  0.00  0.00     0.025 H 
ENDBRANCH  19  21
BRANCH  19  25
ATOM     25  C   LIG d   1       9.238   1.786  -4.488  0.00  0.00    -0.027 A 
ATOM     26  C   LIG d   1      10.303   1.147  -5.092  0.00  0.00    -0.057 A 
ATOM     27  C   LIG d   1      11.579   1.293  -4.578  0.00  0.00    -0.061 A 
ATOM     28  H   LIG d   1      10.141   0.533  -5.966  0.00  0.00     0.062 H 
ATOM     29  C   LIG d   1      11.787   2.078  -3.459  0.00  0.00    -0.062 A 
ATOM     30  H   LIG d   1      12.412   0.793  -5.050  0.00  0.00     0.062 H 
ATOM     31  C   LIG d   1      10.721   2.717  -2.855  0.00  0.00    -0.061 A 
ATOM     32  H   LIG d   1      12.783   2.191  -3.057  0.00  0.00     0.062 H 
ATOM     33  C   LIG d   1       9.447   2.576  -3.372  0.00  0.00    -0.057 A 
ATOM     34  H   LIG d   1      10.883   3.330  -1.981  0.00  0.00     0.062 H 
ATOM     35  H   LIG d   1       8.614   3.079  -2.904  0.00  0.00     0.062 H 
ENDBRANCH  19  25
ENDBRANCH   1  19
BRANCH   9  36
ATOM     36  C   LIG d   1       6.046  -2.966  -5.243  0.00  0.00     0.048 C 
ATOM     37  O   LIG d   1       6.901  -3.789  -5.470  0.00  0.00    -0.549 OA
ATOM     38  O   LIG d   1       5.417  -2.352  -6.258  0.00  0.00    -0.549 OA
ENDBRANCH   9  36
TORSDOF 4
ENDMDL
MODEL 10
REMARK VINA RESULT:      -5.2      3.382      5.239
REMARK  4 active torsions:
REMARK  status: ('A' for Active; 'I' for Inactive)
REMARK    1  A    between atoms: C_1  and  C_2 
REMARK    2  A    between atoms: C_2  and  C_4 
REMARK    3  A    between atoms: C_2  and  N_10 
REMARK    4  A    between atoms: C_18  and  C_24 
ROOT
ATOM      1  N   LIG d   1       6.072  -1.843  -4.820  0.00  0.00    -0.291 N 
ATOM      2  C   LIG d   1       4.988  -1.741  -5.813  0.00  0.00     0.049 C 
ATOM      3  C   LIG d   1       4.030  -0.756  -5.219  0.00  0.00     0.116 C 
ATOM      4  C   LIG d   1       3.115   0.113  -6.006  0.00  0.00    -0.052 C 
ATOM      5  C   LIG d   1       2.293   0.626  -5.082  0.00  0.00    -0.056 C 
ATOM      6  C   LIG d   1       2.689   0.019  -3.732  0.00  0.00     0.087 C 
ATOM      7  H   LIG d   1       1.904   0.007  -2.976  0.00  0.00     0.065 H 
ATOM      8  O   LIG d   1       3.184  -1.298  -4.170  0.00  0.00    -0.359 OA
ATOM      9  C   LIG d   1       4.038   0.687  -3.311  0.00  0.00     0.043 C 
ATOM     10  H   LIG d   1       3.958   1.775  -3.332  0.00  0.00     0.040 H 
ATOM     11  C   LIG d   1       4.994   0.185  -4.408  0.00  0.00     0.080 C 
ATOM     12  H   LIG d   1       5.410   0.996  -5.008  0.00  0.00     0.043 H 
ATOM     13  C   LIG d   1       6.038  -0.796  -3.956  0.00  0.00     0.223 C 
ATOM     14  O   LIG d   1       6.740  -0.673  -2.975  0.00  0.00    -0.275 OA
ATOM     15  H   LIG d   1       4.502  -2.705  -5.961  0.00  0.00     0.050 H 
ATOM     16  H   LIG d   1       5.388  -1.366  -6.755  0.00  0.00     0.050 H 
ATOM     17  H   LIG d   1       3.115   0.289  -7.072  0.00  0.00     0.060 H 
ATOM     18  H   LIG d   1       1.496   1.334  -5.258  0.00  0.00     0.060 H 
ENDROOT
BRANCH   1  19
ATOM     19  C   LIG d   1       7.048  -2.934  -4.765  0.00  0.00     0.049 C 
ATOM     20  H   LIG d   1       7.301  -3.144  -3.725  0.00  0.00     0.055 H 
BRANCH  19  21
ATOM     21  C   LIG d   1       8.313  -2.527  -5.524  0.00  0.00    -0.042 C 
ATOM     22  H   LIG d   1       9.152  -3.135  -5.184  0.00  0.00     0.025 H 
ATOM     23  H   LIG d   1       8.162  -2.682  -6.592  0.00  0.00     0.025 H 
ATOM     24  H   LIG d   1       8.527  -1.475  -5.336  0.00  0.00     0.025 H 
ENDBRANCH  19  21
BRANCH  19  25
ATOM     25  C   LIG d   1       6.459  -4.169  -5.398  0.00  0.00    -0.027 A 
ATOM     26  C   LIG d   1       5.248  -4.663  -4.951  0.00  0.00    -0.057 A 
ATOM     27  C   LIG d   1       4.707  -5.795  -5.532  0.00  0.00    -0.061 A 
ATOM     28  H   LIG d   1       4.725  -4.166  -4.148  0.00  0.00     0.062 H 
ATOM     29  C   LIG d   1       5.377  -6.432  -6.560  0.00  0.00    -0.062 A 
ATOM     30  H   LIG d   1       3.761  -6.182  -5.183  0.00  0.00     0.062 H 
ATOM     31  C   LIG d   1       6.588  -5.938  -7.007  0.00  0.00    -0.061 A 
ATOM     32  H   LIG d   1       4.955  -7.316  -7.014  0.00  0.00     0.062 H 
ATOM     33  C   LIG d   1       7.126  -4.802  -6.430  0.00  0.00    -0.057 A 
ATOM     34  H   LIG d   1       7.112  -6.435  -7.809  0.00  0.00     0.062 H 
ATOM     35  H   LIG d   1       8.070  -4.413  -6.782  0.00  0.00     0.062 H 
ENDBRANCH  19  25
ENDBRANCH   1  19
BRANCH   9  36
ATOM     36  C   LIG d   1       4.477   0.207  -1.952  0.00  0.00     0.048 C 
ATOM     37  O   LIG d   1       5.006   0.974  -1.183  0.00  0.00    -0.549 OA
ATOM     38  O   LIG d   1       4.283  -1.074  -1.598  0.00  0.00    -0.549 OA
ENDBRANCH   9  36
TORSDOF 4
ENDMDL
