MODEL 1
REMARK VINA RESULT:      -6.3      0.000      0.000
REMARK  5 active torsions:
REMARK  status: ('A' for Active; 'I' for Inactive)
REMARK    1  A    between atoms: C_1  and  C_2 
REMARK    2  A    between atoms: C_13  and  C_15 
REMARK    3  A    between atoms: C_15  and  C_18 
REMARK    4  A    between atoms: C_22  and  C_29 
REMARK    5  A    between atoms: C_25  and  O_28 
ROOT
ATOM      1  C   LIG d   1       4.374  -1.143  -5.453  0.00  0.00    -0.025 C 
ATOM      2  C   LIG d   1       4.825  -2.412  -6.141  0.00  0.00    -0.047 C 
ATOM      3  C   LIG d   1       5.292  -2.038  -7.555  0.00  0.00    -0.049 C 
ATOM      4  C   LIG d   1       4.195  -1.331  -8.347  0.00  0.00    -0.029 C 
ATOM      5  H   LIG d   1       3.382  -2.041  -8.500  0.00  0.00     0.031 H 
ATOM      6  C   LIG d   1       3.639  -0.116  -7.591  0.00  0.00    -0.031 C 
ATOM      7  H   LIG d   1       4.416   0.637  -7.463  0.00  0.00     0.031 H 
ATOM      8  C   LIG d   1       3.148  -0.601  -6.239  0.00  0.00    -0.032 C 
ATOM      9  H   LIG d   1       2.403  -1.385  -6.366  0.00  0.00     0.031 H 
ATOM     10  C   LIG d   1       2.624   0.483  -5.291  0.00  0.00    -0.049 C 
ATOM     11  C   LIG d   1       2.750  -0.186  -3.895  0.00  0.00    -0.048 C 
ATOM     12  C   LIG d   1       3.844  -1.273  -4.028  0.00  0.00    -0.020 C 
ATOM     13  H   LIG d   1       3.415  -2.263  -3.874  0.00  0.00     0.032 H 
ATOM     14  C   LIG d   1       2.463   0.467  -8.383  0.00  0.00    -0.031 C 
ATOM     15  C   LIG d   1       2.917   0.787  -9.778  0.00  0.00    -0.084 C 
ATOM     16  C   LIG d   1       3.902   0.171 -10.361  0.00  0.00    -0.065 C 
ATOM     17  C   LIG d   1       4.706  -0.918  -9.716  0.00  0.00    -0.008 C 
ATOM     18  C   LIG d   1       4.764  -2.131 -10.650  0.00  0.00    -0.041 C 
ATOM     19  C   LIG d   1       5.286  -1.693 -12.020  0.00  0.00    -0.026 C 
ATOM     20  C   LIG d   1       4.315  -0.689 -12.644  0.00  0.00     0.059 C 
ATOM     21  H   LIG d   1       3.321  -1.131 -12.701  0.00  0.00     0.060 H 
ATOM     22  C   LIG d   1       4.265   0.576 -11.780  0.00  0.00    -0.005 C 
ATOM     23  H   LIG d   1       3.986  -3.106  -6.197  0.00  0.00     0.027 H 
ATOM     24  H   LIG d   1       5.645  -2.863  -5.585  0.00  0.00     0.027 H 
ATOM     25  H   LIG d   1       5.583  -2.945  -8.085  0.00  0.00     0.027 H 
ATOM     26  H   LIG d   1       6.157  -1.378  -7.482  0.00  0.00     0.027 H 
ATOM     27  H   LIG d   1       1.584   0.720  -5.513  0.00  0.00     0.027 H 
ATOM     28  H   LIG d   1       3.242   1.379  -5.346  0.00  0.00     0.027 H 
ATOM     29  H   LIG d   1       1.801  -0.643  -3.612  0.00  0.00     0.027 H 
ATOM     30  H   LIG d   1       3.045   0.554  -3.150  0.00  0.00     0.027 H 
ATOM     31  H   LIG d   1       1.653  -0.261  -8.422  0.00  0.00     0.031 H 
ATOM     32  H   LIG d   1       2.112   1.377  -7.897  0.00  0.00     0.031 H 
ATOM     33  H   LIG d   1       2.400   1.565 -10.322  0.00  0.00     0.057 H 
ATOM     34  H   LIG d   1       5.431  -2.882 -10.229  0.00  0.00     0.027 H 
ATOM     35  H   LIG d   1       3.764  -2.552 -10.759  0.00  0.00     0.027 H 
ATOM     36  H   LIG d   1       6.264  -1.227 -11.903  0.00  0.00     0.029 H 
ATOM     37  H   LIG d   1       5.375  -2.564 -12.669  0.00  0.00     0.029 H 
ATOM     38  H   LIG d   1       3.509   1.257 -12.172  0.00  0.00     0.034 H 
ATOM     39  H   LIG d   1       5.239   1.064 -11.787  0.00  0.00     0.034 H 
ENDROOT
BRANCH  12  40
ATOM     40  C   LIG d   1       4.967  -1.020  -3.020  0.00  0.00     0.026 A 
ATOM     41  S   LIG d   1       5.246   0.701  -2.518  0.00  0.00    -0.152 SA
ATOM     42  C   LIG d   1       4.548  -0.690  -1.585  0.00  0.00     0.009 A 
ATOM     43  H   LIG d   1       5.161  -1.105  -0.786  0.00  0.00     0.039 H 
ATOM     44  H   LIG d   1       3.478  -0.658  -1.380  0.00  0.00     0.039 H 
BRANCH  40  45
ATOM     45  C   LIG d   1       6.206  -1.899  -3.193  0.00  0.00    -0.049 C 
ATOM     46  H   LIG d   1       6.468  -1.957  -4.250  0.00  0.00     0.024 H 
ATOM     47  H   LIG d   1       7.039  -1.469  -2.636  0.00  0.00     0.024 H 
ATOM     48  H   LIG d   1       5.997  -2.900  -2.815  0.00  0.00     0.024 H 
ENDBRANCH  40  45
ENDBRANCH  12  40
BRANCH   1  49
ATOM     49  C   LIG d   1       5.510  -0.119  -5.493  0.00  0.00    -0.059 C 
ATOM     50  H   LIG d   1       6.412  -0.591  -5.884  0.00  0.00     0.024 H 
ATOM     51  H   LIG d   1       5.228   0.712  -6.140  0.00  0.00     0.024 H 
ATOM     52  H   LIG d   1       5.701   0.251  -4.486  0.00  0.00     0.024 H 
ENDBRANCH   1  49
BRANCH  17  53
ATOM     53  C   LIG d   1       6.134  -0.404  -9.517  0.00  0.00    -0.056 C 
ATOM     54  H   LIG d   1       6.769  -1.221  -9.173  0.00  0.00     0.024 H 
ATOM     55  H   LIG d   1       6.517  -0.020 -10.463  0.00  0.00     0.024 H 
ATOM     56  H   LIG d   1       6.132   0.394  -8.775  0.00  0.00     0.024 H 
ENDBRANCH  17  53
BRANCH  20  57
ATOM     57  O   LIG d   1       4.762  -0.349 -13.958  0.00  0.00    -0.392 OA
ATOM     58  H   LIG d   1       5.484   0.294 -13.974  0.00  0.00     0.210 HD
ENDBRANCH  20  57
TORSDOF 5
ENDMDL
MODEL 2
REMARK VINA RESULT:      -6.0      4.892      7.684
REMARK  5 active torsions:
REMARK  status: ('A' for Active; 'I' for Inactive)
REMARK    1  A    between atoms: C_1  and  C_2 
REMARK    2  A    between atoms: C_13  and  C_15 
REMARK    3  A    between atoms: C_15  and  C_18 
REMARK    4  A    between atoms: C_22  and  C_29 
REMARK    5  A    between atoms: C_25  and  O_28 
ROOT
ATOM      1  C   LIG d   1       6.380  -5.300  -6.314  0.00  0.00    -0.025 C 
ATOM      2  C   LIG d   1       5.011  -5.474  -5.697  0.00  0.00    -0.047 C 
ATOM      3  C   LIG d   1       4.508  -4.086  -5.274  0.00  0.00    -0.049 C 
ATOM      4  C   LIG d   1       5.474  -3.401  -4.311  0.00  0.00    -0.029 C 
ATOM      5  H   LIG d   1       5.495  -3.982  -3.389  0.00  0.00     0.031 H 
ATOM      6  C   LIG d   1       6.899  -3.341  -4.879  0.00  0.00    -0.031 C 
ATOM      7  H   LIG d   1       6.921  -2.726  -5.778  0.00  0.00     0.031 H 
ATOM      8  C   LIG d   1       7.323  -4.762  -5.204  0.00  0.00    -0.032 C 
ATOM      9  H   LIG d   1       7.259  -5.388  -4.315  0.00  0.00     0.031 H 
ATOM     10  C   LIG d   1       8.699  -4.913  -5.863  0.00  0.00    -0.049 C 
ATOM     11  C   LIG d   1       8.600  -6.297  -6.560  0.00  0.00    -0.048 C 
ATOM     12  C   LIG d   1       7.092  -6.560  -6.796  0.00  0.00    -0.020 C 
ATOM     13  H   LIG d   1       6.765  -7.424  -6.217  0.00  0.00     0.032 H 
ATOM     14  C   LIG d   1       7.834  -2.757  -3.815  0.00  0.00    -0.031 C 
ATOM     15  C   LIG d   1       7.310  -1.422  -3.375  0.00  0.00    -0.084 C 
ATOM     16  C   LIG d   1       6.052  -1.098  -3.438  0.00  0.00    -0.065 C 
ATOM     17  C   LIG d   1       4.981  -2.007  -3.962  0.00  0.00    -0.008 C 
ATOM     18  C   LIG d   1       3.837  -2.086  -2.946  0.00  0.00    -0.041 C 
ATOM     19  C   LIG d   1       3.354  -0.674  -2.613  0.00  0.00    -0.026 C 
ATOM     20  C   LIG d   1       4.486   0.117  -1.956  0.00  0.00     0.059 C 
ATOM     21  H   LIG d   1       4.840  -0.419  -1.076  0.00  0.00     0.060 H 
ATOM     22  C   LIG d   1       5.638   0.281  -2.953  0.00  0.00    -0.005 C 
ATOM     23  H   LIG d   1       5.091  -6.123  -4.824  0.00  0.00     0.027 H 
ATOM     24  H   LIG d   1       4.329  -5.912  -6.424  0.00  0.00     0.027 H 
ATOM     25  H   LIG d   1       3.537  -4.192  -4.788  0.00  0.00     0.027 H 
ATOM     26  H   LIG d   1       4.392  -3.464  -6.162  0.00  0.00     0.027 H 
ATOM     27  H   LIG d   1       9.488  -4.915  -5.111  0.00  0.00     0.027 H 
ATOM     28  H   LIG d   1       8.868  -4.123  -6.594  0.00  0.00     0.027 H 
ATOM     29  H   LIG d   1       9.018  -7.071  -5.917  0.00  0.00     0.027 H 
ATOM     30  H   LIG d   1       9.130  -6.275  -7.513  0.00  0.00     0.027 H 
ATOM     31  H   LIG d   1       7.878  -3.432  -2.959  0.00  0.00     0.031 H 
ATOM     32  H   LIG d   1       8.833  -2.636  -4.235  0.00  0.00     0.031 H 
ATOM     33  H   LIG d   1       8.010  -0.696  -2.987  0.00  0.00     0.057 H 
ATOM     34  H   LIG d   1       3.015  -2.663  -3.369  0.00  0.00     0.027 H 
ATOM     35  H   LIG d   1       4.193  -2.573  -2.038  0.00  0.00     0.027 H 
ATOM     36  H   LIG d   1       3.045  -0.171  -3.530  0.00  0.00     0.029 H 
ATOM     37  H   LIG d   1       2.507  -0.732  -1.929  0.00  0.00     0.029 H 
ATOM     38  H   LIG d   1       6.482   0.765  -2.461  0.00  0.00     0.034 H 
ATOM     39  H   LIG d   1       5.309   0.885  -3.798  0.00  0.00     0.034 H 
ENDROOT
BRANCH  12  40
ATOM     40  C   LIG d   1       6.821  -6.787  -8.285  0.00  0.00     0.026 A 
ATOM     41  S   LIG d   1       6.302  -8.453  -8.779  0.00  0.00    -0.152 SA
ATOM     42  C   LIG d   1       5.355  -6.908  -8.710  0.00  0.00     0.009 A 
ATOM     43  H   LIG d   1       5.080  -6.455  -9.662  0.00  0.00     0.039 H 
ATOM     44  H   LIG d   1       4.605  -6.825  -7.923  0.00  0.00     0.039 H 
BRANCH  40  45
ATOM     45  C   LIG d   1       7.757  -6.042  -9.237  0.00  0.00    -0.049 C 
ATOM     46  H   LIG d   1       7.316  -5.082  -9.505  0.00  0.00     0.024 H 
ATOM     47  H   LIG d   1       8.718  -5.877  -8.748  0.00  0.00     0.024 H 
ATOM     48  H   LIG d   1       7.907  -6.637 -10.138  0.00  0.00     0.024 H 
ENDBRANCH  40  45
ENDBRANCH  12  40
BRANCH   1  49
ATOM     49  C   LIG d   1       6.291  -4.286  -7.456  0.00  0.00    -0.059 C 
ATOM     50  H   LIG d   1       7.292  -4.070  -7.830  0.00  0.00     0.024 H 
ATOM     51  H   LIG d   1       5.684  -4.699  -8.262  0.00  0.00     0.024 H 
ATOM     52  H   LIG d   1       5.833  -3.366  -7.091  0.00  0.00     0.024 H 
ENDBRANCH   1  49
BRANCH  17  53
ATOM     53  C   LIG d   1       4.428  -1.399  -5.253  0.00  0.00    -0.056 C 
ATOM     54  H   LIG d   1       3.711  -0.615  -5.007  0.00  0.00     0.024 H 
ATOM     55  H   LIG d   1       5.247  -0.973  -5.834  0.00  0.00     0.024 H 
ATOM     56  H   LIG d   1       3.934  -2.174  -5.837  0.00  0.00     0.024 H 
ENDBRANCH  17  53
BRANCH  20  57
ATOM     57  O   LIG d   1       4.005   1.405  -1.570  0.00  0.00    -0.392 OA
ATOM     58  H   LIG d   1       4.554   1.848  -0.909  0.00  0.00     0.210 HD
ENDBRANCH  20  57
TORSDOF 5
ENDMDL
MODEL 3
REMARK VINA RESULT:      -6.0      3.659      6.844
REMARK  5 active torsions:
REMARK  status: ('A' for Active; 'I' for Inactive)
REMARK    1  A    between atoms: C_1  and  C_2 
REMARK    2  A    between atoms: C_13  and  C_15 
REMARK    3  A    between atoms: C_15  and  C_18 
REMARK    4  A    between atoms: C_22  and  C_29 
REMARK    5  A    between atoms: C_25  and  O_28 
ROOT
ATOM      1  C   LIG d   1       4.173  -1.821  -9.111  0.00  0.00    -0.025 C 
ATOM      2  C   LIG d   1       5.609  -1.633  -8.676  0.00  0.00    -0.047 C 
ATOM      3  C   LIG d   1       5.632  -1.593  -7.141  0.00  0.00    -0.049 C 
ATOM      4  C   LIG d   1       4.730  -0.493  -6.589  0.00  0.00    -0.029 C 
ATOM      5  H   LIG d   1       5.145   0.467  -6.898  0.00  0.00     0.031 H 
ATOM      6  C   LIG d   1       3.299  -0.600  -7.134  0.00  0.00    -0.031 C 
ATOM      7  H   LIG d   1       2.837  -1.529  -6.801  0.00  0.00     0.031 H 
ATOM      8  C   LIG d   1       3.382  -0.567  -8.649  0.00  0.00    -0.032 C 
ATOM      9  H   LIG d   1       3.884   0.342  -8.981  0.00  0.00     0.031 H 
ATOM     10  C   LIG d   1       2.054  -0.744  -9.394  0.00  0.00    -0.049 C 
ATOM     11  C   LIG d   1       2.505  -1.227 -10.799  0.00  0.00    -0.048 C 
ATOM     12  C   LIG d   1       3.901  -1.871 -10.612  0.00  0.00    -0.020 C 
ATOM     13  H   LIG d   1       4.656  -1.301 -11.152  0.00  0.00     0.032 H 
ATOM     14  C   LIG d   1       2.487   0.602  -6.639  0.00  0.00    -0.031 C 
ATOM     15  C   LIG d   1       2.552   0.659  -5.141  0.00  0.00    -0.084 C 
ATOM     16  C   LIG d   1       3.542   0.168  -4.455  0.00  0.00    -0.065 C 
ATOM     17  C   LIG d   1       4.724  -0.519  -5.069  0.00  0.00    -0.008 C 
ATOM     18  C   LIG d   1       6.014   0.099  -4.522  0.00  0.00    -0.041 C 
ATOM     19  C   LIG d   1       5.989   0.056  -2.994  0.00  0.00    -0.026 C 
ATOM     20  C   LIG d   1       4.827   0.905  -2.474  0.00  0.00     0.059 C 
ATOM     21  H   LIG d   1       4.918   1.920  -2.859  0.00  0.00     0.060 H 
ATOM     22  C   LIG d   1       3.502   0.295  -2.941  0.00  0.00    -0.005 C 
ATOM     23  H   LIG d   1       5.986  -0.692  -9.078  0.00  0.00     0.027 H 
ATOM     24  H   LIG d   1       6.217  -2.462  -9.036  0.00  0.00     0.027 H 
ATOM     25  H   LIG d   1       6.654  -1.417  -6.805  0.00  0.00     0.027 H 
ATOM     26  H   LIG d   1       5.294  -2.555  -6.755  0.00  0.00     0.027 H 
ATOM     27  H   LIG d   1       1.522   0.204  -9.465  0.00  0.00     0.027 H 
ATOM     28  H   LIG d   1       1.434  -1.497  -8.908  0.00  0.00     0.027 H 
ATOM     29  H   LIG d   1       2.573  -0.381 -11.482  0.00  0.00     0.027 H 
ATOM     30  H   LIG d   1       1.802  -1.965 -11.186  0.00  0.00     0.027 H 
ATOM     31  H   LIG d   1       2.902   1.519  -7.057  0.00  0.00     0.031 H 
ATOM     32  H   LIG d   1       1.449   0.494  -6.954  0.00  0.00     0.031 H 
ATOM     33  H   LIG d   1       1.740   1.132  -4.607  0.00  0.00     0.057 H 
ATOM     34  H   LIG d   1       6.871  -0.466  -4.888  0.00  0.00     0.027 H 
ATOM     35  H   LIG d   1       6.091   1.133  -4.856  0.00  0.00     0.027 H 
ATOM     36  H   LIG d   1       5.863  -0.974  -2.661  0.00  0.00     0.029 H 
ATOM     37  H   LIG d   1       6.929   0.449  -2.604  0.00  0.00     0.029 H 
ATOM     38  H   LIG d   1       2.677   0.945  -2.650  0.00  0.00     0.034 H 
ATOM     39  H   LIG d   1       3.372  -0.689  -2.493  0.00  0.00     0.034 H 
ENDROOT
BRANCH  12  40
ATOM     40  C   LIG d   1       3.885  -3.322 -11.099  0.00  0.00     0.026 A 
ATOM     41  S   LIG d   1       2.327  -4.232 -10.912  0.00  0.00    -0.152 SA
ATOM     42  C   LIG d   1       3.141  -3.604 -12.407  0.00  0.00     0.009 A 
ATOM     43  H   LIG d   1       3.583  -4.342 -13.075  0.00  0.00     0.039 H 
ATOM     44  H   LIG d   1       2.673  -2.753 -12.901  0.00  0.00     0.039 H 
BRANCH  40  45
ATOM     45  C   LIG d   1       5.177  -4.103 -10.857  0.00  0.00    -0.049 C 
ATOM     46  H   LIG d   1       5.647  -3.755  -9.937  0.00  0.00     0.024 H 
ATOM     47  H   LIG d   1       4.948  -5.166 -10.768  0.00  0.00     0.024 H 
ATOM     48  H   LIG d   1       5.858  -3.949 -11.694  0.00  0.00     0.024 H 
ENDBRANCH  40  45
ENDBRANCH  12  40
BRANCH   1  49
ATOM     49  C   LIG d   1       3.604  -3.072  -8.438  0.00  0.00    -0.059 C 
ATOM     50  H   LIG d   1       3.855  -3.061  -7.378  0.00  0.00     0.024 H 
ATOM     51  H   LIG d   1       2.520  -3.085  -8.554  0.00  0.00     0.024 H 
ATOM     52  H   LIG d   1       4.031  -3.961  -8.904  0.00  0.00     0.024 H 
ENDBRANCH   1  49
BRANCH  17  53
ATOM     53  C   LIG d   1       4.690  -1.992  -4.655  0.00  0.00    -0.056 C 
ATOM     54  H   LIG d   1       4.195  -2.576  -5.431  0.00  0.00     0.024 H 
ATOM     55  H   LIG d   1       5.709  -2.356  -4.522  0.00  0.00     0.024 H 
ATOM     56  H   LIG d   1       4.143  -2.093  -3.718  0.00  0.00     0.024 H 
ENDBRANCH  17  53
BRANCH  20  57
ATOM     57  O   LIG d   1       4.860   0.932  -1.045  0.00  0.00    -0.392 OA
ATOM     58  H   LIG d   1       5.246   0.141  -0.646  0.00  0.00     0.210 HD
ENDBRANCH  20  57
TORSDOF 5
ENDMDL
MODEL 4
REMARK VINA RESULT:      -5.8      4.130      6.220
REMARK  5 active torsions:
REMARK  status: ('A' for Active; 'I' for Inactive)
REMARK    1  A    between atoms: C_1  and  C_2 
REMARK    2  A    between atoms: C_13  and  C_15 
REMARK    3  A    between atoms: C_15  and  C_18 
REMARK    4  A    between atoms: C_22  and  C_29 
REMARK    5  A    between atoms: C_25  and  O_28 
ROOT
ATOM      1  C   LIG d   1       5.345  -1.842  -4.792  0.00  0.00    -0.025 C 
ATOM      2  C   LIG d   1       4.750  -2.142  -6.150  0.00  0.00    -0.047 C 
ATOM      3  C   LIG d   1       4.684  -3.668  -6.305  0.00  0.00    -0.049 C 
ATOM      4  C   LIG d   1       6.056  -4.316  -6.140  0.00  0.00    -0.029 C 
ATOM      5  H   LIG d   1       6.687  -3.979  -6.962  0.00  0.00     0.031 H 
ATOM      6  C   LIG d   1       6.724  -3.907  -4.819  0.00  0.00    -0.031 C 
ATOM      7  H   LIG d   1       6.141  -4.271  -3.973  0.00  0.00     0.031 H 
ATOM      8  C   LIG d   1       6.798  -2.391  -4.793  0.00  0.00    -0.032 C 
ATOM      9  H   LIG d   1       7.342  -2.024  -5.662  0.00  0.00     0.031 H 
ATOM     10  C   LIG d   1       7.365  -1.773  -3.510  0.00  0.00    -0.049 C 
ATOM     11  C   LIG d   1       6.802  -0.327  -3.542  0.00  0.00    -0.048 C 
ATOM     12  C   LIG d   1       5.527  -0.374  -4.421  0.00  0.00    -0.020 C 
ATOM     13  H   LIG d   1       5.664   0.229  -5.318  0.00  0.00     0.032 H 
ATOM     14  C   LIG d   1       8.140  -4.490  -4.777  0.00  0.00    -0.031 C 
ATOM     15  C   LIG d   1       8.070  -5.976  -4.976  0.00  0.00    -0.084 C 
ATOM     16  C   LIG d   1       7.104  -6.559  -5.622  0.00  0.00    -0.065 C 
ATOM     17  C   LIG d   1       5.947  -5.828  -6.235  0.00  0.00    -0.008 C 
ATOM     18  C   LIG d   1       5.790  -6.258  -7.697  0.00  0.00    -0.041 C 
ATOM     19  C   LIG d   1       5.677  -7.782  -7.769  0.00  0.00    -0.026 C 
ATOM     20  C   LIG d   1       6.967  -8.419  -7.249  0.00  0.00     0.059 C 
ATOM     21  H   LIG d   1       7.816  -8.038  -7.817  0.00  0.00     0.060 H 
ATOM     22  C   LIG d   1       7.145  -8.071  -5.767  0.00  0.00    -0.005 C 
ATOM     23  H   LIG d   1       5.390  -1.716  -6.924  0.00  0.00     0.027 H 
ATOM     24  H   LIG d   1       3.749  -1.716  -6.218  0.00  0.00     0.027 H 
ATOM     25  H   LIG d   1       4.295  -3.908  -7.296  0.00  0.00     0.027 H 
ATOM     26  H   LIG d   1       4.007  -4.074  -5.553  0.00  0.00     0.027 H 
ATOM     27  H   LIG d   1       8.454  -1.764  -3.535  0.00  0.00     0.027 H 
ATOM     28  H   LIG d   1       7.006  -2.307  -2.630  0.00  0.00     0.027 H 
ATOM     29  H   LIG d   1       7.534   0.351  -3.982  0.00  0.00     0.027 H 
ATOM     30  H   LIG d   1       6.549   0.000  -2.533  0.00  0.00     0.027 H 
ATOM     31  H   LIG d   1       8.741  -4.045  -5.570  0.00  0.00     0.031 H 
ATOM     32  H   LIG d   1       8.595  -4.273  -3.810  0.00  0.00     0.031 H 
ATOM     33  H   LIG d   1       8.858  -6.589  -4.563  0.00  0.00     0.057 H 
ATOM     34  H   LIG d   1       4.890  -5.807  -8.113  0.00  0.00     0.027 H 
ATOM     35  H   LIG d   1       6.658  -5.930  -8.267  0.00  0.00     0.027 H 
ATOM     36  H   LIG d   1       4.838  -8.113  -7.158  0.00  0.00     0.029 H 
ATOM     37  H   LIG d   1       5.514  -8.085  -8.804  0.00  0.00     0.029 H 
ATOM     38  H   LIG d   1       8.106  -8.447  -5.416  0.00  0.00     0.034 H 
ATOM     39  H   LIG d   1       6.340  -8.519  -5.185  0.00  0.00     0.034 H 
ENDROOT
BRANCH  12  40
ATOM     40  C   LIG d   1       4.318   0.127  -3.627  0.00  0.00     0.026 A 
ATOM     41  S   LIG d   1       4.311  -0.210  -1.844  0.00  0.00    -0.152 SA
ATOM     42  C   LIG d   1       4.534   1.354  -2.738  0.00  0.00     0.009 A 
ATOM     43  H   LIG d   1       3.717   2.073  -2.685  0.00  0.00     0.039 H 
ATOM     44  H   LIG d   1       5.534   1.787  -2.730  0.00  0.00     0.039 H 
BRANCH  40  45
ATOM     45  C   LIG d   1       2.977   0.028  -4.355  0.00  0.00    -0.049 C 
ATOM     46  H   LIG d   1       3.126  -0.429  -5.333  0.00  0.00     0.024 H 
ATOM     47  H   LIG d   1       2.289  -0.583  -3.770  0.00  0.00     0.024 H 
ATOM     48  H   LIG d   1       2.557   1.026  -4.480  0.00  0.00     0.024 H 
ENDBRANCH  40  45
ENDBRANCH  12  40
BRANCH   1  49
ATOM     49  C   LIG d   1       4.522  -2.552  -3.715  0.00  0.00    -0.059 C 
ATOM     50  H   LIG d   1       4.377  -1.882  -2.867  0.00  0.00     0.024 H 
ATOM     51  H   LIG d   1       3.551  -2.831  -4.126  0.00  0.00     0.024 H 
ATOM     52  H   LIG d   1       5.049  -3.447  -3.386  0.00  0.00     0.024 H 
ENDBRANCH   1  49
BRANCH  17  53
ATOM     53  C   LIG d   1       4.676  -6.227  -5.482  0.00  0.00    -0.056 C 
ATOM     54  H   LIG d   1       3.807  -6.042  -6.114  0.00  0.00     0.024 H 
ATOM     55  H   LIG d   1       4.721  -7.287  -5.230  0.00  0.00     0.024 H 
ATOM     56  H   LIG d   1       4.596  -5.639  -4.569  0.00  0.00     0.024 H 
ENDBRANCH  17  53
BRANCH  20  57
ATOM     57  O   LIG d   1       6.891  -9.838  -7.399  0.00  0.00    -0.392 OA
ATOM     58  H   LIG d   1       6.005 -10.164  -7.611  0.00  0.00     0.210 HD
ENDBRANCH  20  57
TORSDOF 5
ENDMDL
MODEL 5
REMARK VINA RESULT:      -5.7      9.366     12.134
REMARK  5 active torsions:
REMARK  status: ('A' for Active; 'I' for Inactive)
REMARK    1  A    between atoms: C_1  and  C_2 
REMARK    2  A    between atoms: C_13  and  C_15 
REMARK    3  A    between atoms: C_15  and  C_18 
REMARK    4  A    between atoms: C_22  and  C_29 
REMARK    5  A    between atoms: C_25  and  O_28 
ROOT
ATOM      1  C   LIG d   1       9.983   6.809  -6.527  0.00  0.00    -0.025 C 
ATOM      2  C   LIG d   1       9.364   7.943  -5.743  0.00  0.00    -0.047 C 
ATOM      3  C   LIG d   1      10.046   7.989  -4.367  0.00  0.00    -0.049 C 
ATOM      4  C   LIG d   1       9.918   6.661  -3.626  0.00  0.00    -0.029 C 
ATOM      5  H   LIG d   1       8.863   6.499  -3.408  0.00  0.00     0.031 H 
ATOM      6  C   LIG d   1      10.424   5.484  -4.473  0.00  0.00    -0.031 C 
ATOM      7  H   LIG d   1      11.491   5.591  -4.669  0.00  0.00     0.031 H 
ATOM      8  C   LIG d   1       9.647   5.491  -5.777  0.00  0.00    -0.032 C 
ATOM      9  H   LIG d   1       8.577   5.429  -5.580  0.00  0.00     0.031 H 
ATOM     10  C   LIG d   1      10.061   4.432  -6.806  0.00  0.00    -0.049 C 
ATOM     11  C   LIG d   1       9.544   5.027  -8.143  0.00  0.00    -0.048 C 
ATOM     12  C   LIG d   1       9.444   6.557  -7.932  0.00  0.00    -0.020 C 
ATOM     13  H   LIG d   1       8.406   6.882  -8.002  0.00  0.00     0.032 H 
ATOM     14  C   LIG d   1      10.152   4.177  -3.721  0.00  0.00    -0.031 C 
ATOM     15  C   LIG d   1      10.782   4.249  -2.361  0.00  0.00    -0.084 C 
ATOM     16  C   LIG d   1      10.998   5.369  -1.738  0.00  0.00    -0.065 C 
ATOM     17  C   LIG d   1      10.656   6.717  -2.299  0.00  0.00    -0.008 C 
ATOM     18  C   LIG d   1       9.840   7.505  -1.270  0.00  0.00    -0.041 C 
ATOM     19  C   LIG d   1      10.602   7.553   0.054  0.00  0.00    -0.026 C 
ATOM     20  C   LIG d   1      10.771   6.136   0.604  0.00  0.00     0.059 C 
ATOM     21  H   LIG d   1       9.792   5.666   0.705  0.00  0.00     0.060 H 
ATOM     22  C   LIG d   1      11.635   5.315  -0.359  0.00  0.00    -0.005 C 
ATOM     23  H   LIG d   1       8.297   7.756  -5.623  0.00  0.00     0.027 H 
ATOM     24  H   LIG d   1       9.520   8.885  -6.267  0.00  0.00     0.027 H 
ATOM     25  H   LIG d   1       9.586   8.776  -3.768  0.00  0.00     0.027 H 
ATOM     26  H   LIG d   1      11.103   8.220  -4.501  0.00  0.00     0.027 H 
ATOM     27  H   LIG d   1       9.577   3.479  -6.594  0.00  0.00     0.027 H 
ATOM     28  H   LIG d   1      11.144   4.316  -6.828  0.00  0.00     0.027 H 
ATOM     29  H   LIG d   1       8.561   4.618  -8.380  0.00  0.00     0.027 H 
ATOM     30  H   LIG d   1      10.245   4.805  -8.948  0.00  0.00     0.027 H 
ATOM     31  H   LIG d   1       9.076   4.034  -3.616  0.00  0.00     0.031 H 
ATOM     32  H   LIG d   1      10.578   3.342  -4.277  0.00  0.00     0.031 H 
ATOM     33  H   LIG d   1      11.070   3.326  -1.877  0.00  0.00     0.057 H 
ATOM     34  H   LIG d   1       9.678   8.519  -1.635  0.00  0.00     0.027 H 
ATOM     35  H   LIG d   1       8.877   7.016  -1.119  0.00  0.00     0.027 H 
ATOM     36  H   LIG d   1      11.584   7.998  -0.108  0.00  0.00     0.029 H 
ATOM     37  H   LIG d   1      10.046   8.157   0.772  0.00  0.00     0.029 H 
ATOM     38  H   LIG d   1      11.683   4.281  -0.018  0.00  0.00     0.034 H 
ATOM     39  H   LIG d   1      12.639   5.736  -0.401  0.00  0.00     0.034 H 
ENDROOT
BRANCH  12  40
ATOM     40  C   LIG d   1      10.300   7.292  -8.967  0.00  0.00     0.026 A 
ATOM     41  S   LIG d   1      11.731   6.397  -9.632  0.00  0.00    -0.152 SA
ATOM     42  C   LIG d   1      10.161   6.843 -10.424  0.00  0.00     0.009 A 
ATOM     43  H   LIG d   1      10.196   7.622 -11.184  0.00  0.00     0.039 H 
ATOM     44  H   LIG d   1       9.462   6.030 -10.624  0.00  0.00     0.039 H 
BRANCH  40  45
ATOM     45  C   LIG d   1      10.475   8.791  -8.720  0.00  0.00    -0.049 C 
ATOM     46  H   LIG d   1       9.670   9.338  -9.211  0.00  0.00     0.024 H 
ATOM     47  H   LIG d   1      10.447   8.989  -7.648  0.00  0.00     0.024 H 
ATOM     48  H   LIG d   1      11.434   9.116  -9.123  0.00  0.00     0.024 H 
ENDBRANCH  40  45
ENDBRANCH  12  40
BRANCH   1  49
ATOM     49  C   LIG d   1      11.500   7.003  -6.580  0.00  0.00    -0.059 C 
ATOM     50  H   LIG d   1      11.785   7.379  -7.563  0.00  0.00     0.024 H 
ATOM     51  H   LIG d   1      11.801   7.721  -5.816  0.00  0.00     0.024 H 
ATOM     52  H   LIG d   1      11.995   6.049  -6.398  0.00  0.00     0.024 H 
ENDBRANCH   1  49
BRANCH  17  53
ATOM     53  C   LIG d   1      11.961   7.475  -2.552  0.00  0.00    -0.056 C 
ATOM     54  H   LIG d   1      12.579   6.911  -3.251  0.00  0.00     0.024 H 
ATOM     55  H   LIG d   1      11.736   8.454  -2.976  0.00  0.00     0.024 H 
ATOM     56  H   LIG d   1      12.496   7.600  -1.611  0.00  0.00     0.024 H 
ENDBRANCH  17  53
BRANCH  20  57
ATOM     57  O   LIG d   1      11.407   6.193   1.882  0.00  0.00    -0.392 OA
ATOM     58  H   LIG d   1      11.995   6.952   1.994  0.00  0.00     0.210 HD
ENDBRANCH  20  57
TORSDOF 5
ENDMDL
MODEL 6
REMARK VINA RESULT:      -5.5     10.108     12.745
REMARK  5 active torsions:
REMARK  status: ('A' for Active; 'I' for Inactive)
REMARK    1  A    between atoms: C_1  and  C_2 
REMARK    2  A    between atoms: C_13  and  C_15 
REMARK    3  A    between atoms: C_15  and  C_18 
REMARK    4  A    between atoms: C_22  and  C_29 
REMARK    5  A    between atoms: C_25  and  O_28 
ROOT
ATOM      1  C   LIG d   1      10.049   5.407  -3.967  0.00  0.00    -0.025 C 
ATOM      2  C   LIG d   1       9.202   6.642  -4.174  0.00  0.00    -0.047 C 
ATOM      3  C   LIG d   1       9.853   7.793  -3.393  0.00  0.00    -0.049 C 
ATOM      4  C   LIG d   1      10.005   7.459  -1.911  0.00  0.00    -0.029 C 
ATOM      5  H   LIG d   1       9.007   7.364  -1.485  0.00  0.00     0.031 H 
ATOM      6  C   LIG d   1      10.750   6.134  -1.699  0.00  0.00    -0.031 C 
ATOM      7  H   LIG d   1      11.772   6.211  -2.072  0.00  0.00     0.031 H 
ATOM      8  C   LIG d   1       9.995   5.056  -2.455  0.00  0.00    -0.032 C 
ATOM      9  H   LIG d   1       8.961   5.009  -2.114  0.00  0.00     0.031 H 
ATOM     10  C   LIG d   1      10.627   3.660  -2.436  0.00  0.00    -0.049 C 
ATOM     11  C   LIG d   1      10.001   2.979  -3.684  0.00  0.00    -0.048 C 
ATOM     12  C   LIG d   1       9.581   4.121  -4.641  0.00  0.00    -0.020 C 
ATOM     13  H   LIG d   1       8.498   4.132  -4.764  0.00  0.00     0.032 H 
ATOM     14  C   LIG d   1      10.757   5.801  -0.203  0.00  0.00    -0.031 C 
ATOM     15  C   LIG d   1      11.353   6.950   0.557  0.00  0.00    -0.084 C 
ATOM     16  C   LIG d   1      11.326   8.176   0.124  0.00  0.00    -0.065 C 
ATOM     17  C   LIG d   1      10.709   8.589  -1.179  0.00  0.00    -0.008 C 
ATOM     18  C   LIG d   1       9.741   9.751  -0.939  0.00  0.00    -0.041 C 
ATOM     19  C   LIG d   1      10.471  10.877  -0.206  0.00  0.00    -0.026 C 
ATOM     20  C   LIG d   1      10.933  10.385   1.167  0.00  0.00     0.059 C 
ATOM     21  H   LIG d   1      10.074  10.013   1.727  0.00  0.00     0.060 H 
ATOM     22  C   LIG d   1      11.954   9.257   0.987  0.00  0.00    -0.005 C 
ATOM     23  H   LIG d   1       8.197   6.456  -3.793  0.00  0.00     0.027 H 
ATOM     24  H   LIG d   1       9.158   6.890  -5.234  0.00  0.00     0.027 H 
ATOM     25  H   LIG d   1       9.236   8.686  -3.494  0.00  0.00     0.027 H 
ATOM     26  H   LIG d   1      10.839   7.996  -3.813  0.00  0.00     0.027 H 
ATOM     27  H   LIG d   1      10.354   3.125  -1.527  0.00  0.00     0.027 H 
ATOM     28  H   LIG d   1      11.710   3.723  -2.534  0.00  0.00     0.027 H 
ATOM     29  H   LIG d   1       9.128   2.395  -3.393  0.00  0.00     0.027 H 
ATOM     30  H   LIG d   1      10.737   2.336  -4.168  0.00  0.00     0.027 H 
ATOM     31  H   LIG d   1       9.735   5.631   0.136  0.00  0.00     0.031 H 
ATOM     32  H   LIG d   1      11.352   4.903  -0.032  0.00  0.00     0.031 H 
ATOM     33  H   LIG d   1      11.827   6.748   1.507  0.00  0.00     0.057 H 
ATOM     34  H   LIG d   1       9.371  10.119  -1.896  0.00  0.00     0.027 H 
ATOM     35  H   LIG d   1       8.903   9.406  -0.333  0.00  0.00     0.027 H 
ATOM     36  H   LIG d   1      11.338  11.188  -0.789  0.00  0.00     0.029 H 
ATOM     37  H   LIG d   1       9.797  11.725  -0.080  0.00  0.00     0.029 H 
ATOM     38  H   LIG d   1      12.218   8.843   1.960  0.00  0.00     0.034 H 
ATOM     39  H   LIG d   1      12.847   9.645   0.498  0.00  0.00     0.034 H 
ENDROOT
BRANCH  12  40
ATOM     40  C   LIG d   1      10.266   3.953  -5.999  0.00  0.00     0.026 A 
ATOM     41  S   LIG d   1      11.914   3.194  -5.997  0.00  0.00    -0.152 SA
ATOM     42  C   LIG d   1      10.325   2.536  -6.574  0.00  0.00     0.009 A 
ATOM     43  H   LIG d   1      10.195   2.436  -7.651  0.00  0.00     0.039 H 
ATOM     44  H   LIG d   1       9.875   1.743  -5.977  0.00  0.00     0.039 H 
BRANCH  40  45
ATOM     45  C   LIG d   1      10.030   5.092  -6.991  0.00  0.00    -0.049 C 
ATOM     46  H   LIG d   1       9.546   4.702  -7.886  0.00  0.00     0.024 H 
ATOM     47  H   LIG d   1       9.391   5.848  -6.533  0.00  0.00     0.024 H 
ATOM     48  H   LIG d   1      10.986   5.543  -7.261  0.00  0.00     0.024 H 
ENDBRANCH  40  45
ENDBRANCH  12  40
BRANCH   1  49
ATOM     49  C   LIG d   1      11.491   5.713  -4.378  0.00  0.00    -0.059 C 
ATOM     50  H   LIG d   1      12.132   5.699  -3.496  0.00  0.00     0.024 H 
ATOM     51  H   LIG d   1      11.834   4.959  -5.087  0.00  0.00     0.024 H 
ATOM     52  H   LIG d   1      11.535   6.698  -4.844  0.00  0.00     0.024 H 
ENDBRANCH   1  49
BRANCH  17  53
ATOM     53  C   LIG d   1      11.827   9.083  -2.101  0.00  0.00    -0.056 C 
ATOM     54  H   LIG d   1      12.735   9.239  -1.518  0.00  0.00     0.024 H 
ATOM     55  H   LIG d   1      12.016   8.338  -2.874  0.00  0.00     0.024 H 
ATOM     56  H   LIG d   1      11.525  10.021  -2.565  0.00  0.00     0.024 H 
ENDBRANCH  17  53
BRANCH  20  57
ATOM     57  O   LIG d   1      11.537  11.465   1.881  0.00  0.00    -0.392 OA
ATOM     58  H   LIG d   1      10.967  11.858   2.556  0.00  0.00     0.210 HD
ENDBRANCH  20  57
TORSDOF 5
ENDMDL
MODEL 7
REMARK VINA RESULT:      -5.4      8.333      9.454
REMARK  5 active torsions:
REMARK  status: ('A' for Active; 'I' for Inactive)
REMARK    1  A    between atoms: C_1  and  C_2 
REMARK    2  A    between atoms: C_13  and  C_15 
REMARK    3  A    between atoms: C_15  and  C_18 
REMARK    4  A    between atoms: C_22  and  C_29 
REMARK    5  A    between atoms: C_25  and  O_28 
ROOT
ATOM      1  C   LIG d   1      10.358   6.217  -2.526  0.00  0.00    -0.025 C 
ATOM      2  C   LIG d   1       9.868   4.806  -2.758  0.00  0.00    -0.047 C 
ATOM      3  C   LIG d   1      10.201   4.428  -4.209  0.00  0.00    -0.049 C 
ATOM      4  C   LIG d   1       9.585   5.406  -5.206  0.00  0.00    -0.029 C 
ATOM      5  H   LIG d   1       8.501   5.317  -5.137  0.00  0.00     0.031 H 
ATOM      6  C   LIG d   1       9.972   6.858  -4.893  0.00  0.00    -0.031 C 
ATOM      7  H   LIG d   1      11.049   6.994  -5.001  0.00  0.00     0.031 H 
ATOM      8  C   LIG d   1       9.546   7.150  -3.466  0.00  0.00    -0.032 C 
ATOM      9  H   LIG d   1       8.478   6.972  -3.347  0.00  0.00     0.031 H 
ATOM     10  C   LIG d   1       9.918   8.536  -2.928  0.00  0.00    -0.049 C 
ATOM     11  C   LIG d   1       9.887   8.331  -1.390  0.00  0.00    -0.048 C 
ATOM     12  C   LIG d   1      10.116   6.820  -1.145  0.00  0.00    -0.020 C 
ATOM     13  H   LIG d   1       9.234   6.373  -0.686  0.00  0.00     0.032 H 
ATOM     14  C   LIG d   1       9.223   7.790  -5.852  0.00  0.00    -0.031 C 
ATOM     15  C   LIG d   1       9.518   7.384  -7.267  0.00  0.00    -0.084 C 
ATOM     16  C   LIG d   1       9.849   6.172  -7.603  0.00  0.00    -0.065 C 
ATOM     17  C   LIG d   1       9.985   5.042  -6.626  0.00  0.00    -0.008 C 
ATOM     18  C   LIG d   1       9.168   3.843  -7.118  0.00  0.00    -0.041 C 
ATOM     19  C   LIG d   1       9.589   3.492  -8.545  0.00  0.00    -0.026 C 
ATOM     20  C   LIG d   1       9.276   4.664  -9.478  0.00  0.00     0.059 C 
ATOM     21  H   LIG d   1       8.217   4.911  -9.407  0.00  0.00     0.060 H 
ATOM     22  C   LIG d   1      10.115   5.879  -9.070  0.00  0.00    -0.005 C 
ATOM     23  H   LIG d   1       8.789   4.770  -2.603  0.00  0.00     0.027 H 
ATOM     24  H   LIG d   1      10.366   4.122  -2.072  0.00  0.00     0.027 H 
ATOM     25  H   LIG d   1       9.819   3.426  -4.412  0.00  0.00     0.027 H 
ATOM     26  H   LIG d   1      11.284   4.426  -4.337  0.00  0.00     0.027 H 
ATOM     27  H   LIG d   1       9.182   9.279  -3.234  0.00  0.00     0.027 H 
ATOM     28  H   LIG d   1      10.915   8.826  -3.259  0.00  0.00     0.027 H 
ATOM     29  H   LIG d   1       8.917   8.631  -0.991  0.00  0.00     0.027 H 
ATOM     30  H   LIG d   1      10.681   8.912  -0.918  0.00  0.00     0.027 H 
ATOM     31  H   LIG d   1       8.151   7.716  -5.668  0.00  0.00     0.031 H 
ATOM     32  H   LIG d   1       9.551   8.817  -5.692  0.00  0.00     0.031 H 
ATOM     33  H   LIG d   1       9.452   8.134  -8.042  0.00  0.00     0.057 H 
ATOM     34  H   LIG d   1       9.347   2.990  -6.465  0.00  0.00     0.027 H 
ATOM     35  H   LIG d   1       8.108   4.096  -7.103  0.00  0.00     0.027 H 
ATOM     36  H   LIG d   1      10.660   3.288  -8.568  0.00  0.00     0.029 H 
ATOM     37  H   LIG d   1       9.045   2.608  -8.877  0.00  0.00     0.029 H 
ATOM     38  H   LIG d   1       9.829   6.740  -9.673  0.00  0.00     0.034 H 
ATOM     39  H   LIG d   1      11.172   5.661  -9.216  0.00  0.00     0.034 H 
ENDROOT
BRANCH  12  40
ATOM     40  C   LIG d   1      11.341   6.607  -0.252  0.00  0.00     0.026 A 
ATOM     41  S   LIG d   1      11.043   5.915   1.398  0.00  0.00    -0.152 SA
ATOM     42  C   LIG d   1      11.817   5.165  -0.062  0.00  0.00     0.009 A 
ATOM     43  H   LIG d   1      12.894   5.003  -0.021  0.00  0.00     0.039 H 
ATOM     44  H   LIG d   1      11.250   4.387  -0.575  0.00  0.00     0.039 H 
BRANCH  40  45
ATOM     45  C   LIG d   1      12.423   7.682  -0.367  0.00  0.00    -0.049 C 
ATOM     46  H   LIG d   1      12.313   8.398   0.447  0.00  0.00     0.024 H 
ATOM     47  H   LIG d   1      13.407   7.216  -0.309  0.00  0.00     0.024 H 
ATOM     48  H   LIG d   1      12.323   8.199  -1.322  0.00  0.00     0.024 H 
ENDBRANCH  40  45
ENDBRANCH  12  40
BRANCH   1  49
ATOM     49  C   LIG d   1      11.846   6.296  -2.874  0.00  0.00    -0.059 C 
ATOM     50  H   LIG d   1      12.088   7.306  -3.207  0.00  0.00     0.024 H 
ATOM     51  H   LIG d   1      12.438   6.053  -1.991  0.00  0.00     0.024 H 
ATOM     52  H   LIG d   1      12.071   5.587  -3.670  0.00  0.00     0.024 H 
ENDBRANCH   1  49
BRANCH  17  53
ATOM     53  C   LIG d   1      11.457   4.627  -6.578  0.00  0.00    -0.056 C 
ATOM     54  H   LIG d   1      11.565   3.750  -5.940  0.00  0.00     0.024 H 
ATOM     55  H   LIG d   1      11.800   4.388  -7.585  0.00  0.00     0.024 H 
ATOM     56  H   LIG d   1      12.052   5.446  -6.176  0.00  0.00     0.024 H 
ENDBRANCH  17  53
BRANCH  20  57
ATOM     57  O   LIG d   1       9.591   4.298 -10.823  0.00  0.00    -0.392 OA
ATOM     58  H   LIG d   1      10.446   4.630 -11.130  0.00  0.00     0.210 HD
ENDBRANCH  20  57
TORSDOF 5
ENDMDL
MODEL 8
REMARK VINA RESULT:      -5.2     10.729     11.874
REMARK  5 active torsions:
REMARK  status: ('A' for Active; 'I' for Inactive)
REMARK    1  A    between atoms: C_1  and  C_2 
REMARK    2  A    between atoms: C_13  and  C_15 
REMARK    3  A    between atoms: C_15  and  C_18 
REMARK    4  A    between atoms: C_22  and  C_29 
REMARK    5  A    between atoms: C_25  and  O_28 
ROOT
ATOM      1  C   LIG d   1      10.485   8.429  -1.577  0.00  0.00    -0.025 C 
ATOM      2  C   LIG d   1       9.925   7.137  -2.128  0.00  0.00    -0.047 C 
ATOM      3  C   LIG d   1      10.249   7.089  -3.629  0.00  0.00    -0.049 C 
ATOM      4  C   LIG d   1       9.692   8.303  -4.369  0.00  0.00    -0.029 C 
ATOM      5  H   LIG d   1       8.604   8.256  -4.317  0.00  0.00     0.031 H 
ATOM      6  C   LIG d   1      10.151   9.621  -3.729  0.00  0.00    -0.031 C 
ATOM      7  H   LIG d   1      11.233   9.721  -3.808  0.00  0.00     0.031 H 
ATOM      8  C   LIG d   1       9.730   9.595  -2.271  0.00  0.00    -0.032 C 
ATOM      9  H   LIG d   1       8.653   9.449  -2.191  0.00  0.00     0.031 H 
ATOM     10  C   LIG d   1      10.169  10.797  -1.428  0.00  0.00    -0.049 C 
ATOM     11  C   LIG d   1      10.116  10.243   0.021  0.00  0.00    -0.048 C 
ATOM     12  C   LIG d   1      10.265   8.706  -0.093  0.00  0.00    -0.020 C 
ATOM     13  H   LIG d   1       9.358   8.211   0.254  0.00  0.00     0.032 H 
ATOM     14  C   LIG d   1       9.458  10.787  -4.442  0.00  0.00    -0.031 C 
ATOM     15  C   LIG d   1       9.741  10.706  -5.914  0.00  0.00    -0.084 C 
ATOM     16  C   LIG d   1      10.011   9.590  -6.523  0.00  0.00    -0.065 C 
ATOM     17  C   LIG d   1      10.082   8.259  -5.836  0.00  0.00    -0.008 C 
ATOM     18  C   LIG d   1       9.208   7.250  -6.588  0.00  0.00    -0.041 C 
ATOM     19  C   LIG d   1       9.621   7.219  -8.061  0.00  0.00    -0.026 C 
ATOM     20  C   LIG d   1       9.375   8.589  -8.694  0.00  0.00     0.059 C 
ATOM     21  H   LIG d   1       8.330   8.868  -8.562  0.00  0.00     0.060 H 
ATOM     22  C   LIG d   1      10.272   9.631  -8.019  0.00  0.00    -0.005 C 
ATOM     23  H   LIG d   1       8.845   7.122  -1.980  0.00  0.00     0.027 H 
ATOM     24  H   LIG d   1      10.382   6.288  -1.622  0.00  0.00     0.027 H 
ATOM     25  H   LIG d   1       9.817   6.184  -4.057  0.00  0.00     0.027 H 
ATOM     26  H   LIG d   1      11.331   7.061  -3.759  0.00  0.00     0.027 H 
ATOM     27  H   LIG d   1       9.474  11.628  -1.549  0.00  0.00     0.027 H 
ATOM     28  H   LIG d   1      11.182  11.104  -1.687  0.00  0.00     0.027 H 
ATOM     29  H   LIG d   1       9.161  10.492   0.483  0.00  0.00     0.027 H 
ATOM     30  H   LIG d   1      10.935  10.656   0.611  0.00  0.00     0.027 H 
ATOM     31  H   LIG d   1       8.382  10.729  -4.275  0.00  0.00     0.031 H 
ATOM     32  H   LIG d   1       9.837  11.731  -4.049  0.00  0.00     0.031 H 
ATOM     33  H   LIG d   1       9.720  11.618  -6.493  0.00  0.00     0.057 H 
ATOM     34  H   LIG d   1       9.338   6.260  -6.152  0.00  0.00     0.027 H 
ATOM     35  H   LIG d   1       8.162   7.547  -6.510  0.00  0.00     0.027 H 
ATOM     36  H   LIG d   1      10.679   6.970  -8.135  0.00  0.00     0.029 H 
ATOM     37  H   LIG d   1       9.034   6.465  -8.586  0.00  0.00     0.029 H 
ATOM     38  H   LIG d   1      10.036  10.623  -8.405  0.00  0.00     0.034 H 
ATOM     39  H   LIG d   1      11.318   9.399  -8.217  0.00  0.00     0.034 H 
ENDROOT
BRANCH  12  40
ATOM     40  C   LIG d   1      11.471   8.229   0.720  0.00  0.00     0.026 A 
ATOM     41  S   LIG d   1      12.932   9.305   0.729  0.00  0.00    -0.152 SA
ATOM     42  C   LIG d   1      11.738   8.945   2.047  0.00  0.00     0.009 A 
ATOM     43  H   LIG d   1      12.089   8.330   2.875  0.00  0.00     0.039 H 
ATOM     44  H   LIG d   1      11.051   9.745   2.322  0.00  0.00     0.039 H 
BRANCH  40  45
ATOM     45  C   LIG d   1      11.723   6.721   0.685  0.00  0.00    -0.049 C 
ATOM     46  H   LIG d   1      10.772   6.194   0.617  0.00  0.00     0.024 H 
ATOM     47  H   LIG d   1      12.338   6.474  -0.181  0.00  0.00     0.024 H 
ATOM     48  H   LIG d   1      12.242   6.419   1.595  0.00  0.00     0.024 H 
ENDBRANCH  40  45
ENDBRANCH  12  40
BRANCH   1  49
ATOM     49  C   LIG d   1      11.978   8.509  -1.904  0.00  0.00    -0.059 C 
ATOM     50  H   LIG d   1      12.512   7.727  -1.364  0.00  0.00     0.024 H 
ATOM     51  H   LIG d   1      12.122   8.373  -2.976  0.00  0.00     0.024 H 
ATOM     52  H   LIG d   1      12.363   9.485  -1.606  0.00  0.00     0.024 H 
ENDBRANCH   1  49
BRANCH  17  53
ATOM     53  C   LIG d   1      11.530   7.767  -5.893  0.00  0.00    -0.056 C 
ATOM     54  H   LIG d   1      12.205   8.623  -5.865  0.00  0.00     0.024 H 
ATOM     55  H   LIG d   1      11.728   7.121  -5.037  0.00  0.00     0.024 H 
ATOM     56  H   LIG d   1      11.688   7.209  -6.814  0.00  0.00     0.024 H 
ENDBRANCH  17  53
BRANCH  20  57
ATOM     57  O   LIG d   1       9.681   8.530 -10.089  0.00  0.00    -0.392 OA
ATOM     58  H   LIG d   1      10.071   9.342 -10.440  0.00  0.00     0.210 HD
ENDBRANCH  20  57
TORSDOF 5
ENDMDL
MODEL 9
REMARK VINA RESULT:      -5.1      9.842     12.222
REMARK  5 active torsions:
REMARK  status: ('A' for Active; 'I' for Inactive)
REMARK    1  A    between atoms: C_1  and  C_2 
REMARK    2  A    between atoms: C_13  and  C_15 
REMARK    3  A    between atoms: C_15  and  C_18 
REMARK    4  A    between atoms: C_22  and  C_29 
REMARK    5  A    between atoms: C_25  and  O_28 
ROOT
ATOM      1  C   LIG d   1       6.043  -9.883  -4.300  0.00  0.00    -0.025 C 
ATOM      2  C   LIG d   1       6.531  -8.508  -4.695  0.00  0.00    -0.047 C 
ATOM      3  C   LIG d   1       8.017  -8.413  -4.319  0.00  0.00    -0.049 C 
ATOM      4  C   LIG d   1       8.246  -8.683  -2.835  0.00  0.00    -0.029 C 
ATOM      5  H   LIG d   1       7.764  -7.884  -2.271  0.00  0.00     0.031 H 
ATOM      6  C   LIG d   1       7.633 -10.021  -2.398  0.00  0.00    -0.031 C 
ATOM      7  H   LIG d   1       8.127 -10.847  -2.909  0.00  0.00     0.031 H 
ATOM      8  C   LIG d   1       6.158  -9.988  -2.755  0.00  0.00    -0.032 C 
ATOM      9  H   LIG d   1       5.672  -9.136  -2.279  0.00  0.00     0.031 H 
ATOM     10  C   LIG d   1       5.374 -11.275  -2.470  0.00  0.00    -0.049 C 
ATOM     11  C   LIG d   1       4.147 -11.149  -3.414  0.00  0.00    -0.048 C 
ATOM     12  C   LIG d   1       4.575 -10.203  -4.563  0.00  0.00    -0.020 C 
ATOM     13  H   LIG d   1       3.979  -9.290  -4.542  0.00  0.00     0.032 H 
ATOM     14  C   LIG d   1       7.789 -10.168  -0.880  0.00  0.00    -0.031 C 
ATOM     15  C   LIG d   1       9.239 -10.028  -0.517  0.00  0.00    -0.084 C 
ATOM     16  C   LIG d   1      10.087  -9.352  -1.235  0.00  0.00    -0.065 C 
ATOM     17  C   LIG d   1       9.729  -8.644  -2.507  0.00  0.00    -0.008 C 
ATOM     18  C   LIG d   1      10.221  -7.196  -2.440  0.00  0.00    -0.041 C 
ATOM     19  C   LIG d   1      11.715  -7.181  -2.114  0.00  0.00    -0.026 C 
ATOM     20  C   LIG d   1      11.948  -7.800  -0.735  0.00  0.00     0.059 C 
ATOM     21  H   LIG d   1      11.356  -7.265   0.008  0.00  0.00     0.060 H 
ATOM     22  C   LIG d   1      11.529  -9.273  -0.760  0.00  0.00    -0.005 C 
ATOM     23  H   LIG d   1       5.961  -7.754  -4.151  0.00  0.00     0.027 H 
ATOM     24  H   LIG d   1       6.409  -8.365  -5.768  0.00  0.00     0.027 H 
ATOM     25  H   LIG d   1       8.381  -7.413  -4.558  0.00  0.00     0.027 H 
ATOM     26  H   LIG d   1       8.580  -9.142  -4.903  0.00  0.00     0.027 H 
ATOM     27  H   LIG d   1       5.057 -11.311  -1.429  0.00  0.00     0.027 H 
ATOM     28  H   LIG d   1       5.966 -12.154  -2.722  0.00  0.00     0.027 H 
ATOM     29  H   LIG d   1       3.301 -10.724  -2.875  0.00  0.00     0.027 H 
ATOM     30  H   LIG d   1       3.881 -12.128  -3.815  0.00  0.00     0.027 H 
ATOM     31  H   LIG d   1       7.211  -9.392  -0.378  0.00  0.00     0.031 H 
ATOM     32  H   LIG d   1       7.429 -11.149  -0.570  0.00  0.00     0.031 H 
ATOM     33  H   LIG d   1       9.593 -10.510   0.383  0.00  0.00     0.057 H 
ATOM     34  H   LIG d   1      10.053  -6.710  -3.401  0.00  0.00     0.027 H 
ATOM     35  H   LIG d   1       9.674  -6.662  -1.663  0.00  0.00     0.027 H 
ATOM     36  H   LIG d   1      12.256  -7.756  -2.866  0.00  0.00     0.029 H 
ATOM     37  H   LIG d   1      12.077  -6.152  -2.117  0.00  0.00     0.029 H 
ATOM     38  H   LIG d   1      11.608  -9.694   0.242  0.00  0.00     0.034 H 
ATOM     39  H   LIG d   1      12.172  -9.826  -1.444  0.00  0.00     0.034 H 
ENDROOT
BRANCH  12  40
ATOM     40  C   LIG d   1       4.418 -10.905  -5.914  0.00  0.00     0.026 A 
ATOM     41  S   LIG d   1       5.086 -12.587  -6.046  0.00  0.00    -0.152 SA
ATOM     42  C   LIG d   1       3.365 -12.012  -6.000  0.00  0.00     0.009 A 
ATOM     43  H   LIG d   1       2.798 -12.081  -6.928  0.00  0.00     0.039 H 
ATOM     44  H   LIG d   1       2.799 -12.226  -5.094  0.00  0.00     0.039 H 
BRANCH  40  45
ATOM     45  C   LIG d   1       4.573 -10.001  -7.138  0.00  0.00    -0.049 C 
ATOM     46  H   LIG d   1       5.479 -10.272  -7.679  0.00  0.00     0.024 H 
ATOM     47  H   LIG d   1       3.709 -10.124  -7.792  0.00  0.00     0.024 H 
ATOM     48  H   LIG d   1       4.639  -8.962  -6.816  0.00  0.00     0.024 H 
ENDBRANCH  40  45
ENDBRANCH  12  40
BRANCH   1  49
ATOM     49  C   LIG d   1       6.931 -10.940  -4.960  0.00  0.00    -0.059 C 
ATOM     50  H   LIG d   1       7.194 -10.617  -5.967  0.00  0.00     0.024 H 
ATOM     51  H   LIG d   1       7.839 -11.071  -4.372  0.00  0.00     0.024 H 
ATOM     52  H   LIG d   1       6.391 -11.886  -5.012  0.00  0.00     0.024 H 
ENDBRANCH   1  49
BRANCH  17  53
ATOM     53  C   LIG d   1      10.454  -9.340  -3.662  0.00  0.00    -0.056 C 
ATOM     54  H   LIG d   1      10.614  -8.627  -4.471  0.00  0.00     0.024 H 
ATOM     55  H   LIG d   1      11.416  -9.715  -3.313  0.00  0.00     0.024 H 
ATOM     56  H   LIG d   1       9.849 -10.171  -4.021  0.00  0.00     0.024 H 
ENDBRANCH  17  53
BRANCH  20  57
ATOM     57  O   LIG d   1      13.334  -7.705  -0.399  0.00  0.00    -0.392 OA
ATOM     58  H   LIG d   1      13.814  -7.030  -0.897  0.00  0.00     0.210 HD
ENDBRANCH  20  57
TORSDOF 5
ENDMDL
MODEL 10
REMARK VINA RESULT:      -5.1      9.734     11.431
REMARK  5 active torsions:
REMARK  status: ('A' for Active; 'I' for Inactive)
REMARK    1  A    between atoms: C_1  and  C_2 
REMARK    2  A    between atoms: C_13  and  C_15 
REMARK    3  A    between atoms: C_15  and  C_18 
REMARK    4  A    between atoms: C_22  and  C_29 
REMARK    5  A    between atoms: C_25  and  O_28 
ROOT
ATOM      1  C   LIG d   1      10.612   7.980  -0.860  0.00  0.00    -0.025 C 
ATOM      2  C   LIG d   1      10.392   6.673  -0.134  0.00  0.00    -0.047 C 
ATOM      3  C   LIG d   1      10.926   5.545  -1.028  0.00  0.00    -0.049 C 
ATOM      4  C   LIG d   1      10.258   5.543  -2.401  0.00  0.00    -0.029 C 
ATOM      5  H   LIG d   1       9.202   5.310  -2.259  0.00  0.00     0.031 H 
ATOM      6  C   LIG d   1      10.362   6.912  -3.087  0.00  0.00    -0.031 C 
ATOM      7  H   LIG d   1      11.406   7.155  -3.288  0.00  0.00     0.031 H 
ATOM      8  C   LIG d   1       9.753   7.942  -2.154  0.00  0.00    -0.032 C 
ATOM      9  H   LIG d   1       8.723   7.676  -1.917  0.00  0.00     0.031 H 
ATOM     10  C   LIG d   1       9.832   9.399  -2.624  0.00  0.00    -0.049 C 
ATOM     11  C   LIG d   1       9.682  10.199  -1.302  0.00  0.00    -0.048 C 
ATOM     12  C   LIG d   1      10.136   9.252  -0.164  0.00  0.00    -0.020 C 
ATOM     13  H   LIG d   1       9.301   9.030   0.500  0.00  0.00     0.032 H 
ATOM     14  C   LIG d   1       9.567   6.874  -4.397  0.00  0.00    -0.031 C 
ATOM     15  C   LIG d   1      10.065   5.740  -5.245  0.00  0.00    -0.084 C 
ATOM     16  C   LIG d   1      10.626   4.677  -4.749  0.00  0.00    -0.065 C 
ATOM     17  C   LIG d   1      10.852   4.458  -3.283  0.00  0.00    -0.008 C 
ATOM     18  C   LIG d   1      10.301   3.086  -2.882  0.00  0.00    -0.041 C 
ATOM     19  C   LIG d   1      10.916   2.010  -3.778  0.00  0.00    -0.026 C 
ATOM     20  C   LIG d   1      10.504   2.254  -5.231  0.00  0.00     0.059 C 
ATOM     21  H   LIG d   1       9.417   2.281  -5.302  0.00  0.00     0.060 H 
ATOM     22  C   LIG d   1      11.082   3.590  -5.708  0.00  0.00    -0.005 C 
ATOM     23  H   LIG d   1       9.324   6.535   0.041  0.00  0.00     0.027 H 
ATOM     24  H   LIG d   1      10.926   6.680   0.815  0.00  0.00     0.027 H 
ATOM     25  H   LIG d   1      10.740   4.586  -0.542  0.00  0.00     0.027 H 
ATOM     26  H   LIG d   1      12.001   5.672  -1.158  0.00  0.00     0.027 H 
ATOM     27  H   LIG d   1       9.015   9.628  -3.308  0.00  0.00     0.027 H 
ATOM     28  H   LIG d   1      10.794   9.604  -3.092  0.00  0.00     0.027 H 
ATOM     29  H   LIG d   1       8.641  10.488  -1.154  0.00  0.00     0.027 H 
ATOM     30  H   LIG d   1      10.316  11.086  -1.326  0.00  0.00     0.027 H 
ATOM     31  H   LIG d   1       8.510   6.726  -4.176  0.00  0.00     0.031 H 
ATOM     32  H   LIG d   1       9.700   7.815  -4.931  0.00  0.00     0.031 H 
ATOM     33  H   LIG d   1       9.952   5.811  -6.317  0.00  0.00     0.057 H 
ATOM     34  H   LIG d   1      10.555   2.883  -1.842  0.00  0.00     0.027 H 
ATOM     35  H   LIG d   1       9.218   3.082  -2.999  0.00  0.00     0.027 H 
ATOM     36  H   LIG d   1      12.002   2.048  -3.698  0.00  0.00     0.029 H 
ATOM     37  H   LIG d   1      10.563   1.029  -3.460  0.00  0.00     0.029 H 
ATOM     38  H   LIG d   1      10.718   3.810  -6.711  0.00  0.00     0.034 H 
ATOM     39  H   LIG d   1      12.171   3.538  -5.714  0.00  0.00     0.034 H 
ENDROOT
BRANCH  12  40
ATOM     40  C   LIG d   1      11.284   9.885   0.626  0.00  0.00     0.026 A 
ATOM     41  S   LIG d   1      12.448  10.919  -0.306  0.00  0.00    -0.152 SA
ATOM     42  C   LIG d   1      11.184  11.386   0.909  0.00  0.00     0.009 A 
ATOM     43  H   LIG d   1      11.537  11.728   1.882  0.00  0.00     0.039 H 
ATOM     44  H   LIG d   1      10.302  11.902   0.529  0.00  0.00     0.039 H 
BRANCH  40  45
ATOM     45  C   LIG d   1      11.871   9.011   1.734  0.00  0.00    -0.049 C 
ATOM     46  H   LIG d   1      11.171   8.211   1.977  0.00  0.00     0.024 H 
ATOM     47  H   LIG d   1      12.813   8.578   1.397  0.00  0.00     0.024 H 
ATOM     48  H   LIG d   1      12.049   9.619   2.621  0.00  0.00     0.024 H 
ENDBRANCH  40  45
ENDBRANCH  12  40
BRANCH   1  49
ATOM     49  C   LIG d   1      12.093   8.110  -1.223  0.00  0.00    -0.059 C 
ATOM     50  H   LIG d   1      12.369   7.314  -1.914  0.00  0.00     0.024 H 
ATOM     51  H   LIG d   1      12.267   9.077  -1.695  0.00  0.00     0.024 H 
ATOM     52  H   LIG d   1      12.696   8.032  -0.319  0.00  0.00     0.024 H 
ENDBRANCH   1  49
BRANCH  17  53
ATOM     53  C   LIG d   1      12.361   4.458  -3.026  0.00  0.00    -0.056 C 
ATOM     54  H   LIG d   1      12.562   4.024  -2.046  0.00  0.00     0.024 H 
ATOM     55  H   LIG d   1      12.860   3.867  -3.794  0.00  0.00     0.024 H 
ATOM     56  H   LIG d   1      12.733   5.481  -3.056  0.00  0.00     0.024 H 
ENDBRANCH  17  53
BRANCH  20  57
ATOM     57  O   LIG d   1      11.009   1.198  -6.052  0.00  0.00    -0.392 OA
ATOM     58  H   LIG d   1      11.724   0.690  -5.643  0.00  0.00     0.210 HD
ENDBRANCH  20  57
TORSDOF 5
ENDMDL
