MODEL 1
REMARK VINA RESULT:      -6.2      0.000      0.000
REMARK  3 active torsions:
REMARK  status: ('A' for Active; 'I' for Inactive)
REMARK    1  A    between atoms: C_1  and  C_2 
REMARK    2  A    between atoms: C_2  and  C_14 
REMARK    3  A    between atoms: C_7  and  C_11 
REMARK       I    between atoms: C_11  and  N_13 
ROOT
ATOM      1  C   LIG d   1       5.934  -0.188  -3.320  0.00  0.00    -0.010 C 
ATOM      2  C   LIG d   1       5.122   0.139  -2.029  0.00  0.00    -0.031 C 
ATOM      3  H   LIG d   1       5.698   0.509  -1.182  0.00  0.00     0.031 H 
ATOM      4  C   LIG d   1       4.257  -1.135  -1.786  0.00  0.00    -0.048 C 
ATOM      5  C   LIG d   1       3.229  -1.132  -2.941  0.00  0.00    -0.035 C 
ATOM      6  C   LIG d   1       3.569   0.149  -3.763  0.00  0.00     0.068 C 
ATOM      7  C   LIG d   1       4.042   1.113  -2.620  0.00  0.00    -0.032 C 
ATOM      8  C   LIG d   1       4.908  -0.172  -4.443  0.00  0.00    -0.056 C 
ATOM      9  C   LIG d   1       5.120  -0.388  -5.717  0.00  0.00    -0.098 C 
ATOM     10  H   LIG d   1       4.876  -2.031  -1.831  0.00  0.00     0.027 H 
ATOM     11  H   LIG d   1       3.748  -1.072  -0.823  0.00  0.00     0.027 H 
ATOM     12  H   LIG d   1       2.215  -1.072  -2.547  0.00  0.00     0.028 H 
ATOM     13  H   LIG d   1       3.347  -2.022  -3.558  0.00  0.00     0.028 H 
ATOM     14  H   LIG d   1       3.245   1.324  -1.905  0.00  0.00     0.028 H 
ATOM     15  H   LIG d   1       4.486   2.028  -3.012  0.00  0.00     0.028 H 
ATOM     16  H   LIG d   1       6.117  -0.607  -6.069  0.00  0.00     0.053 H 
ATOM     17  H   LIG d   1       4.298  -0.347  -6.417  0.00  0.00     0.053 H 
ENDROOT
BRANCH   1  18
ATOM     18  C   LIG d   1       7.003   0.880  -3.562  0.00  0.00    -0.056 C 
ATOM     19  H   LIG d   1       7.051   1.111  -4.626  0.00  0.00     0.024 H 
ATOM     20  H   LIG d   1       6.748   1.781  -3.005  0.00  0.00     0.024 H 
ATOM     21  H   LIG d   1       7.972   0.508  -3.227  0.00  0.00     0.024 H 
ENDBRANCH   1  18
BRANCH   1  22
ATOM     22  C   LIG d   1       6.579  -1.571  -3.207  0.00  0.00    -0.056 C 
ATOM     23  H   LIG d   1       7.658  -1.480  -3.333  0.00  0.00     0.024 H 
ATOM     24  H   LIG d   1       6.362  -1.995  -2.226  0.00  0.00     0.024 H 
ATOM     25  H   LIG d   1       6.176  -2.224  -3.982  0.00  0.00     0.024 H 
ENDBRANCH   1  22
BRANCH   6  26
ATOM     26  C   LIG d   1       2.471   0.667  -4.657  0.00  0.00     0.221 C 
ATOM     27  O   LIG d   1       2.541   1.786  -5.117  0.00  0.00    -0.275 OA
ATOM     28  N   LIG d   1       1.410  -0.115  -4.943  0.00  0.00    -0.329 N 
ATOM     29  H   LIG d   1       1.354  -1.010  -4.575  0.00  0.00     0.145 HD
ATOM     30  H   LIG d   1       0.703   0.219  -5.518  0.00  0.00     0.145 HD
ENDBRANCH   6  26
TORSDOF 3
ENDMDL
MODEL 2
REMARK VINA RESULT:      -5.7      2.475      3.891
REMARK  3 active torsions:
REMARK  status: ('A' for Active; 'I' for Inactive)
REMARK    1  A    between atoms: C_1  and  C_2 
REMARK    2  A    between atoms: C_2  and  C_14 
REMARK    3  A    between atoms: C_7  and  C_11 
REMARK       I    between atoms: C_11  and  N_13 
ROOT
ATOM      1  C   LIG d   1       3.897  -1.166  -3.242  0.00  0.00    -0.010 C 
ATOM      2  C   LIG d   1       4.578  -1.758  -4.514  0.00  0.00    -0.031 C 
ATOM      3  H   LIG d   1       3.916  -2.239  -5.232  0.00  0.00     0.031 H 
ATOM      4  C   LIG d   1       5.753  -2.619  -3.956  0.00  0.00    -0.048 C 
ATOM      5  C   LIG d   1       6.752  -1.587  -3.386  0.00  0.00    -0.035 C 
ATOM      6  C   LIG d   1       6.089  -0.203  -3.663  0.00  0.00     0.068 C 
ATOM      7  C   LIG d   1       5.362  -0.496  -5.022  0.00  0.00    -0.032 C 
ATOM      8  C   LIG d   1       4.892  -0.149  -2.702  0.00  0.00    -0.056 C 
ATOM      9  C   LIG d   1       4.758   0.609  -1.643  0.00  0.00    -0.098 C 
ATOM     10  H   LIG d   1       5.397  -3.281  -3.166  0.00  0.00     0.027 H 
ATOM     11  H   LIG d   1       6.216  -3.196  -4.757  0.00  0.00     0.027 H 
ATOM     12  H   LIG d   1       7.710  -1.659  -3.902  0.00  0.00     0.028 H 
ATOM     13  H   LIG d   1       6.884  -1.737  -2.315  0.00  0.00     0.028 H 
ATOM     14  H   LIG d   1       6.065  -0.743  -5.819  0.00  0.00     0.028 H 
ATOM     15  H   LIG d   1       4.692   0.314  -5.312  0.00  0.00     0.028 H 
ATOM     16  H   LIG d   1       3.860   0.549  -1.046  0.00  0.00     0.053 H 
ATOM     17  H   LIG d   1       5.545   1.295  -1.365  0.00  0.00     0.053 H 
ENDROOT
BRANCH   1  18
ATOM     18  C   LIG d   1       2.582  -0.476  -3.614  0.00  0.00    -0.056 C 
ATOM     19  H   LIG d   1       2.422  -0.555  -4.690  0.00  0.00     0.024 H 
ATOM     20  H   LIG d   1       1.758  -0.957  -3.088  0.00  0.00     0.024 H 
ATOM     21  H   LIG d   1       2.631   0.576  -3.332  0.00  0.00     0.024 H 
ENDBRANCH   1  18
BRANCH   1  22
ATOM     22  C   LIG d   1       3.648  -2.267  -2.210  0.00  0.00    -0.056 C 
ATOM     23  H   LIG d   1       3.823  -1.874  -1.209  0.00  0.00     0.024 H 
ATOM     24  H   LIG d   1       2.616  -2.613  -2.289  0.00  0.00     0.024 H 
ATOM     25  H   LIG d   1       4.325  -3.101  -2.397  0.00  0.00     0.024 H 
ENDBRANCH   1  22
BRANCH   6  26
ATOM     26  C   LIG d   1       7.015   0.986  -3.648  0.00  0.00     0.221 C 
ATOM     27  O   LIG d   1       6.562   2.106  -3.550  0.00  0.00    -0.275 OA
ATOM     28  N   LIG d   1       8.348   0.803  -3.744  0.00  0.00    -0.329 N 
ATOM     29  H   LIG d   1       8.710  -0.093  -3.821  0.00  0.00     0.145 HD
ATOM     30  H   LIG d   1       8.943   1.568  -3.734  0.00  0.00     0.145 HD
ENDBRANCH   6  26
TORSDOF 3
ENDMDL
MODEL 3
REMARK VINA RESULT:      -5.5      1.701      3.146
REMARK  3 active torsions:
REMARK  status: ('A' for Active; 'I' for Inactive)
REMARK    1  A    between atoms: C_1  and  C_2 
REMARK    2  A    between atoms: C_2  and  C_14 
REMARK    3  A    between atoms: C_7  and  C_11 
REMARK       I    between atoms: C_11  and  N_13 
ROOT
ATOM      1  C   LIG d   1       4.494  -1.034  -2.750  0.00  0.00    -0.010 C 
ATOM      2  C   LIG d   1       5.901  -1.594  -3.124  0.00  0.00    -0.031 C 
ATOM      3  H   LIG d   1       6.324  -2.325  -2.437  0.00  0.00     0.031 H 
ATOM      4  C   LIG d   1       6.757  -0.322  -3.411  0.00  0.00    -0.048 C 
ATOM      5  C   LIG d   1       6.171   0.252  -4.721  0.00  0.00    -0.035 C 
ATOM      6  C   LIG d   1       5.025  -0.734  -5.103  0.00  0.00     0.068 C 
ATOM      7  C   LIG d   1       5.622  -2.090  -4.588  0.00  0.00    -0.032 C 
ATOM      8  C   LIG d   1       3.933  -0.482  -4.053  0.00  0.00    -0.056 C 
ATOM      9  C   LIG d   1       2.768   0.087  -4.238  0.00  0.00    -0.098 C 
ATOM     10  H   LIG d   1       6.651   0.398  -2.600  0.00  0.00     0.027 H 
ATOM     11  H   LIG d   1       7.804  -0.591  -3.548  0.00  0.00     0.027 H 
ATOM     12  H   LIG d   1       6.932   0.270  -5.502  0.00  0.00     0.028 H 
ATOM     13  H   LIG d   1       5.772   1.252  -4.554  0.00  0.00     0.028 H 
ATOM     14  H   LIG d   1       6.541  -2.359  -5.111  0.00  0.00     0.028 H 
ATOM     15  H   LIG d   1       4.891  -2.898  -4.614  0.00  0.00     0.028 H 
ATOM     16  H   LIG d   1       2.087   0.206  -3.409  0.00  0.00     0.053 H 
ATOM     17  H   LIG d   1       2.489   0.439  -5.221  0.00  0.00     0.053 H 
ENDROOT
BRANCH   1  18
ATOM     18  C   LIG d   1       3.599  -2.156  -2.219  0.00  0.00    -0.056 C 
ATOM     19  H   LIG d   1       3.749  -2.264  -1.145  0.00  0.00     0.024 H 
ATOM     20  H   LIG d   1       2.555  -1.913  -2.418  0.00  0.00     0.024 H 
ATOM     21  H   LIG d   1       3.855  -3.092  -2.717  0.00  0.00     0.024 H 
ENDBRANCH   1  18
BRANCH   1  22
ATOM     22  C   LIG d   1       4.623   0.081  -1.711  0.00  0.00    -0.056 C 
ATOM     23  H   LIG d   1       5.256  -0.259  -0.890  0.00  0.00     0.024 H 
ATOM     24  H   LIG d   1       5.072   0.960  -2.175  0.00  0.00     0.024 H 
ATOM     25  H   LIG d   1       3.635   0.337  -1.327  0.00  0.00     0.024 H 
ENDBRANCH   1  22
BRANCH   6  26
ATOM     26  C   LIG d   1       4.586  -0.707  -6.545  0.00  0.00     0.221 C 
ATOM     27  O   LIG d   1       4.769   0.287  -7.215  0.00  0.00    -0.275 OA
ATOM     28  N   LIG d   1       3.990  -1.787  -7.089  0.00  0.00    -0.329 N 
ATOM     29  H   LIG d   1       3.845  -2.582  -6.552  0.00  0.00     0.145 HD
ATOM     30  H   LIG d   1       3.709  -1.769  -8.017  0.00  0.00     0.145 HD
ENDBRANCH   6  26
TORSDOF 3
ENDMDL
MODEL 4
REMARK VINA RESULT:      -5.3      2.523      3.583
REMARK  3 active torsions:
REMARK  status: ('A' for Active; 'I' for Inactive)
REMARK    1  A    between atoms: C_1  and  C_2 
REMARK    2  A    between atoms: C_2  and  C_14 
REMARK    3  A    between atoms: C_7  and  C_11 
REMARK       I    between atoms: C_11  and  N_13 
ROOT
ATOM      1  C   LIG d   1       4.157  -1.373  -3.519  0.00  0.00    -0.010 C 
ATOM      2  C   LIG d   1       4.840  -1.158  -2.134  0.00  0.00    -0.031 C 
ATOM      3  H   LIG d   1       4.628  -1.908  -1.373  0.00  0.00     0.031 H 
ATOM      4  C   LIG d   1       4.513   0.323  -1.769  0.00  0.00    -0.048 C 
ATOM      5  C   LIG d   1       5.333   1.160  -2.777  0.00  0.00    -0.035 C 
ATOM      6  C   LIG d   1       6.083   0.104  -3.645  0.00  0.00     0.068 C 
ATOM      7  C   LIG d   1       6.339  -1.020  -2.581  0.00  0.00    -0.032 C 
ATOM      8  C   LIG d   1       4.983  -0.548  -4.495  0.00  0.00    -0.056 C 
ATOM      9  C   LIG d   1       4.795  -0.421  -5.785  0.00  0.00    -0.098 C 
ATOM     10  H   LIG d   1       3.447   0.518  -1.891  0.00  0.00     0.027 H 
ATOM     11  H   LIG d   1       4.826   0.542  -0.748  0.00  0.00     0.027 H 
ATOM     12  H   LIG d   1       6.046   1.795  -2.252  0.00  0.00     0.028 H 
ATOM     13  H   LIG d   1       4.672   1.763  -3.399  0.00  0.00     0.028 H 
ATOM     14  H   LIG d   1       6.979  -0.677  -1.768  0.00  0.00     0.028 H 
ATOM     15  H   LIG d   1       6.717  -1.936  -3.035  0.00  0.00     0.028 H 
ATOM     16  H   LIG d   1       3.976  -0.936  -6.265  0.00  0.00     0.053 H 
ATOM     17  H   LIG d   1       5.458   0.200  -6.369  0.00  0.00     0.053 H 
ENDROOT
BRANCH   1  18
ATOM     18  C   LIG d   1       4.196  -2.853  -3.907  0.00  0.00    -0.056 C 
ATOM     19  H   LIG d   1       3.623  -3.433  -3.185  0.00  0.00     0.024 H 
ATOM     20  H   LIG d   1       3.765  -2.979  -4.900  0.00  0.00     0.024 H 
ATOM     21  H   LIG d   1       5.230  -3.200  -3.913  0.00  0.00     0.024 H 
ENDBRANCH   1  18
BRANCH   1  22
ATOM     22  C   LIG d   1       2.713  -0.869  -3.484  0.00  0.00    -0.056 C 
ATOM     23  H   LIG d   1       2.131  -1.379  -4.253  0.00  0.00     0.024 H 
ATOM     24  H   LIG d   1       2.279  -1.074  -2.505  0.00  0.00     0.024 H 
ATOM     25  H   LIG d   1       2.698   0.205  -3.670  0.00  0.00     0.024 H 
ENDBRANCH   1  22
BRANCH   6  26
ATOM     26  C   LIG d   1       7.295   0.604  -4.388  0.00  0.00     0.221 C 
ATOM     27  O   LIG d   1       7.303   1.724  -4.852  0.00  0.00    -0.275 OA
ATOM     28  N   LIG d   1       8.371  -0.195  -4.537  0.00  0.00    -0.329 N 
ATOM     29  H   LIG d   1       8.365  -1.091  -4.166  0.00  0.00     0.145 HD
ATOM     30  H   LIG d   1       9.151   0.127  -5.015  0.00  0.00     0.145 HD
ENDBRANCH   6  26
TORSDOF 3
ENDMDL
MODEL 5
REMARK VINA RESULT:      -4.9      2.014      2.834
REMARK  3 active torsions:
REMARK  status: ('A' for Active; 'I' for Inactive)
REMARK    1  A    between atoms: C_1  and  C_2 
REMARK    2  A    between atoms: C_2  and  C_14 
REMARK    3  A    between atoms: C_7  and  C_11 
REMARK       I    between atoms: C_11  and  N_13 
ROOT
ATOM      1  C   LIG d   1       6.450  -1.835  -3.996  0.00  0.00    -0.010 C 
ATOM      2  C   LIG d   1       5.102  -2.511  -3.599  0.00  0.00    -0.031 C 
ATOM      3  H   LIG d   1       5.145  -3.577  -3.382  0.00  0.00     0.031 H 
ATOM      4  C   LIG d   1       4.105  -2.061  -4.711  0.00  0.00    -0.048 C 
ATOM      5  C   LIG d   1       3.906  -0.548  -4.464  0.00  0.00    -0.035 C 
ATOM      6  C   LIG d   1       4.795  -0.234  -3.222  0.00  0.00     0.068 C 
ATOM      7  C   LIG d   1       4.659  -1.575  -2.419  0.00  0.00    -0.032 C 
ATOM      8  C   LIG d   1       6.236  -0.351  -3.738  0.00  0.00    -0.056 C 
ATOM      9  C   LIG d   1       7.097   0.620  -3.919  0.00  0.00    -0.098 C 
ATOM     10  H   LIG d   1       4.534  -2.231  -5.698  0.00  0.00     0.027 H 
ATOM     11  H   LIG d   1       3.157  -2.591  -4.610  0.00  0.00     0.027 H 
ATOM     12  H   LIG d   1       2.860  -0.332  -4.246  0.00  0.00     0.028 H 
ATOM     13  H   LIG d   1       4.242   0.026  -5.326  0.00  0.00     0.028 H 
ATOM     14  H   LIG d   1       3.631  -1.765  -2.108  0.00  0.00     0.028 H 
ATOM     15  H   LIG d   1       5.351  -1.621  -1.577  0.00  0.00     0.028 H 
ATOM     16  H   LIG d   1       8.086   0.401  -4.293  0.00  0.00     0.053 H 
ATOM     17  H   LIG d   1       6.817   1.639  -3.697  0.00  0.00     0.053 H 
ENDROOT
BRANCH   1  18
ATOM     18  C   LIG d   1       7.589  -2.367  -3.122  0.00  0.00    -0.056 C 
ATOM     19  H   LIG d   1       8.157  -3.112  -3.680  0.00  0.00     0.024 H 
ATOM     20  H   LIG d   1       8.246  -1.545  -2.841  0.00  0.00     0.024 H 
ATOM     21  H   LIG d   1       7.174  -2.826  -2.224  0.00  0.00     0.024 H 
ENDBRANCH   1  18
BRANCH   1  22
ATOM     22  C   LIG d   1       6.754  -2.081  -5.475  0.00  0.00    -0.056 C 
ATOM     23  H   LIG d   1       7.782  -2.426  -5.583  0.00  0.00     0.024 H 
ATOM     24  H   LIG d   1       6.073  -2.839  -5.865  0.00  0.00     0.024 H 
ATOM     25  H   LIG d   1       6.622  -1.153  -6.032  0.00  0.00     0.024 H 
ENDBRANCH   1  22
BRANCH   6  26
ATOM     26  C   LIG d   1       4.453   1.028  -2.470  0.00  0.00     0.221 C 
ATOM     27  O   LIG d   1       4.771   1.145  -1.306  0.00  0.00    -0.275 OA
ATOM     28  N   LIG d   1       3.792   2.025  -3.093  0.00  0.00    -0.329 N 
ATOM     29  H   LIG d   1       3.539   1.931  -4.024  0.00  0.00     0.145 HD
ATOM     30  H   LIG d   1       3.572   2.836  -2.609  0.00  0.00     0.145 HD
ENDBRANCH   6  26
TORSDOF 3
ENDMDL
MODEL 6
REMARK VINA RESULT:      -4.9      1.718      2.219
REMARK  3 active torsions:
REMARK  status: ('A' for Active; 'I' for Inactive)
REMARK    1  A    between atoms: C_1  and  C_2 
REMARK    2  A    between atoms: C_2  and  C_14 
REMARK    3  A    between atoms: C_7  and  C_11 
REMARK       I    between atoms: C_11  and  N_13 
ROOT
ATOM      1  C   LIG d   1       4.835  -1.560  -3.030  0.00  0.00    -0.010 C 
ATOM      2  C   LIG d   1       4.530  -0.067  -2.696  0.00  0.00    -0.031 C 
ATOM      3  H   LIG d   1       5.061   0.351  -1.841  0.00  0.00     0.031 H 
ATOM      4  C   LIG d   1       2.973   0.009  -2.660  0.00  0.00    -0.048 C 
ATOM      5  C   LIG d   1       2.542  -0.189  -4.131  0.00  0.00    -0.035 C 
ATOM      6  C   LIG d   1       3.881  -0.355  -4.913  0.00  0.00     0.068 C 
ATOM      7  C   LIG d   1       4.820   0.595  -4.090  0.00  0.00    -0.032 C 
ATOM      8  C   LIG d   1       4.412  -1.730  -4.482  0.00  0.00    -0.056 C 
ATOM      9  C   LIG d   1       4.483  -2.817  -5.209  0.00  0.00    -0.098 C 
ATOM     10  H   LIG d   1       2.568  -0.787  -2.035  0.00  0.00     0.027 H 
ATOM     11  H   LIG d   1       2.648   0.983  -2.295  0.00  0.00     0.027 H 
ATOM     12  H   LIG d   1       1.999   0.686  -4.489  0.00  0.00     0.028 H 
ATOM     13  H   LIG d   1       1.930  -1.084  -4.232  0.00  0.00     0.028 H 
ATOM     14  H   LIG d   1       4.487   1.633  -4.128  0.00  0.00     0.028 H 
ATOM     15  H   LIG d   1       5.865   0.494  -4.383  0.00  0.00     0.028 H 
ATOM     16  H   LIG d   1       4.879  -3.727  -4.782  0.00  0.00     0.053 H 
ATOM     17  H   LIG d   1       4.146  -2.805  -6.234  0.00  0.00     0.053 H 
ENDROOT
BRANCH   1  18
ATOM     18  C   LIG d   1       6.331  -1.845  -2.877  0.00  0.00    -0.056 C 
ATOM     19  H   LIG d   1       6.496  -2.444  -1.982  0.00  0.00     0.024 H 
ATOM     20  H   LIG d   1       6.689  -2.389  -3.750  0.00  0.00     0.024 H 
ATOM     21  H   LIG d   1       6.873  -0.903  -2.787  0.00  0.00     0.024 H 
ENDBRANCH   1  18
BRANCH   1  22
ATOM     22  C   LIG d   1       4.021  -2.485  -2.126  0.00  0.00    -0.056 C 
ATOM     23  H   LIG d   1       3.836  -3.428  -2.641  0.00  0.00     0.024 H 
ATOM     24  H   LIG d   1       4.576  -2.677  -1.206  0.00  0.00     0.024 H 
ATOM     25  H   LIG d   1       3.069  -2.011  -1.883  0.00  0.00     0.024 H 
ENDBRANCH   1  22
BRANCH   6  26
ATOM     26  C   LIG d   1       3.813  -0.098  -6.397  0.00  0.00     0.221 C 
ATOM     27  O   LIG d   1       4.819   0.187  -7.010  0.00  0.00    -0.275 OA
ATOM     28  N   LIG d   1       2.632  -0.185  -7.042  0.00  0.00    -0.329 N 
ATOM     29  H   LIG d   1       1.827  -0.413  -6.552  0.00  0.00     0.145 HD
ATOM     30  H   LIG d   1       2.588  -0.019  -7.997  0.00  0.00     0.145 HD
ENDBRANCH   6  26
TORSDOF 3
ENDMDL
MODEL 7
REMARK VINA RESULT:      -4.7      1.411      2.850
REMARK  3 active torsions:
REMARK  status: ('A' for Active; 'I' for Inactive)
REMARK    1  A    between atoms: C_1  and  C_2 
REMARK    2  A    between atoms: C_2  and  C_14 
REMARK    3  A    between atoms: C_7  and  C_11 
REMARK       I    between atoms: C_11  and  N_13 
ROOT
ATOM      1  C   LIG d   1       6.080  -2.177  -4.109  0.00  0.00    -0.010 C 
ATOM      2  C   LIG d   1       6.510  -1.053  -5.101  0.00  0.00    -0.031 C 
ATOM      3  H   LIG d   1       7.121  -1.367  -5.946  0.00  0.00     0.031 H 
ATOM      4  C   LIG d   1       7.101   0.062  -4.185  0.00  0.00    -0.048 C 
ATOM      5  C   LIG d   1       5.880   0.622  -3.419  0.00  0.00    -0.035 C 
ATOM      6  C   LIG d   1       4.670  -0.203  -3.954  0.00  0.00     0.068 C 
ATOM      7  C   LIG d   1       5.109  -0.433  -5.443  0.00  0.00    -0.032 C 
ATOM      8  C   LIG d   1       4.875  -1.610  -3.373  0.00  0.00    -0.056 C 
ATOM      9  C   LIG d   1       4.164  -2.196  -2.442  0.00  0.00    -0.098 C 
ATOM     10  H   LIG d   1       7.825  -0.361  -3.488  0.00  0.00     0.027 H 
ATOM     11  H   LIG d   1       7.564   0.844  -4.787  0.00  0.00     0.027 H 
ATOM     12  H   LIG d   1       5.745   1.681  -3.640  0.00  0.00     0.028 H 
ATOM     13  H   LIG d   1       6.000   0.469  -2.347  0.00  0.00     0.028 H 
ATOM     14  H   LIG d   1       5.199   0.505  -5.993  0.00  0.00     0.028 H 
ATOM     15  H   LIG d   1       4.461  -1.143  -5.957  0.00  0.00     0.028 H 
ATOM     16  H   LIG d   1       4.416  -3.195  -2.119  0.00  0.00     0.053 H 
ATOM     17  H   LIG d   1       3.327  -1.679  -1.996  0.00  0.00     0.053 H 
ENDROOT
BRANCH   1  18
ATOM     18  C   LIG d   1       5.687  -3.442  -4.877  0.00  0.00    -0.056 C 
ATOM     19  H   LIG d   1       5.749  -4.304  -4.213  0.00  0.00     0.024 H 
ATOM     20  H   LIG d   1       4.667  -3.340  -5.246  0.00  0.00     0.024 H 
ATOM     21  H   LIG d   1       6.366  -3.582  -5.718  0.00  0.00     0.024 H 
ENDBRANCH   1  18
BRANCH   1  22
ATOM     22  C   LIG d   1       7.211  -2.481  -3.125  0.00  0.00    -0.056 C 
ATOM     23  H   LIG d   1       7.371  -3.558  -3.076  0.00  0.00     0.024 H 
ATOM     24  H   LIG d   1       8.126  -1.992  -3.461  0.00  0.00     0.024 H 
ATOM     25  H   LIG d   1       6.942  -2.108  -2.136  0.00  0.00     0.024 H 
ENDBRANCH   1  22
BRANCH   6  26
ATOM     26  C   LIG d   1       3.311   0.415  -3.750  0.00  0.00     0.221 C 
ATOM     27  O   LIG d   1       3.144   1.238  -2.876  0.00  0.00    -0.275 OA
ATOM     28  N   LIG d   1       2.280   0.051  -4.539  0.00  0.00    -0.329 N 
ATOM     29  H   LIG d   1       2.413  -0.608  -5.239  0.00  0.00     0.145 HD
ATOM     30  H   LIG d   1       1.405   0.449  -4.407  0.00  0.00     0.145 HD
ENDBRANCH   6  26
TORSDOF 3
ENDMDL
MODEL 8
REMARK VINA RESULT:      -4.5      1.795      2.481
REMARK  3 active torsions:
REMARK  status: ('A' for Active; 'I' for Inactive)
REMARK    1  A    between atoms: C_1  and  C_2 
REMARK    2  A    between atoms: C_2  and  C_14 
REMARK    3  A    between atoms: C_7  and  C_11 
REMARK       I    between atoms: C_11  and  N_13 
ROOT
ATOM      1  C   LIG d   1       6.513  -0.742  -5.409  0.00  0.00    -0.010 C 
ATOM      2  C   LIG d   1       7.251  -0.547  -4.049  0.00  0.00    -0.031 C 
ATOM      3  H   LIG d   1       8.324  -0.368  -4.106  0.00  0.00     0.031 H 
ATOM      4  C   LIG d   1       6.787  -1.758  -3.182  0.00  0.00    -0.048 C 
ATOM      5  C   LIG d   1       5.294  -1.479  -2.894  0.00  0.00    -0.035 C 
ATOM      6  C   LIG d   1       5.004  -0.122  -3.607  0.00  0.00     0.068 C 
ATOM      7  C   LIG d   1       6.384   0.604  -3.424  0.00  0.00    -0.032 C 
ATOM      8  C   LIG d   1       5.050  -0.456  -5.105  0.00  0.00    -0.056 C 
ATOM      9  C   LIG d   1       4.043  -0.488  -5.943  0.00  0.00    -0.098 C 
ATOM     10  H   LIG d   1       6.899  -2.689  -3.738  0.00  0.00     0.027 H 
ATOM     11  H   LIG d   1       7.353  -1.799  -2.251  0.00  0.00     0.027 H 
ATOM     12  H   LIG d   1       5.124  -1.388  -1.821  0.00  0.00     0.028 H 
ATOM     13  H   LIG d   1       4.671  -2.268  -3.313  0.00  0.00     0.028 H 
ATOM     14  H   LIG d   1       6.622   0.773  -2.374  0.00  0.00     0.028 H 
ATOM     15  H   LIG d   1       6.443   1.524  -4.006  0.00  0.00     0.028 H 
ATOM     16  H   LIG d   1       4.211  -0.740  -6.978  0.00  0.00     0.053 H 
ATOM     17  H   LIG d   1       3.045  -0.262  -5.597  0.00  0.00     0.053 H 
ENDROOT
BRANCH   1  18
ATOM     18  C   LIG d   1       7.044   0.248  -6.449  0.00  0.00    -0.056 C 
ATOM     19  H   LIG d   1       7.600   1.039  -5.946  0.00  0.00     0.024 H 
ATOM     20  H   LIG d   1       7.701  -0.274  -7.144  0.00  0.00     0.024 H 
ATOM     21  H   LIG d   1       6.207   0.684  -6.995  0.00  0.00     0.024 H 
ENDBRANCH   1  18
BRANCH   1  22
ATOM     22  C   LIG d   1       6.683  -2.179  -5.905  0.00  0.00    -0.056 C 
ATOM     23  H   LIG d   1       5.738  -2.536  -6.316  0.00  0.00     0.024 H 
ATOM     24  H   LIG d   1       7.450  -2.208  -6.680  0.00  0.00     0.024 H 
ATOM     25  H   LIG d   1       6.982  -2.818  -5.073  0.00  0.00     0.024 H 
ENDBRANCH   1  22
BRANCH   6  26
ATOM     26  C   LIG d   1       3.790   0.629  -3.124  0.00  0.00     0.221 C 
ATOM     27  O   LIG d   1       2.867   0.027  -2.617  0.00  0.00    -0.275 OA
ATOM     28  N   LIG d   1       3.729   1.969  -3.256  0.00  0.00    -0.329 N 
ATOM     29  H   LIG d   1       4.468   2.450  -3.661  0.00  0.00     0.145 HD
ATOM     30  H   LIG d   1       2.948   2.452  -2.945  0.00  0.00     0.145 HD
ENDBRANCH   6  26
TORSDOF 3
ENDMDL
MODEL 9
REMARK VINA RESULT:      -4.4      3.982      6.126
REMARK  3 active torsions:
REMARK  status: ('A' for Active; 'I' for Inactive)
REMARK    1  A    between atoms: C_1  and  C_2 
REMARK    2  A    between atoms: C_2  and  C_14 
REMARK    3  A    between atoms: C_7  and  C_11 
REMARK       I    between atoms: C_11  and  N_13 
ROOT
ATOM      1  C   LIG d   1       2.833  -0.136 -10.007  0.00  0.00    -0.010 C 
ATOM      2  C   LIG d   1       2.986   1.387  -9.710  0.00  0.00    -0.031 C 
ATOM      3  H   LIG d   1       2.344   2.054 -10.283  0.00  0.00     0.031 H 
ATOM      4  C   LIG d   1       4.522   1.643  -9.799  0.00  0.00    -0.048 C 
ATOM      5  C   LIG d   1       5.108   0.915  -8.569  0.00  0.00    -0.035 C 
ATOM      6  C   LIG d   1       3.869   0.297  -7.852  0.00  0.00     0.068 C 
ATOM      7  C   LIG d   1       2.783   1.389  -8.153  0.00  0.00    -0.032 C 
ATOM      8  C   LIG d   1       3.408  -0.834  -8.782  0.00  0.00    -0.056 C 
ATOM      9  C   LIG d   1       3.492  -2.123  -8.568  0.00  0.00    -0.098 C 
ATOM     10  H   LIG d   1       4.925   1.221 -10.719  0.00  0.00     0.027 H 
ATOM     11  H   LIG d   1       4.733   2.712  -9.746  0.00  0.00     0.027 H 
ATOM     12  H   LIG d   1       5.613   1.623  -7.912  0.00  0.00     0.028 H 
ATOM     13  H   LIG d   1       5.795   0.130  -8.883  0.00  0.00     0.028 H 
ATOM     14  H   LIG d   1       3.035   2.352  -7.708  0.00  0.00     0.028 H 
ATOM     15  H   LIG d   1       1.783   1.062  -7.870  0.00  0.00     0.028 H 
ATOM     16  H   LIG d   1       3.129  -2.818  -9.310  0.00  0.00     0.053 H 
ATOM     17  H   LIG d   1       3.926  -2.491  -7.650  0.00  0.00     0.053 H 
ENDROOT
BRANCH   1  18
ATOM     18  C   LIG d   1       1.356  -0.499 -10.180  0.00  0.00    -0.056 C 
ATOM     19  H   LIG d   1       1.040  -0.261 -11.195  0.00  0.00     0.024 H 
ATOM     20  H   LIG d   1       1.219  -1.564  -9.997  0.00  0.00     0.024 H 
ATOM     21  H   LIG d   1       0.756   0.072  -9.470  0.00  0.00     0.024 H 
ENDBRANCH   1  18
BRANCH   1  22
ATOM     22  C   LIG d   1       3.625  -0.518 -11.258  0.00  0.00    -0.056 C 
ATOM     23  H   LIG d   1       3.517  -1.586 -11.445  0.00  0.00     0.024 H 
ATOM     24  H   LIG d   1       3.245   0.042 -12.114  0.00  0.00     0.024 H 
ATOM     25  H   LIG d   1       4.679  -0.280 -11.108  0.00  0.00     0.024 H 
ENDBRANCH   1  22
BRANCH   6  26
ATOM     26  C   LIG d   1       4.061  -0.065  -6.401  0.00  0.00     0.221 C 
ATOM     27  O   LIG d   1       5.179  -0.134  -5.937  0.00  0.00    -0.275 OA
ATOM     28  N   LIG d   1       2.990  -0.314  -5.621  0.00  0.00    -0.329 N 
ATOM     29  H   LIG d   1       2.096  -0.259  -5.992  0.00  0.00     0.145 HD
ATOM     30  H   LIG d   1       3.115  -0.547  -4.687  0.00  0.00     0.145 HD
ENDBRANCH   6  26
TORSDOF 3
ENDMDL
MODEL 10
REMARK VINA RESULT:      -4.1     15.967     17.388
REMARK  3 active torsions:
REMARK  status: ('A' for Active; 'I' for Inactive)
REMARK    1  A    between atoms: C_1  and  C_2 
REMARK    2  A    between atoms: C_2  and  C_14 
REMARK    3  A    between atoms: C_7  and  C_11 
REMARK       I    between atoms: C_11  and  N_13 
ROOT
ATOM      1  C   LIG d   1      -6.548  10.782 -11.609  0.00  0.00    -0.010 C 
ATOM      2  C   LIG d   1      -6.606  10.211 -10.159  0.00  0.00    -0.031 C 
ATOM      3  H   LIG d   1      -6.762   9.137 -10.072  0.00  0.00     0.031 H 
ATOM      4  C   LIG d   1      -7.630  11.130  -9.424  0.00  0.00    -0.048 C 
ATOM      5  C   LIG d   1      -6.913  12.495  -9.311  0.00  0.00    -0.035 C 
ATOM      6  C   LIG d   1      -5.523  12.265  -9.980  0.00  0.00     0.068 C 
ATOM      7  C   LIG d   1      -5.254  10.769  -9.586  0.00  0.00    -0.032 C 
ATOM      8  C   LIG d   1      -5.833  12.118 -11.476  0.00  0.00    -0.056 C 
ATOM      9  C   LIG d   1      -5.546  12.965 -12.434  0.00  0.00    -0.098 C 
ATOM     10  H   LIG d   1      -8.543  11.228 -10.012  0.00  0.00     0.027 H 
ATOM     11  H   LIG d   1      -7.854  10.735  -8.434  0.00  0.00     0.027 H 
ATOM     12  H   LIG d   1      -6.789  12.774  -8.265  0.00  0.00     0.028 H 
ATOM     13  H   LIG d   1      -7.469  13.263  -9.847  0.00  0.00     0.028 H 
ATOM     14  H   LIG d   1      -5.180  10.636  -8.506  0.00  0.00     0.028 H 
ATOM     15  H   LIG d   1      -4.389  10.358 -10.105  0.00  0.00     0.028 H 
ATOM     16  H   LIG d   1      -5.823  12.741 -13.452  0.00  0.00     0.053 H 
ATOM     17  H   LIG d   1      -5.032  13.886 -12.204  0.00  0.00     0.053 H 
ENDROOT
BRANCH   1  18
ATOM     18  C   LIG d   1      -5.753   9.842 -12.519  0.00  0.00    -0.056 C 
ATOM     19  H   LIG d   1      -5.645  10.296 -13.504  0.00  0.00     0.024 H 
ATOM     20  H   LIG d   1      -4.767   9.668 -12.089  0.00  0.00     0.024 H 
ATOM     21  H   LIG d   1      -6.282   8.893 -12.613  0.00  0.00     0.024 H 
ENDBRANCH   1  18
BRANCH   1  22
ATOM     22  C   LIG d   1      -7.961  10.985 -12.158  0.00  0.00    -0.056 C 
ATOM     23  H   LIG d   1      -7.950  11.777 -12.907  0.00  0.00     0.024 H 
ATOM     24  H   LIG d   1      -8.312  10.058 -12.614  0.00  0.00     0.024 H 
ATOM     25  H   LIG d   1      -8.631  11.265 -11.344  0.00  0.00     0.024 H 
ENDBRANCH   1  22
BRANCH   6  26
ATOM     26  C   LIG d   1      -4.444  13.252  -9.612  0.00  0.00     0.221 C 
ATOM     27  O   LIG d   1      -3.277  12.940  -9.715  0.00  0.00    -0.275 OA
ATOM     28  N   LIG d   1      -4.778  14.480  -9.167  0.00  0.00    -0.329 N 
ATOM     29  H   LIG d   1      -5.712  14.729  -9.085  0.00  0.00     0.145 HD
ATOM     30  H   LIG d   1      -4.084  15.115  -8.931  0.00  0.00     0.145 HD
ENDBRANCH   6  26
TORSDOF 3
ENDMDL
