MODEL 1
REMARK VINA RESULT:      -8.0      0.000      0.000
REMARK  3 active torsions:
REMARK  status: ('A' for Active; 'I' for Inactive)
REMARK    1  A    between atoms: C_1  and  C_2 
REMARK    2  A    between atoms: C_2  and  C_4 
REMARK    3  A    between atoms: C_2  and  N_10 
ROOT
ATOM      1  N   LIG d   1       6.087  -2.562  -5.236  0.00  0.00    -0.284 N 
ATOM      2  C   LIG d   1       5.308  -3.654  -4.676  0.00  0.00     0.092 A 
ATOM      3  C   LIG d   1       4.578  -4.421  -5.730  0.00  0.00     0.234 A 
ATOM      4  O   LIG d   1       3.916  -5.374  -5.379  0.00  0.00    -0.274 OA
ATOM      5  N   LIG d   1       4.610  -4.131  -7.032  0.00  0.00    -0.283 N 
ATOM      6  C   LIG d   1       3.907  -5.020  -7.982  0.00  0.00     0.056 C 
ATOM      7  C   LIG d   1       3.131  -4.139  -8.935  0.00  0.00     0.038 A 
ATOM      8  C   LIG d   1       3.305  -2.802  -9.024  0.00  0.00    -0.015 A 
ATOM      9  C   LIG d   1       2.391  -2.323 -10.041  0.00  0.00     0.003 A 
ATOM     10  C   LIG d   1       2.131  -1.050 -10.558  0.00  0.00    -0.052 A 
ATOM     11  C   LIG d   1       1.173  -0.962 -11.537  0.00  0.00    -0.061 A 
ATOM     12  C   LIG d   1       0.488  -2.075 -12.000  0.00  0.00    -0.060 A 
ATOM     13  C   LIG d   1       0.726  -3.346 -11.507  0.00  0.00    -0.038 A 
ATOM     14  C   LIG d   1       1.694  -3.466 -10.512  0.00  0.00     0.047 A 
ATOM     15  N   LIG d   1       2.166  -4.543  -9.818  0.00  0.00    -0.356 N 
ATOM     16  H   LIG d   1       1.863  -5.457  -9.934  0.00  0.00     0.166 HD
ATOM     17  C   LIG d   1       4.279  -2.007  -8.192  0.00  0.00     0.002 C 
ATOM     18  C   LIG d   1       5.306  -2.965  -7.575  0.00  0.00     0.107 A 
ATOM     19  H   LIG d   1       5.992  -3.297  -8.355  0.00  0.00     0.060 H 
ATOM     20  C   LIG d   1       6.097  -2.248  -6.530  0.00  0.00     0.237 A 
ATOM     21  O   LIG d   1       6.792  -1.318  -6.882  0.00  0.00    -0.274 OA
ATOM     22  H   LIG d   1       5.976  -4.330  -4.143  0.00  0.00     0.056 H 
ATOM     23  H   LIG d   1       4.583  -3.247  -3.970  0.00  0.00     0.056 H 
ATOM     24  H   LIG d   1       3.222  -5.673  -7.441  0.00  0.00     0.053 H 
ATOM     25  H   LIG d   1       4.631  -5.617  -8.536  0.00  0.00     0.053 H 
ATOM     26  H   LIG d   1       2.660  -0.178 -10.204  0.00  0.00     0.062 H 
ATOM     27  H   LIG d   1       0.945   0.005 -11.960  0.00  0.00     0.062 H 
ATOM     28  H   LIG d   1      -0.256  -1.945 -12.771  0.00  0.00     0.062 H 
ATOM     29  H   LIG d   1       0.186  -4.205 -11.875  0.00  0.00     0.064 H 
ATOM     30  H   LIG d   1       3.742  -1.486  -7.400  0.00  0.00     0.034 H 
ATOM     31  H   LIG d   1       4.791  -1.280  -8.824  0.00  0.00     0.034 H 
ENDROOT
BRANCH   1  32
ATOM     32  C   LIG d   1       6.910  -1.763  -4.324  0.00  0.00     0.049 C 
ATOM     33  H   LIG d   1       7.573  -1.121  -4.904  0.00  0.00     0.055 H 
BRANCH  32  34
ATOM     34  C   LIG d   1       7.744  -2.694  -3.442  0.00  0.00    -0.042 C 
ATOM     35  H   LIG d   1       7.704  -2.348  -2.409  0.00  0.00     0.025 H 
ATOM     36  H   LIG d   1       7.345  -3.706  -3.502  0.00  0.00     0.025 H 
ATOM     37  H   LIG d   1       8.778  -2.690  -3.786  0.00  0.00     0.025 H 
ENDBRANCH  32  34
BRANCH  32  38
ATOM     38  C   LIG d   1       6.017  -0.914  -3.457  0.00  0.00    -0.027 A 
ATOM     39  C   LIG d   1       5.125  -1.513  -2.587  0.00  0.00    -0.057 A 
ATOM     40  C   LIG d   1       4.306  -0.734  -1.791  0.00  0.00    -0.061 A 
ATOM     41  H   LIG d   1       5.068  -2.590  -2.531  0.00  0.00     0.062 H 
ATOM     42  C   LIG d   1       4.381   0.645  -1.864  0.00  0.00    -0.062 A 
ATOM     43  H   LIG d   1       3.609  -1.201  -1.113  0.00  0.00     0.062 H 
ATOM     44  C   LIG d   1       5.274   1.244  -2.733  0.00  0.00    -0.061 A 
ATOM     45  H   LIG d   1       3.742   1.254  -1.243  0.00  0.00     0.062 H 
ATOM     46  C   LIG d   1       6.095   0.465  -3.526  0.00  0.00    -0.057 A 
ATOM     47  H   LIG d   1       5.332   2.321  -2.791  0.00  0.00     0.062 H 
ATOM     48  H   LIG d   1       6.796   0.933  -4.203  0.00  0.00     0.062 H 
ENDBRANCH  32  38
ENDBRANCH   1  32
TORSDOF 3
ENDMDL
MODEL 2
REMARK VINA RESULT:      -7.8      5.756      8.571
REMARK  3 active torsions:
REMARK  status: ('A' for Active; 'I' for Inactive)
REMARK    1  A    between atoms: C_1  and  C_2 
REMARK    2  A    between atoms: C_2  and  C_4 
REMARK    3  A    between atoms: C_2  and  N_10 
ROOT
ATOM      1  N   LIG d   1      10.942   3.693  -4.423  0.00  0.00    -0.284 N 
ATOM      2  C   LIG d   1      11.809   2.534  -4.287  0.00  0.00     0.092 A 
ATOM      3  C   LIG d   1      11.082   1.255  -4.547  0.00  0.00     0.234 A 
ATOM      4  O   LIG d   1      11.714   0.222  -4.488  0.00  0.00    -0.274 OA
ATOM      5  N   LIG d   1       9.783   1.173  -4.843  0.00  0.00    -0.283 N 
ATOM      6  C   LIG d   1       9.201  -0.150  -5.158  0.00  0.00     0.056 C 
ATOM      7  C   LIG d   1       7.901  -0.264  -4.395  0.00  0.00     0.038 A 
ATOM      8  C   LIG d   1       7.303   0.779  -3.779  0.00  0.00    -0.015 A 
ATOM      9  C   LIG d   1       6.091   0.273  -3.168  0.00  0.00     0.003 A 
ATOM     10  C   LIG d   1       5.084   0.882  -2.414  0.00  0.00    -0.052 A 
ATOM     11  C   LIG d   1       4.059   0.077  -1.983  0.00  0.00    -0.061 A 
ATOM     12  C   LIG d   1       4.012  -1.277  -2.276  0.00  0.00    -0.060 A 
ATOM     13  C   LIG d   1       4.995  -1.905  -3.022  0.00  0.00    -0.038 A 
ATOM     14  C   LIG d   1       6.048  -1.112  -3.472  0.00  0.00     0.047 A 
ATOM     15  N   LIG d   1       7.160  -1.401  -4.211  0.00  0.00    -0.356 N 
ATOM     16  H   LIG d   1       7.389  -2.278  -4.555  0.00  0.00     0.166 HD
ATOM     17  C   LIG d   1       7.842   2.187  -3.760  0.00  0.00     0.002 C 
ATOM     18  C   LIG d   1       8.894   2.333  -4.868  0.00  0.00     0.107 A 
ATOM     19  H   LIG d   1       8.387   2.367  -5.833  0.00  0.00     0.060 H 
ATOM     20  C   LIG d   1       9.639   3.615  -4.685  0.00  0.00     0.237 A 
ATOM     21  O   LIG d   1       9.018   4.653  -4.783  0.00  0.00    -0.274 OA
ATOM     22  H   LIG d   1      12.634   2.623  -4.994  0.00  0.00     0.056 H 
ATOM     23  H   LIG d   1      12.214   2.510  -3.275  0.00  0.00     0.056 H 
ATOM     24  H   LIG d   1       9.885  -0.939  -4.844  0.00  0.00     0.053 H 
ATOM     25  H   LIG d   1       9.011  -0.226  -6.228  0.00  0.00     0.053 H 
ATOM     26  H   LIG d   1       5.111   1.936  -2.182  0.00  0.00     0.062 H 
ATOM     27  H   LIG d   1       3.263   0.512  -1.397  0.00  0.00     0.062 H 
ATOM     28  H   LIG d   1       3.181  -1.861  -1.909  0.00  0.00     0.062 H 
ATOM     29  H   LIG d   1       4.947  -2.961  -3.243  0.00  0.00     0.064 H 
ATOM     30  H   LIG d   1       8.300   2.389  -2.792  0.00  0.00     0.034 H 
ATOM     31  H   LIG d   1       7.029   2.892  -3.933  0.00  0.00     0.034 H 
ENDROOT
BRANCH   1  32
ATOM     32  C   LIG d   1      11.538   5.022  -4.262  0.00  0.00     0.049 C 
ATOM     33  H   LIG d   1      10.861   5.773  -4.669  0.00  0.00     0.055 H 
BRANCH  32  34
ATOM     34  C   LIG d   1      12.870   5.078  -5.010  0.00  0.00    -0.042 C 
ATOM     35  H   LIG d   1      12.904   5.977  -5.627  0.00  0.00     0.025 H 
ATOM     36  H   LIG d   1      13.690   5.098  -4.292  0.00  0.00     0.025 H 
ATOM     37  H   LIG d   1      12.967   4.198  -5.647  0.00  0.00     0.025 H 
ENDBRANCH  32  34
BRANCH  32  38
ATOM     38  C   LIG d   1      11.770   5.293  -2.799  0.00  0.00    -0.027 A 
ATOM     39  C   LIG d   1      13.058   5.314  -2.295  0.00  0.00    -0.057 A 
ATOM     40  C   LIG d   1      13.271   5.563  -0.952  0.00  0.00    -0.061 A 
ATOM     41  H   LIG d   1      13.896   5.133  -2.952  0.00  0.00     0.062 H 
ATOM     42  C   LIG d   1      12.198   5.795  -0.113  0.00  0.00    -0.062 A 
ATOM     43  H   LIG d   1      14.277   5.578  -0.559  0.00  0.00     0.062 H 
ATOM     44  C   LIG d   1      10.910   5.776  -0.617  0.00  0.00    -0.061 A 
ATOM     45  H   LIG d   1      12.364   5.989   0.936  0.00  0.00     0.062 H 
ATOM     46  C   LIG d   1      10.697   5.529  -1.960  0.00  0.00    -0.057 A 
ATOM     47  H   LIG d   1      10.071   5.955   0.039  0.00  0.00     0.062 H 
ATOM     48  H   LIG d   1       9.691   5.518  -2.354  0.00  0.00     0.062 H 
ENDBRANCH  32  38
ENDBRANCH   1  32
TORSDOF 3
ENDMDL
MODEL 3
REMARK VINA RESULT:      -7.7      3.564      7.246
REMARK  3 active torsions:
REMARK  status: ('A' for Active; 'I' for Inactive)
REMARK    1  A    between atoms: C_1  and  C_2 
REMARK    2  A    between atoms: C_2  and  C_4 
REMARK    3  A    between atoms: C_2  and  N_10 
ROOT
ATOM      1  N   LIG d   1       5.691  -7.348  -6.391  0.00  0.00    -0.284 N 
ATOM      2  C   LIG d   1       4.515  -7.224  -7.236  0.00  0.00     0.092 A 
ATOM      3  C   LIG d   1       4.130  -5.798  -7.458  0.00  0.00     0.234 A 
ATOM      4  O   LIG d   1       3.175  -5.574  -8.172  0.00  0.00    -0.274 OA
ATOM      5  N   LIG d   1       4.767  -4.753  -6.926  0.00  0.00    -0.283 N 
ATOM      6  C   LIG d   1       4.334  -3.387  -7.289  0.00  0.00     0.056 C 
ATOM      7  C   LIG d   1       4.257  -2.582  -6.012  0.00  0.00     0.038 A 
ATOM      8  C   LIG d   1       4.764  -3.005  -4.833  0.00  0.00    -0.015 A 
ATOM      9  C   LIG d   1       4.498  -1.965  -3.860  0.00  0.00     0.003 A 
ATOM     10  C   LIG d   1       4.787  -1.844  -2.498  0.00  0.00    -0.052 A 
ATOM     11  C   LIG d   1       4.373  -0.693  -1.875  0.00  0.00    -0.061 A 
ATOM     12  C   LIG d   1       3.700   0.310  -2.553  0.00  0.00    -0.060 A 
ATOM     13  C   LIG d   1       3.403   0.218  -3.902  0.00  0.00    -0.038 A 
ATOM     14  C   LIG d   1       3.811  -0.940  -4.561  0.00  0.00     0.047 A 
ATOM     15  N   LIG d   1       3.681  -1.350  -5.856  0.00  0.00    -0.356 N 
ATOM     16  H   LIG d   1       3.246  -0.845  -6.560  0.00  0.00     0.166 HD
ATOM     17  C   LIG d   1       5.463  -4.324  -4.623  0.00  0.00     0.002 C 
ATOM     18  C   LIG d   1       5.881  -4.889  -5.987  0.00  0.00     0.107 A 
ATOM     19  H   LIG d   1       6.729  -4.315  -6.363  0.00  0.00     0.060 H 
ATOM     20  C   LIG d   1       6.311  -6.311  -5.831  0.00  0.00     0.237 A 
ATOM     21  O   LIG d   1       7.289  -6.537  -5.149  0.00  0.00    -0.274 OA
ATOM     22  H   LIG d   1       4.719  -7.690  -8.200  0.00  0.00     0.056 H 
ATOM     23  H   LIG d   1       3.682  -7.746  -6.763  0.00  0.00     0.056 H 
ATOM     24  H   LIG d   1       3.352  -3.424  -7.763  0.00  0.00     0.053 H 
ATOM     25  H   LIG d   1       5.058  -2.937  -7.969  0.00  0.00     0.053 H 
ATOM     26  H   LIG d   1       5.312  -2.621  -1.961  0.00  0.00     0.062 H 
ATOM     27  H   LIG d   1       4.579  -0.565  -0.822  0.00  0.00     0.062 H 
ATOM     28  H   LIG d   1       3.398   1.194  -2.011  0.00  0.00     0.062 H 
ATOM     29  H   LIG d   1       2.877   1.007  -4.419  0.00  0.00     0.064 H 
ATOM     30  H   LIG d   1       4.786  -5.022  -4.130  0.00  0.00     0.034 H 
ATOM     31  H   LIG d   1       6.348  -4.175  -4.004  0.00  0.00     0.034 H 
ENDROOT
BRANCH   1  32
ATOM     32  C   LIG d   1       6.224  -8.690  -6.143  0.00  0.00     0.049 C 
ATOM     33  H   LIG d   1       7.136  -8.613  -5.551  0.00  0.00     0.055 H 
BRANCH  32  34
ATOM     34  C   LIG d   1       6.537  -9.369  -7.477  0.00  0.00    -0.042 C 
ATOM     35  H   LIG d   1       5.687  -9.980  -7.782  0.00  0.00     0.025 H 
ATOM     36  H   LIG d   1       6.730  -8.610  -8.234  0.00  0.00     0.025 H 
ATOM     37  H   LIG d   1       7.417 -10.002  -7.365  0.00  0.00     0.025 H 
ENDBRANCH  32  34
BRANCH  32  38
ATOM     38  C   LIG d   1       5.203  -9.504  -5.391  0.00  0.00    -0.027 A 
ATOM     39  C   LIG d   1       4.709 -10.672  -5.941  0.00  0.00    -0.057 A 
ATOM     40  C   LIG d   1       3.773 -11.419  -5.251  0.00  0.00    -0.061 A 
ATOM     41  H   LIG d   1       5.055 -11.000  -6.910  0.00  0.00     0.062 H 
ATOM     42  C   LIG d   1       3.332 -10.999  -4.009  0.00  0.00    -0.062 A 
ATOM     43  H   LIG d   1       3.386 -12.331  -5.680  0.00  0.00     0.062 H 
ATOM     44  C   LIG d   1       3.827  -9.831  -3.459  0.00  0.00    -0.061 A 
ATOM     45  H   LIG d   1       2.600 -11.582  -3.470  0.00  0.00     0.062 H 
ATOM     46  C   LIG d   1       4.766  -9.086  -4.147  0.00  0.00    -0.057 A 
ATOM     47  H   LIG d   1       3.482  -9.502  -2.490  0.00  0.00     0.062 H 
ATOM     48  H   LIG d   1       5.156  -8.176  -3.716  0.00  0.00     0.062 H 
ENDBRANCH  32  38
ENDBRANCH   1  32
TORSDOF 3
ENDMDL
MODEL 4
REMARK VINA RESULT:      -7.2      5.087      7.538
REMARK  3 active torsions:
REMARK  status: ('A' for Active; 'I' for Inactive)
REMARK    1  A    between atoms: C_1  and  C_2 
REMARK    2  A    between atoms: C_2  and  C_4 
REMARK    3  A    between atoms: C_2  and  N_10 
ROOT
ATOM      1  N   LIG d   1       7.506  -0.445  -5.436  0.00  0.00    -0.284 N 
ATOM      2  C   LIG d   1       6.369  -0.339  -6.336  0.00  0.00     0.092 A 
ATOM      3  C   LIG d   1       6.678   0.496  -7.536  0.00  0.00     0.234 A 
ATOM      4  O   LIG d   1       5.808   0.631  -8.370  0.00  0.00    -0.274 OA
ATOM      5  N   LIG d   1       7.848   1.100  -7.753  0.00  0.00    -0.283 N 
ATOM      6  C   LIG d   1       8.052   1.832  -9.021  0.00  0.00     0.056 C 
ATOM      7  C   LIG d   1       8.688   3.160  -8.679  0.00  0.00     0.038 A 
ATOM      8  C   LIG d   1       9.199   3.451  -7.462  0.00  0.00    -0.015 A 
ATOM      9  C   LIG d   1       9.714   4.803  -7.531  0.00  0.00     0.003 A 
ATOM     10  C   LIG d   1      10.348   5.625  -6.594  0.00  0.00    -0.052 A 
ATOM     11  C   LIG d   1      10.706   6.882  -7.013  0.00  0.00    -0.061 A 
ATOM     12  C   LIG d   1      10.458   7.327  -8.302  0.00  0.00    -0.060 A 
ATOM     13  C   LIG d   1       9.834   6.535  -9.250  0.00  0.00    -0.038 A 
ATOM     14  C   LIG d   1       9.458   5.253  -8.852  0.00  0.00     0.047 A 
ATOM     15  N   LIG d   1       8.834   4.235  -9.514  0.00  0.00    -0.356 N 
ATOM     16  H   LIG d   1       8.540   4.268 -10.438  0.00  0.00     0.166 HD
ATOM     17  C   LIG d   1       9.203   2.508  -6.286  0.00  0.00     0.002 C 
ATOM     18  C   LIG d   1       8.948   1.081  -6.790  0.00  0.00     0.107 A 
ATOM     19  H   LIG d   1       9.847   0.719  -7.291  0.00  0.00     0.060 H 
ATOM     20  C   LIG d   1       8.664   0.182  -5.631  0.00  0.00     0.237 A 
ATOM     21  O   LIG d   1       9.545   0.013  -4.814  0.00  0.00    -0.274 OA
ATOM     22  H   LIG d   1       6.081  -1.338  -6.664  0.00  0.00     0.056 H 
ATOM     23  H   LIG d   1       5.532   0.110  -5.799  0.00  0.00     0.056 H 
ATOM     24  H   LIG d   1       7.093   1.997  -9.513  0.00  0.00     0.053 H 
ATOM     25  H   LIG d   1       8.712   1.263  -9.676  0.00  0.00     0.053 H 
ATOM     26  H   LIG d   1      10.547   5.286  -5.588  0.00  0.00     0.062 H 
ATOM     27  H   LIG d   1      11.198   7.545  -6.317  0.00  0.00     0.062 H 
ATOM     28  H   LIG d   1      10.761   8.327  -8.575  0.00  0.00     0.062 H 
ATOM     29  H   LIG d   1       9.645   6.894 -10.250  0.00  0.00     0.064 H 
ATOM     30  H   LIG d   1       8.417   2.794  -5.587  0.00  0.00     0.034 H 
ATOM     31  H   LIG d   1      10.170   2.551  -5.785  0.00  0.00     0.034 H 
ENDROOT
BRANCH   1  32
ATOM     32  C   LIG d   1       7.368  -1.291  -4.248  0.00  0.00     0.049 C 
ATOM     33  H   LIG d   1       8.303  -1.282  -3.688  0.00  0.00     0.055 H 
BRANCH  32  34
ATOM     34  C   LIG d   1       7.044  -2.723  -4.676  0.00  0.00    -0.042 C 
ATOM     35  H   LIG d   1       7.259  -2.843  -5.738  0.00  0.00     0.025 H 
ATOM     36  H   LIG d   1       7.652  -3.420  -4.101  0.00  0.00     0.025 H 
ATOM     37  H   LIG d   1       5.988  -2.926  -4.495  0.00  0.00     0.025 H 
ENDBRANCH  32  34
BRANCH  32  38
ATOM     38  C   LIG d   1       6.256  -0.761  -3.381  0.00  0.00    -0.027 A 
ATOM     39  C   LIG d   1       5.321  -1.628  -2.848  0.00  0.00    -0.057 A 
ATOM     40  C   LIG d   1       4.301  -1.142  -2.052  0.00  0.00    -0.061 A 
ATOM     41  H   LIG d   1       5.388  -2.686  -3.055  0.00  0.00     0.062 H 
ATOM     42  C   LIG d   1       4.217   0.212  -1.787  0.00  0.00    -0.062 A 
ATOM     43  H   LIG d   1       3.571  -1.819  -1.636  0.00  0.00     0.062 H 
ATOM     44  C   LIG d   1       5.153   1.080  -2.319  0.00  0.00    -0.061 A 
ATOM     45  H   LIG d   1       3.420   0.593  -1.166  0.00  0.00     0.062 H 
ATOM     46  C   LIG d   1       6.174   0.593  -3.112  0.00  0.00    -0.057 A 
ATOM     47  H   LIG d   1       5.086   2.138  -2.114  0.00  0.00     0.062 H 
ATOM     48  H   LIG d   1       6.908   1.271  -3.525  0.00  0.00     0.062 H 
ENDBRANCH  32  38
ENDBRANCH   1  32
TORSDOF 3
ENDMDL
MODEL 5
REMARK VINA RESULT:      -7.2      4.207      8.186
REMARK  3 active torsions:
REMARK  status: ('A' for Active; 'I' for Inactive)
REMARK    1  A    between atoms: C_1  and  C_2 
REMARK    2  A    between atoms: C_2  and  C_4 
REMARK    3  A    between atoms: C_2  and  N_10 
ROOT
ATOM      1  N   LIG d   1       6.266  -0.894  -6.220  0.00  0.00    -0.284 N 
ATOM      2  C   LIG d   1       5.799  -0.167  -7.389  0.00  0.00     0.092 A 
ATOM      3  C   LIG d   1       6.743   0.921  -7.787  0.00  0.00     0.234 A 
ATOM      4  O   LIG d   1       6.468   1.578  -8.768  0.00  0.00    -0.274 OA
ATOM      5  N   LIG d   1       7.871   1.216  -7.137  0.00  0.00    -0.283 N 
ATOM      6  C   LIG d   1       8.759   2.265  -7.682  0.00  0.00     0.056 C 
ATOM      7  C   LIG d   1       9.168   3.154  -6.530  0.00  0.00     0.038 A 
ATOM      8  C   LIG d   1       8.955   2.839  -5.233  0.00  0.00    -0.015 A 
ATOM      9  C   LIG d   1       9.485   3.930  -4.440  0.00  0.00     0.003 A 
ATOM     10  C   LIG d   1       9.550   4.156  -3.062  0.00  0.00    -0.052 A 
ATOM     11  C   LIG d   1      10.133   5.329  -2.652  0.00  0.00    -0.061 A 
ATOM     12  C   LIG d   1      10.638   6.253  -3.552  0.00  0.00    -0.060 A 
ATOM     13  C   LIG d   1      10.589   6.055  -4.921  0.00  0.00    -0.038 A 
ATOM     14  C   LIG d   1      10.002   4.872  -5.366  0.00  0.00     0.047 A 
ATOM     15  N   LIG d   1       9.790   4.371  -6.618  0.00  0.00    -0.356 N 
ATOM     16  H   LIG d   1      10.041   4.810  -7.445  0.00  0.00     0.166 HD
ATOM     17  C   LIG d   1       8.282   1.578  -4.756  0.00  0.00     0.002 C 
ATOM     18  C   LIG d   1       8.277   0.553  -5.899  0.00  0.00     0.107 A 
ATOM     19  H   LIG d   1       9.287   0.160  -6.025  0.00  0.00     0.060 H 
ATOM     20  C   LIG d   1       7.373  -0.584  -5.549  0.00  0.00     0.237 A 
ATOM     21  O   LIG d   1       7.666  -1.269  -4.591  0.00  0.00    -0.274 OA
ATOM     22  H   LIG d   1       5.690  -0.863  -8.220  0.00  0.00     0.056 H 
ATOM     23  H   LIG d   1       4.826   0.274  -7.168  0.00  0.00     0.056 H 
ATOM     24  H   LIG d   1       8.225   2.851  -8.430  0.00  0.00     0.053 H 
ATOM     25  H   LIG d   1       9.642   1.807  -8.129  0.00  0.00     0.053 H 
ATOM     26  H   LIG d   1       9.160   3.440  -2.354  0.00  0.00     0.062 H 
ATOM     27  H   LIG d   1      10.200   5.538  -1.595  0.00  0.00     0.062 H 
ATOM     28  H   LIG d   1      11.086   7.160  -3.171  0.00  0.00     0.062 H 
ATOM     29  H   LIG d   1      10.986   6.784  -5.611  0.00  0.00     0.064 H 
ATOM     30  H   LIG d   1       7.257   1.800  -4.460  0.00  0.00     0.034 H 
ATOM     31  H   LIG d   1       8.828   1.172  -3.904  0.00  0.00     0.034 H 
ENDROOT
BRANCH   1  32
ATOM     32  C   LIG d   1       5.472  -2.035  -5.756  0.00  0.00     0.049 C 
ATOM     33  H   LIG d   1       6.138  -2.802  -5.361  0.00  0.00     0.055 H 
BRANCH  32  34
ATOM     34  C   LIG d   1       4.670  -2.608  -6.926  0.00  0.00    -0.042 C 
ATOM     35  H   LIG d   1       4.708  -3.698  -6.893  0.00  0.00     0.025 H 
ATOM     36  H   LIG d   1       3.635  -2.278  -6.853  0.00  0.00     0.025 H 
ATOM     37  H   LIG d   1       5.098  -2.259  -7.865  0.00  0.00     0.025 H 
ENDBRANCH  32  34
BRANCH  32  38
ATOM     38  C   LIG d   1       4.528  -1.582  -4.673  0.00  0.00    -0.027 A 
ATOM     39  C   LIG d   1       3.696  -0.499  -4.890  0.00  0.00    -0.057 A 
ATOM     40  C   LIG d   1       2.830  -0.083  -3.896  0.00  0.00    -0.061 A 
ATOM     41  H   LIG d   1       3.725   0.023  -5.835  0.00  0.00     0.062 H 
ATOM     42  C   LIG d   1       2.793  -0.751  -2.687  0.00  0.00    -0.062 A 
ATOM     43  H   LIG d   1       2.181   0.763  -4.064  0.00  0.00     0.062 H 
ATOM     44  C   LIG d   1       3.624  -1.835  -2.471  0.00  0.00    -0.061 A 
ATOM     45  H   LIG d   1       2.117  -0.427  -1.910  0.00  0.00     0.062 H 
ATOM     46  C   LIG d   1       4.488  -2.253  -3.465  0.00  0.00    -0.057 A 
ATOM     47  H   LIG d   1       3.596  -2.357  -1.526  0.00  0.00     0.062 H 
ATOM     48  H   LIG d   1       5.134  -3.102  -3.298  0.00  0.00     0.062 H 
ENDBRANCH  32  38
ENDBRANCH   1  32
TORSDOF 3
ENDMDL
MODEL 6
REMARK VINA RESULT:      -7.1      3.626      6.803
REMARK  3 active torsions:
REMARK  status: ('A' for Active; 'I' for Inactive)
REMARK    1  A    between atoms: C_1  and  C_2 
REMARK    2  A    between atoms: C_2  and  C_4 
REMARK    3  A    between atoms: C_2  and  N_10 
ROOT
ATOM      1  N   LIG d   1       7.233  -6.373  -5.586  0.00  0.00    -0.284 N 
ATOM      2  C   LIG d   1       5.946  -6.758  -6.141  0.00  0.00     0.092 A 
ATOM      3  C   LIG d   1       5.092  -5.573  -6.456  0.00  0.00     0.234 A 
ATOM      4  O   LIG d   1       4.003  -5.776  -6.950  0.00  0.00    -0.274 OA
ATOM      5  N   LIG d   1       5.448  -4.307  -6.233  0.00  0.00    -0.283 N 
ATOM      6  C   LIG d   1       4.543  -3.221  -6.664  0.00  0.00     0.056 C 
ATOM      7  C   LIG d   1       4.447  -2.233  -5.524  0.00  0.00     0.038 A 
ATOM      8  C   LIG d   1       5.268  -2.250  -4.451  0.00  0.00    -0.015 A 
ATOM      9  C   LIG d   1       4.865  -1.156  -3.592  0.00  0.00     0.003 A 
ATOM     10  C   LIG d   1       5.343  -0.689  -2.363  0.00  0.00    -0.052 A 
ATOM     11  C   LIG d   1       4.703   0.397  -1.821  0.00  0.00    -0.061 A 
ATOM     12  C   LIG d   1       3.634   1.013  -2.451  0.00  0.00    -0.060 A 
ATOM     13  C   LIG d   1       3.141   0.573  -3.668  0.00  0.00    -0.038 A 
ATOM     14  C   LIG d   1       3.771  -0.529  -4.242  0.00  0.00     0.047 A 
ATOM     15  N   LIG d   1       3.545  -1.209  -5.404  0.00  0.00    -0.356 N 
ATOM     16  H   LIG d   1       2.852  -0.998  -6.048  0.00  0.00     0.166 HD
ATOM     17  C   LIG d   1       6.377  -3.248  -4.236  0.00  0.00     0.002 C 
ATOM     18  C   LIG d   1       6.698  -3.932  -5.572  0.00  0.00     0.107 A 
ATOM     19  H   LIG d   1       7.235  -3.228  -6.209  0.00  0.00     0.060 H 
ATOM     20  C   LIG d   1       7.581  -5.113  -5.331  0.00  0.00     0.237 A 
ATOM     21  O   LIG d   1       8.687  -4.912  -4.873  0.00  0.00    -0.274 OA
ATOM     22  H   LIG d   1       6.110  -7.330  -7.055  0.00  0.00     0.056 H 
ATOM     23  H   LIG d   1       5.424  -7.389  -5.421  0.00  0.00     0.056 H 
ATOM     24  H   LIG d   1       3.556  -3.627  -6.886  0.00  0.00     0.053 H 
ATOM     25  H   LIG d   1       4.949  -2.729  -7.548  0.00  0.00     0.053 H 
ATOM     26  H   LIG d   1       6.177  -1.162  -1.866  0.00  0.00     0.062 H 
ATOM     27  H   LIG d   1       5.045   0.785  -0.872  0.00  0.00     0.062 H 
ATOM     28  H   LIG d   1       3.169   1.864  -1.976  0.00  0.00     0.062 H 
ATOM     29  H   LIG d   1       2.307   1.061  -4.148  0.00  0.00     0.064 H 
ATOM     30  H   LIG d   1       6.059  -3.996  -3.509  0.00  0.00     0.034 H 
ATOM     31  H   LIG d   1       7.265  -2.735  -3.867  0.00  0.00     0.034 H 
ENDROOT
BRANCH   1  32
ATOM     32  C   LIG d   1       8.203  -7.431  -5.293  0.00  0.00     0.049 C 
ATOM     33  H   LIG d   1       9.158  -6.982  -5.021  0.00  0.00     0.055 H 
BRANCH  32  34
ATOM     34  C   LIG d   1       8.386  -8.312  -6.529  0.00  0.00    -0.042 C 
ATOM     35  H   LIG d   1       9.342  -8.082  -7.001  0.00  0.00     0.025 H 
ATOM     36  H   LIG d   1       8.370  -9.361  -6.234  0.00  0.00     0.025 H 
ATOM     37  H   LIG d   1       7.578  -8.121  -7.235  0.00  0.00     0.025 H 
ENDBRANCH  32  34
BRANCH  32  38
ATOM     38  C   LIG d   1       7.698  -8.270  -4.148  0.00  0.00    -0.027 A 
ATOM     39  C   LIG d   1       6.565  -9.046  -4.306  0.00  0.00    -0.057 A 
ATOM     40  C   LIG d   1       6.101  -9.816  -3.255  0.00  0.00    -0.061 A 
ATOM     41  H   LIG d   1       6.041  -9.049  -5.251  0.00  0.00     0.062 H 
ATOM     42  C   LIG d   1       6.773  -9.812  -2.047  0.00  0.00    -0.062 A 
ATOM     43  H   LIG d   1       5.216 -10.422  -3.379  0.00  0.00     0.062 H 
ATOM     44  C   LIG d   1       7.907  -9.037  -1.889  0.00  0.00    -0.061 A 
ATOM     45  H   LIG d   1       6.411 -10.413  -1.226  0.00  0.00     0.062 H 
ATOM     46  C   LIG d   1       8.372  -8.269  -2.940  0.00  0.00    -0.057 A 
ATOM     47  H   LIG d   1       8.430  -9.032  -0.945  0.00  0.00     0.062 H 
ATOM     48  H   LIG d   1       9.260  -7.666  -2.818  0.00  0.00     0.062 H 
ENDBRANCH  32  38
ENDBRANCH   1  32
TORSDOF 3
ENDMDL
MODEL 7
REMARK VINA RESULT:      -7.0      4.579      6.674
REMARK  3 active torsions:
REMARK  status: ('A' for Active; 'I' for Inactive)
REMARK    1  A    between atoms: C_1  and  C_2 
REMARK    2  A    between atoms: C_2  and  C_4 
REMARK    3  A    between atoms: C_2  and  N_10 
ROOT
ATOM      1  N   LIG d   1       7.344  -3.167  -4.932  0.00  0.00    -0.284 N 
ATOM      2  C   LIG d   1       8.280  -3.362  -3.837  0.00  0.00     0.092 A 
ATOM      3  C   LIG d   1       8.820  -4.755  -3.802  0.00  0.00     0.234 A 
ATOM      4  O   LIG d   1       9.633  -5.024  -2.943  0.00  0.00    -0.274 OA
ATOM      5  N   LIG d   1       8.471  -5.721  -4.653  0.00  0.00    -0.283 N 
ATOM      6  C   LIG d   1       9.141  -7.036  -4.560  0.00  0.00     0.056 C 
ATOM      7  C   LIG d   1       8.067  -8.096  -4.645  0.00  0.00     0.038 A 
ATOM      8  C   LIG d   1       6.793  -7.840  -5.011  0.00  0.00    -0.015 A 
ATOM      9  C   LIG d   1       6.079  -9.100  -4.974  0.00  0.00     0.003 A 
ATOM     10  C   LIG d   1       4.753  -9.447  -5.251  0.00  0.00    -0.052 A 
ATOM     11  C   LIG d   1       4.415 -10.769  -5.104  0.00  0.00    -0.061 A 
ATOM     12  C   LIG d   1       5.334 -11.725  -4.700  0.00  0.00    -0.060 A 
ATOM     13  C   LIG d   1       6.653 -11.409  -4.421  0.00  0.00    -0.038 A 
ATOM     14  C   LIG d   1       7.025 -10.074  -4.562  0.00  0.00     0.047 A 
ATOM     15  N   LIG d   1       8.213  -9.430  -4.369  0.00  0.00    -0.356 N 
ATOM     16  H   LIG d   1       9.037  -9.853  -4.081  0.00  0.00     0.166 HD
ATOM     17  C   LIG d   1       6.264  -6.476  -5.377  0.00  0.00     0.002 C 
ATOM     18  C   LIG d   1       7.447  -5.548  -5.682  0.00  0.00     0.107 A 
ATOM     19  H   LIG d   1       7.870  -5.822  -6.649  0.00  0.00     0.060 H 
ATOM     20  C   LIG d   1       6.968  -4.135  -5.764  0.00  0.00     0.237 A 
ATOM     21  O   LIG d   1       6.184  -3.851  -6.647  0.00  0.00    -0.274 OA
ATOM     22  H   LIG d   1       9.109  -2.663  -3.949  0.00  0.00     0.056 H 
ATOM     23  H   LIG d   1       7.771  -3.157  -2.894  0.00  0.00     0.056 H 
ATOM     24  H   LIG d   1       9.667  -7.117  -3.608  0.00  0.00     0.053 H 
ATOM     25  H   LIG d   1       9.844  -7.153  -5.385  0.00  0.00     0.053 H 
ATOM     26  H   LIG d   1       4.031  -8.710  -5.568  0.00  0.00     0.062 H 
ATOM     27  H   LIG d   1       3.399 -11.075  -5.309  0.00  0.00     0.062 H 
ATOM     28  H   LIG d   1       5.010 -12.750  -4.601  0.00  0.00     0.062 H 
ATOM     29  H   LIG d   1       7.359 -12.162  -4.107  0.00  0.00     0.064 H 
ATOM     30  H   LIG d   1       5.688  -6.073  -4.544  0.00  0.00     0.034 H 
ATOM     31  H   LIG d   1       5.625  -6.555  -6.257  0.00  0.00     0.034 H 
ENDROOT
BRANCH   1  32
ATOM     32  C   LIG d   1       6.785  -1.827  -5.130  0.00  0.00     0.049 C 
ATOM     33  H   LIG d   1       6.233  -1.801  -6.070  0.00  0.00     0.055 H 
BRANCH  32  34
ATOM     34  C   LIG d   1       7.920  -0.803  -5.177  0.00  0.00    -0.042 C 
ATOM     35  H   LIG d   1       8.290  -0.623  -4.168  0.00  0.00     0.025 H 
ATOM     36  H   LIG d   1       8.729  -1.185  -5.799  0.00  0.00     0.025 H 
ATOM     37  H   LIG d   1       7.549   0.132  -5.599  0.00  0.00     0.025 H 
ENDBRANCH  32  34
BRANCH  32  38
ATOM     38  C   LIG d   1       5.856  -1.498  -3.991  0.00  0.00    -0.027 A 
ATOM     39  C   LIG d   1       6.018  -0.319  -3.286  0.00  0.00    -0.057 A 
ATOM     40  C   LIG d   1       5.165  -0.017  -2.240  0.00  0.00    -0.061 A 
ATOM     41  H   LIG d   1       6.811   0.364  -3.552  0.00  0.00     0.062 H 
ATOM     42  C   LIG d   1       4.150  -0.892  -1.901  0.00  0.00    -0.062 A 
ATOM     43  H   LIG d   1       5.291   0.903  -1.689  0.00  0.00     0.062 H 
ATOM     44  C   LIG d   1       3.988  -2.069  -2.607  0.00  0.00    -0.061 A 
ATOM     45  H   LIG d   1       3.484  -0.656  -1.084  0.00  0.00     0.062 H 
ATOM     46  C   LIG d   1       4.838  -2.371  -3.654  0.00  0.00    -0.057 A 
ATOM     47  H   LIG d   1       3.196  -2.754  -2.341  0.00  0.00     0.062 H 
ATOM     48  H   LIG d   1       4.709  -3.289  -4.208  0.00  0.00     0.062 H 
ENDBRANCH  32  38
ENDBRANCH   1  32
TORSDOF 3
ENDMDL
MODEL 8
REMARK VINA RESULT:      -7.0      4.050      6.987
REMARK  3 active torsions:
REMARK  status: ('A' for Active; 'I' for Inactive)
REMARK    1  A    between atoms: C_1  and  C_2 
REMARK    2  A    between atoms: C_2  and  C_4 
REMARK    3  A    between atoms: C_2  and  N_10 
ROOT
ATOM      1  N   LIG d   1       9.538  -5.328  -4.765  0.00  0.00    -0.284 N 
ATOM      2  C   LIG d   1       8.548  -6.381  -4.923  0.00  0.00     0.092 A 
ATOM      3  C   LIG d   1       7.200  -5.838  -5.269  0.00  0.00     0.234 A 
ATOM      4  O   LIG d   1       6.301  -6.630  -5.452  0.00  0.00    -0.274 OA
ATOM      5  N   LIG d   1       6.920  -4.539  -5.394  0.00  0.00    -0.283 N 
ATOM      6  C   LIG d   1       5.563  -4.136  -5.821  0.00  0.00     0.056 C 
ATOM      7  C   LIG d   1       5.121  -3.010  -4.913  0.00  0.00     0.038 A 
ATOM      8  C   LIG d   1       5.954  -2.358  -4.074  0.00  0.00    -0.015 A 
ATOM      9  C   LIG d   1       5.164  -1.357  -3.386  0.00  0.00     0.003 A 
ATOM     10  C   LIG d   1       5.482  -0.398  -2.419  0.00  0.00    -0.052 A 
ATOM     11  C   LIG d   1       4.457   0.401  -1.978  0.00  0.00    -0.061 A 
ATOM     12  C   LIG d   1       3.164   0.275  -2.460  0.00  0.00    -0.060 A 
ATOM     13  C   LIG d   1       2.822  -0.664  -3.418  0.00  0.00    -0.038 A 
ATOM     14  C   LIG d   1       3.842  -1.490  -3.885  0.00  0.00     0.047 A 
ATOM     15  N   LIG d   1       3.854  -2.501  -4.802  0.00  0.00    -0.356 N 
ATOM     16  H   LIG d   1       3.083  -2.811  -5.301  0.00  0.00     0.166 HD
ATOM     17  C   LIG d   1       7.423  -2.658  -3.918  0.00  0.00     0.002 C 
ATOM     18  C   LIG d   1       7.894  -3.481  -5.125  0.00  0.00     0.107 A 
ATOM     19  H   LIG d   1       7.953  -2.828  -5.996  0.00  0.00     0.060 H 
ATOM     20  C   LIG d   1       9.257  -4.030  -4.856  0.00  0.00     0.237 A 
ATOM     21  O   LIG d   1      10.169  -3.241  -4.712  0.00  0.00    -0.274 OA
ATOM     22  H   LIG d   1       8.872  -7.057  -5.715  0.00  0.00     0.056 H 
ATOM     23  H   LIG d   1       8.474  -6.941  -3.990  0.00  0.00     0.056 H 
ATOM     24  H   LIG d   1       4.879  -4.979  -5.725  0.00  0.00     0.053 H 
ATOM     25  H   LIG d   1       5.586  -3.792  -6.855  0.00  0.00     0.053 H 
ATOM     26  H   LIG d   1       6.487  -0.292  -2.038  0.00  0.00     0.062 H 
ATOM     27  H   LIG d   1       4.664   1.153  -1.231  0.00  0.00     0.062 H 
ATOM     28  H   LIG d   1       2.398   0.931  -2.075  0.00  0.00     0.062 H 
ATOM     29  H   LIG d   1       1.811  -0.753  -3.785  0.00  0.00     0.064 H 
ATOM     30  H   LIG d   1       7.584  -3.226  -3.002  0.00  0.00     0.034 H 
ATOM     31  H   LIG d   1       7.984  -1.725  -3.872  0.00  0.00     0.034 H 
ENDROOT
BRANCH   1  32
ATOM     32  C   LIG d   1      10.923  -5.719  -4.490  0.00  0.00     0.049 C 
ATOM     33  H   LIG d   1      11.513  -4.829  -4.270  0.00  0.00     0.055 H 
BRANCH  32  34
ATOM     34  C   LIG d   1      11.506  -6.427  -5.715  0.00  0.00    -0.042 C 
ATOM     35  H   LIG d   1      12.590  -6.489  -5.617  0.00  0.00     0.025 H 
ATOM     36  H   LIG d   1      11.088  -7.431  -5.787  0.00  0.00     0.025 H 
ATOM     37  H   LIG d   1      11.255  -5.864  -6.614  0.00  0.00     0.025 H 
ENDBRANCH  32  34
BRANCH  32  38
ATOM     38  C   LIG d   1      10.956  -6.651  -3.308  0.00  0.00    -0.027 A 
ATOM     39  C   LIG d   1      10.440  -6.244  -2.091  0.00  0.00    -0.057 A 
ATOM     40  C   LIG d   1      10.471  -7.100  -1.006  0.00  0.00    -0.061 A 
ATOM     41  H   LIG d   1      10.015  -5.256  -1.989  0.00  0.00     0.062 H 
ATOM     42  C   LIG d   1      11.014  -8.364  -1.137  0.00  0.00    -0.062 A 
ATOM     43  H   LIG d   1      10.069  -6.782  -0.056  0.00  0.00     0.062 H 
ATOM     44  C   LIG d   1      11.528  -8.772  -2.354  0.00  0.00    -0.061 A 
ATOM     45  H   LIG d   1      11.039  -9.033  -0.290  0.00  0.00     0.062 H 
ATOM     46  C   LIG d   1      11.496  -7.918  -3.440  0.00  0.00    -0.057 A 
ATOM     47  H   LIG d   1      11.955  -9.759  -2.457  0.00  0.00     0.062 H 
ATOM     48  H   LIG d   1      11.894  -8.237  -4.392  0.00  0.00     0.062 H 
ENDBRANCH  32  38
ENDBRANCH   1  32
TORSDOF 3
ENDMDL
MODEL 9
REMARK VINA RESULT:      -6.8      2.690      7.671
REMARK  3 active torsions:
REMARK  status: ('A' for Active; 'I' for Inactive)
REMARK    1  A    between atoms: C_1  and  C_2 
REMARK    2  A    between atoms: C_2  and  C_4 
REMARK    3  A    between atoms: C_2  and  N_10 
ROOT
ATOM      1  N   LIG d   1       3.918  -3.073 -10.254  0.00  0.00    -0.284 N 
ATOM      2  C   LIG d   1       2.596  -2.486 -10.403  0.00  0.00     0.092 A 
ATOM      3  C   LIG d   1       2.382  -1.341  -9.467  0.00  0.00     0.234 A 
ATOM      4  O   LIG d   1       1.321  -0.756  -9.523  0.00  0.00    -0.274 OA
ATOM      5  N   LIG d   1       3.280  -0.916  -8.577  0.00  0.00    -0.283 N 
ATOM      6  C   LIG d   1       2.974   0.281  -7.764  0.00  0.00     0.056 C 
ATOM      7  C   LIG d   1       3.345  -0.038  -6.334  0.00  0.00     0.038 A 
ATOM      8  C   LIG d   1       4.067  -1.122  -5.974  0.00  0.00    -0.015 A 
ATOM      9  C   LIG d   1       4.213  -1.074  -4.534  0.00  0.00     0.003 A 
ATOM     10  C   LIG d   1       4.854  -1.914  -3.617  0.00  0.00    -0.052 A 
ATOM     11  C   LIG d   1       4.786  -1.556  -2.294  0.00  0.00    -0.061 A 
ATOM     12  C   LIG d   1       4.118  -0.417  -1.873  0.00  0.00    -0.060 A 
ATOM     13  C   LIG d   1       3.476   0.433  -2.758  0.00  0.00    -0.038 A 
ATOM     14  C   LIG d   1       3.529   0.093  -4.108  0.00  0.00     0.047 A 
ATOM     15  N   LIG d   1       3.014   0.691  -5.223  0.00  0.00    -0.356 N 
ATOM     16  H   LIG d   1       2.494   1.509  -5.227  0.00  0.00     0.166 HD
ATOM     17  C   LIG d   1       4.594  -2.158  -6.934  0.00  0.00     0.002 C 
ATOM     18  C   LIG d   1       4.563  -1.582  -8.356  0.00  0.00     0.107 A 
ATOM     19  H   LIG d   1       5.363  -0.847  -8.456  0.00  0.00     0.060 H 
ATOM     20  C   LIG d   1       4.805  -2.675  -9.345  0.00  0.00     0.237 A 
ATOM     21  O   LIG d   1       5.881  -3.237  -9.319  0.00  0.00    -0.274 OA
ATOM     22  H   LIG d   1       2.478  -2.133 -11.428  0.00  0.00     0.056 H 
ATOM     23  H   LIG d   1       1.844  -3.250 -10.205  0.00  0.00     0.056 H 
ATOM     24  H   LIG d   1       1.910   0.510  -7.829  0.00  0.00     0.053 H 
ATOM     25  H   LIG d   1       3.559   1.129  -8.119  0.00  0.00     0.053 H 
ATOM     26  H   LIG d   1       5.378  -2.803  -3.937  0.00  0.00     0.062 H 
ATOM     27  H   LIG d   1       5.269  -2.181  -1.558  0.00  0.00     0.062 H 
ATOM     28  H   LIG d   1       4.097  -0.186  -0.818  0.00  0.00     0.062 H 
ATOM     29  H   LIG d   1       2.959   1.316  -2.417  0.00  0.00     0.064 H 
ATOM     30  H   LIG d   1       3.970  -3.050  -6.887  0.00  0.00     0.034 H 
ATOM     31  H   LIG d   1       5.619  -2.416  -6.667  0.00  0.00     0.034 H 
ENDROOT
BRANCH   1  32
ATOM     32  C   LIG d   1       4.293  -4.164 -11.156  0.00  0.00     0.049 C 
ATOM     33  H   LIG d   1       5.361  -4.362 -11.060  0.00  0.00     0.055 H 
BRANCH  32  34
ATOM     34  C   LIG d   1       3.976  -3.766 -12.598  0.00  0.00    -0.042 C 
ATOM     35  H   LIG d   1       3.733  -4.658 -13.177  0.00  0.00     0.025 H 
ATOM     36  H   LIG d   1       3.127  -3.083 -12.608  0.00  0.00     0.025 H 
ATOM     37  H   LIG d   1       4.843  -3.274 -13.038  0.00  0.00     0.025 H 
ENDBRANCH  32  34
BRANCH  32  38
ATOM     38  C   LIG d   1       3.517  -5.404 -10.794  0.00  0.00    -0.027 A 
ATOM     39  C   LIG d   1       3.880  -6.149  -9.688  0.00  0.00    -0.057 A 
ATOM     40  C   LIG d   1       3.167  -7.287  -9.357  0.00  0.00    -0.061 A 
ATOM     41  H   LIG d   1       4.722  -5.844  -9.085  0.00  0.00     0.062 H 
ATOM     42  C   LIG d   1       2.089  -7.677 -10.129  0.00  0.00    -0.062 A 
ATOM     43  H   LIG d   1       3.451  -7.870  -8.494  0.00  0.00     0.062 H 
ATOM     44  C   LIG d   1       1.725  -6.930 -11.235  0.00  0.00    -0.061 A 
ATOM     45  H   LIG d   1       1.532  -8.565  -9.871  0.00  0.00     0.062 H 
ATOM     46  C   LIG d   1       2.436  -5.792 -11.565  0.00  0.00    -0.057 A 
ATOM     47  H   LIG d   1       0.884  -7.236 -11.839  0.00  0.00     0.062 H 
ATOM     48  H   LIG d   1       2.149  -5.206 -12.426  0.00  0.00     0.062 H 
ENDBRANCH  32  38
ENDBRANCH   1  32
TORSDOF 3
ENDMDL
MODEL 10
REMARK VINA RESULT:      -6.6      6.258      9.399
REMARK  3 active torsions:
REMARK  status: ('A' for Active; 'I' for Inactive)
REMARK    1  A    between atoms: C_1  and  C_2 
REMARK    2  A    between atoms: C_2  and  C_4 
REMARK    3  A    between atoms: C_2  and  N_10 
ROOT
ATOM      1  N   LIG d   1      11.094   5.054  -4.142  0.00  0.00    -0.284 N 
ATOM      2  C   LIG d   1      12.112   4.041  -3.921  0.00  0.00     0.092 A 
ATOM      3  C   LIG d   1      11.628   2.672  -4.272  0.00  0.00     0.234 A 
ATOM      4  O   LIG d   1      12.405   1.749  -4.151  0.00  0.00    -0.274 OA
ATOM      5  N   LIG d   1      10.399   2.397  -4.712  0.00  0.00    -0.283 N 
ATOM      6  C   LIG d   1      10.071   1.009  -5.102  0.00  0.00     0.056 C 
ATOM      7  C   LIG d   1       8.729   0.673  -4.491  0.00  0.00     0.038 A 
ATOM      8  C   LIG d   1       7.910   1.594  -3.937  0.00  0.00    -0.015 A 
ATOM      9  C   LIG d   1       6.734   0.890  -3.471  0.00  0.00     0.003 A 
ATOM     10  C   LIG d   1       5.567   1.314  -2.829  0.00  0.00    -0.052 A 
ATOM     11  C   LIG d   1       4.640   0.349  -2.523  0.00  0.00    -0.061 A 
ATOM     12  C   LIG d   1       4.840  -0.988  -2.831  0.00  0.00    -0.060 A 
ATOM     13  C   LIG d   1       5.985  -1.436  -3.468  0.00  0.00    -0.038 A 
ATOM     14  C   LIG d   1       6.943  -0.477  -3.790  0.00  0.00     0.047 A 
ATOM     15  N   LIG d   1       8.160  -0.569  -4.402  0.00  0.00    -0.356 N 
ATOM     16  H   LIG d   1       8.561  -1.391  -4.726  0.00  0.00     0.166 HD
ATOM     17  C   LIG d   1       8.215   3.068  -3.845  0.00  0.00     0.002 C 
ATOM     18  C   LIG d   1       9.346   3.405  -4.827  0.00  0.00     0.107 A 
ATOM     19  H   LIG d   1       8.949   3.385  -5.842  0.00  0.00     0.060 H 
ATOM     20  C   LIG d   1       9.856   4.782  -4.550  0.00  0.00     0.237 A 
ATOM     21  O   LIG d   1       9.093   5.713  -4.707  0.00  0.00    -0.274 OA
ATOM     22  H   LIG d   1      12.985   4.276  -4.530  0.00  0.00     0.056 H 
ATOM     23  H   LIG d   1      12.402   4.054  -2.869  0.00  0.00     0.056 H 
ATOM     24  H   LIG d   1      10.832   0.327  -4.721  0.00  0.00     0.053 H 
ATOM     25  H   LIG d   1      10.013   0.932  -6.188  0.00  0.00     0.053 H 
ATOM     26  H   LIG d   1       5.402   2.353  -2.586  0.00  0.00     0.062 H 
ATOM     27  H   LIG d   1       3.726   0.639  -2.026  0.00  0.00     0.062 H 
ATOM     28  H   LIG d   1       4.076  -1.703  -2.566  0.00  0.00     0.062 H 
ATOM     29  H   LIG d   1       6.128  -2.479  -3.702  0.00  0.00     0.064 H 
ATOM     30  H   LIG d   1       8.527   3.313  -2.830  0.00  0.00     0.034 H 
ATOM     31  H   LIG d   1       7.325   3.642  -4.102  0.00  0.00     0.034 H 
ENDROOT
BRANCH   1  32
ATOM     32  C   LIG d   1      11.451   6.455  -3.904  0.00  0.00     0.049 C 
ATOM     33  H   LIG d   1      10.648   7.099  -4.261  0.00  0.00     0.055 H 
BRANCH  32  34
ATOM     34  C   LIG d   1      12.742   6.787  -4.653  0.00  0.00    -0.042 C 
ATOM     35  H   LIG d   1      12.604   7.703  -5.228  0.00  0.00     0.025 H 
ATOM     36  H   LIG d   1      13.552   6.924  -3.938  0.00  0.00     0.025 H 
ATOM     37  H   LIG d   1      12.990   5.969  -5.330  0.00  0.00     0.025 H 
ENDBRANCH  32  34
BRANCH  32  38
ATOM     38  C   LIG d   1      11.655   6.676  -2.428  0.00  0.00    -0.027 A 
ATOM     39  C   LIG d   1      12.826   7.252  -1.970  0.00  0.00    -0.057 A 
ATOM     40  C   LIG d   1      13.013   7.454  -0.615  0.00  0.00    -0.061 A 
ATOM     41  H   LIG d   1      13.595   7.541  -2.671  0.00  0.00     0.062 H 
ATOM     42  C   LIG d   1      12.028   7.085   0.282  0.00  0.00    -0.062 A 
ATOM     43  H   LIG d   1      13.928   7.903  -0.258  0.00  0.00     0.062 H 
ATOM     44  C   LIG d   1      10.857   6.510  -0.176  0.00  0.00    -0.061 A 
ATOM     45  H   LIG d   1      12.174   7.242   1.340  0.00  0.00     0.062 H 
ATOM     46  C   LIG d   1      10.668   6.310  -1.531  0.00  0.00    -0.057 A 
ATOM     47  H   LIG d   1      10.088   6.220   0.524  0.00  0.00     0.062 H 
ATOM     48  H   LIG d   1       9.752   5.865  -1.889  0.00  0.00     0.062 H 
ENDBRANCH  32  38
ENDBRANCH   1  32
TORSDOF 3
ENDMDL
