MODEL 1
REMARK VINA RESULT:      -5.4      0.000      0.000
REMARK  7 active torsions:
REMARK  status: ('A' for Active; 'I' for Inactive)
REMARK    1  A    between atoms: C_1  and  C_2 
REMARK    2  A    between atoms: C_2  and  C_3 
REMARK    3  A    between atoms: C_2  and  C_4 
REMARK    4  A    between atoms: C_2  and  O_15 
REMARK    5  A    between atoms: C_6  and  C_9 
REMARK    6  A    between atoms: C_9  and  C_10 
REMARK    7  A    between atoms: C_10  and  N_14 
ROOT
ATOM      1  C   LIG d   1       4.000   0.174  -3.893  0.00  0.00     0.168 A 
ATOM      2  C   LIG d   1       3.994  -0.474  -5.074  0.00  0.00     0.006 A 
ATOM      3  C   LIG d   1       3.139   0.219  -5.948  0.00  0.00     0.086 A 
ATOM      4  N   LIG d   1       2.652   1.245  -5.309  0.00  0.00    -0.083 NA
ATOM      5  O   LIG d   1       3.183   1.233  -3.997  0.00  0.00    -0.356 OA
ATOM      6  H   LIG d   1       4.550  -1.370  -5.307  0.00  0.00     0.067 H 
ENDROOT
BRANCH   3   7
ATOM      7  C   LIG d   1       2.837  -0.159  -7.376  0.00  0.00     0.015 C 
ATOM      8  H   LIG d   1       3.296  -1.122  -7.602  0.00  0.00     0.035 H 
ATOM      9  H   LIG d   1       1.758  -0.230  -7.511  0.00  0.00     0.035 H 
BRANCH   7  10
ATOM     10  C   LIG d   1       3.401   0.908  -8.316  0.00  0.00     0.069 C 
ATOM     11  C   LIG d   1       4.930   0.838  -8.492  0.00  0.00     0.068 C 
ATOM     12  O   LIG d   1       4.665   1.051  -9.893  0.00  0.00    -0.376 OA
ATOM     13  H   LIG d   1       5.466   1.658  -8.014  0.00  0.00     0.058 H 
ATOM     14  H   LIG d   1       5.355  -0.140  -8.267  0.00  0.00     0.058 H 
ATOM     15  C   LIG d   1       3.326   0.526  -9.806  0.00  0.00     0.068 C 
ATOM     16  H   LIG d   1       3.261  -0.548  -9.983  0.00  0.00     0.058 H 
ATOM     17  H   LIG d   1       2.590   1.097 -10.372  0.00  0.00     0.058 H 
BRANCH  10  18
ATOM     18  N   LIG d   1       2.898   2.256  -8.021  0.00  0.00    -0.321 N 
ATOM     19  H   LIG d   1       2.268   2.242  -7.232  0.00  0.00     0.119 HD
ATOM     20  H   LIG d   1       3.659   2.899  -7.863  0.00  0.00     0.119 HD
ENDBRANCH  10  18
ENDBRANCH   7  10
ENDBRANCH   3   7
BRANCH   1  21
ATOM     21  C   LIG d   1       4.782  -0.224  -2.668  0.00  0.00     0.120 C 
BRANCH  21  22
ATOM     22  C   LIG d   1       4.633   0.856  -1.594  0.00  0.00    -0.029 C 
ATOM     23  H   LIG d   1       5.581   1.380  -1.473  0.00  0.00     0.026 H 
ATOM     24  H   LIG d   1       3.862   1.564  -1.895  0.00  0.00     0.026 H 
ATOM     25  H   LIG d   1       4.352   0.391  -0.649  0.00  0.00     0.026 H 
ENDBRANCH  21  22
BRANCH  21  26
ATOM     26  C   LIG d   1       4.248  -1.554  -2.131  0.00  0.00    -0.029 C 
ATOM     27  H   LIG d   1       5.029  -2.055  -1.561  0.00  0.00     0.026 H 
ATOM     28  H   LIG d   1       3.389  -1.368  -1.487  0.00  0.00     0.026 H 
ATOM     29  H   LIG d   1       3.945  -2.187  -2.966  0.00  0.00     0.026 H 
ENDBRANCH  21  26
BRANCH  21  30
ATOM     30  O   LIG d   1       6.163  -0.368  -3.010  0.00  0.00    -0.381 OA
ATOM     31  H   LIG d   1       6.768   0.066  -2.393  0.00  0.00     0.211 HD
ENDBRANCH  21  30
ENDBRANCH   1  21
TORSDOF 7
ENDMDL
MODEL 2
REMARK VINA RESULT:      -5.0      1.770      2.392
REMARK  7 active torsions:
REMARK  status: ('A' for Active; 'I' for Inactive)
REMARK    1  A    between atoms: C_1  and  C_2 
REMARK    2  A    between atoms: C_2  and  C_3 
REMARK    3  A    between atoms: C_2  and  C_4 
REMARK    4  A    between atoms: C_2  and  O_15 
REMARK    5  A    between atoms: C_6  and  C_9 
REMARK    6  A    between atoms: C_9  and  C_10 
REMARK    7  A    between atoms: C_10  and  N_14 
ROOT
ATOM      1  C   LIG d   1       4.142  -0.311  -4.756  0.00  0.00     0.168 A 
ATOM      2  C   LIG d   1       3.660  -0.487  -6.001  0.00  0.00     0.006 A 
ATOM      3  C   LIG d   1       4.677  -0.158  -6.914  0.00  0.00     0.086 A 
ATOM      4  N   LIG d   1       5.730   0.201  -6.235  0.00  0.00    -0.083 NA
ATOM      5  O   LIG d   1       5.410   0.115  -4.858  0.00  0.00    -0.356 OA
ATOM      6  H   LIG d   1       2.665  -0.822  -6.253  0.00  0.00     0.067 H 
ENDROOT
BRANCH   3   7
ATOM      7  C   LIG d   1       4.570  -0.211  -8.416  0.00  0.00     0.015 C 
ATOM      8  H   LIG d   1       5.396  -0.798  -8.820  0.00  0.00     0.035 H 
ATOM      9  H   LIG d   1       3.624  -0.675  -8.696  0.00  0.00     0.035 H 
BRANCH   7  10
ATOM     10  C   LIG d   1       4.629   1.209  -8.983  0.00  0.00     0.069 C 
ATOM     11  C   LIG d   1       4.266   1.298 -10.477  0.00  0.00     0.068 C 
ATOM     12  O   LIG d   1       3.501   2.462 -10.106  0.00  0.00    -0.376 OA
ATOM     13  H   LIG d   1       5.116   1.517 -11.125  0.00  0.00     0.058 H 
ATOM     14  H   LIG d   1       3.659   0.466 -10.834  0.00  0.00     0.058 H 
ATOM     15  C   LIG d   1       3.349   2.030  -8.738  0.00  0.00     0.068 C 
ATOM     16  H   LIG d   1       2.461   1.421  -8.564  0.00  0.00     0.058 H 
ATOM     17  H   LIG d   1       3.470   2.829  -8.007  0.00  0.00     0.058 H 
BRANCH  10  18
ATOM     18  N   LIG d   1       5.867   1.916  -8.630  0.00  0.00    -0.321 N 
ATOM     19  H   LIG d   1       5.679   2.681  -7.997  0.00  0.00     0.119 HD
ATOM     20  H   LIG d   1       6.546   1.282  -8.238  0.00  0.00     0.119 HD
ENDBRANCH  10  18
ENDBRANCH   7  10
ENDBRANCH   3   7
BRANCH   1  21
ATOM     21  C   LIG d   1       3.388  -0.548  -3.472  0.00  0.00     0.120 C 
BRANCH  21  22
ATOM     22  C   LIG d   1       3.928  -1.806  -2.788  0.00  0.00    -0.029 C 
ATOM     23  H   LIG d   1       3.243  -2.110  -1.996  0.00  0.00     0.026 H 
ATOM     24  H   LIG d   1       4.017  -2.608  -3.520  0.00  0.00     0.026 H 
ATOM     25  H   LIG d   1       4.907  -1.594  -2.359  0.00  0.00     0.026 H 
ENDBRANCH  21  22
BRANCH  21  26
ATOM     26  C   LIG d   1       3.571   0.656  -2.545  0.00  0.00    -0.029 C 
ATOM     27  H   LIG d   1       4.491   0.538  -1.974  0.00  0.00     0.026 H 
ATOM     28  H   LIG d   1       3.624   1.568  -3.139  0.00  0.00     0.026 H 
ATOM     29  H   LIG d   1       2.724   0.718  -1.860  0.00  0.00     0.026 H 
ENDBRANCH  21  26
BRANCH  21  30
ATOM     30  O   LIG d   1       1.999  -0.721  -3.761  0.00  0.00    -0.381 OA
ATOM     31  H   LIG d   1       1.825  -1.229  -4.565  0.00  0.00     0.211 HD
ENDBRANCH  21  30
ENDBRANCH   1  21
TORSDOF 7
ENDMDL
MODEL 3
REMARK VINA RESULT:      -4.8      2.095      2.558
REMARK  7 active torsions:
REMARK  status: ('A' for Active; 'I' for Inactive)
REMARK    1  A    between atoms: C_1  and  C_2 
REMARK    2  A    between atoms: C_2  and  C_3 
REMARK    3  A    between atoms: C_2  and  C_4 
REMARK    4  A    between atoms: C_2  and  O_15 
REMARK    5  A    between atoms: C_6  and  C_9 
REMARK    6  A    between atoms: C_9  and  C_10 
REMARK    7  A    between atoms: C_10  and  N_14 
ROOT
ATOM      1  C   LIG d   1       3.804  -0.033  -4.456  0.00  0.00     0.168 A 
ATOM      2  C   LIG d   1       2.813   0.029  -5.366  0.00  0.00     0.006 A 
ATOM      3  C   LIG d   1       3.397   0.102  -6.643  0.00  0.00     0.086 A 
ATOM      4  N   LIG d   1       4.692   0.084  -6.497  0.00  0.00    -0.083 NA
ATOM      5  O   LIG d   1       4.973   0.003  -5.112  0.00  0.00    -0.356 OA
ATOM      6  H   LIG d   1       1.755   0.023  -5.153  0.00  0.00     0.067 H 
ENDROOT
BRANCH   3   7
ATOM      7  C   LIG d   1       2.656   0.187  -7.953  0.00  0.00     0.015 C 
ATOM      8  H   LIG d   1       1.583   0.230  -7.761  0.00  0.00     0.035 H 
ATOM      9  H   LIG d   1       2.965   1.086  -8.486  0.00  0.00     0.035 H 
BRANCH   7  10
ATOM     10  C   LIG d   1       2.974  -1.046  -8.801  0.00  0.00     0.069 C 
ATOM     11  C   LIG d   1       1.844  -1.443  -9.769  0.00  0.00     0.068 C 
ATOM     12  O   LIG d   1       2.896  -1.640 -10.736  0.00  0.00    -0.376 OA
ATOM     13  H   LIG d   1       1.326  -2.361  -9.489  0.00  0.00     0.058 H 
ATOM     14  H   LIG d   1       1.166  -0.626 -10.015  0.00  0.00     0.058 H 
ATOM     15  C   LIG d   1       3.796  -0.735 -10.065  0.00  0.00     0.068 C 
ATOM     16  H   LIG d   1       3.714   0.299 -10.402  0.00  0.00     0.058 H 
ATOM     17  H   LIG d   1       4.826  -1.090 -10.021  0.00  0.00     0.058 H 
BRANCH  10  18
ATOM     18  N   LIG d   1       3.499  -2.166  -8.009  0.00  0.00    -0.321 N 
ATOM     19  H   LIG d   1       3.621  -2.988  -8.583  0.00  0.00     0.119 HD
ATOM     20  H   LIG d   1       4.362  -1.913  -7.552  0.00  0.00     0.119 HD
ENDBRANCH  10  18
ENDBRANCH   7  10
ENDBRANCH   3   7
BRANCH   1  21
ATOM     21  C   LIG d   1       3.629  -0.122  -2.961  0.00  0.00     0.120 C 
BRANCH  21  22
ATOM     22  C   LIG d   1       4.735  -0.999  -2.370  0.00  0.00    -0.029 C 
ATOM     23  H   LIG d   1       4.474  -1.271  -1.347  0.00  0.00     0.026 H 
ATOM     24  H   LIG d   1       4.843  -1.902  -2.970  0.00  0.00     0.026 H 
ATOM     25  H   LIG d   1       5.674  -0.447  -2.371  0.00  0.00     0.026 H 
ENDBRANCH  21  22
BRANCH  21  26
ATOM     26  C   LIG d   1       3.709   1.280  -2.354  0.00  0.00    -0.029 C 
ATOM     27  H   LIG d   1       4.666   1.733  -2.612  0.00  0.00     0.026 H 
ATOM     28  H   LIG d   1       2.898   1.893  -2.747  0.00  0.00     0.026 H 
ATOM     29  H   LIG d   1       3.620   1.212  -1.270  0.00  0.00     0.026 H 
ENDBRANCH  21  26
BRANCH  21  30
ATOM     30  O   LIG d   1       2.354  -0.698  -2.664  0.00  0.00    -0.381 OA
ATOM     31  H   LIG d   1       2.384  -1.648  -2.485  0.00  0.00     0.211 HD
ENDBRANCH  21  30
ENDBRANCH   1  21
TORSDOF 7
ENDMDL
MODEL 4
REMARK VINA RESULT:      -4.7      1.923      5.846
REMARK  7 active torsions:
REMARK  status: ('A' for Active; 'I' for Inactive)
REMARK    1  A    between atoms: C_1  and  C_2 
REMARK    2  A    between atoms: C_2  and  C_3 
REMARK    3  A    between atoms: C_2  and  C_4 
REMARK    4  A    between atoms: C_2  and  O_15 
REMARK    5  A    between atoms: C_6  and  C_9 
REMARK    6  A    between atoms: C_9  and  C_10 
REMARK    7  A    between atoms: C_10  and  N_14 
ROOT
ATOM      1  C   LIG d   1       3.460  -0.060  -7.626  0.00  0.00     0.168 A 
ATOM      2  C   LIG d   1       2.894   0.319  -6.463  0.00  0.00     0.006 A 
ATOM      3  C   LIG d   1       3.453  -0.457  -5.432  0.00  0.00     0.086 A 
ATOM      4  N   LIG d   1       4.322  -1.270  -5.964  0.00  0.00    -0.083 NA
ATOM      5  O   LIG d   1       4.339  -1.038  -7.360  0.00  0.00    -0.356 OA
ATOM      6  H   LIG d   1       2.143   1.085  -6.344  0.00  0.00     0.067 H 
ENDROOT
BRANCH   3   7
ATOM      7  C   LIG d   1       3.108  -0.366  -3.968  0.00  0.00     0.015 C 
ATOM      8  H   LIG d   1       2.184   0.202  -3.847  0.00  0.00     0.035 H 
ATOM      9  H   LIG d   1       2.972  -1.369  -3.565  0.00  0.00     0.035 H 
BRANCH   7  10
ATOM     10  C   LIG d   1       4.241   0.338  -3.219  0.00  0.00     0.069 C 
ATOM     11  C   LIG d   1       3.780   1.555  -2.395  0.00  0.00     0.068 C 
ATOM     12  O   LIG d   1       4.649   1.044  -1.364  0.00  0.00    -0.376 OA
ATOM     13  H   LIG d   1       4.101   2.513  -2.807  0.00  0.00     0.058 H 
ATOM     14  H   LIG d   1       2.723   1.535  -2.131  0.00  0.00     0.058 H 
ATOM     15  C   LIG d   1       4.584  -0.307  -1.864  0.00  0.00     0.068 C 
ATOM     16  H   LIG d   1       3.772  -0.898  -1.437  0.00  0.00     0.058 H 
ATOM     17  H   LIG d   1       5.542  -0.828  -1.853  0.00  0.00     0.058 H 
BRANCH  10  18
ATOM     18  N   LIG d   1       5.411   0.603  -4.066  0.00  0.00    -0.321 N 
ATOM     19  H   LIG d   1       5.380   0.047  -4.909  0.00  0.00     0.119 HD
ATOM     20  H   LIG d   1       5.485   1.585  -4.284  0.00  0.00     0.119 HD
ENDBRANCH  10  18
ENDBRANCH   7  10
ENDBRANCH   3   7
BRANCH   1  21
ATOM     21  C   LIG d   1       3.155   0.512  -8.987  0.00  0.00     0.120 C 
BRANCH  21  22
ATOM     22  C   LIG d   1       1.951  -0.217  -9.587  0.00  0.00    -0.029 C 
ATOM     23  H   LIG d   1       1.729  -1.103  -8.992  0.00  0.00     0.026 H 
ATOM     24  H   LIG d   1       1.087   0.447  -9.587  0.00  0.00     0.026 H 
ATOM     25  H   LIG d   1       2.180  -0.515 -10.610  0.00  0.00     0.026 H 
ENDBRANCH  21  22
BRANCH  21  26
ATOM     26  C   LIG d   1       2.835   2.002  -8.853  0.00  0.00    -0.029 C 
ATOM     27  H   LIG d   1       2.640   2.239  -7.808  0.00  0.00     0.026 H 
ATOM     28  H   LIG d   1       3.683   2.589  -9.207  0.00  0.00     0.026 H 
ATOM     29  H   LIG d   1       1.955   2.240  -9.451  0.00  0.00     0.026 H 
ENDBRANCH  21  26
BRANCH  21  30
ATOM     30  O   LIG d   1       4.289   0.341  -9.840  0.00  0.00    -0.381 OA
ATOM     31  H   LIG d   1       4.629  -0.563  -9.866  0.00  0.00     0.211 HD
ENDBRANCH  21  30
ENDBRANCH   1  21
TORSDOF 7
ENDMDL
MODEL 5
REMARK VINA RESULT:      -4.6     10.339     11.403
REMARK  7 active torsions:
REMARK  status: ('A' for Active; 'I' for Inactive)
REMARK    1  A    between atoms: C_1  and  C_2 
REMARK    2  A    between atoms: C_2  and  C_3 
REMARK    3  A    between atoms: C_2  and  C_4 
REMARK    4  A    between atoms: C_2  and  O_15 
REMARK    5  A    between atoms: C_6  and  C_9 
REMARK    6  A    between atoms: C_9  and  C_10 
REMARK    7  A    between atoms: C_10  and  N_14 
ROOT
ATOM      1  C   LIG d   1      10.133   7.599  -0.985  0.00  0.00     0.168 A 
ATOM      2  C   LIG d   1      10.725   8.691  -1.507  0.00  0.00     0.006 A 
ATOM      3  C   LIG d   1       9.786   9.738  -1.510  0.00  0.00     0.086 A 
ATOM      4  N   LIG d   1       8.673   9.284  -1.006  0.00  0.00    -0.083 NA
ATOM      5  O   LIG d   1       8.870   7.923  -0.669  0.00  0.00    -0.356 OA
ATOM      6  H   LIG d   1      11.743   8.751  -1.861  0.00  0.00     0.067 H 
ENDROOT
BRANCH   3   7
ATOM      7  C   LIG d   1      10.024  11.140  -2.009  0.00  0.00     0.015 C 
ATOM      8  H   LIG d   1       9.805  11.851  -1.212  0.00  0.00     0.035 H 
ATOM      9  H   LIG d   1      11.066  11.244  -2.311  0.00  0.00     0.035 H 
BRANCH   7  10
ATOM     10  C   LIG d   1       9.114  11.418  -3.206  0.00  0.00     0.069 C 
ATOM     11  C   LIG d   1       9.584  12.591  -4.086  0.00  0.00     0.068 C 
ATOM     12  O   LIG d   1       9.257  11.738  -5.201  0.00  0.00    -0.376 OA
ATOM     13  H   LIG d   1       8.955  13.478  -4.010  0.00  0.00     0.058 H 
ATOM     14  H   LIG d   1      10.648  12.811  -3.997  0.00  0.00     0.058 H 
ATOM     15  C   LIG d   1       9.407  10.529  -4.429  0.00  0.00     0.068 C 
ATOM     16  H   LIG d   1      10.418  10.119  -4.444  0.00  0.00     0.058 H 
ATOM     17  H   LIG d   1       8.639   9.781  -4.626  0.00  0.00     0.058 H 
BRANCH  10  18
ATOM     18  N   LIG d   1       7.692  11.481  -2.843  0.00  0.00    -0.321 N 
ATOM     19  H   LIG d   1       7.129  10.953  -3.494  0.00  0.00     0.119 HD
ATOM     20  H   LIG d   1       7.546  11.161  -1.897  0.00  0.00     0.119 HD
ENDBRANCH  10  18
ENDBRANCH   7  10
ENDBRANCH   3   7
BRANCH   1  21
ATOM     21  C   LIG d   1      10.776   6.250  -0.793  0.00  0.00     0.120 C 
BRANCH  21  22
ATOM     22  C   LIG d   1      10.324   5.306  -1.910  0.00  0.00    -0.029 C 
ATOM     23  H   LIG d   1       9.868   4.418  -1.472  0.00  0.00     0.026 H 
ATOM     24  H   LIG d   1       9.597   5.814  -2.543  0.00  0.00     0.026 H 
ATOM     25  H   LIG d   1      11.186   5.013  -2.509  0.00  0.00     0.026 H 
ENDBRANCH  21  22
BRANCH  21  26
ATOM     26  C   LIG d   1      12.299   6.400  -0.837  0.00  0.00    -0.029 C 
ATOM     27  H   LIG d   1      12.745   5.470  -1.189  0.00  0.00     0.026 H 
ATOM     28  H   LIG d   1      12.565   7.211  -1.515  0.00  0.00     0.026 H 
ATOM     29  H   LIG d   1      12.671   6.626   0.163  0.00  0.00     0.026 H 
ENDBRANCH  21  26
BRANCH  21  30
ATOM     30  O   LIG d   1      10.387   5.711   0.472  0.00  0.00    -0.381 OA
ATOM     31  H   LIG d   1      10.754   4.836   0.657  0.00  0.00     0.211 HD
ENDBRANCH  21  30
ENDBRANCH   1  21
TORSDOF 7
ENDMDL
MODEL 6
REMARK VINA RESULT:      -4.5      3.902      5.991
REMARK  7 active torsions:
REMARK  status: ('A' for Active; 'I' for Inactive)
REMARK    1  A    between atoms: C_1  and  C_2 
REMARK    2  A    between atoms: C_2  and  C_3 
REMARK    3  A    between atoms: C_2  and  C_4 
REMARK    4  A    between atoms: C_2  and  O_15 
REMARK    5  A    between atoms: C_6  and  C_9 
REMARK    6  A    between atoms: C_9  and  C_10 
REMARK    7  A    between atoms: C_10  and  N_14 
ROOT
ATOM      1  C   LIG d   1       5.006  -3.584  -5.713  0.00  0.00     0.168 A 
ATOM      2  C   LIG d   1       4.732  -2.285  -5.489  0.00  0.00     0.006 A 
ATOM      3  C   LIG d   1       5.574  -1.832  -4.458  0.00  0.00     0.086 A 
ATOM      4  N   LIG d   1       6.324  -2.830  -4.081  0.00  0.00    -0.083 NA
ATOM      5  O   LIG d   1       5.975  -3.957  -4.864  0.00  0.00    -0.356 OA
ATOM      6  H   LIG d   1       3.995  -1.693  -6.010  0.00  0.00     0.067 H 
ENDROOT
BRANCH   3   7
ATOM      7  C   LIG d   1       5.605  -0.438  -3.887  0.00  0.00     0.015 C 
ATOM      8  H   LIG d   1       6.596  -0.234  -3.479  0.00  0.00     0.035 H 
ATOM      9  H   LIG d   1       5.382   0.281  -4.675  0.00  0.00     0.035 H 
BRANCH   7  10
ATOM     10  C   LIG d   1       4.561  -0.318  -2.775  0.00  0.00     0.069 C 
ATOM     11  C   LIG d   1       4.721   0.943  -1.905  0.00  0.00     0.068 C 
ATOM     12  O   LIG d   1       3.287   1.057  -2.008  0.00  0.00    -0.376 OA
ATOM     13  H   LIG d   1       5.076   0.740  -0.895  0.00  0.00     0.058 H 
ATOM     14  H   LIG d   1       5.264   1.751  -2.396  0.00  0.00     0.058 H 
ATOM     15  C   LIG d   1       3.231   0.305  -3.236  0.00  0.00     0.068 C 
ATOM     16  H   LIG d   1       3.318   0.918  -4.134  0.00  0.00     0.058 H 
ATOM     17  H   LIG d   1       2.404  -0.404  -3.282  0.00  0.00     0.058 H 
BRANCH  10  18
ATOM     18  N   LIG d   1       4.403  -1.556  -2.001  0.00  0.00    -0.321 N 
ATOM     19  H   LIG d   1       4.786  -1.454  -1.072  0.00  0.00     0.119 HD
ATOM     20  H   LIG d   1       3.435  -1.838  -1.964  0.00  0.00     0.119 HD
ENDBRANCH  10  18
ENDBRANCH   7  10
ENDBRANCH   3   7
BRANCH   1  21
ATOM     21  C   LIG d   1       4.336  -4.467  -6.735  0.00  0.00     0.120 C 
BRANCH  21  22
ATOM     22  C   LIG d   1       3.939  -3.628  -7.951  0.00  0.00    -0.029 C 
ATOM     23  H   LIG d   1       3.482  -4.272  -8.703  0.00  0.00     0.026 H 
ATOM     24  H   LIG d   1       3.227  -2.861  -7.647  0.00  0.00     0.026 H 
ATOM     25  H   LIG d   1       4.826  -3.154  -8.371  0.00  0.00     0.026 H 
ENDBRANCH  21  22
BRANCH  21  26
ATOM     26  C   LIG d   1       5.305  -5.569  -7.169  0.00  0.00    -0.029 C 
ATOM     27  H   LIG d   1       4.861  -6.143  -7.982  0.00  0.00     0.026 H 
ATOM     28  H   LIG d   1       6.238  -5.120  -7.509  0.00  0.00     0.026 H 
ATOM     29  H   LIG d   1       5.506  -6.230  -6.325  0.00  0.00     0.026 H 
ENDBRANCH  21  26
BRANCH  21  30
ATOM     30  O   LIG d   1       3.168  -5.058  -6.162  0.00  0.00    -0.381 OA
ATOM     31  H   LIG d   1       3.344  -5.854  -5.643  0.00  0.00     0.211 HD
ENDBRANCH  21  30
ENDBRANCH   1  21
TORSDOF 7
ENDMDL
MODEL 7
REMARK VINA RESULT:      -4.5      3.673      4.932
REMARK  7 active torsions:
REMARK  status: ('A' for Active; 'I' for Inactive)
REMARK    1  A    between atoms: C_1  and  C_2 
REMARK    2  A    between atoms: C_2  and  C_3 
REMARK    3  A    between atoms: C_2  and  C_4 
REMARK    4  A    between atoms: C_2  and  O_15 
REMARK    5  A    between atoms: C_6  and  C_9 
REMARK    6  A    between atoms: C_9  and  C_10 
REMARK    7  A    between atoms: C_10  and  N_14 
ROOT
ATOM      1  C   LIG d   1       4.800  -0.349  -4.148  0.00  0.00     0.168 A 
ATOM      2  C   LIG d   1       6.098  -0.500  -3.821  0.00  0.00     0.006 A 
ATOM      3  C   LIG d   1       6.874  -0.168  -4.946  0.00  0.00     0.086 A 
ATOM      4  N   LIG d   1       6.064   0.169  -5.910  0.00  0.00    -0.083 NA
ATOM      5  O   LIG d   1       4.738   0.056  -5.426  0.00  0.00    -0.356 OA
ATOM      6  H   LIG d   1       6.476  -0.819  -2.861  0.00  0.00     0.067 H 
ENDROOT
BRANCH   3   7
ATOM      7  C   LIG d   1       8.378  -0.197  -5.024  0.00  0.00     0.015 C 
ATOM      8  H   LIG d   1       8.778  -0.715  -4.151  0.00  0.00     0.035 H 
ATOM      9  H   LIG d   1       8.684  -0.722  -5.929  0.00  0.00     0.035 H 
BRANCH   7  10
ATOM     10  C   LIG d   1       8.915   1.235  -5.058  0.00  0.00     0.069 C 
ATOM     11  C   LIG d   1       8.749   1.994  -3.728  0.00  0.00     0.068 C 
ATOM     12  O   LIG d   1      10.095   2.459  -3.955  0.00  0.00    -0.376 OA
ATOM     13  H   LIG d   1       7.998   2.784  -3.762  0.00  0.00     0.058 H 
ATOM     14  H   LIG d   1       8.648   1.344  -2.859  0.00  0.00     0.058 H 
ATOM     15  C   LIG d   1      10.429   1.337  -4.797  0.00  0.00     0.068 C 
ATOM     16  H   LIG d   1      10.842   0.486  -4.255  0.00  0.00     0.058 H 
ATOM     17  H   LIG d   1      11.013   1.605  -5.678  0.00  0.00     0.058 H 
BRANCH  10  18
ATOM     18  N   LIG d   1       8.461   1.990  -6.233  0.00  0.00    -0.321 N 
ATOM     19  H   LIG d   1       9.188   2.044  -6.932  0.00  0.00     0.119 HD
ATOM     20  H   LIG d   1       7.619   1.589  -6.618  0.00  0.00     0.119 HD
ENDBRANCH  10  18
ENDBRANCH   7  10
ENDBRANCH   3   7
BRANCH   1  21
ATOM     21  C   LIG d   1       3.623  -0.597  -3.240  0.00  0.00     0.120 C 
BRANCH  21  22
ATOM     22  C   LIG d   1       3.891  -1.838  -2.385  0.00  0.00    -0.029 C 
ATOM     23  H   LIG d   1       3.139  -2.597  -2.601  0.00  0.00     0.026 H 
ATOM     24  H   LIG d   1       4.881  -2.231  -2.615  0.00  0.00     0.026 H 
ATOM     25  H   LIG d   1       3.843  -1.569  -1.330  0.00  0.00     0.026 H 
ENDBRANCH  21  22
BRANCH  21  26
ATOM     26  C   LIG d   1       3.418   0.615  -2.329  0.00  0.00    -0.029 C 
ATOM     27  H   LIG d   1       4.041   0.513  -1.442  0.00  0.00     0.026 H 
ATOM     28  H   LIG d   1       3.694   1.524  -2.865  0.00  0.00     0.026 H 
ATOM     29  H   LIG d   1       2.370   0.674  -2.032  0.00  0.00     0.026 H 
ENDBRANCH  21  26
BRANCH  21  30
ATOM     30  O   LIG d   1       2.449  -0.806  -4.027  0.00  0.00    -0.381 OA
ATOM     31  H   LIG d   1       1.755  -0.149  -3.880  0.00  0.00     0.211 HD
ENDBRANCH  21  30
ENDBRANCH   1  21
TORSDOF 7
ENDMDL
MODEL 8
REMARK VINA RESULT:      -4.3      2.601      3.049
REMARK  7 active torsions:
REMARK  status: ('A' for Active; 'I' for Inactive)
REMARK    1  A    between atoms: C_1  and  C_2 
REMARK    2  A    between atoms: C_2  and  C_3 
REMARK    3  A    between atoms: C_2  and  C_4 
REMARK    4  A    between atoms: C_2  and  O_15 
REMARK    5  A    between atoms: C_6  and  C_9 
REMARK    6  A    between atoms: C_9  and  C_10 
REMARK    7  A    between atoms: C_10  and  N_14 
ROOT
ATOM      1  C   LIG d   1       4.985  -0.631  -4.366  0.00  0.00     0.168 A 
ATOM      2  C   LIG d   1       5.465  -1.089  -5.539  0.00  0.00     0.006 A 
ATOM      3  C   LIG d   1       6.434  -0.180  -5.998  0.00  0.00     0.086 A 
ATOM      4  N   LIG d   1       6.529   0.786  -5.127  0.00  0.00    -0.083 NA
ATOM      5  O   LIG d   1       5.612   0.521  -4.082  0.00  0.00    -0.356 OA
ATOM      6  H   LIG d   1       5.158  -1.995  -6.039  0.00  0.00     0.067 H 
ENDROOT
BRANCH   3   7
ATOM      7  C   LIG d   1       7.227  -0.300  -7.275  0.00  0.00     0.015 C 
ATOM      8  H   LIG d   1       8.293  -0.274  -7.045  0.00  0.00     0.035 H 
ATOM      9  H   LIG d   1       6.984  -1.244  -7.764  0.00  0.00     0.035 H 
BRANCH   7  10
ATOM     10  C   LIG d   1       6.876   0.862  -8.205  0.00  0.00     0.069 C 
ATOM     11  C   LIG d   1       7.885   2.026  -8.154  0.00  0.00     0.068 C 
ATOM     12  O   LIG d   1       7.767   2.042  -9.591  0.00  0.00    -0.376 OA
ATOM     13  H   LIG d   1       7.498   2.923  -7.669  0.00  0.00     0.058 H 
ATOM     14  H   LIG d   1       8.873   1.737  -7.795  0.00  0.00     0.058 H 
ATOM     15  C   LIG d   1       7.352   0.663  -9.656  0.00  0.00     0.068 C 
ATOM     16  H   LIG d   1       8.177  -0.043  -9.757  0.00  0.00     0.058 H 
ATOM     17  H   LIG d   1       6.543   0.478 -10.364  0.00  0.00     0.058 H 
BRANCH  10  18
ATOM     18  N   LIG d   1       5.475   1.286  -8.090  0.00  0.00    -0.321 N 
ATOM     19  H   LIG d   1       4.901   0.829  -8.784  0.00  0.00     0.119 HD
ATOM     20  H   LIG d   1       5.121   1.117  -7.161  0.00  0.00     0.119 HD
ENDBRANCH  10  18
ENDBRANCH   7  10
ENDBRANCH   3   7
BRANCH   1  21
ATOM     21  C   LIG d   1       3.927  -1.295  -3.523  0.00  0.00     0.120 C 
BRANCH  21  22
ATOM     22  C   LIG d   1       4.410  -1.383  -2.073  0.00  0.00    -0.029 C 
ATOM     23  H   LIG d   1       5.258  -0.713  -1.932  0.00  0.00     0.026 H 
ATOM     24  H   LIG d   1       3.602  -1.094  -1.402  0.00  0.00     0.026 H 
ATOM     25  H   LIG d   1       4.716  -2.406  -1.855  0.00  0.00     0.026 H 
ENDBRANCH  21  22
BRANCH  21  26
ATOM     26  C   LIG d   1       2.638  -0.473  -3.582  0.00  0.00    -0.029 C 
ATOM     27  H   LIG d   1       1.884  -0.933  -2.943  0.00  0.00     0.026 H 
ATOM     28  H   LIG d   1       2.838   0.542  -3.236  0.00  0.00     0.026 H 
ATOM     29  H   LIG d   1       2.274  -0.441  -4.609  0.00  0.00     0.026 H 
ENDBRANCH  21  26
BRANCH  21  30
ATOM     30  O   LIG d   1       3.676  -2.611  -4.022  0.00  0.00    -0.381 OA
ATOM     31  H   LIG d   1       4.309  -2.905  -4.691  0.00  0.00     0.211 HD
ENDBRANCH  21  30
ENDBRANCH   1  21
TORSDOF 7
ENDMDL
MODEL 9
REMARK VINA RESULT:      -4.3      9.372     10.799
REMARK  7 active torsions:
REMARK  status: ('A' for Active; 'I' for Inactive)
REMARK    1  A    between atoms: C_1  and  C_2 
REMARK    2  A    between atoms: C_2  and  C_3 
REMARK    3  A    between atoms: C_2  and  C_4 
REMARK    4  A    between atoms: C_2  and  O_15 
REMARK    5  A    between atoms: C_6  and  C_9 
REMARK    6  A    between atoms: C_9  and  C_10 
REMARK    7  A    between atoms: C_10  and  N_14 
ROOT
ATOM      1  C   LIG d   1       9.739   8.291  -1.020  0.00  0.00     0.168 A 
ATOM      2  C   LIG d   1       9.732   7.428  -2.054  0.00  0.00     0.006 A 
ATOM      3  C   LIG d   1      10.068   6.154  -1.563  0.00  0.00     0.086 A 
ATOM      4  N   LIG d   1      10.268   6.256  -0.278  0.00  0.00    -0.083 NA
ATOM      5  O   LIG d   1      10.069   7.609   0.088  0.00  0.00    -0.356 OA
ATOM      6  H   LIG d   1       9.507   7.673  -3.081  0.00  0.00     0.067 H 
ENDROOT
BRANCH   3   7
ATOM      7  C   LIG d   1      10.178   4.892  -2.378  0.00  0.00     0.015 C 
ATOM      8  H   LIG d   1       9.730   4.063  -1.827  0.00  0.00     0.035 H 
ATOM      9  H   LIG d   1       9.653   5.024  -3.324  0.00  0.00     0.035 H 
BRANCH   7  10
ATOM     10  C   LIG d   1      11.652   4.585  -2.649  0.00  0.00     0.069 C 
ATOM     11  C   LIG d   1      11.881   3.290  -3.451  0.00  0.00     0.068 C 
ATOM     12  O   LIG d   1      12.850   4.056  -4.194  0.00  0.00    -0.376 OA
ATOM     13  H   LIG d   1      12.315   2.480  -2.864  0.00  0.00     0.058 H 
ATOM     14  H   LIG d   1      11.019   2.978  -4.040  0.00  0.00     0.058 H 
ATOM     15  C   LIG d   1      12.221   5.314  -3.880  0.00  0.00     0.068 C 
ATOM     16  H   LIG d   1      11.463   5.621  -4.602  0.00  0.00     0.058 H 
ATOM     17  H   LIG d   1      12.925   6.111  -3.636  0.00  0.00     0.058 H 
BRANCH  10  18
ATOM     18  N   LIG d   1      12.491   4.697  -1.449  0.00  0.00    -0.321 N 
ATOM     19  H   LIG d   1      12.848   3.794  -1.173  0.00  0.00     0.119 HD
ATOM     20  H   LIG d   1      13.243   5.354  -1.593  0.00  0.00     0.119 HD
ENDBRANCH  10  18
ENDBRANCH   7  10
ENDBRANCH   3   7
BRANCH   1  21
ATOM     21  C   LIG d   1       9.435   9.766  -1.094  0.00  0.00     0.120 C 
BRANCH  21  22
ATOM     22  C   LIG d   1       9.911  10.450   0.189  0.00  0.00    -0.029 C 
ATOM     23  H   LIG d   1       9.051  10.681   0.818  0.00  0.00     0.026 H 
ATOM     24  H   LIG d   1      10.587   9.785   0.727  0.00  0.00     0.026 H 
ATOM     25  H   LIG d   1      10.434  11.372  -0.064  0.00  0.00     0.026 H 
ENDBRANCH  21  22
BRANCH  21  26
ATOM     26  C   LIG d   1      10.159  10.375  -2.297  0.00  0.00    -0.029 C 
ATOM     27  H   LIG d   1      10.806  11.184  -1.959  0.00  0.00     0.026 H 
ATOM     28  H   LIG d   1      10.760   9.608  -2.786  0.00  0.00     0.026 H 
ATOM     29  H   LIG d   1       9.426  10.767  -3.002  0.00  0.00     0.026 H 
ENDBRANCH  21  26
BRANCH  21  30
ATOM     30  O   LIG d   1       8.026   9.955  -1.240  0.00  0.00    -0.381 OA
ATOM     31  H   LIG d   1       7.782  10.802  -1.637  0.00  0.00     0.211 HD
ENDBRANCH  21  30
ENDBRANCH   1  21
TORSDOF 7
ENDMDL
MODEL 10
REMARK VINA RESULT:      -4.1      3.943      5.002
REMARK  7 active torsions:
REMARK  status: ('A' for Active; 'I' for Inactive)
REMARK    1  A    between atoms: C_1  and  C_2 
REMARK    2  A    between atoms: C_2  and  C_3 
REMARK    3  A    between atoms: C_2  and  C_4 
REMARK    4  A    between atoms: C_2  and  O_15 
REMARK    5  A    between atoms: C_6  and  C_9 
REMARK    6  A    between atoms: C_9  and  C_10 
REMARK    7  A    between atoms: C_10  and  N_14 
ROOT
ATOM      1  C   LIG d   1       5.050  -0.125  -3.997  0.00  0.00     0.168 A 
ATOM      2  C   LIG d   1       6.347  -0.055  -3.641  0.00  0.00     0.006 A 
ATOM      3  C   LIG d   1       7.100   0.240  -4.792  0.00  0.00     0.086 A 
ATOM      4  N   LIG d   1       6.278   0.342  -5.798  0.00  0.00    -0.083 NA
ATOM      5  O   LIG d   1       4.968   0.109  -5.316  0.00  0.00    -0.356 OA
ATOM      6  H   LIG d   1       6.740  -0.200  -2.647  0.00  0.00     0.067 H 
ENDROOT
BRANCH   3   7
ATOM      7  C   LIG d   1       8.597   0.408  -4.852  0.00  0.00     0.015 C 
ATOM      8  H   LIG d   1       8.837   1.351  -5.343  0.00  0.00     0.035 H 
ATOM      9  H   LIG d   1       9.001   0.413  -3.840  0.00  0.00     0.035 H 
BRANCH   7  10
ATOM     10  C   LIG d   1       9.210  -0.750  -5.642  0.00  0.00     0.069 C 
ATOM     11  C   LIG d   1      10.720  -0.935  -5.402  0.00  0.00     0.068 C 
ATOM     12  O   LIG d   1      10.422  -2.344  -5.337  0.00  0.00    -0.376 OA
ATOM     13  H   LIG d   1      11.339  -0.655  -6.255  0.00  0.00     0.058 H 
ATOM     14  H   LIG d   1      11.072  -0.515  -4.460  0.00  0.00     0.058 H 
ATOM     15  C   LIG d   1       9.048  -2.121  -4.961  0.00  0.00     0.068 C 
ATOM     16  H   LIG d   1       8.889  -2.063  -3.883  0.00  0.00     0.058 H 
ATOM     17  H   LIG d   1       8.340  -2.782  -5.462  0.00  0.00     0.058 H 
BRANCH  10  18
ATOM     18  N   LIG d   1       8.831  -0.740  -7.061  0.00  0.00    -0.321 N 
ATOM     19  H   LIG d   1       8.124  -0.041  -7.241  0.00  0.00     0.119 HD
ATOM     20  H   LIG d   1       9.637  -0.599  -7.650  0.00  0.00     0.119 HD
ENDBRANCH  10  18
ENDBRANCH   7  10
ENDBRANCH   3   7
BRANCH   1  21
ATOM     21  C   LIG d   1       3.894  -0.419  -3.076  0.00  0.00     0.120 C 
BRANCH  21  22
ATOM     22  C   LIG d   1       4.323  -1.453  -2.033  0.00  0.00    -0.029 C 
ATOM     23  H   LIG d   1       3.715  -2.352  -2.141  0.00  0.00     0.026 H 
ATOM     24  H   LIG d   1       5.373  -1.705  -2.181  0.00  0.00     0.026 H 
ATOM     25  H   LIG d   1       4.186  -1.040  -1.034  0.00  0.00     0.026 H 
ENDBRANCH  21  22
BRANCH  21  26
ATOM     26  C   LIG d   1       3.464   0.869  -2.371  0.00  0.00    -0.029 C 
ATOM     27  H   LIG d   1       3.890   1.726  -2.890  0.00  0.00     0.026 H 
ATOM     28  H   LIG d   1       2.376   0.942  -2.379  0.00  0.00     0.026 H 
ATOM     29  H   LIG d   1       3.818   0.855  -1.340  0.00  0.00     0.026 H 
ENDBRANCH  21  26
BRANCH  21  30
ATOM     30  O   LIG d   1       2.799  -0.936  -3.835  0.00  0.00    -0.381 OA
ATOM     31  H   LIG d   1       3.065  -1.435  -4.620  0.00  0.00     0.211 HD
ENDBRANCH  21  30
ENDBRANCH   1  21
TORSDOF 7
ENDMDL
