MODEL 1
REMARK VINA RESULT:      -6.0      0.000      0.000
REMARK  7 active torsions:
REMARK  status: ('A' for Active; 'I' for Inactive)
REMARK    1  A    between atoms: C_1  and  C_2 
REMARK    2  A    between atoms: C_1  and  C_11 
REMARK    3  A    between atoms: C_2  and  C_3 
REMARK    4  A    between atoms: C_3  and  N_4 
REMARK       I    between atoms: N_4  and  C_5 
REMARK    5  A    between atoms: C_5  and  C_7 
REMARK    6  A    between atoms: C_11  and  N_12 
REMARK       I    between atoms: N_12  and  C_13 
REMARK    7  A    between atoms: C_13  and  C_15 
ROOT
ATOM      1  C   LIG d   1       5.812  -0.486  -6.222  0.00  0.00    -0.036 C 
ATOM      2  H   LIG d   1       6.349  -1.108  -6.938  0.00  0.00     0.028 H 
ATOM      3  H   LIG d   1       5.746   0.533  -6.603  0.00  0.00     0.028 H 
ENDROOT
BRANCH   1   4
ATOM      4  C   LIG d   1       4.403  -1.045  -6.016  0.00  0.00    -0.036 C 
ATOM      5  H   LIG d   1       4.322  -2.016  -6.505  0.00  0.00     0.028 H 
ATOM      6  H   LIG d   1       4.209  -1.158  -4.949  0.00  0.00     0.028 H 
BRANCH   4   7
ATOM      7  C   LIG d   1       3.379  -0.083  -6.621  0.00  0.00     0.012 C 
ATOM      8  H   LIG d   1       2.637  -0.649  -7.185  0.00  0.00     0.046 H 
ATOM      9  H   LIG d   1       2.884   0.469  -5.823  0.00  0.00     0.046 H 
BRANCH   7  10
ATOM     10  N   LIG d   1       4.060   0.856  -7.515  0.00  0.00    -0.308 N 
ATOM     11  C   LIG d   1       3.516   1.165  -8.709  0.00  0.00     0.317 C 
ATOM     12  O   LIG d   1       2.463   0.664  -9.044  0.00  0.00    -0.266 OA
ATOM     13  H   LIG d   1       4.902   1.256  -7.248  0.00  0.00     0.149 HD
BRANCH  11  14
ATOM     14  C   LIG d   1       4.217   2.131  -9.629  0.00  0.00     0.469 C 
ATOM     15  F   LIG d   1       4.093   3.429  -9.125  0.00  0.00    -0.162 F 
ATOM     16  F   LIG d   1       5.571   1.791  -9.718  0.00  0.00    -0.162 F 
ATOM     17  F   LIG d   1       3.637   2.068 -10.901  0.00  0.00    -0.162 F 
ENDBRANCH  11  14
ENDBRANCH   7  10
ENDBRANCH   4   7
ENDBRANCH   1   4
BRANCH   1  18
ATOM     18  C   LIG d   1       6.559  -0.484  -4.886  0.00  0.00     0.012 C 
ATOM     19  H   LIG d   1       7.239  -1.334  -4.848  0.00  0.00     0.046 H 
ATOM     20  H   LIG d   1       7.128   0.441  -4.790  0.00  0.00     0.046 H 
BRANCH  18  21
ATOM     21  N   LIG d   1       5.594  -0.580  -3.788  0.00  0.00    -0.308 N 
ATOM     22  C   LIG d   1       5.399   0.473  -2.968  0.00  0.00     0.317 C 
ATOM     23  O   LIG d   1       6.023   1.498  -3.139  0.00  0.00    -0.266 OA
ATOM     24  H   LIG d   1       5.095  -1.401  -3.651  0.00  0.00     0.149 HD
BRANCH  22  25
ATOM     25  C   LIG d   1       4.407   0.373  -1.838  0.00  0.00     0.469 C 
ATOM     26  F   LIG d   1       4.418  -0.928  -1.322  0.00  0.00    -0.162 F 
ATOM     27  F   LIG d   1       4.758   1.277  -0.829  0.00  0.00    -0.162 F 
ATOM     28  F   LIG d   1       3.127   0.676  -2.312  0.00  0.00    -0.162 F 
ENDBRANCH  22  25
ENDBRANCH  18  21
ENDBRANCH   1  18
TORSDOF 7
ENDMDL
MODEL 2
REMARK VINA RESULT:      -5.9      0.230      6.796
REMARK  7 active torsions:
REMARK  status: ('A' for Active; 'I' for Inactive)
REMARK    1  A    between atoms: C_1  and  C_2 
REMARK    2  A    between atoms: C_1  and  C_11 
REMARK    3  A    between atoms: C_2  and  C_3 
REMARK    4  A    between atoms: C_3  and  N_4 
REMARK       I    between atoms: N_4  and  C_5 
REMARK    5  A    between atoms: C_5  and  C_7 
REMARK    6  A    between atoms: C_11  and  N_12 
REMARK       I    between atoms: N_12  and  C_13 
REMARK    7  A    between atoms: C_13  and  C_15 
ROOT
ATOM      1  C   LIG d   1       4.815  -1.163  -6.028  0.00  0.00    -0.036 C 
ATOM      2  H   LIG d   1       4.881  -2.083  -6.609  0.00  0.00     0.028 H 
ATOM      3  H   LIG d   1       4.562  -1.402  -4.996  0.00  0.00     0.028 H 
ENDROOT
BRANCH   1   4
ATOM      4  C   LIG d   1       6.162  -0.437  -6.067  0.00  0.00    -0.036 C 
ATOM      5  H   LIG d   1       6.807  -0.907  -6.810  0.00  0.00     0.028 H 
ATOM      6  H   LIG d   1       6.004   0.608  -6.332  0.00  0.00     0.028 H 
BRANCH   4   7
ATOM      7  C   LIG d   1       6.826  -0.519  -4.692  0.00  0.00     0.012 C 
ATOM      8  H   LIG d   1       7.458  -1.407  -4.645  0.00  0.00     0.046 H 
ATOM      9  H   LIG d   1       7.436   0.369  -4.529  0.00  0.00     0.046 H 
BRANCH   7  10
ATOM     10  N   LIG d   1       5.794  -0.599  -3.655  0.00  0.00    -0.308 N 
ATOM     11  C   LIG d   1       5.505   0.485  -2.908  0.00  0.00     0.317 C 
ATOM     12  O   LIG d   1       6.099   1.527  -3.094  0.00  0.00    -0.266 OA
ATOM     13  H   LIG d   1       5.319  -1.431  -3.507  0.00  0.00     0.149 HD
BRANCH  11  14
ATOM     14  C   LIG d   1       4.443   0.403  -1.841  0.00  0.00     0.469 C 
ATOM     15  F   LIG d   1       4.375  -0.904  -1.350  0.00  0.00    -0.162 F 
ATOM     16  F   LIG d   1       4.764   1.278  -0.797  0.00  0.00    -0.162 F 
ATOM     17  F   LIG d   1       3.205   0.762  -2.386  0.00  0.00    -0.162 F 
ENDBRANCH  11  14
ENDBRANCH   7  10
ENDBRANCH   4   7
ENDBRANCH   1   4
BRANCH   1  18
ATOM     18  C   LIG d   1       3.732  -0.260  -6.623  0.00  0.00     0.012 C 
ATOM     19  H   LIG d   1       3.008  -0.868  -7.164  0.00  0.00     0.046 H 
ATOM     20  H   LIG d   1       3.228   0.279  -5.820  0.00  0.00     0.046 H 
BRANCH  18  21
ATOM     21  N   LIG d   1       4.349   0.700  -7.542  0.00  0.00    -0.308 N 
ATOM     22  C   LIG d   1       3.671   1.125  -8.627  0.00  0.00     0.317 C 
ATOM     23  O   LIG d   1       2.551   0.712  -8.842  0.00  0.00    -0.266 OA
ATOM     24  H   LIG d   1       5.245   1.031  -7.370  0.00  0.00     0.149 HD
BRANCH  22  25
ATOM     25  C   LIG d   1       4.305   2.112  -9.573  0.00  0.00     0.469 C 
ATOM     26  F   LIG d   1       4.093   3.412  -9.101  0.00  0.00    -0.162 F 
ATOM     27  F   LIG d   1       5.680   1.863  -9.652  0.00  0.00    -0.162 F 
ATOM     28  F   LIG d   1       3.732   1.977 -10.842  0.00  0.00    -0.162 F 
ENDBRANCH  22  25
ENDBRANCH  18  21
ENDBRANCH   1  18
TORSDOF 7
ENDMDL
MODEL 3
REMARK VINA RESULT:      -5.9      1.134      6.448
REMARK  7 active torsions:
REMARK  status: ('A' for Active; 'I' for Inactive)
REMARK    1  A    between atoms: C_1  and  C_2 
REMARK    2  A    between atoms: C_1  and  C_11 
REMARK    3  A    between atoms: C_2  and  C_3 
REMARK    4  A    between atoms: C_3  and  N_4 
REMARK       I    between atoms: N_4  and  C_5 
REMARK    5  A    between atoms: C_5  and  C_7 
REMARK    6  A    between atoms: C_11  and  N_12 
REMARK       I    between atoms: N_12  and  C_13 
REMARK    7  A    between atoms: C_13  and  C_15 
ROOT
ATOM      1  C   LIG d   1       6.379  -0.646  -6.516  0.00  0.00    -0.036 C 
ATOM      2  H   LIG d   1       6.627   0.409  -6.398  0.00  0.00     0.028 H 
ATOM      3  H   LIG d   1       6.817  -1.021  -7.441  0.00  0.00     0.028 H 
ENDROOT
BRANCH   1   4
ATOM      4  C   LIG d   1       6.935  -1.438  -5.331  0.00  0.00    -0.036 C 
ATOM      5  H   LIG d   1       6.174  -2.127  -4.965  0.00  0.00     0.028 H 
ATOM      6  H   LIG d   1       7.812  -2.001  -5.650  0.00  0.00     0.028 H 
BRANCH   4   7
ATOM      7  C   LIG d   1       7.329  -0.472  -4.212  0.00  0.00     0.012 C 
ATOM      8  H   LIG d   1       8.330  -0.718  -3.854  0.00  0.00     0.046 H 
ATOM      9  H   LIG d   1       7.322   0.549  -4.594  0.00  0.00     0.046 H 
BRANCH   7  10
ATOM     10  N   LIG d   1       6.374  -0.587  -3.109  0.00  0.00    -0.308 N 
ATOM     11  C   LIG d   1       5.366   0.301  -2.994  0.00  0.00     0.317 C 
ATOM     12  O   LIG d   1       5.251   1.196  -3.805  0.00  0.00    -0.266 OA
ATOM     13  H   LIG d   1       6.464  -1.303  -2.461  0.00  0.00     0.149 HD
BRANCH  11  14
ATOM     14  C   LIG d   1       4.382   0.183  -1.858  0.00  0.00     0.469 C 
ATOM     15  F   LIG d   1       4.451  -1.103  -1.313  0.00  0.00    -0.162 F 
ATOM     16  F   LIG d   1       4.694   1.125  -0.872  0.00  0.00    -0.162 F 
ATOM     17  F   LIG d   1       3.088   0.418  -2.335  0.00  0.00    -0.162 F 
ENDBRANCH  11  14
ENDBRANCH   7  10
ENDBRANCH   4   7
ENDBRANCH   1   4
BRANCH   1  18
ATOM     18  C   LIG d   1       4.858  -0.810  -6.569  0.00  0.00     0.012 C 
ATOM     19  H   LIG d   1       4.597  -1.536  -7.339  0.00  0.00     0.046 H 
ATOM     20  H   LIG d   1       4.497  -1.159  -5.602  0.00  0.00     0.046 H 
BRANCH  18  21
ATOM     21  N   LIG d   1       4.239   0.480  -6.885  0.00  0.00    -0.308 N 
ATOM     22  C   LIG d   1       3.652   0.671  -8.084  0.00  0.00     0.317 C 
ATOM     23  O   LIG d   1       3.638  -0.225  -8.901  0.00  0.00    -0.266 OA
ATOM     24  H   LIG d   1       4.250   1.197  -6.231  0.00  0.00     0.149 HD
BRANCH  22  25
ATOM     25  C   LIG d   1       3.016   1.998  -8.408  0.00  0.00     0.469 C 
ATOM     26  F   LIG d   1       3.996   2.882  -8.875  0.00  0.00    -0.162 F 
ATOM     27  F   LIG d   1       2.042   1.818  -9.395  0.00  0.00    -0.162 F 
ATOM     28  F   LIG d   1       2.423   2.525  -7.256  0.00  0.00    -0.162 F 
ENDBRANCH  22  25
ENDBRANCH  18  21
ENDBRANCH   1  18
TORSDOF 7
ENDMDL
MODEL 4
REMARK VINA RESULT:      -5.8      2.033      2.318
REMARK  7 active torsions:
REMARK  status: ('A' for Active; 'I' for Inactive)
REMARK    1  A    between atoms: C_1  and  C_2 
REMARK    2  A    between atoms: C_1  and  C_11 
REMARK    3  A    between atoms: C_2  and  C_3 
REMARK    4  A    between atoms: C_3  and  N_4 
REMARK       I    between atoms: N_4  and  C_5 
REMARK    5  A    between atoms: C_5  and  C_7 
REMARK    6  A    between atoms: C_11  and  N_12 
REMARK       I    between atoms: N_12  and  C_13 
REMARK    7  A    between atoms: C_13  and  C_15 
ROOT
ATOM      1  C   LIG d   1       4.278  -3.233  -7.081  0.00  0.00    -0.036 C 
ATOM      2  H   LIG d   1       3.400  -3.712  -6.647  0.00  0.00     0.028 H 
ATOM      3  H   LIG d   1       5.031  -3.989  -7.302  0.00  0.00     0.028 H 
ENDROOT
BRANCH   1   4
ATOM      4  C   LIG d   1       3.882  -2.515  -8.373  0.00  0.00    -0.036 C 
ATOM      5  H   LIG d   1       3.922  -3.217  -9.206  0.00  0.00     0.028 H 
ATOM      6  H   LIG d   1       2.869  -2.124  -8.276  0.00  0.00     0.028 H 
BRANCH   4   7
ATOM      7  C   LIG d   1       4.851  -1.361  -8.632  0.00  0.00     0.012 C 
ATOM      8  H   LIG d   1       5.294  -1.038  -7.689  0.00  0.00     0.046 H 
ATOM      9  H   LIG d   1       5.639  -1.693  -9.308  0.00  0.00     0.046 H 
BRANCH   7  10
ATOM     10  N   LIG d   1       4.128  -0.242  -9.239  0.00  0.00    -0.308 N 
ATOM     11  C   LIG d   1       4.369   1.019  -8.829  0.00  0.00     0.317 C 
ATOM     12  O   LIG d   1       5.186   1.227  -7.957  0.00  0.00    -0.266 OA
ATOM     13  H   LIG d   1       3.475  -0.408  -9.937  0.00  0.00     0.149 HD
BRANCH  11  14
ATOM     14  C   LIG d   1       3.624   2.171  -9.454  0.00  0.00     0.469 C 
ATOM     15  F   LIG d   1       4.255   3.372  -9.116  0.00  0.00    -0.162 F 
ATOM     16  F   LIG d   1       3.617   2.022 -10.845  0.00  0.00    -0.162 F 
ATOM     17  F   LIG d   1       2.307   2.187  -8.981  0.00  0.00    -0.162 F 
ENDBRANCH  11  14
ENDBRANCH   7  10
ENDBRANCH   4   7
ENDBRANCH   1   4
BRANCH   1  18
ATOM     18  C   LIG d   1       4.850  -2.218  -6.089  0.00  0.00     0.012 C 
ATOM     19  H   LIG d   1       5.876  -2.488  -5.843  0.00  0.00     0.046 H 
ATOM     20  H   LIG d   1       4.831  -1.224  -6.535  0.00  0.00     0.046 H 
BRANCH  18  21
ATOM     21  N   LIG d   1       4.039  -2.220  -4.868  0.00  0.00    -0.308 N 
ATOM     22  C   LIG d   1       4.484  -1.590  -3.762  0.00  0.00     0.317 C 
ATOM     23  O   LIG d   1       5.556  -1.023  -3.778  0.00  0.00    -0.266 OA
ATOM     24  H   LIG d   1       3.181  -2.673  -4.856  0.00  0.00     0.149 HD
BRANCH  22  25
ATOM     25  C   LIG d   1       3.650  -1.592  -2.507  0.00  0.00     0.469 C 
ATOM     26  F   LIG d   1       3.532  -2.902  -2.029  0.00  0.00    -0.162 F 
ATOM     27  F   LIG d   1       4.268  -0.796  -1.537  0.00  0.00    -0.162 F 
ATOM     28  F   LIG d   1       2.379  -1.082  -2.790  0.00  0.00    -0.162 F 
ENDBRANCH  22  25
ENDBRANCH  18  21
ENDBRANCH   1  18
TORSDOF 7
ENDMDL
MODEL 5
REMARK VINA RESULT:      -5.7      1.740      2.332
REMARK  7 active torsions:
REMARK  status: ('A' for Active; 'I' for Inactive)
REMARK    1  A    between atoms: C_1  and  C_2 
REMARK    2  A    between atoms: C_1  and  C_11 
REMARK    3  A    between atoms: C_2  and  C_3 
REMARK    4  A    between atoms: C_3  and  N_4 
REMARK       I    between atoms: N_4  and  C_5 
REMARK    5  A    between atoms: C_5  and  C_7 
REMARK    6  A    between atoms: C_11  and  N_12 
REMARK       I    between atoms: N_12  and  C_13 
REMARK    7  A    between atoms: C_13  and  C_15 
ROOT
ATOM      1  C   LIG d   1       7.331  -0.099  -5.231  0.00  0.00    -0.036 C 
ATOM      2  H   LIG d   1       8.261  -0.667  -5.221  0.00  0.00     0.028 H 
ATOM      3  H   LIG d   1       7.311   0.582  -4.380  0.00  0.00     0.028 H 
ENDROOT
BRANCH   1   4
ATOM      4  C   LIG d   1       7.238   0.706  -6.529  0.00  0.00    -0.036 C 
ATOM      5  H   LIG d   1       6.885   1.714  -6.308  0.00  0.00     0.028 H 
ATOM      6  H   LIG d   1       8.222   0.760  -6.995  0.00  0.00     0.028 H 
BRANCH   4   7
ATOM      7  C   LIG d   1       6.259   0.023  -7.485  0.00  0.00     0.012 C 
ATOM      8  H   LIG d   1       6.773  -0.233  -8.412  0.00  0.00     0.046 H 
ATOM      9  H   LIG d   1       5.873  -0.885  -7.022  0.00  0.00     0.046 H 
BRANCH   7  10
ATOM     10  N   LIG d   1       5.148   0.930  -7.778  0.00  0.00    -0.308 N 
ATOM     11  C   LIG d   1       5.109   1.591  -8.952  0.00  0.00     0.317 C 
ATOM     12  O   LIG d   1       5.995   1.434  -9.766  0.00  0.00    -0.266 OA
ATOM     13  H   LIG d   1       4.439   1.056  -7.128  0.00  0.00     0.149 HD
BRANCH  11  14
ATOM     14  C   LIG d   1       3.966   2.526  -9.254  0.00  0.00     0.469 C 
ATOM     15  F   LIG d   1       3.529   2.321 -10.567  0.00  0.00    -0.162 F 
ATOM     16  F   LIG d   1       2.913   2.276  -8.367  0.00  0.00    -0.162 F 
ATOM     17  F   LIG d   1       4.394   3.850  -9.106  0.00  0.00    -0.162 F 
ENDBRANCH  11  14
ENDBRANCH   7  10
ENDBRANCH   4   7
ENDBRANCH   1   4
BRANCH   1  18
ATOM     18  C   LIG d   1       6.143  -1.060  -5.143  0.00  0.00     0.012 C 
ATOM     19  H   LIG d   1       5.462  -0.875  -5.974  0.00  0.00     0.046 H 
ATOM     20  H   LIG d   1       6.504  -2.088  -5.191  0.00  0.00     0.046 H 
BRANCH  18  21
ATOM     21  N   LIG d   1       5.438  -0.849  -3.876  0.00  0.00    -0.308 N 
ATOM     22  C   LIG d   1       4.317  -0.102  -3.846  0.00  0.00     0.317 C 
ATOM     23  O   LIG d   1       3.892   0.396  -4.867  0.00  0.00    -0.266 OA
ATOM     24  H   LIG d   1       5.778  -1.248  -3.059  0.00  0.00     0.149 HD
BRANCH  22  25
ATOM     25  C   LIG d   1       3.592   0.115  -2.542  0.00  0.00     0.469 C 
ATOM     26  F   LIG d   1       3.377   1.485  -2.352  0.00  0.00    -0.162 F 
ATOM     27  F   LIG d   1       2.361  -0.548  -2.578  0.00  0.00    -0.162 F 
ATOM     28  F   LIG d   1       4.363  -0.387  -1.489  0.00  0.00    -0.162 F 
ENDBRANCH  22  25
ENDBRANCH  18  21
ENDBRANCH   1  18
TORSDOF 7
ENDMDL
MODEL 6
REMARK VINA RESULT:      -5.5      1.602      6.497
REMARK  7 active torsions:
REMARK  status: ('A' for Active; 'I' for Inactive)
REMARK    1  A    between atoms: C_1  and  C_2 
REMARK    2  A    between atoms: C_1  and  C_11 
REMARK    3  A    between atoms: C_2  and  C_3 
REMARK    4  A    between atoms: C_3  and  N_4 
REMARK       I    between atoms: N_4  and  C_5 
REMARK    5  A    between atoms: C_5  and  C_7 
REMARK    6  A    between atoms: C_11  and  N_12 
REMARK       I    between atoms: N_12  and  C_13 
REMARK    7  A    between atoms: C_13  and  C_15 
ROOT
ATOM      1  C   LIG d   1       7.613   1.256  -6.673  0.00  0.00    -0.036 C 
ATOM      2  H   LIG d   1       7.135   2.175  -6.334  0.00  0.00     0.028 H 
ATOM      3  H   LIG d   1       8.570   1.494  -7.137  0.00  0.00     0.028 H 
ENDROOT
BRANCH   1   4
ATOM      4  C   LIG d   1       7.844   0.331  -5.476  0.00  0.00    -0.036 C 
ATOM      5  H   LIG d   1       8.576  -0.432  -5.742  0.00  0.00     0.028 H 
ATOM      6  H   LIG d   1       8.214   0.912  -4.633  0.00  0.00     0.028 H 
BRANCH   4   7
ATOM      7  C   LIG d   1       6.525  -0.343  -5.091  0.00  0.00     0.012 C 
ATOM      8  H   LIG d   1       5.939  -0.537  -5.990  0.00  0.00     0.046 H 
ATOM      9  H   LIG d   1       6.734  -1.285  -4.583  0.00  0.00     0.046 H 
BRANCH   7  10
ATOM     10  N   LIG d   1       5.771   0.537  -4.196  0.00  0.00    -0.308 N 
ATOM     11  C   LIG d   1       4.814   0.025  -3.396  0.00  0.00     0.317 C 
ATOM     12  O   LIG d   1       4.578  -1.165  -3.417  0.00  0.00    -0.266 OA
ATOM     13  H   LIG d   1       5.959   1.488  -4.178  0.00  0.00     0.149 HD
BRANCH  11  14
ATOM     14  C   LIG d   1       4.037   0.930  -2.476  0.00  0.00     0.469 C 
ATOM     15  F   LIG d   1       3.934   2.202  -3.049  0.00  0.00    -0.162 F 
ATOM     16  F   LIG d   1       2.757   0.403  -2.276  0.00  0.00    -0.162 F 
ATOM     17  F   LIG d   1       4.699   1.026  -1.246  0.00  0.00    -0.162 F 
ENDBRANCH  11  14
ENDBRANCH   7  10
ENDBRANCH   4   7
ENDBRANCH   1   4
BRANCH   1  18
ATOM     18  C   LIG d   1       6.711   0.556  -7.692  0.00  0.00     0.012 C 
ATOM     19  H   LIG d   1       7.326   0.075  -8.452  0.00  0.00     0.046 H 
ATOM     20  H   LIG d   1       6.106  -0.195  -7.185  0.00  0.00     0.046 H 
BRANCH  18  21
ATOM     21  N   LIG d   1       5.834   1.544  -8.326  0.00  0.00    -0.308 N 
ATOM     22  C   LIG d   1       4.607   1.181  -8.750  0.00  0.00     0.317 C 
ATOM     23  O   LIG d   1       4.229   0.038  -8.607  0.00  0.00    -0.266 OA
ATOM     24  H   LIG d   1       6.136   2.459  -8.440  0.00  0.00     0.149 HD
BRANCH  22  25
ATOM     25  C   LIG d   1       3.705   2.197  -9.403  0.00  0.00     0.469 C 
ATOM     26  F   LIG d   1       3.710   2.002 -10.788  0.00  0.00    -0.162 F 
ATOM     27  F   LIG d   1       2.402   2.044  -8.916  0.00  0.00    -0.162 F 
ATOM     28  F   LIG d   1       4.164   3.486  -9.110  0.00  0.00    -0.162 F 
ENDBRANCH  22  25
ENDBRANCH  18  21
ENDBRANCH   1  18
TORSDOF 7
ENDMDL
MODEL 7
REMARK VINA RESULT:      -5.5      2.161      2.814
REMARK  7 active torsions:
REMARK  status: ('A' for Active; 'I' for Inactive)
REMARK    1  A    between atoms: C_1  and  C_2 
REMARK    2  A    between atoms: C_1  and  C_11 
REMARK    3  A    between atoms: C_2  and  C_3 
REMARK    4  A    between atoms: C_3  and  N_4 
REMARK       I    between atoms: N_4  and  C_5 
REMARK    5  A    between atoms: C_5  and  C_7 
REMARK    6  A    between atoms: C_11  and  N_12 
REMARK       I    between atoms: N_12  and  C_13 
REMARK    7  A    between atoms: C_13  and  C_15 
ROOT
ATOM      1  C   LIG d   1       8.102   0.138  -4.887  0.00  0.00    -0.036 C 
ATOM      2  H   LIG d   1       7.990  -0.945  -4.842  0.00  0.00     0.028 H 
ATOM      3  H   LIG d   1       9.151   0.402  -4.753  0.00  0.00     0.028 H 
ENDROOT
BRANCH   1   4
ATOM      4  C   LIG d   1       7.621   0.645  -6.248  0.00  0.00    -0.036 C 
ATOM      5  H   LIG d   1       7.161   1.626  -6.129  0.00  0.00     0.028 H 
ATOM      6  H   LIG d   1       8.469   0.721  -6.929  0.00  0.00     0.028 H 
BRANCH   4   7
ATOM      7  C   LIG d   1       6.593  -0.332  -6.822  0.00  0.00     0.012 C 
ATOM      8  H   LIG d   1       6.884  -0.613  -7.835  0.00  0.00     0.046 H 
ATOM      9  H   LIG d   1       6.552  -1.224  -6.197  0.00  0.00     0.046 H 
BRANCH   7  10
ATOM     10  N   LIG d   1       5.276   0.305  -6.851  0.00  0.00    -0.308 N 
ATOM     11  C   LIG d   1       4.172  -0.437  -7.068  0.00  0.00     0.317 C 
ATOM     12  O   LIG d   1       4.270  -1.635  -7.239  0.00  0.00    -0.266 OA
ATOM     13  H   LIG d   1       5.196   1.262  -6.713  0.00  0.00     0.149 HD
BRANCH  11  14
ATOM     14  C   LIG d   1       2.815   0.218  -7.097  0.00  0.00     0.469 C 
ATOM     15  F   LIG d   1       2.248   0.174  -5.820  0.00  0.00    -0.162 F 
ATOM     16  F   LIG d   1       2.951   1.551  -7.502  0.00  0.00    -0.162 F 
ATOM     17  F   LIG d   1       1.988  -0.460  -7.999  0.00  0.00    -0.162 F 
ENDBRANCH  11  14
ENDBRANCH   7  10
ENDBRANCH   4   7
ENDBRANCH   1   4
BRANCH   1  18
ATOM     18  C   LIG d   1       7.268   0.785  -3.779  0.00  0.00     0.012 C 
ATOM     19  H   LIG d   1       7.931   1.218  -3.030  0.00  0.00     0.046 H 
ATOM     20  H   LIG d   1       6.642   1.568  -4.206  0.00  0.00     0.046 H 
BRANCH  18  21
ATOM     21  N   LIG d   1       6.419  -0.231  -3.152  0.00  0.00    -0.308 N 
ATOM     22  C   LIG d   1       5.077  -0.127  -3.225  0.00  0.00     0.317 C 
ATOM     23  O   LIG d   1       4.573   0.808  -3.810  0.00  0.00    -0.266 OA
ATOM     24  H   LIG d   1       6.823  -0.980  -2.684  0.00  0.00     0.149 HD
BRANCH  22  25
ATOM     25  C   LIG d   1       4.204  -1.172  -2.579  0.00  0.00     0.469 C 
ATOM     26  F   LIG d   1       4.558  -2.437  -3.062  0.00  0.00    -0.162 F 
ATOM     27  F   LIG d   1       4.384  -1.136  -1.192  0.00  0.00    -0.162 F 
ATOM     28  F   LIG d   1       2.864  -0.914  -2.884  0.00  0.00    -0.162 F 
ENDBRANCH  22  25
ENDBRANCH  18  21
ENDBRANCH   1  18
TORSDOF 7
ENDMDL
MODEL 8
REMARK VINA RESULT:      -5.5      2.217      2.814
REMARK  7 active torsions:
REMARK  status: ('A' for Active; 'I' for Inactive)
REMARK    1  A    between atoms: C_1  and  C_2 
REMARK    2  A    between atoms: C_1  and  C_11 
REMARK    3  A    between atoms: C_2  and  C_3 
REMARK    4  A    between atoms: C_3  and  N_4 
REMARK       I    between atoms: N_4  and  C_5 
REMARK    5  A    between atoms: C_5  and  C_7 
REMARK    6  A    between atoms: C_11  and  N_12 
REMARK       I    between atoms: N_12  and  C_13 
REMARK    7  A    between atoms: C_13  and  C_15 
ROOT
ATOM      1  C   LIG d   1       5.828  -2.478  -4.859  0.00  0.00    -0.036 C 
ATOM      2  H   LIG d   1       4.886  -2.006  -5.139  0.00  0.00     0.028 H 
ATOM      3  H   LIG d   1       5.669  -3.546  -4.710  0.00  0.00     0.028 H 
ENDROOT
BRANCH   1   4
ATOM      4  C   LIG d   1       6.856  -2.265  -5.973  0.00  0.00    -0.036 C 
ATOM      5  H   LIG d   1       7.633  -1.585  -5.625  0.00  0.00     0.028 H 
ATOM      6  H   LIG d   1       7.303  -3.222  -6.241  0.00  0.00     0.028 H 
BRANCH   4   7
ATOM      7  C   LIG d   1       6.164  -1.665  -7.198  0.00  0.00     0.012 C 
ATOM      8  H   LIG d   1       6.712  -0.781  -7.528  0.00  0.00     0.046 H 
ATOM      9  H   LIG d   1       6.144  -2.401  -8.001  0.00  0.00     0.046 H 
BRANCH   7  10
ATOM     10  N   LIG d   1       4.793  -1.287  -6.848  0.00  0.00    -0.308 N 
ATOM     11  C   LIG d   1       4.328  -0.063  -7.170  0.00  0.00     0.317 C 
ATOM     12  O   LIG d   1       5.046   0.725  -7.750  0.00  0.00    -0.266 OA
ATOM     13  H   LIG d   1       4.219  -1.917  -6.386  0.00  0.00     0.149 HD
BRANCH  11  14
ATOM     14  C   LIG d   1       2.917   0.326  -6.811  0.00  0.00     0.469 C 
ATOM     15  F   LIG d   1       2.020  -0.365  -7.631  0.00  0.00    -0.162 F 
ATOM     16  F   LIG d   1       2.672   0.002  -5.472  0.00  0.00    -0.162 F 
ATOM     17  F   LIG d   1       2.752   1.703  -6.995  0.00  0.00    -0.162 F 
ENDBRANCH  11  14
ENDBRANCH   7  10
ENDBRANCH   4   7
ENDBRANCH   1   4
BRANCH   1  18
ATOM     18  C   LIG d   1       6.346  -1.854  -3.561  0.00  0.00     0.012 C 
ATOM     19  H   LIG d   1       6.717  -2.639  -2.903  0.00  0.00     0.046 H 
ATOM     20  H   LIG d   1       7.155  -1.160  -3.790  0.00  0.00     0.046 H 
BRANCH  18  21
ATOM     21  N   LIG d   1       5.257  -1.132  -2.898  0.00  0.00    -0.308 N 
ATOM     22  C   LIG d   1       5.042   0.169  -3.177  0.00  0.00     0.317 C 
ATOM     23  O   LIG d   1       5.751   0.742  -3.977  0.00  0.00    -0.266 OA
ATOM     24  H   LIG d   1       4.690  -1.591  -2.258  0.00  0.00     0.149 HD
BRANCH  22  25
ATOM     25  C   LIG d   1       3.922   0.911  -2.494  0.00  0.00     0.469 C 
ATOM     26  F   LIG d   1       4.326   1.278  -1.205  0.00  0.00    -0.162 F 
ATOM     27  F   LIG d   1       3.608   2.059  -3.229  0.00  0.00    -0.162 F 
ATOM     28  F   LIG d   1       2.796   0.085  -2.413  0.00  0.00    -0.162 F 
ENDBRANCH  22  25
ENDBRANCH  18  21
ENDBRANCH   1  18
TORSDOF 7
ENDMDL
MODEL 9
REMARK VINA RESULT:      -5.5      1.477      6.572
REMARK  7 active torsions:
REMARK  status: ('A' for Active; 'I' for Inactive)
REMARK    1  A    between atoms: C_1  and  C_2 
REMARK    2  A    between atoms: C_1  and  C_11 
REMARK    3  A    between atoms: C_2  and  C_3 
REMARK    4  A    between atoms: C_3  and  N_4 
REMARK       I    between atoms: N_4  and  C_5 
REMARK    5  A    between atoms: C_5  and  C_7 
REMARK    6  A    between atoms: C_11  and  N_12 
REMARK       I    between atoms: N_12  and  C_13 
REMARK    7  A    between atoms: C_13  and  C_15 
ROOT
ATOM      1  C   LIG d   1       5.052  -1.318  -6.323  0.00  0.00    -0.036 C 
ATOM      2  H   LIG d   1       5.040  -0.493  -5.610  0.00  0.00     0.028 H 
ATOM      3  H   LIG d   1       6.038  -1.388  -6.782  0.00  0.00     0.028 H 
ENDROOT
BRANCH   1   4
ATOM      4  C   LIG d   1       4.734  -2.626  -5.595  0.00  0.00    -0.036 C 
ATOM      5  H   LIG d   1       3.741  -2.970  -5.884  0.00  0.00     0.028 H 
ATOM      6  H   LIG d   1       5.473  -3.380  -5.864  0.00  0.00     0.028 H 
BRANCH   4   7
ATOM      7  C   LIG d   1       4.772  -2.391  -4.084  0.00  0.00     0.012 C 
ATOM      8  H   LIG d   1       3.885  -2.830  -3.625  0.00  0.00     0.046 H 
ATOM      9  H   LIG d   1       5.665  -2.858  -3.667  0.00  0.00     0.046 H 
BRANCH   7  10
ATOM     10  N   LIG d   1       4.801  -0.953  -3.813  0.00  0.00    -0.308 N 
ATOM     11  C   LIG d   1       4.576  -0.497  -2.565  0.00  0.00     0.317 C 
ATOM     12  O   LIG d   1       4.349  -1.279  -1.665  0.00  0.00    -0.266 OA
ATOM     13  H   LIG d   1       4.983  -0.327  -4.532  0.00  0.00     0.149 HD
BRANCH  11  14
ATOM     14  C   LIG d   1       4.605   0.984  -2.286  0.00  0.00     0.469 C 
ATOM     15  F   LIG d   1       5.699   1.560  -2.940  0.00  0.00    -0.162 F 
ATOM     16  F   LIG d   1       3.422   1.569  -2.750  0.00  0.00    -0.162 F 
ATOM     17  F   LIG d   1       4.721   1.197  -0.908  0.00  0.00    -0.162 F 
ENDBRANCH  11  14
ENDBRANCH   7  10
ENDBRANCH   4   7
ENDBRANCH   1   4
BRANCH   1  18
ATOM     18  C   LIG d   1       4.001  -1.070  -7.407  0.00  0.00     0.012 C 
ATOM     19  H   LIG d   1       3.781  -2.006  -7.921  0.00  0.00     0.046 H 
ATOM     20  H   LIG d   1       3.091  -0.683  -6.949  0.00  0.00     0.046 H 
BRANCH  18  21
ATOM     21  N   LIG d   1       4.515  -0.093  -8.370  0.00  0.00    -0.308 N 
ATOM     22  C   LIG d   1       4.012   1.157  -8.397  0.00  0.00     0.317 C 
ATOM     23  O   LIG d   1       3.133   1.473  -7.624  0.00  0.00    -0.266 OA
ATOM     24  H   LIG d   1       5.220  -0.345  -8.989  0.00  0.00     0.149 HD
BRANCH  22  25
ATOM     25  C   LIG d   1       4.541   2.162  -9.388  0.00  0.00     0.469 C 
ATOM     26  F   LIG d   1       4.154   1.789 -10.680  0.00  0.00    -0.162 F 
ATOM     27  F   LIG d   1       4.020   3.426  -9.092  0.00  0.00    -0.162 F 
ATOM     28  F   LIG d   1       5.937   2.202  -9.312  0.00  0.00    -0.162 F 
ENDBRANCH  22  25
ENDBRANCH  18  21
ENDBRANCH   1  18
TORSDOF 7
ENDMDL
MODEL 10
REMARK VINA RESULT:      -5.1      2.014      6.857
REMARK  7 active torsions:
REMARK  status: ('A' for Active; 'I' for Inactive)
REMARK    1  A    between atoms: C_1  and  C_2 
REMARK    2  A    between atoms: C_1  and  C_11 
REMARK    3  A    between atoms: C_2  and  C_3 
REMARK    4  A    between atoms: C_3  and  N_4 
REMARK       I    between atoms: N_4  and  C_5 
REMARK    5  A    between atoms: C_5  and  C_7 
REMARK    6  A    between atoms: C_11  and  N_12 
REMARK       I    between atoms: N_12  and  C_13 
REMARK    7  A    between atoms: C_13  and  C_15 
ROOT
ATOM      1  C   LIG d   1       3.840  -2.677  -8.118  0.00  0.00    -0.036 C 
ATOM      2  H   LIG d   1       4.206  -3.666  -8.394  0.00  0.00     0.028 H 
ATOM      3  H   LIG d   1       2.813  -2.756  -7.760  0.00  0.00     0.028 H 
ENDROOT
BRANCH   1   4
ATOM      4  C   LIG d   1       4.722  -2.097  -7.010  0.00  0.00    -0.036 C 
ATOM      5  H   LIG d   1       5.750  -2.020  -7.366  0.00  0.00     0.028 H 
ATOM      6  H   LIG d   1       4.358  -1.107  -6.736  0.00  0.00     0.028 H 
BRANCH   4   7
ATOM      7  C   LIG d   1       4.674  -3.014  -5.787  0.00  0.00     0.012 C 
ATOM      8  H   LIG d   1       4.143  -3.933  -6.041  0.00  0.00     0.046 H 
ATOM      9  H   LIG d   1       5.690  -3.256  -5.475  0.00  0.00     0.046 H 
BRANCH   7  10
ATOM     10  N   LIG d   1       3.977  -2.334  -4.694  0.00  0.00    -0.308 N 
ATOM     11  C   LIG d   1       4.672  -1.865  -3.639  0.00  0.00     0.317 C 
ATOM     12  O   LIG d   1       5.877  -2.006  -3.595  0.00  0.00    -0.266 OA
ATOM     13  H   LIG d   1       3.014  -2.220  -4.728  0.00  0.00     0.149 HD
BRANCH  11  14
ATOM     14  C   LIG d   1       3.955  -1.165  -2.513  0.00  0.00     0.469 C 
ATOM     15  F   LIG d   1       4.180   0.213  -2.602  0.00  0.00    -0.162 F 
ATOM     16  F   LIG d   1       2.583  -1.421  -2.605  0.00  0.00    -0.162 F 
ATOM     17  F   LIG d   1       4.436  -1.638  -1.288  0.00  0.00    -0.162 F 
ENDBRANCH  11  14
ENDBRANCH   7  10
ENDBRANCH   4   7
ENDBRANCH   1   4
BRANCH   1  18
ATOM     18  C   LIG d   1       3.885  -1.756  -9.339  0.00  0.00     0.012 C 
ATOM     19  H   LIG d   1       4.751  -2.006  -9.952  0.00  0.00     0.046 H 
ATOM     20  H   LIG d   1       2.975  -1.885  -9.925  0.00  0.00     0.046 H 
BRANCH  18  21
ATOM     21  N   LIG d   1       3.986  -0.363  -8.896  0.00  0.00    -0.308 N 
ATOM     22  C   LIG d   1       3.573   0.633  -9.705  0.00  0.00     0.317 C 
ATOM     23  O   LIG d   1       3.118   0.376 -10.799  0.00  0.00    -0.266 OA
ATOM     24  H   LIG d   1       4.350  -0.158  -8.020  0.00  0.00     0.149 HD
BRANCH  22  25
ATOM     25  C   LIG d   1       3.678   2.066  -9.249  0.00  0.00     0.469 C 
ATOM     26  F   LIG d   1       2.793   2.282  -8.187  0.00  0.00    -0.162 F 
ATOM     27  F   LIG d   1       4.986   2.325  -8.826  0.00  0.00    -0.162 F 
ATOM     28  F   LIG d   1       3.352   2.918 -10.310  0.00  0.00    -0.162 F 
ENDBRANCH  22  25
ENDBRANCH  18  21
ENDBRANCH   1  18
TORSDOF 7
ENDMDL
