MODEL 1
REMARK VINA RESULT:      -7.7      0.000      0.000
REMARK  7 active torsions:
REMARK  status: ('A' for Active; 'I' for Inactive)
REMARK    1  A    between atoms: C_1  and  C_2 
REMARK    2  A    between atoms: C_7  and  C_35 
REMARK    3  A    between atoms: C_18  and  C_20 
REMARK    4  A    between atoms: C_20  and  N_66 
REMARK    5  A    between atoms: C_21  and  N_66 
REMARK    6  A    between atoms: C_27  and  C_29 
REMARK    7  A    between atoms: C_29  and  C_30 
ROOT
ATOM      1  C   LIG d   1       3.109   0.256  -3.658  0.00  0.00    -0.022 C 
ATOM      2  H   LIG d   1       2.292   0.638  -4.307  0.00  0.00     0.034 H 
ATOM      3  C   LIG d   1       3.665   1.439  -2.865  0.00  0.00    -0.047 C 
ATOM      4  C   LIG d   1       5.012   1.120  -2.228  0.00  0.00    -0.052 C 
ATOM      5  C   LIG d   1       6.045   0.732  -3.286  0.00  0.00    -0.044 C 
ATOM      6  C   LIG d   1       5.575  -0.503  -4.042  0.00  0.00    -0.007 C 
ATOM      7  C   LIG d   1       4.193  -0.287  -4.566  0.00  0.00    -0.064 C 
ATOM      8  C   LIG d   1       3.872  -0.506  -5.810  0.00  0.00    -0.076 C 
ATOM      9  C   LIG d   1       4.833  -0.800  -6.889  0.00  0.00     0.032 C 
ATOM     10  H   LIG d   1       4.578  -0.209  -7.766  0.00  0.00     0.039 H 
ATOM     11  C   LIG d   1       6.290  -0.496  -6.503  0.00  0.00     0.111 C 
ATOM     12  H   LIG d   1       6.535   0.556  -6.642  0.00  0.00     0.074 H 
ATOM     13  C   LIG d   1       6.568  -0.970  -5.082  0.00  0.00    -0.006 C 
ATOM     14  O   LIG d   1       7.065  -1.371  -7.392  0.00  0.00    -0.460 OA
ATOM     15  C   LIG d   1       6.331  -2.412  -7.811  0.00  0.00     0.316 C 
ATOM     16  O   LIG d   1       6.736  -3.327  -8.499  0.00  0.00    -0.250 OA
ATOM     17  C   LIG d   1       4.908  -2.278  -7.296  0.00  0.00     0.106 C 
ATOM     18  H   LIG d   1       4.744  -2.927  -6.438  0.00  0.00     0.047 H 
ATOM     19  H   LIG d   1       3.783   2.299  -3.531  0.00  0.00     0.027 H 
ATOM     20  H   LIG d   1       2.955   1.711  -2.077  0.00  0.00     0.027 H 
ATOM     21  H   LIG d   1       5.370   2.020  -1.710  0.00  0.00     0.027 H 
ATOM     22  H   LIG d   1       4.901   0.339  -1.483  0.00  0.00     0.027 H 
ATOM     23  H   LIG d   1       7.003   0.522  -2.805  0.00  0.00     0.027 H 
ATOM     24  H   LIG d   1       6.176   1.558  -3.992  0.00  0.00     0.027 H 
ATOM     25  H   LIG d   1       2.833  -0.393  -6.073  0.00  0.00     0.058 H 
ATOM     26  H   LIG d   1       7.559  -0.620  -4.782  0.00  0.00     0.031 H 
ATOM     27  H   LIG d   1       6.580  -2.062  -5.068  0.00  0.00     0.031 H 
ENDROOT
BRANCH  17  28
ATOM     28  C   LIG d   1       3.903  -2.585  -8.407  0.00  0.00    -0.019 C 
ATOM     29  H   LIG d   1       3.694  -3.655  -8.421  0.00  0.00     0.082 H 
ATOM     30  H   LIG d   1       2.978  -2.037  -8.223  0.00  0.00     0.082 H 
BRANCH  28  31
ATOM     31  N   LIG d   1       4.474  -2.174  -9.703  0.00  0.00     0.230 N 
ATOM     32  H   LIG d   1       5.347  -2.689  -9.867  0.00  0.00     0.202 HD
ATOM     33  H   LIG d   1       4.670  -1.166  -9.682  0.00  0.00     0.202 HD
BRANCH  31  34
ATOM     34  C   LIG d   1       3.526  -2.463 -10.795  0.00  0.00    -0.019 C 
ATOM     35  H   LIG d   1       4.074  -2.730 -11.698  0.00  0.00     0.085 H 
ATOM     36  C   LIG d   1       2.675  -1.220 -11.063  0.00  0.00     0.009 C 
ATOM     37  C   LIG d   1       1.685  -1.514 -12.192  0.00  0.00    -0.045 C 
ATOM     38  H   LIG d   1       2.126  -0.954 -10.159  0.00  0.00     0.036 H 
ATOM     39  C   LIG d   1       0.776  -2.675 -11.786  0.00  0.00    -0.052 C 
ATOM     40  H   LIG d   1       1.078  -0.627 -12.382  0.00  0.00     0.027 H 
ATOM     41  H   LIG d   1       2.233  -1.779 -13.096  0.00  0.00     0.027 H 
ATOM     42  C   LIG d   1       1.628  -3.918 -11.518  0.00  0.00    -0.048 C 
ATOM     43  H   LIG d   1       0.228  -2.410 -10.882  0.00  0.00     0.026 H 
ATOM     44  H   LIG d   1       0.072  -2.884 -12.590  0.00  0.00     0.026 H 
ATOM     45  C   LIG d   1       2.618  -3.626 -10.389  0.00  0.00    -0.009 C 
ATOM     46  H   LIG d   1       0.981  -4.747 -11.229  0.00  0.00     0.027 H 
ATOM     47  H   LIG d   1       2.176  -4.185 -12.422  0.00  0.00     0.027 H 
ATOM     48  H   LIG d   1       3.224  -4.512 -10.199  0.00  0.00     0.032 H 
ATOM     49  H   LIG d   1       2.069  -3.359  -9.485  0.00  0.00     0.032 H 
BRANCH  36  50
ATOM     50  C   LIG d   1       3.582  -0.058 -11.469  0.00  0.00     0.013 C 
ATOM     51  H   LIG d   1       4.599  -0.424 -11.612  0.00  0.00     0.035 H 
ATOM     52  H   LIG d   1       3.219   0.379 -12.399  0.00  0.00     0.035 H 
BRANCH  50  53
ATOM     53  C   LIG d   1       3.574   0.989 -10.385  0.00  0.00     0.105 A 
ATOM     54  O   LIG d   1       4.407   2.039 -10.302  0.00  0.00    -0.468 OA
ATOM     55  C   LIG d   1       4.110   2.761  -9.209  0.00  0.00     0.092 A 
ATOM     56  C   LIG d   1       3.075   2.175  -8.580  0.00  0.00    -0.024 A 
ATOM     57  H   LIG d   1       4.615   3.661  -8.889  0.00  0.00     0.103 H 
ATOM     58  C   LIG d   1       2.726   1.035  -9.341  0.00  0.00    -0.021 A 
ATOM     59  H   LIG d   1       2.599   2.511  -7.671  0.00  0.00     0.065 H 
ATOM     60  H   LIG d   1       1.933   0.335  -9.125  0.00  0.00     0.065 H 
ENDBRANCH  50  53
ENDBRANCH  36  50
ENDBRANCH  31  34
ENDBRANCH  28  31
ENDBRANCH  17  28
BRANCH   1  61
ATOM     61  C   LIG d   1       2.507  -0.805  -2.746  0.00  0.00    -0.059 C 
ATOM     62  H   LIG d   1       2.263  -1.692  -3.332  0.00  0.00     0.024 H 
ATOM     63  H   LIG d   1       3.225  -1.069  -1.970  0.00  0.00     0.024 H 
ATOM     64  H   LIG d   1       1.600  -0.416  -2.284  0.00  0.00     0.024 H 
ENDBRANCH   1  61
BRANCH   6  65
ATOM     65  C   LIG d   1       5.535  -1.655  -3.029  0.00  0.00    -0.056 C 
ATOM     66  H   LIG d   1       5.887  -1.301  -2.060  0.00  0.00     0.024 H 
ATOM     67  H   LIG d   1       6.178  -2.466  -3.375  0.00  0.00     0.024 H 
ATOM     68  H   LIG d   1       4.512  -2.020  -2.933  0.00  0.00     0.024 H 
ENDBRANCH   6  65
TORSDOF 7
ENDMDL
MODEL 2
REMARK VINA RESULT:      -7.5      1.857      7.448
REMARK  7 active torsions:
REMARK  status: ('A' for Active; 'I' for Inactive)
REMARK    1  A    between atoms: C_1  and  C_2 
REMARK    2  A    between atoms: C_7  and  C_35 
REMARK    3  A    between atoms: C_18  and  C_20 
REMARK    4  A    between atoms: C_20  and  N_66 
REMARK    5  A    between atoms: C_21  and  N_66 
REMARK    6  A    between atoms: C_27  and  C_29 
REMARK    7  A    between atoms: C_29  and  C_30 
ROOT
ATOM      1  C   LIG d   1       2.302  -3.975 -10.545  0.00  0.00    -0.022 C 
ATOM      2  H   LIG d   1       2.789  -4.532  -9.716  0.00  0.00     0.034 H 
ATOM      3  C   LIG d   1       2.938  -4.441 -11.855  0.00  0.00    -0.047 C 
ATOM      4  C   LIG d   1       2.625  -3.499 -13.011  0.00  0.00    -0.052 C 
ATOM      5  C   LIG d   1       3.120  -2.083 -12.721  0.00  0.00    -0.044 C 
ATOM      6  C   LIG d   1       2.441  -1.540 -11.471  0.00  0.00    -0.007 C 
ATOM      7  C   LIG d   1       2.602  -2.505 -10.341  0.00  0.00    -0.064 C 
ATOM      8  C   LIG d   1       3.041  -2.144  -9.169  0.00  0.00    -0.076 C 
ATOM      9  C   LIG d   1       3.609  -0.821  -8.852  0.00  0.00     0.032 C 
ATOM     10  H   LIG d   1       4.513  -0.952  -8.260  0.00  0.00     0.039 H 
ATOM     11  C   LIG d   1       3.960   0.004 -10.101  0.00  0.00     0.111 C 
ATOM     12  H   LIG d   1       4.937  -0.262 -10.502  0.00  0.00     0.074 H 
ATOM     13  C   LIG d   1       2.855  -0.124 -11.143  0.00  0.00    -0.006 C 
ATOM     14  O   LIG d   1       3.914   1.390  -9.616  0.00  0.00    -0.460 OA
ATOM     15  C   LIG d   1       3.146   1.496  -8.521  0.00  0.00     0.316 C 
ATOM     16  O   LIG d   1       2.878   2.534  -7.950  0.00  0.00    -0.250 OA
ATOM     17  C   LIG d   1       2.660   0.120  -8.098  0.00  0.00     0.106 C 
ATOM     18  H   LIG d   1       1.629  -0.037  -8.407  0.00  0.00     0.047 H 
ATOM     19  H   LIG d   1       4.024  -4.499 -11.730  0.00  0.00     0.027 H 
ATOM     20  H   LIG d   1       2.568  -5.441 -12.101  0.00  0.00     0.027 H 
ATOM     21  H   LIG d   1       3.141  -3.869 -13.907  0.00  0.00     0.027 H 
ATOM     22  H   LIG d   1       1.560  -3.506 -13.224  0.00  0.00     0.027 H 
ATOM     23  H   LIG d   1       2.895  -1.432 -13.568  0.00  0.00     0.027 H 
ATOM     24  H   LIG d   1       4.204  -2.097 -12.563  0.00  0.00     0.027 H 
ATOM     25  H   LIG d   1       3.050  -2.898  -8.398  0.00  0.00     0.058 H 
ATOM     26  H   LIG d   1       3.187   0.353 -12.069  0.00  0.00     0.031 H 
ATOM     27  H   LIG d   1       1.970   0.411 -10.790  0.00  0.00     0.031 H 
ENDROOT
BRANCH  17  28
ATOM     28  C   LIG d   1       2.806  -0.060  -6.586  0.00  0.00    -0.019 C 
ATOM     29  H   LIG d   1       2.204   0.690  -6.072  0.00  0.00     0.082 H 
ATOM     30  H   LIG d   1       2.464  -1.055  -6.304  0.00  0.00     0.082 H 
BRANCH  28  31
ATOM     31  N   LIG d   1       4.224   0.103  -6.214  0.00  0.00     0.230 N 
ATOM     32  H   LIG d   1       4.484   1.093  -6.295  0.00  0.00     0.202 HD
ATOM     33  H   LIG d   1       4.806  -0.457  -6.850  0.00  0.00     0.202 HD
BRANCH  31  34
ATOM     34  C   LIG d   1       4.445  -0.348  -4.827  0.00  0.00    -0.019 C 
ATOM     35  H   LIG d   1       5.403   0.025  -4.467  0.00  0.00     0.085 H 
ATOM     36  C   LIG d   1       4.445  -1.877  -4.791  0.00  0.00     0.009 C 
ATOM     37  C   LIG d   1       4.669  -2.353  -3.354  0.00  0.00    -0.045 C 
ATOM     38  H   LIG d   1       3.486  -2.250  -5.152  0.00  0.00     0.036 H 
ATOM     39  C   LIG d   1       3.547  -1.823  -2.460  0.00  0.00    -0.052 C 
ATOM     40  H   LIG d   1       4.669  -3.444  -3.329  0.00  0.00     0.027 H 
ATOM     41  H   LIG d   1       5.628  -1.981  -2.993  0.00  0.00     0.027 H 
ATOM     42  C   LIG d   1       3.546  -0.293  -2.497  0.00  0.00    -0.048 C 
ATOM     43  H   LIG d   1       2.588  -2.195  -2.821  0.00  0.00     0.026 H 
ATOM     44  H   LIG d   1       3.707  -2.162  -1.437  0.00  0.00     0.026 H 
ATOM     45  C   LIG d   1       3.322   0.183  -3.934  0.00  0.00    -0.009 C 
ATOM     46  H   LIG d   1       2.746   0.085  -1.859  0.00  0.00     0.027 H 
ATOM     47  H   LIG d   1       4.505   0.079  -2.136  0.00  0.00     0.027 H 
ATOM     48  H   LIG d   1       3.321   1.273  -3.959  0.00  0.00     0.032 H 
ATOM     49  H   LIG d   1       2.364  -0.190  -4.294  0.00  0.00     0.032 H 
BRANCH  36  50
ATOM     50  C   LIG d   1       5.567  -2.408  -5.685  0.00  0.00     0.013 C 
ATOM     51  H   LIG d   1       5.885  -1.625  -6.373  0.00  0.00     0.035 H 
ATOM     52  H   LIG d   1       6.412  -2.713  -5.066  0.00  0.00     0.035 H 
BRANCH  50  53
ATOM     53  C   LIG d   1       5.067  -3.593  -6.471  0.00  0.00     0.105 A 
ATOM     54  O   LIG d   1       3.951  -4.293  -6.210  0.00  0.00    -0.468 OA
ATOM     55  C   LIG d   1       3.818  -5.277  -7.115  0.00  0.00     0.092 A 
ATOM     56  C   LIG d   1       4.856  -5.213  -7.969  0.00  0.00    -0.024 A 
ATOM     57  H   LIG d   1       3.014  -5.997  -7.151  0.00  0.00     0.103 H 
ATOM     58  C   LIG d   1       5.658  -4.124  -7.557  0.00  0.00    -0.021 A 
ATOM     59  H   LIG d   1       5.040  -5.865  -8.810  0.00  0.00     0.065 H 
ATOM     60  H   LIG d   1       6.572  -3.784  -8.023  0.00  0.00     0.065 H 
ENDBRANCH  50  53
ENDBRANCH  36  50
ENDBRANCH  31  34
ENDBRANCH  28  31
ENDBRANCH  17  28
BRANCH   1  61
ATOM     61  C   LIG d   1       0.813  -4.294 -10.493  0.00  0.00    -0.059 C 
ATOM     62  H   LIG d   1       0.240  -3.388 -10.697  0.00  0.00     0.024 H 
ATOM     63  H   LIG d   1       0.576  -5.049 -11.242  0.00  0.00     0.024 H 
ATOM     64  H   LIG d   1       0.556  -4.670  -9.503  0.00  0.00     0.024 H 
ENDBRANCH   1  61
BRANCH   6  65
ATOM     65  C   LIG d   1       0.945  -1.420 -11.796  0.00  0.00    -0.056 C 
ATOM     66  H   LIG d   1       0.598  -2.343 -12.259  0.00  0.00     0.024 H 
ATOM     67  H   LIG d   1       0.788  -0.587 -12.483  0.00  0.00     0.024 H 
ATOM     68  H   LIG d   1       0.387  -1.242 -10.877  0.00  0.00     0.024 H 
ENDBRANCH   6  65
TORSDOF 7
ENDMDL
MODEL 3
REMARK VINA RESULT:      -7.3      1.717      2.142
REMARK  7 active torsions:
REMARK  status: ('A' for Active; 'I' for Inactive)
REMARK    1  A    between atoms: C_1  and  C_2 
REMARK    2  A    between atoms: C_7  and  C_35 
REMARK    3  A    between atoms: C_18  and  C_20 
REMARK    4  A    between atoms: C_20  and  N_66 
REMARK    5  A    between atoms: C_21  and  N_66 
REMARK    6  A    between atoms: C_27  and  C_29 
REMARK    7  A    between atoms: C_29  and  C_30 
ROOT
ATOM      1  C   LIG d   1       3.076   0.069  -4.243  0.00  0.00    -0.022 C 
ATOM      2  H   LIG d   1       2.821   0.238  -5.312  0.00  0.00     0.034 H 
ATOM      3  C   LIG d   1       3.365   1.432  -3.613  0.00  0.00    -0.047 C 
ATOM      4  C   LIG d   1       4.078   1.304  -2.273  0.00  0.00    -0.052 C 
ATOM      5  C   LIG d   1       5.405   0.560  -2.421  0.00  0.00    -0.044 C 
ATOM      6  C   LIG d   1       5.157  -0.842  -2.960  0.00  0.00    -0.007 C 
ATOM      7  C   LIG d   1       4.334  -0.773  -4.205  0.00  0.00    -0.064 C 
ATOM      8  C   LIG d   1       4.676  -1.382  -5.306  0.00  0.00    -0.076 C 
ATOM      9  C   LIG d   1       5.974  -2.042  -5.536  0.00  0.00     0.032 C 
ATOM     10  H   LIG d   1       6.345  -1.768  -6.521  0.00  0.00     0.039 H 
ATOM     11  C   LIG d   1       7.038  -1.668  -4.492  0.00  0.00     0.111 C 
ATOM     12  H   LIG d   1       7.532  -0.728  -4.735  0.00  0.00     0.074 H 
ATOM     13  C   LIG d   1       6.425  -1.653  -3.096  0.00  0.00    -0.006 C 
ATOM     14  O   LIG d   1       7.963  -2.809  -4.526  0.00  0.00    -0.460 OA
ATOM     15  C   LIG d   1       7.359  -3.909  -5.000  0.00  0.00     0.316 C 
ATOM     16  O   LIG d   1       7.865  -5.011  -5.075  0.00  0.00    -0.250 OA
ATOM     17  C   LIG d   1       5.942  -3.573  -5.431  0.00  0.00     0.106 C 
ATOM     18  H   LIG d   1       5.223  -3.897  -4.682  0.00  0.00     0.047 H 
ATOM     19  H   LIG d   1       3.990   2.020  -4.292  0.00  0.00     0.027 H 
ATOM     20  H   LIG d   1       2.422   1.968  -3.465  0.00  0.00     0.027 H 
ATOM     21  H   LIG d   1       4.288   2.315  -1.897  0.00  0.00     0.027 H 
ATOM     22  H   LIG d   1       3.433   0.817  -1.549  0.00  0.00     0.027 H 
ATOM     23  H   LIG d   1       5.901   0.494  -1.450  0.00  0.00     0.027 H 
ATOM     24  H   LIG d   1       6.055   1.102  -3.115  0.00  0.00     0.027 H 
ATOM     25  H   LIG d   1       3.978  -1.334  -6.127  0.00  0.00     0.058 H 
ATOM     26  H   LIG d   1       7.159  -1.252  -2.393  0.00  0.00     0.031 H 
ATOM     27  H   LIG d   1       6.201  -2.680  -2.796  0.00  0.00     0.031 H 
ENDROOT
BRANCH  17  28
ATOM     28  C   LIG d   1       5.630  -4.202  -6.790  0.00  0.00    -0.019 C 
ATOM     29  H   LIG d   1       6.175  -5.142  -6.888  0.00  0.00     0.082 H 
ATOM     30  H   LIG d   1       4.560  -4.394  -6.865  0.00  0.00     0.082 H 
BRANCH  28  31
ATOM     31  N   LIG d   1       6.046  -3.275  -7.859  0.00  0.00     0.230 N 
ATOM     32  H   LIG d   1       6.965  -3.559  -8.217  0.00  0.00     0.202 HD
ATOM     33  H   LIG d   1       6.106  -2.323  -7.477  0.00  0.00     0.202 HD
BRANCH  31  34
ATOM     34  C   LIG d   1       5.067  -3.295  -8.962  0.00  0.00    -0.019 C 
ATOM     35  H   LIG d   1       5.588  -3.381  -9.916  0.00  0.00     0.085 H 
ATOM     36  C   LIG d   1       4.257  -1.997  -8.938  0.00  0.00     0.009 C 
ATOM     37  C   LIG d   1       3.236  -2.012 -10.078  0.00  0.00    -0.045 C 
ATOM     38  H   LIG d   1       3.735  -1.912  -7.985  0.00  0.00     0.036 H 
ATOM     39  C   LIG d   1       2.293  -3.204  -9.903  0.00  0.00    -0.052 C 
ATOM     40  H   LIG d   1       2.658  -1.087 -10.060  0.00  0.00     0.027 H 
ATOM     41  H   LIG d   1       3.756  -2.097 -11.031  0.00  0.00     0.027 H 
ATOM     42  C   LIG d   1       3.103  -4.502  -9.927  0.00  0.00    -0.048 C 
ATOM     43  H   LIG d   1       1.772  -3.119  -8.949  0.00  0.00     0.026 H 
ATOM     44  H   LIG d   1       1.566  -3.215 -10.714  0.00  0.00     0.026 H 
ATOM     45  C   LIG d   1       4.124  -4.488  -8.787  0.00  0.00    -0.009 C 
ATOM     46  H   LIG d   1       2.431  -5.352  -9.802  0.00  0.00     0.027 H 
ATOM     47  H   LIG d   1       3.624  -4.588 -10.880  0.00  0.00     0.027 H 
ATOM     48  H   LIG d   1       4.701  -5.413  -8.805  0.00  0.00     0.032 H 
ATOM     49  H   LIG d   1       3.603  -4.402  -7.834  0.00  0.00     0.032 H 
BRANCH  36  50
ATOM     50  C   LIG d   1       5.199  -0.805  -9.113  0.00  0.00     0.013 C 
ATOM     51  H   LIG d   1       5.917  -0.787  -8.294  0.00  0.00     0.035 H 
ATOM     52  H   LIG d   1       5.731  -0.898 -10.060  0.00  0.00     0.035 H 
BRANCH  50  53
ATOM     53  C   LIG d   1       4.400   0.472  -9.109  0.00  0.00     0.105 A 
ATOM     54  O   LIG d   1       4.421   1.415 -10.065  0.00  0.00    -0.468 OA
ATOM     55  C   LIG d   1       3.585   2.412  -9.730  0.00  0.00     0.092 A 
ATOM     56  C   LIG d   1       3.017   2.112  -8.548  0.00  0.00    -0.024 A 
ATOM     57  H   LIG d   1       3.400   3.303 -10.312  0.00  0.00     0.103 H 
ATOM     58  C   LIG d   1       3.538   0.859  -8.151  0.00  0.00    -0.021 A 
ATOM     59  H   LIG d   1       2.298   2.710  -8.008  0.00  0.00     0.065 H 
ATOM     60  H   LIG d   1       3.293   0.317  -7.249  0.00  0.00     0.065 H 
ENDBRANCH  50  53
ENDBRANCH  36  50
ENDBRANCH  31  34
ENDBRANCH  28  31
ENDBRANCH  17  28
BRANCH   1  61
ATOM     61  C   LIG d   1       1.880  -0.614  -3.592  0.00  0.00    -0.059 C 
ATOM     62  H   LIG d   1       1.037  -0.609  -4.284  0.00  0.00     0.024 H 
ATOM     63  H   LIG d   1       2.140  -1.643  -3.345  0.00  0.00     0.024 H 
ATOM     64  H   LIG d   1       1.607  -0.080  -2.683  0.00  0.00     0.024 H 
ENDBRANCH   1  61
BRANCH   6  65
ATOM     65  C   LIG d   1       4.353  -1.593  -1.890  0.00  0.00    -0.056 C 
ATOM     66  H   LIG d   1       3.358  -1.155  -1.806  0.00  0.00     0.024 H 
ATOM     67  H   LIG d   1       4.866  -1.517  -0.930  0.00  0.00     0.024 H 
ATOM     68  H   LIG d   1       4.265  -2.642  -2.171  0.00  0.00     0.024 H 
ENDBRANCH   6  65
TORSDOF 7
ENDMDL
MODEL 4
REMARK VINA RESULT:      -7.2      2.280      6.883
REMARK  7 active torsions:
REMARK  status: ('A' for Active; 'I' for Inactive)
REMARK    1  A    between atoms: C_1  and  C_2 
REMARK    2  A    between atoms: C_7  and  C_35 
REMARK    3  A    between atoms: C_18  and  C_20 
REMARK    4  A    between atoms: C_20  and  N_66 
REMARK    5  A    between atoms: C_21  and  N_66 
REMARK    6  A    between atoms: C_27  and  C_29 
REMARK    7  A    between atoms: C_29  and  C_30 
ROOT
ATOM      1  C   LIG d   1       2.786   0.553  -8.326  0.00  0.00    -0.022 C 
ATOM      2  H   LIG d   1       2.351   0.546  -7.304  0.00  0.00     0.034 H 
ATOM      3  C   LIG d   1       1.985  -0.431  -9.180  0.00  0.00    -0.047 C 
ATOM      4  C   LIG d   1       2.705  -0.783 -10.475  0.00  0.00    -0.052 C 
ATOM      5  C   LIG d   1       4.074  -1.404 -10.197  0.00  0.00    -0.044 C 
ATOM      6  C   LIG d   1       4.943  -0.420  -9.426  0.00  0.00    -0.007 C 
ATOM      7  C   LIG d   1       4.216   0.065  -8.214  0.00  0.00    -0.064 C 
ATOM      8  C   LIG d   1       4.746   0.048  -7.024  0.00  0.00    -0.076 C 
ATOM      9  C   LIG d   1       6.021  -0.608  -6.679  0.00  0.00     0.032 C 
ATOM     10  H   LIG d   1       5.896  -1.167  -5.754  0.00  0.00     0.039 H 
ATOM     11  C   LIG d   1       6.522  -1.571  -7.767  0.00  0.00     0.111 C 
ATOM     12  H   LIG d   1       6.055  -2.551  -7.687  0.00  0.00     0.074 H 
ATOM     13  C   LIG d   1       6.330  -0.952  -9.147  0.00  0.00    -0.006 C 
ATOM     14  O   LIG d   1       7.971  -1.622  -7.533  0.00  0.00    -0.460 OA
ATOM     15  C   LIG d   1       8.397  -0.531  -6.881  0.00  0.00     0.316 C 
ATOM     16  O   LIG d   1       9.555  -0.278  -6.615  0.00  0.00    -0.250 OA
ATOM     17  C   LIG d   1       7.211   0.348  -6.519  0.00  0.00     0.106 C 
ATOM     18  H   LIG d   1       7.130   1.189  -7.204  0.00  0.00     0.047 H 
ATOM     19  H   LIG d   1       1.813  -1.349  -8.610  0.00  0.00     0.027 H 
ATOM     20  H   LIG d   1       1.013   0.010  -9.422  0.00  0.00     0.027 H 
ATOM     21  H   LIG d   1       2.096  -1.519 -11.019  0.00  0.00     0.027 H 
ATOM     22  H   LIG d   1       2.794   0.094 -11.108  0.00  0.00     0.027 H 
ATOM     23  H   LIG d   1       4.563  -1.659 -11.139  0.00  0.00     0.027 H 
ATOM     24  H   LIG d   1       3.951  -2.315  -9.603  0.00  0.00     0.027 H 
ATOM     25  H   LIG d   1       4.170   0.489  -6.227  0.00  0.00     0.058 H 
ATOM     26  H   LIG d   1       6.561  -1.704  -9.905  0.00  0.00     0.031 H 
ATOM     27  H   LIG d   1       7.037  -0.127  -9.267  0.00  0.00     0.031 H 
ENDROOT
BRANCH  17  28
ATOM     28  C   LIG d   1       7.325   0.835  -5.073  0.00  0.00    -0.019 C 
ATOM     29  H   LIG d   1       8.152   1.541  -4.993  0.00  0.00     0.082 H 
ATOM     30  H   LIG d   1       6.397   1.328  -4.783  0.00  0.00     0.082 H 
BRANCH  28  31
ATOM     31  N   LIG d   1       7.571  -0.321  -4.191  0.00  0.00     0.230 N 
ATOM     32  H   LIG d   1       8.499  -0.229  -3.763  0.00  0.00     0.202 HD
ATOM     33  H   LIG d   1       7.534  -1.184  -4.747  0.00  0.00     0.202 HD
BRANCH  31  34
ATOM     34  C   LIG d   1       6.548  -0.382  -3.130  0.00  0.00    -0.019 C 
ATOM     35  H   LIG d   1       7.021  -0.613  -2.176  0.00  0.00     0.085 H 
ATOM     36  C   LIG d   1       5.532  -1.473  -3.474  0.00  0.00     0.009 C 
ATOM     37  C   LIG d   1       4.465  -1.539  -2.380  0.00  0.00    -0.045 C 
ATOM     38  H   LIG d   1       5.059  -1.241  -4.429  0.00  0.00     0.036 H 
ATOM     39  C   LIG d   1       3.750  -0.190  -2.281  0.00  0.00    -0.052 C 
ATOM     40  H   LIG d   1       3.741  -2.317  -2.625  0.00  0.00     0.027 H 
ATOM     41  H   LIG d   1       4.937  -1.771  -1.425  0.00  0.00     0.027 H 
ATOM     42  C   LIG d   1       4.767   0.901  -1.937  0.00  0.00    -0.048 C 
ATOM     43  H   LIG d   1       3.278   0.042  -3.235  0.00  0.00     0.026 H 
ATOM     44  H   LIG d   1       2.991  -0.237  -1.501  0.00  0.00     0.026 H 
ATOM     45  C   LIG d   1       5.834   0.968  -3.032  0.00  0.00    -0.009 C 
ATOM     46  H   LIG d   1       4.258   1.863  -1.866  0.00  0.00     0.027 H 
ATOM     47  H   LIG d   1       5.239   0.670  -0.983  0.00  0.00     0.027 H 
ATOM     48  H   LIG d   1       6.557   1.745  -2.786  0.00  0.00     0.032 H 
ATOM     49  H   LIG d   1       5.361   1.199  -3.986  0.00  0.00     0.032 H 
BRANCH  36  50
ATOM     50  C   LIG d   1       6.246  -2.822  -3.573  0.00  0.00     0.013 C 
ATOM     51  H   LIG d   1       7.315  -2.658  -3.711  0.00  0.00     0.035 H 
ATOM     52  H   LIG d   1       6.081  -3.389  -2.656  0.00  0.00     0.035 H 
BRANCH  50  53
ATOM     53  C   LIG d   1       5.702  -3.594  -4.746  0.00  0.00     0.105 A 
ATOM     54  O   LIG d   1       4.446  -3.527  -5.216  0.00  0.00    -0.468 OA
ATOM     55  C   LIG d   1       4.316  -4.350  -6.271  0.00  0.00     0.092 A 
ATOM     56  C   LIG d   1       5.499  -4.954  -6.485  0.00  0.00    -0.024 A 
ATOM     57  H   LIG d   1       3.417  -4.500  -6.848  0.00  0.00     0.103 H 
ATOM     58  C   LIG d   1       6.393  -4.463  -5.506  0.00  0.00    -0.021 A 
ATOM     59  H   LIG d   1       5.724  -5.674  -7.258  0.00  0.00     0.065 H 
ATOM     60  H   LIG d   1       7.432  -4.735  -5.389  0.00  0.00     0.065 H 
ENDBRANCH  50  53
ENDBRANCH  36  50
ENDBRANCH  31  34
ENDBRANCH  28  31
ENDBRANCH  17  28
BRANCH   1  61
ATOM     61  C   LIG d   1       2.682   1.978  -8.855  0.00  0.00    -0.059 C 
ATOM     62  H   LIG d   1       1.913   2.024  -9.627  0.00  0.00     0.024 H 
ATOM     63  H   LIG d   1       2.417   2.651  -8.040  0.00  0.00     0.024 H 
ATOM     64  H   LIG d   1       3.640   2.280  -9.279  0.00  0.00     0.024 H 
ENDBRANCH   1  61
BRANCH   6  65
ATOM     65  C   LIG d   1       5.189   0.778 -10.354  0.00  0.00    -0.056 C 
ATOM     66  H   LIG d   1       5.469   0.419 -11.345  0.00  0.00     0.024 H 
ATOM     67  H   LIG d   1       5.993   1.393  -9.949  0.00  0.00     0.024 H 
ATOM     68  H   LIG d   1       4.279   1.373 -10.428  0.00  0.00     0.024 H 
ENDBRANCH   6  65
TORSDOF 7
ENDMDL
MODEL 5
REMARK VINA RESULT:      -7.2      3.289      6.335
REMARK  7 active torsions:
REMARK  status: ('A' for Active; 'I' for Inactive)
REMARK    1  A    between atoms: C_1  and  C_2 
REMARK    2  A    between atoms: C_7  and  C_35 
REMARK    3  A    between atoms: C_18  and  C_20 
REMARK    4  A    between atoms: C_20  and  N_66 
REMARK    5  A    between atoms: C_21  and  N_66 
REMARK    6  A    between atoms: C_27  and  C_29 
REMARK    7  A    between atoms: C_29  and  C_30 
ROOT
ATOM      1  C   LIG d   1       9.812  -3.832  -3.113  0.00  0.00    -0.022 C 
ATOM      2  H   LIG d   1       9.563  -2.945  -2.492  0.00  0.00     0.034 H 
ATOM      3  C   LIG d   1      11.142  -3.550  -3.815  0.00  0.00    -0.047 C 
ATOM      4  C   LIG d   1      11.400  -4.516  -4.964  0.00  0.00    -0.052 C 
ATOM      5  C   LIG d   1      10.287  -4.442  -6.010  0.00  0.00    -0.044 C 
ATOM      6  C   LIG d   1       8.952  -4.808  -5.375  0.00  0.00    -0.007 C 
ATOM      7  C   LIG d   1       8.722  -3.978  -4.154  0.00  0.00    -0.064 C 
ATOM      8  C   LIG d   1       7.617  -3.318  -3.954  0.00  0.00    -0.076 C 
ATOM      9  C   LIG d   1       6.547  -3.141  -4.953  0.00  0.00     0.032 C 
ATOM     10  H   LIG d   1       6.223  -2.103  -4.951  0.00  0.00     0.039 H 
ATOM     11  C   LIG d   1       6.983  -3.512  -6.380  0.00  0.00     0.111 C 
ATOM     12  H   LIG d   1       7.506  -2.692  -6.870  0.00  0.00     0.074 H 
ATOM     13  C   LIG d   1       7.808  -4.794  -6.362  0.00  0.00    -0.006 C 
ATOM     14  O   LIG d   1       5.716  -3.843  -7.046  0.00  0.00    -0.460 OA
ATOM     15  C   LIG d   1       4.777  -4.196  -6.156  0.00  0.00     0.316 C 
ATOM     16  O   LIG d   1       3.659  -4.583  -6.430  0.00  0.00    -0.250 OA
ATOM     17  C   LIG d   1       5.320  -4.039  -4.746  0.00  0.00     0.106 C 
ATOM     18  H   LIG d   1       5.609  -5.004  -4.333  0.00  0.00     0.047 H 
ATOM     19  H   LIG d   1      11.135  -2.528  -4.207  0.00  0.00     0.027 H 
ATOM     20  H   LIG d   1      11.957  -3.634  -3.090  0.00  0.00     0.027 H 
ATOM     21  H   LIG d   1      12.346  -4.234  -5.446  0.00  0.00     0.027 H 
ATOM     22  H   LIG d   1      11.517  -5.527  -4.587  0.00  0.00     0.027 H 
ATOM     23  H   LIG d   1      10.503  -5.133  -6.827  0.00  0.00     0.027 H 
ATOM     24  H   LIG d   1      10.228  -3.426  -6.411  0.00  0.00     0.027 H 
ATOM     25  H   LIG d   1       7.516  -2.810  -3.008  0.00  0.00     0.058 H 
ATOM     26  H   LIG d   1       8.221  -4.960  -7.360  0.00  0.00     0.031 H 
ATOM     27  H   LIG d   1       7.152  -5.635  -6.127  0.00  0.00     0.031 H 
ENDROOT
BRANCH  17  28
ATOM     28  C   LIG d   1       4.291  -3.352  -3.847  0.00  0.00    -0.019 C 
ATOM     29  H   LIG d   1       3.478  -4.046  -3.629  0.00  0.00     0.082 H 
ATOM     30  H   LIG d   1       4.768  -3.048  -2.915  0.00  0.00     0.082 H 
BRANCH  28  31
ATOM     31  N   LIG d   1       3.757  -2.166  -4.543  0.00  0.00     0.230 N 
ATOM     32  H   LIG d   1       2.860  -2.404  -4.980  0.00  0.00     0.202 HD
ATOM     33  H   LIG d   1       4.423  -1.870  -5.267  0.00  0.00     0.202 HD
BRANCH  31  34
ATOM     34  C   LIG d   1       3.555  -1.060  -3.588  0.00  0.00    -0.019 C 
ATOM     35  H   LIG d   1       2.588  -1.169  -3.098  0.00  0.00     0.085 H 
ATOM     36  C   LIG d   1       3.598   0.270  -4.343  0.00  0.00     0.009 C 
ATOM     37  C   LIG d   1       3.394   1.422  -3.357  0.00  0.00    -0.045 C 
ATOM     38  H   LIG d   1       4.567   0.379  -4.832  0.00  0.00     0.036 H 
ATOM     39  C   LIG d   1       4.503   1.398  -2.305  0.00  0.00    -0.052 C 
ATOM     40  H   LIG d   1       3.425   2.370  -3.896  0.00  0.00     0.027 H 
ATOM     41  H   LIG d   1       2.426   1.314  -2.868  0.00  0.00     0.027 H 
ATOM     42  C   LIG d   1       4.460   0.067  -1.550  0.00  0.00    -0.048 C 
ATOM     43  H   LIG d   1       5.471   1.506  -2.794  0.00  0.00     0.026 H 
ATOM     44  H   LIG d   1       4.357   2.218  -1.603  0.00  0.00     0.026 H 
ATOM     45  C   LIG d   1       4.665  -1.085  -2.535  0.00  0.00    -0.009 C 
ATOM     46  H   LIG d   1       5.251   0.049  -0.799  0.00  0.00     0.027 H 
ATOM     47  H   LIG d   1       3.493  -0.041  -1.060  0.00  0.00     0.027 H 
ATOM     48  H   LIG d   1       4.635  -2.033  -1.996  0.00  0.00     0.032 H 
ATOM     49  H   LIG d   1       5.633  -0.976  -3.025  0.00  0.00     0.032 H 
BRANCH  36  50
ATOM     50  C   LIG d   1       2.489   0.295  -5.395  0.00  0.00     0.013 C 
ATOM     51  H   LIG d   1       1.798  -0.528  -5.214  0.00  0.00     0.035 H 
ATOM     52  H   LIG d   1       1.951   1.241  -5.334  0.00  0.00     0.035 H 
BRANCH  50  53
ATOM     53  C   LIG d   1       3.094   0.150  -6.767  0.00  0.00     0.105 A 
ATOM     54  O   LIG d   1       3.846  -0.880  -7.189  0.00  0.00    -0.468 OA
ATOM     55  C   LIG d   1       4.212  -0.675  -8.465  0.00  0.00     0.092 A 
ATOM     56  C   LIG d   1       3.691   0.496  -8.874  0.00  0.00    -0.024 A 
ATOM     57  H   LIG d   1       4.820  -1.338  -9.062  0.00  0.00     0.103 H 
ATOM     58  C   LIG d   1       2.966   1.025  -7.781  0.00  0.00    -0.021 A 
ATOM     59  H   LIG d   1       3.802   0.945  -9.850  0.00  0.00     0.065 H 
ATOM     60  H   LIG d   1       2.417   1.955  -7.763  0.00  0.00     0.065 H 
ENDBRANCH  50  53
ENDBRANCH  36  50
ENDBRANCH  31  34
ENDBRANCH  28  31
ENDBRANCH  17  28
BRANCH   1  61
ATOM     61  C   LIG d   1       9.909  -5.030  -2.178  0.00  0.00    -0.059 C 
ATOM     62  H   LIG d   1       9.898  -4.686  -1.143  0.00  0.00     0.024 H 
ATOM     63  H   LIG d   1       9.061  -5.694  -2.347  0.00  0.00     0.024 H 
ATOM     64  H   LIG d   1      10.836  -5.569  -2.371  0.00  0.00     0.024 H 
ENDBRANCH   1  61
BRANCH   6  65
ATOM     65  C   LIG d   1       9.052  -6.279  -4.949  0.00  0.00    -0.056 C 
ATOM     66  H   LIG d   1       8.159  -6.814  -5.273  0.00  0.00     0.024 H 
ATOM     67  H   LIG d   1       9.136  -6.338  -3.862  0.00  0.00     0.024 H 
ATOM     68  H   LIG d   1       9.932  -6.731  -5.405  0.00  0.00     0.024 H 
ENDBRANCH   6  65
TORSDOF 7
ENDMDL
MODEL 6
REMARK VINA RESULT:      -7.2      3.163      5.955
REMARK  7 active torsions:
REMARK  status: ('A' for Active; 'I' for Inactive)
REMARK    1  A    between atoms: C_1  and  C_2 
REMARK    2  A    between atoms: C_7  and  C_35 
REMARK    3  A    between atoms: C_18  and  C_20 
REMARK    4  A    between atoms: C_20  and  N_66 
REMARK    5  A    between atoms: C_21  and  N_66 
REMARK    6  A    between atoms: C_27  and  C_29 
REMARK    7  A    between atoms: C_29  and  C_30 
ROOT
ATOM      1  C   LIG d   1       9.444   3.608  -3.474  0.00  0.00    -0.022 C 
ATOM      2  H   LIG d   1       8.632   3.741  -2.727  0.00  0.00     0.034 H 
ATOM      3  C   LIG d   1       9.532   4.893  -4.298  0.00  0.00    -0.047 C 
ATOM      4  C   LIG d   1      10.341   4.700  -5.575  0.00  0.00    -0.052 C 
ATOM      5  C   LIG d   1       9.729   3.612  -6.458  0.00  0.00    -0.044 C 
ATOM      6  C   LIG d   1       9.706   2.287  -5.708  0.00  0.00    -0.007 C 
ATOM      7  C   LIG d   1       9.045   2.462  -4.380  0.00  0.00    -0.064 C 
ATOM      8  C   LIG d   1       8.084   1.685  -3.967  0.00  0.00    -0.076 C 
ATOM      9  C   LIG d   1       7.399   0.677  -4.798  0.00  0.00     0.032 C 
ATOM     10  H   LIG d   1       6.326   0.748  -4.634  0.00  0.00     0.039 H 
ATOM     11  C   LIG d   1       7.675   0.842  -6.301  0.00  0.00     0.111 C 
ATOM     12  H   LIG d   1       7.020   1.585  -6.754  0.00  0.00     0.074 H 
ATOM     13  C   LIG d   1       9.148   1.152  -6.536  0.00  0.00    -0.006 C 
ATOM     14  O   LIG d   1       7.444  -0.506  -6.838  0.00  0.00    -0.460 OA
ATOM     15  C   LIG d   1       7.584  -1.439  -5.884  0.00  0.00     0.316 C 
ATOM     16  O   LIG d   1       7.516  -2.638  -6.060  0.00  0.00    -0.250 OA
ATOM     17  C   LIG d   1       7.841  -0.770  -4.544  0.00  0.00     0.106 C 
ATOM     18  H   LIG d   1       8.897  -0.816  -4.287  0.00  0.00     0.047 H 
ATOM     19  H   LIG d   1       8.524   5.224  -4.564  0.00  0.00     0.027 H 
ATOM     20  H   LIG d   1      10.002   5.677  -3.695  0.00  0.00     0.027 H 
ATOM     21  H   LIG d   1      10.331   5.646  -6.135  0.00  0.00     0.027 H 
ATOM     22  H   LIG d   1      11.375   4.476  -5.336  0.00  0.00     0.027 H 
ATOM     23  H   LIG d   1      10.319   3.503  -7.371  0.00  0.00     0.027 H 
ATOM     24  H   LIG d   1       8.706   3.890  -6.728  0.00  0.00     0.027 H 
ATOM     25  H   LIG d   1       7.724   1.845  -2.964  0.00  0.00     0.058 H 
ATOM     26  H   LIG d   1       9.292   1.402  -7.590  0.00  0.00     0.031 H 
ATOM     27  H   LIG d   1       9.738   0.258  -6.320  0.00  0.00     0.031 H 
ENDROOT
BRANCH  17  28
ATOM     28  C   LIG d   1       6.988  -1.414  -3.450  0.00  0.00    -0.019 C 
ATOM     29  H   LIG d   1       7.529  -2.255  -3.015  0.00  0.00     0.082 H 
ATOM     30  H   LIG d   1       6.777  -0.678  -2.674  0.00  0.00     0.082 H 
BRANCH  28  31
ATOM     31  N   LIG d   1       5.723  -1.890  -4.041  0.00  0.00     0.230 N 
ATOM     32  H   LIG d   1       5.557  -2.860  -3.749  0.00  0.00     0.202 HD
ATOM     33  H   LIG d   1       5.791  -1.848  -5.065  0.00  0.00     0.202 HD
BRANCH  31  34
ATOM     34  C   LIG d   1       4.599  -1.047  -3.593  0.00  0.00    -0.019 C 
ATOM     35  H   LIG d   1       3.759  -1.677  -3.301  0.00  0.00     0.085 H 
ATOM     36  C   LIG d   1       4.174  -0.127  -4.739  0.00  0.00     0.009 C 
ATOM     37  C   LIG d   1       3.011   0.755  -4.279  0.00  0.00    -0.045 C 
ATOM     38  H   LIG d   1       5.014   0.504  -5.030  0.00  0.00     0.036 H 
ATOM     39  C   LIG d   1       3.452   1.601  -3.084  0.00  0.00    -0.052 C 
ATOM     40  H   LIG d   1       2.708   1.411  -5.097  0.00  0.00     0.027 H 
ATOM     41  H   LIG d   1       2.170   0.125  -3.988  0.00  0.00     0.027 H 
ATOM     42  C   LIG d   1       3.878   0.681  -1.938  0.00  0.00    -0.048 C 
ATOM     43  H   LIG d   1       4.293   2.231  -3.375  0.00  0.00     0.026 H 
ATOM     44  H   LIG d   1       2.624   2.229  -2.757  0.00  0.00     0.026 H 
ATOM     45  C   LIG d   1       5.041  -0.201  -2.397  0.00  0.00    -0.009 C 
ATOM     46  H   LIG d   1       4.193   1.284  -1.085  0.00  0.00     0.027 H 
ATOM     47  H   LIG d   1       3.038   0.051  -1.646  0.00  0.00     0.027 H 
ATOM     48  H   LIG d   1       5.344  -0.856  -1.580  0.00  0.00     0.032 H 
ATOM     49  H   LIG d   1       5.881   0.429  -2.688  0.00  0.00     0.032 H 
BRANCH  36  50
ATOM     50  C   LIG d   1       3.732  -0.972  -5.934  0.00  0.00     0.013 C 
ATOM     51  H   LIG d   1       4.490  -1.727  -6.145  0.00  0.00     0.035 H 
ATOM     52  H   LIG d   1       2.786  -1.462  -5.703  0.00  0.00     0.035 H 
BRANCH  50  53
ATOM     53  C   LIG d   1       3.558  -0.086  -7.140  0.00  0.00     0.105 A 
ATOM     54  O   LIG d   1       4.439   0.830  -7.575  0.00  0.00    -0.468 OA
ATOM     55  C   LIG d   1       3.955   1.430  -8.675  0.00  0.00     0.092 A 
ATOM     56  C   LIG d   1       2.751   0.898  -8.955  0.00  0.00    -0.024 A 
ATOM     57  H   LIG d   1       4.448   2.208  -9.239  0.00  0.00     0.103 H 
ATOM     58  C   LIG d   1       2.498  -0.083  -7.969  0.00  0.00    -0.021 A 
ATOM     59  H   LIG d   1       2.104   1.166  -9.777  0.00  0.00     0.065 H 
ATOM     60  H   LIG d   1       1.621  -0.709  -7.893  0.00  0.00     0.065 H 
ENDBRANCH  50  53
ENDBRANCH  36  50
ENDBRANCH  31  34
ENDBRANCH  28  31
ENDBRANCH  17  28
BRANCH   1  61
ATOM     61  C   LIG d   1      10.731   3.340  -2.703  0.00  0.00    -0.059 C 
ATOM     62  H   LIG d   1      11.272   2.518  -3.174  0.00  0.00     0.024 H 
ATOM     63  H   LIG d   1      11.353   4.235  -2.710  0.00  0.00     0.024 H 
ATOM     64  H   LIG d   1      10.490   3.073  -1.674  0.00  0.00     0.024 H 
ENDBRANCH   1  61
BRANCH   6  65
ATOM     65  C   LIG d   1      11.169   1.886  -5.472  0.00  0.00    -0.056 C 
ATOM     66  H   LIG d   1      11.541   1.338  -6.338  0.00  0.00     0.024 H 
ATOM     67  H   LIG d   1      11.233   1.251  -4.586  0.00  0.00     0.024 H 
ATOM     68  H   LIG d   1      11.772   2.781  -5.321  0.00  0.00     0.024 H 
ENDBRANCH   6  65
TORSDOF 7
ENDMDL
MODEL 7
REMARK VINA RESULT:      -7.0      1.874      7.354
REMARK  7 active torsions:
REMARK  status: ('A' for Active; 'I' for Inactive)
REMARK    1  A    between atoms: C_1  and  C_2 
REMARK    2  A    between atoms: C_7  and  C_35 
REMARK    3  A    between atoms: C_18  and  C_20 
REMARK    4  A    between atoms: C_20  and  N_66 
REMARK    5  A    between atoms: C_21  and  N_66 
REMARK    6  A    between atoms: C_27  and  C_29 
REMARK    7  A    between atoms: C_29  and  C_30 
ROOT
ATOM      1  C   LIG d   1       1.965  -3.949 -10.610  0.00  0.00    -0.022 C 
ATOM      2  H   LIG d   1       2.371  -4.535  -9.757  0.00  0.00     0.034 H 
ATOM      3  C   LIG d   1       2.606  -4.486 -11.890  0.00  0.00    -0.047 C 
ATOM      4  C   LIG d   1       2.418  -3.536 -13.067  0.00  0.00    -0.052 C 
ATOM      5  C   LIG d   1       3.024  -2.164 -12.773  0.00  0.00    -0.044 C 
ATOM      6  C   LIG d   1       2.348  -1.548 -11.555  0.00  0.00    -0.007 C 
ATOM      7  C   LIG d   1       2.383  -2.507 -10.410  0.00  0.00    -0.064 C 
ATOM      8  C   LIG d   1       2.809  -2.171  -9.226  0.00  0.00    -0.076 C 
ATOM      9  C   LIG d   1       3.477  -0.897  -8.901  0.00  0.00     0.032 C 
ATOM     10  H   LIG d   1       4.344  -1.097  -8.275  0.00  0.00     0.039 H 
ATOM     11  C   LIG d   1       3.943  -0.122 -10.144  0.00  0.00     0.111 C 
ATOM     12  H   LIG d   1       4.908  -0.477 -10.505  0.00  0.00     0.074 H 
ATOM     13  C   LIG d   1       2.871  -0.168 -11.227  0.00  0.00    -0.006 C 
ATOM     14  O   LIG d   1       4.000   1.269  -9.676  0.00  0.00    -0.460 OA
ATOM     15  C   LIG d   1       3.204   1.456  -8.612  0.00  0.00     0.316 C 
ATOM     16  O   LIG d   1       3.006   2.520  -8.062  0.00  0.00    -0.250 OA
ATOM     17  C   LIG d   1       2.586   0.133  -8.194  0.00  0.00     0.106 C 
ATOM     18  H   LIG d   1       1.557   0.061  -8.540  0.00  0.00     0.047 H 
ATOM     19  H   LIG d   1       3.678  -4.635 -11.724  0.00  0.00     0.027 H 
ATOM     20  H   LIG d   1       2.160  -5.453 -12.140  0.00  0.00     0.027 H 
ATOM     21  H   LIG d   1       2.934  -3.962 -13.939  0.00  0.00     0.027 H 
ATOM     22  H   LIG d   1       1.366  -3.454 -13.320  0.00  0.00     0.027 H 
ATOM     23  H   LIG d   1       2.887  -1.508 -13.635  0.00  0.00     0.027 H 
ATOM     24  H   LIG d   1       4.095  -2.270 -12.574  0.00  0.00     0.027 H 
ATOM     25  H   LIG d   1       2.724  -2.912  -8.448  0.00  0.00     0.058 H 
ATOM     26  H   LIG d   1       3.277   0.265 -12.143  0.00  0.00     0.031 H 
ATOM     27  H   LIG d   1       2.023   0.446 -10.913  0.00  0.00     0.031 H 
ENDROOT
BRANCH  17  28
ATOM     28  C   LIG d   1       2.660  -0.039  -6.675  0.00  0.00    -0.019 C 
ATOM     29  H   LIG d   1       1.966   0.654  -6.198  0.00  0.00     0.082 H 
ATOM     30  H   LIG d   1       2.390  -1.062  -6.412  0.00  0.00     0.082 H 
BRANCH  28  31
ATOM     31  N   LIG d   1       4.035   0.246  -6.223  0.00  0.00     0.230 N 
ATOM     32  H   LIG d   1       4.232   1.245  -6.346  0.00  0.00     0.202 HD
ATOM     33  H   LIG d   1       4.696  -0.305  -6.785  0.00  0.00     0.202 HD
BRANCH  31  34
ATOM     34  C   LIG d   1       4.189  -0.111  -4.800  0.00  0.00    -0.019 C 
ATOM     35  H   LIG d   1       4.815   0.629  -4.301  0.00  0.00     0.085 H 
ATOM     36  C   LIG d   1       4.846  -1.489  -4.696  0.00  0.00     0.009 C 
ATOM     37  C   LIG d   1       5.005  -1.867  -3.223  0.00  0.00    -0.045 C 
ATOM     38  H   LIG d   1       4.219  -2.228  -5.195  0.00  0.00     0.036 H 
ATOM     39  C   LIG d   1       3.631  -1.906  -2.553  0.00  0.00    -0.052 C 
ATOM     40  H   LIG d   1       5.473  -2.850  -3.149  0.00  0.00     0.027 H 
ATOM     41  H   LIG d   1       5.632  -1.128  -2.723  0.00  0.00     0.027 H 
ATOM     42  C   LIG d   1       2.974  -0.528  -2.658  0.00  0.00    -0.048 C 
ATOM     43  H   LIG d   1       3.004  -2.645  -3.053  0.00  0.00     0.026 H 
ATOM     44  H   LIG d   1       3.745  -2.176  -1.504  0.00  0.00     0.026 H 
ATOM     45  C   LIG d   1       2.813  -0.149  -4.131  0.00  0.00    -0.009 C 
ATOM     46  H   LIG d   1       1.994  -0.555  -2.180  0.00  0.00     0.027 H 
ATOM     47  H   LIG d   1       3.600   0.211  -2.158  0.00  0.00     0.027 H 
ATOM     48  H   LIG d   1       2.346   0.833  -4.205  0.00  0.00     0.032 H 
ATOM     49  H   LIG d   1       2.188  -0.889  -4.630  0.00  0.00     0.032 H 
BRANCH  36  50
ATOM     50  C   LIG d   1       6.221  -1.450  -5.365  0.00  0.00     0.013 C 
ATOM     51  H   LIG d   1       6.807  -2.309  -5.038  0.00  0.00     0.035 H 
ATOM     52  H   LIG d   1       6.099  -1.485  -6.448  0.00  0.00     0.035 H 
BRANCH  50  53
ATOM     53  C   LIG d   1       6.932  -0.180  -4.979  0.00  0.00     0.105 A 
ATOM     54  O   LIG d   1       7.161   0.868  -5.787  0.00  0.00    -0.468 OA
ATOM     55  C   LIG d   1       7.819   1.823  -5.108  0.00  0.00     0.092 A 
ATOM     56  C   LIG d   1       8.016   1.390  -3.850  0.00  0.00    -0.024 A 
ATOM     57  H   LIG d   1       8.135   2.776  -5.504  0.00  0.00     0.103 H 
ATOM     58  C   LIG d   1       7.440   0.101  -3.765  0.00  0.00    -0.021 A 
ATOM     59  H   LIG d   1       8.515   1.924  -3.055  0.00  0.00     0.065 H 
ATOM     60  H   LIG d   1       7.415  -0.537  -2.894  0.00  0.00     0.065 H 
ENDBRANCH  50  53
ENDBRANCH  36  50
ENDBRANCH  31  34
ENDBRANCH  28  31
ENDBRANCH  17  28
BRANCH   1  61
ATOM     61  C   LIG d   1       0.453  -4.138 -10.611  0.00  0.00    -0.059 C 
ATOM     62  H   LIG d   1       0.002  -3.456 -11.334  0.00  0.00     0.024 H 
ATOM     63  H   LIG d   1       0.215  -5.165 -10.885  0.00  0.00     0.024 H 
ATOM     64  H   LIG d   1       0.059  -3.926  -9.618  0.00  0.00     0.024 H 
ENDBRANCH   1  61
BRANCH   6  65
ATOM     65  C   LIG d   1       0.881  -1.304 -11.937  0.00  0.00    -0.056 C 
ATOM     66  H   LIG d   1       0.834  -0.605 -12.773  0.00  0.00     0.024 H 
ATOM     67  H   LIG d   1       0.347  -0.886 -11.083  0.00  0.00     0.024 H 
ATOM     68  H   LIG d   1       0.419  -2.247 -12.227  0.00  0.00     0.024 H 
ENDBRANCH   6  65
TORSDOF 7
ENDMDL
MODEL 8
REMARK VINA RESULT:      -6.9      4.152      6.871
REMARK  7 active torsions:
REMARK  status: ('A' for Active; 'I' for Inactive)
REMARK    1  A    between atoms: C_1  and  C_2 
REMARK    2  A    between atoms: C_7  and  C_35 
REMARK    3  A    between atoms: C_18  and  C_20 
REMARK    4  A    between atoms: C_20  and  N_66 
REMARK    5  A    between atoms: C_21  and  N_66 
REMARK    6  A    between atoms: C_27  and  C_29 
REMARK    7  A    between atoms: C_29  and  C_30 
ROOT
ATOM      1  C   LIG d   1       9.750  -3.907  -3.337  0.00  0.00    -0.022 C 
ATOM      2  H   LIG d   1       9.601  -2.842  -3.059  0.00  0.00     0.034 H 
ATOM      3  C   LIG d   1      11.070  -4.007  -4.104  0.00  0.00    -0.047 C 
ATOM      4  C   LIG d   1      11.201  -5.329  -4.850  0.00  0.00    -0.052 C 
ATOM      5  C   LIG d   1      10.058  -5.517  -5.848  0.00  0.00    -0.044 C 
ATOM      6  C   LIG d   1       8.723  -5.518  -5.115  0.00  0.00    -0.007 C 
ATOM      7  C   LIG d   1       8.611  -4.301  -4.254  0.00  0.00    -0.064 C 
ATOM      8  C   LIG d   1       7.574  -3.514  -4.285  0.00  0.00    -0.076 C 
ATOM      9  C   LIG d   1       6.484  -3.594  -5.275  0.00  0.00     0.032 C 
ATOM     10  H   LIG d   1       6.249  -2.592  -5.630  0.00  0.00     0.039 H 
ATOM     11  C   LIG d   1       6.830  -4.471  -6.489  0.00  0.00     0.111 C 
ATOM     12  H   LIG d   1       7.401  -3.921  -7.237  0.00  0.00     0.074 H 
ATOM     13  C   LIG d   1       7.546  -5.738  -6.036  0.00  0.00    -0.006 C 
ATOM     14  O   LIG d   1       5.515  -4.893  -6.990  0.00  0.00    -0.460 OA
ATOM     15  C   LIG d   1       4.586  -4.830  -6.024  0.00  0.00     0.316 C 
ATOM     16  O   LIG d   1       3.430  -5.183  -6.139  0.00  0.00    -0.250 OA
ATOM     17  C   LIG d   1       5.196  -4.249  -4.760  0.00  0.00     0.106 C 
ATOM     18  H   LIG d   1       5.419  -5.035  -4.042  0.00  0.00     0.047 H 
ATOM     19  H   LIG d   1      11.133  -3.186  -4.825  0.00  0.00     0.027 H 
ATOM     20  H   LIG d   1      11.904  -3.911  -3.401  0.00  0.00     0.027 H 
ATOM     21  H   LIG d   1      12.148  -5.318  -5.407  0.00  0.00     0.027 H 
ATOM     22  H   LIG d   1      11.248  -6.155  -4.147  0.00  0.00     0.027 H 
ATOM     23  H   LIG d   1      10.182  -6.464  -6.377  0.00  0.00     0.027 H 
ATOM     24  H   LIG d   1      10.067  -4.699  -6.575  0.00  0.00     0.027 H 
ATOM     25  H   LIG d   1       7.553  -2.705  -3.573  0.00  0.00     0.058 H 
ATOM     26  H   LIG d   1       7.904  -6.275  -6.918  0.00  0.00     0.031 H 
ATOM     27  H   LIG d   1       6.831  -6.383  -5.519  0.00  0.00     0.031 H 
ENDROOT
BRANCH  17  28
ATOM     28  C   LIG d   1       4.264  -3.202  -4.146  0.00  0.00    -0.019 C 
ATOM     29  H   LIG d   1       3.289  -3.653  -3.955  0.00  0.00     0.082 H 
ATOM     30  H   LIG d   1       4.688  -2.844  -3.209  0.00  0.00     0.082 H 
BRANCH  28  31
ATOM     31  N   LIG d   1       4.114  -2.077  -5.088  0.00  0.00     0.230 N 
ATOM     32  H   LIG d   1       3.235  -2.185  -5.608  0.00  0.00     0.202 HD
ATOM     33  H   LIG d   1       4.903  -2.078  -5.745  0.00  0.00     0.202 HD
BRANCH  31  34
ATOM     34  C   LIG d   1       4.092  -0.797  -4.355  0.00  0.00    -0.019 C 
ATOM     35  H   LIG d   1       3.532  -0.056  -4.925  0.00  0.00     0.085 H 
ATOM     36  C   LIG d   1       5.528  -0.309  -4.155  0.00  0.00     0.009 C 
ATOM     37  C   LIG d   1       5.514   1.017  -3.391  0.00  0.00    -0.045 C 
ATOM     38  H   LIG d   1       6.087  -1.050  -3.584  0.00  0.00     0.036 H 
ATOM     39  C   LIG d   1       4.850   0.815  -2.028  0.00  0.00    -0.052 C 
ATOM     40  H   LIG d   1       6.538   1.365  -3.248  0.00  0.00     0.027 H 
ATOM     41  H   LIG d   1       4.954   1.759  -3.962  0.00  0.00     0.027 H 
ATOM     42  C   LIG d   1       3.413   0.326  -2.229  0.00  0.00    -0.048 C 
ATOM     43  H   LIG d   1       5.409   0.073  -1.458  0.00  0.00     0.026 H 
ATOM     44  H   LIG d   1       4.840   1.759  -1.485  0.00  0.00     0.026 H 
ATOM     45  C   LIG d   1       3.427  -1.000  -2.992  0.00  0.00    -0.009 C 
ATOM     46  H   LIG d   1       2.939   0.182  -1.257  0.00  0.00     0.027 H 
ATOM     47  H   LIG d   1       2.854   1.068  -2.799  0.00  0.00     0.027 H 
ATOM     48  H   LIG d   1       2.404  -1.347  -3.134  0.00  0.00     0.032 H 
ATOM     49  H   LIG d   1       3.987  -1.741  -2.422  0.00  0.00     0.032 H 
BRANCH  36  50
ATOM     50  C   LIG d   1       6.192  -0.106  -5.517  0.00  0.00     0.013 C 
ATOM     51  H   LIG d   1       6.344  -1.074  -5.995  0.00  0.00     0.035 H 
ATOM     52  H   LIG d   1       5.551   0.512  -6.146  0.00  0.00     0.035 H 
BRANCH  50  53
ATOM     53  C   LIG d   1       7.523   0.576  -5.332  0.00  0.00     0.105 A 
ATOM     54  O   LIG d   1       7.775   1.878  -5.548  0.00  0.00    -0.468 OA
ATOM     55  C   LIG d   1       9.066   2.135  -5.279  0.00  0.00     0.092 A 
ATOM     56  C   LIG d   1       9.654   0.991  -4.886  0.00  0.00    -0.024 A 
ATOM     57  H   LIG d   1       9.549   3.097  -5.365  0.00  0.00     0.103 H 
ATOM     58  C   LIG d   1       8.658  -0.013  -4.914  0.00  0.00    -0.021 A 
ATOM     59  H   LIG d   1      10.687   0.863  -4.599  0.00  0.00     0.065 H 
ATOM     60  H   LIG d   1       8.785  -1.053  -4.653  0.00  0.00     0.065 H 
ENDBRANCH  50  53
ENDBRANCH  36  50
ENDBRANCH  31  34
ENDBRANCH  28  31
ENDBRANCH  17  28
BRANCH   1  61
ATOM     61  C   LIG d   1       9.783  -4.715  -2.046  0.00  0.00    -0.059 C 
ATOM     62  H   LIG d   1      10.817  -4.840  -1.721  0.00  0.00     0.024 H 
ATOM     63  H   LIG d   1       9.221  -4.189  -1.274  0.00  0.00     0.024 H 
ATOM     64  H   LIG d   1       9.336  -5.694  -2.217  0.00  0.00     0.024 H 
ENDBRANCH   1  61
BRANCH   6  65
ATOM     65  C   LIG d   1       8.717  -6.755  -4.207  0.00  0.00    -0.056 C 
ATOM     66  H   LIG d   1       9.490  -6.653  -3.445  0.00  0.00     0.024 H 
ATOM     67  H   LIG d   1       8.912  -7.646  -4.805  0.00  0.00     0.024 H 
ATOM     68  H   LIG d   1       7.743  -6.848  -3.725  0.00  0.00     0.024 H 
ENDBRANCH   6  65
TORSDOF 7
ENDMDL
MODEL 9
REMARK VINA RESULT:      -6.8      5.254      8.706
REMARK  7 active torsions:
REMARK  status: ('A' for Active; 'I' for Inactive)
REMARK    1  A    between atoms: C_1  and  C_2 
REMARK    2  A    between atoms: C_7  and  C_35 
REMARK    3  A    between atoms: C_18  and  C_20 
REMARK    4  A    between atoms: C_20  and  N_66 
REMARK    5  A    between atoms: C_21  and  N_66 
REMARK    6  A    between atoms: C_27  and  C_29 
REMARK    7  A    between atoms: C_29  and  C_30 
ROOT
ATOM      1  C   LIG d   1       4.747   0.551  -2.236  0.00  0.00    -0.022 C 
ATOM      2  H   LIG d   1       5.305   1.154  -1.487  0.00  0.00     0.034 H 
ATOM      3  C   LIG d   1       4.328  -0.756  -1.562  0.00  0.00    -0.047 C 
ATOM      4  C   LIG d   1       3.890  -1.807  -2.574  0.00  0.00    -0.052 C 
ATOM      5  C   LIG d   1       5.012  -2.123  -3.564  0.00  0.00    -0.044 C 
ATOM      6  C   LIG d   1       5.400  -0.864  -4.328  0.00  0.00    -0.007 C 
ATOM      7  C   LIG d   1       5.702   0.242  -3.371  0.00  0.00    -0.064 C 
ATOM      8  C   LIG d   1       6.795   0.947  -3.436  0.00  0.00    -0.076 C 
ATOM      9  C   LIG d   1       7.944   0.642  -4.309  0.00  0.00     0.032 C 
ATOM     10  H   LIG d   1       8.865   0.747  -3.738  0.00  0.00     0.039 H 
ATOM     11  C   LIG d   1       7.897  -0.776  -4.900  0.00  0.00     0.111 C 
ATOM     12  H   LIG d   1       8.291  -1.518  -4.207  0.00  0.00     0.074 H 
ATOM     13  C   LIG d   1       6.481  -1.110  -5.356  0.00  0.00    -0.006 C 
ATOM     14  O   LIG d   1       8.709  -0.663  -6.119  0.00  0.00    -0.460 OA
ATOM     15  C   LIG d   1       8.765   0.606  -6.549  0.00  0.00     0.316 C 
ATOM     16  O   LIG d   1       9.310   0.979  -7.568  0.00  0.00    -0.250 OA
ATOM     17  C   LIG d   1       8.043   1.514  -5.567  0.00  0.00     0.106 C 
ATOM     18  H   LIG d   1       7.055   1.776  -5.938  0.00  0.00     0.047 H 
ATOM     19  H   LIG d   1       5.168  -1.151  -0.982  0.00  0.00     0.027 H 
ATOM     20  H   LIG d   1       3.500  -0.558  -0.874  0.00  0.00     0.027 H 
ATOM     21  H   LIG d   1       3.642  -2.728  -2.029  0.00  0.00     0.027 H 
ATOM     22  H   LIG d   1       2.992  -1.483  -3.090  0.00  0.00     0.027 H 
ATOM     23  H   LIG d   1       4.677  -2.887  -4.269  0.00  0.00     0.027 H 
ATOM     24  H   LIG d   1       5.886  -2.498  -3.022  0.00  0.00     0.027 H 
ATOM     25  H   LIG d   1       6.886   1.772  -2.748  0.00  0.00     0.058 H 
ATOM     26  H   LIG d   1       6.441  -2.163  -5.641  0.00  0.00     0.031 H 
ATOM     27  H   LIG d   1       6.243  -0.514  -6.241  0.00  0.00     0.031 H 
ENDROOT
BRANCH  17  28
ATOM     28  C   LIG d   1       8.869   2.772  -5.291  0.00  0.00    -0.019 C 
ATOM     29  H   LIG d   1       9.320   3.120  -6.221  0.00  0.00     0.082 H 
ATOM     30  H   LIG d   1       8.222   3.550  -4.888  0.00  0.00     0.082 H 
BRANCH  28  31
ATOM     31  N   LIG d   1       9.928   2.450  -4.316  0.00  0.00     0.230 N 
ATOM     32  H   LIG d   1      10.228   1.477  -4.450  0.00  0.00     0.202 HD
ATOM     33  H   LIG d   1       9.559   2.567  -3.365  0.00  0.00     0.202 HD
BRANCH  31  34
ATOM     34  C   LIG d   1      11.085   3.346  -4.503  0.00  0.00    -0.019 C 
ATOM     35  H   LIG d   1      11.977   2.891  -4.073  0.00  0.00     0.085 H 
ATOM     36  C   LIG d   1      10.805   4.679  -3.806  0.00  0.00     0.009 C 
ATOM     37  C   LIG d   1      11.999   5.616  -4.000  0.00  0.00    -0.045 C 
ATOM     38  H   LIG d   1       9.913   5.134  -4.238  0.00  0.00     0.036 H 
ATOM     39  C   LIG d   1      12.221   5.859  -5.493  0.00  0.00    -0.052 C 
ATOM     40  H   LIG d   1      11.799   6.566  -3.503  0.00  0.00     0.027 H 
ATOM     41  H   LIG d   1      12.891   5.162  -3.568  0.00  0.00     0.027 H 
ATOM     42  C   LIG d   1      12.501   4.525  -6.190  0.00  0.00    -0.048 C 
ATOM     43  H   LIG d   1      11.329   6.313  -5.925  0.00  0.00     0.026 H 
ATOM     44  H   LIG d   1      13.072   6.526  -5.631  0.00  0.00     0.026 H 
ATOM     45  C   LIG d   1      11.307   3.588  -5.998  0.00  0.00    -0.009 C 
ATOM     46  H   LIG d   1      12.660   4.698  -7.255  0.00  0.00     0.027 H 
ATOM     47  H   LIG d   1      13.393   4.071  -5.760  0.00  0.00     0.027 H 
ATOM     48  H   LIG d   1      11.507   2.639  -6.494  0.00  0.00     0.032 H 
ATOM     49  H   LIG d   1      10.415   4.044  -6.428  0.00  0.00     0.032 H 
BRANCH  36  50
ATOM     50  C   LIG d   1      10.583   4.437  -2.313  0.00  0.00     0.013 C 
ATOM     51  H   LIG d   1       9.738   3.762  -2.176  0.00  0.00     0.035 H 
ATOM     52  H   LIG d   1      11.478   3.990  -1.879  0.00  0.00     0.035 H 
BRANCH  50  53
ATOM     53  C   LIG d   1      10.293   5.748  -1.628  0.00  0.00     0.105 A 
ATOM     54  O   LIG d   1       9.407   6.669  -2.039  0.00  0.00    -0.468 OA
ATOM     55  C   LIG d   1       9.413   7.708  -1.187  0.00  0.00     0.092 A 
ATOM     56  C   LIG d   1      10.310   7.457  -0.216  0.00  0.00    -0.024 A 
ATOM     57  H   LIG d   1       8.802   8.595  -1.268  0.00  0.00     0.103 H 
ATOM     58  C   LIG d   1      10.873   6.190  -0.497  0.00  0.00    -0.021 A 
ATOM     59  H   LIG d   1      10.551   8.096   0.620  0.00  0.00     0.065 H 
ATOM     60  H   LIG d   1      11.626   5.678   0.083  0.00  0.00     0.065 H 
ENDBRANCH  50  53
ENDBRANCH  36  50
ENDBRANCH  31  34
ENDBRANCH  28  31
ENDBRANCH  17  28
BRANCH   1  61
ATOM     61  C   LIG d   1       3.543   1.374  -2.676  0.00  0.00    -0.059 C 
ATOM     62  H   LIG d   1       3.250   1.079  -3.684  0.00  0.00     0.024 H 
ATOM     63  H   LIG d   1       2.713   1.199  -1.992  0.00  0.00     0.024 H 
ATOM     64  H   LIG d   1       3.803   2.432  -2.668  0.00  0.00     0.024 H 
ENDBRANCH   1  61
BRANCH   6  65
ATOM     65  C   LIG d   1       4.180  -0.460  -5.167  0.00  0.00    -0.056 C 
ATOM     66  H   LIG d   1       4.472  -0.362  -6.212  0.00  0.00     0.024 H 
ATOM     67  H   LIG d   1       3.791   0.494  -4.807  0.00  0.00     0.024 H 
ATOM     68  H   LIG d   1       3.407  -1.223  -5.076  0.00  0.00     0.024 H 
ENDBRANCH   6  65
TORSDOF 7
ENDMDL
MODEL 10
REMARK VINA RESULT:      -6.8      4.792      8.867
REMARK  7 active torsions:
REMARK  status: ('A' for Active; 'I' for Inactive)
REMARK    1  A    between atoms: C_1  and  C_2 
REMARK    2  A    between atoms: C_7  and  C_35 
REMARK    3  A    between atoms: C_18  and  C_20 
REMARK    4  A    between atoms: C_20  and  N_66 
REMARK    5  A    between atoms: C_21  and  N_66 
REMARK    6  A    between atoms: C_27  and  C_29 
REMARK    7  A    between atoms: C_29  and  C_30 
ROOT
ATOM      1  C   LIG d   1       4.791   0.610  -2.245  0.00  0.00    -0.022 C 
ATOM      2  H   LIG d   1       5.307   1.252  -1.499  0.00  0.00     0.034 H 
ATOM      3  C   LIG d   1       4.447  -0.714  -1.562  0.00  0.00    -0.047 C 
ATOM      4  C   LIG d   1       4.080  -1.799  -2.567  0.00  0.00    -0.052 C 
ATOM      5  C   LIG d   1       5.224  -2.056  -3.547  0.00  0.00    -0.044 C 
ATOM      6  C   LIG d   1       5.541  -0.783  -4.320  0.00  0.00    -0.007 C 
ATOM      7  C   LIG d   1       5.770   0.349  -3.372  0.00  0.00    -0.064 C 
ATOM      8  C   LIG d   1       6.820   1.117  -3.437  0.00  0.00    -0.076 C 
ATOM      9  C   LIG d   1       7.991   0.873  -4.300  0.00  0.00     0.032 C 
ATOM     10  H   LIG d   1       8.899   1.038  -3.725  0.00  0.00     0.039 H 
ATOM     11  C   LIG d   1       8.032  -0.551  -4.879  0.00  0.00     0.111 C 
ATOM     12  H   LIG d   1       8.466  -1.261  -4.176  0.00  0.00     0.074 H 
ATOM     13  C   LIG d   1       6.641  -0.972  -5.339  0.00  0.00    -0.006 C 
ATOM     14  O   LIG d   1       8.844  -0.400  -6.093  0.00  0.00    -0.460 OA
ATOM     15  C   LIG d   1       8.827   0.867  -6.535  0.00  0.00     0.316 C 
ATOM     16  O   LIG d   1       9.355   1.263  -7.554  0.00  0.00    -0.250 OA
ATOM     17  C   LIG d   1       8.045   1.739  -5.566  0.00  0.00     0.106 C 
ATOM     18  H   LIG d   1       7.045   1.937  -5.946  0.00  0.00     0.047 H 
ATOM     19  H   LIG d   1       5.305  -1.053  -0.974  0.00  0.00     0.027 H 
ATOM     20  H   LIG d   1       3.604  -0.560  -0.881  0.00  0.00     0.027 H 
ATOM     21  H   LIG d   1       3.883  -2.728  -2.014  0.00  0.00     0.027 H 
ATOM     22  H   LIG d   1       3.167  -1.533  -3.091  0.00  0.00     0.027 H 
ATOM     23  H   LIG d   1       4.941  -2.845  -4.246  0.00  0.00     0.027 H 
ATOM     24  H   LIG d   1       6.115  -2.373  -2.996  0.00  0.00     0.027 H 
ATOM     25  H   LIG d   1       6.857   1.952  -2.757  0.00  0.00     0.058 H 
ATOM     26  H   LIG d   1       6.667  -2.029  -5.615  0.00  0.00     0.031 H 
ATOM     27  H   LIG d   1       6.375  -0.400  -6.231  0.00  0.00     0.031 H 
ENDROOT
BRANCH  17  28
ATOM     28  C   LIG d   1       8.793   3.046  -5.297  0.00  0.00    -0.019 C 
ATOM     29  H   LIG d   1       8.814   3.645  -6.208  0.00  0.00     0.082 H 
ATOM     30  H   LIG d   1       8.283   3.600  -4.510  0.00  0.00     0.082 H 
BRANCH  28  31
ATOM     31  N   LIG d   1      10.172   2.736  -4.874  0.00  0.00     0.230 N 
ATOM     32  H   LIG d   1      10.755   2.584  -5.705  0.00  0.00     0.202 HD
ATOM     33  H   LIG d   1      10.166   1.885  -4.299  0.00  0.00     0.202 HD
BRANCH  31  34
ATOM     34  C   LIG d   1      10.728   3.852  -4.086  0.00  0.00    -0.019 C 
ATOM     35  H   LIG d   1      11.059   4.646  -4.756  0.00  0.00     0.085 H 
ATOM     36  C   LIG d   1      11.917   3.345  -3.268  0.00  0.00     0.009 C 
ATOM     37  C   LIG d   1      12.497   4.497  -2.444  0.00  0.00    -0.045 C 
ATOM     38  H   LIG d   1      11.585   2.551  -2.598  0.00  0.00     0.036 H 
ATOM     39  C   LIG d   1      11.423   5.041  -1.500  0.00  0.00    -0.052 C 
ATOM     40  H   LIG d   1      13.344   4.135  -1.861  0.00  0.00     0.027 H 
ATOM     41  H   LIG d   1      12.829   5.291  -3.113  0.00  0.00     0.027 H 
ATOM     42  C   LIG d   1      10.234   5.548  -2.319  0.00  0.00    -0.048 C 
ATOM     43  H   LIG d   1      11.091   4.247  -0.831  0.00  0.00     0.026 H 
ATOM     44  H   LIG d   1      11.836   5.861  -0.914  0.00  0.00     0.026 H 
ATOM     45  C   LIG d   1       9.653   4.396  -3.142  0.00  0.00    -0.009 C 
ATOM     46  H   LIG d   1       9.468   5.936  -1.646  0.00  0.00     0.027 H 
ATOM     47  H   LIG d   1      10.566   6.342  -2.988  0.00  0.00     0.027 H 
ATOM     48  H   LIG d   1       8.806   4.758  -3.725  0.00  0.00     0.032 H 
ATOM     49  H   LIG d   1       9.322   3.602  -2.473  0.00  0.00     0.032 H 
BRANCH  36  50
ATOM     50  C   LIG d   1      12.991   2.801  -4.211  0.00  0.00     0.013 C 
ATOM     51  H   LIG d   1      12.733   3.055  -5.240  0.00  0.00     0.035 H 
ATOM     52  H   LIG d   1      13.955   3.244  -3.959  0.00  0.00     0.035 H 
BRANCH  50  53
ATOM     53  C   LIG d   1      13.073   1.303  -4.069  0.00  0.00     0.105 A 
ATOM     54  O   LIG d   1      12.142   0.424  -4.473  0.00  0.00    -0.468 OA
ATOM     55  C   LIG d   1      12.550  -0.824  -4.187  0.00  0.00     0.092 A 
ATOM     56  C   LIG d   1      13.756  -0.751  -3.595  0.00  0.00    -0.024 A 
ATOM     57  H   LIG d   1      12.004  -1.731  -4.398  0.00  0.00     0.103 H 
ATOM     58  C   LIG d   1      14.096   0.620  -3.524  0.00  0.00    -0.021 A 
ATOM     59  H   LIG d   1      14.353  -1.580  -3.244  0.00  0.00     0.065 H 
ATOM     60  H   LIG d   1      15.001   1.038  -3.109  0.00  0.00     0.065 H 
ENDBRANCH  50  53
ENDBRANCH  36  50
ENDBRANCH  31  34
ENDBRANCH  28  31
ENDBRANCH  17  28
BRANCH   1  61
ATOM     61  C   LIG d   1       3.543   1.355  -2.701  0.00  0.00    -0.059 C 
ATOM     62  H   LIG d   1       2.666   0.928  -2.212  0.00  0.00     0.024 H 
ATOM     63  H   LIG d   1       3.630   2.408  -2.434  0.00  0.00     0.024 H 
ATOM     64  H   LIG d   1       3.437   1.261  -3.781  0.00  0.00     0.024 H 
ENDBRANCH   1  61
BRANCH   6  65
ATOM     65  C   LIG d   1       4.304  -0.460  -5.170  0.00  0.00    -0.056 C 
ATOM     66  H   LIG d   1       4.613  -0.222  -6.188  0.00  0.00     0.024 H 
ATOM     67  H   LIG d   1       3.781   0.395  -4.740  0.00  0.00     0.024 H 
ATOM     68  H   LIG d   1       3.639  -1.323  -5.185  0.00  0.00     0.024 H 
ENDBRANCH   6  65
TORSDOF 7
ENDMDL
