MODEL 1
REMARK VINA RESULT:      -5.5      0.000      0.000
REMARK  9 active torsions:
REMARK  status: ('A' for Active; 'I' for Inactive)
REMARK    1  A    between atoms: C_1  and  C_2 
REMARK    2  A    between atoms: C_2  and  C_3 
REMARK    3  A    between atoms: C_2  and  C_4 
REMARK    4  A    between atoms: C_7  and  C_11 
REMARK    5  A    between atoms: C_7  and  C_13 
REMARK    6  A    between atoms: C_11  and  C_12 
REMARK    7  A    between atoms: C_12  and  N_47 
REMARK    8  A    between atoms: C_18  and  O_19 
REMARK    9  A    between atoms: O_19  and  C_20 
ROOT
ATOM      1  C   LIG d   1       7.280  -0.384  -4.905  0.00  0.00     0.062 C 
ATOM      2  H   LIG d   1       6.570  -0.012  -4.165  0.00  0.00     0.060 H 
ATOM      3  C   LIG d   1       6.515  -0.976  -6.092  0.00  0.00    -0.016 C 
ATOM      4  C   LIG d   1       5.682  -2.167  -5.608  0.00  0.00     0.008 C 
ATOM      5  C   LIG d   1       6.609  -3.190  -4.944  0.00  0.00    -0.019 C 
ATOM      6  C   LIG d   1       7.369  -2.511  -3.803  0.00  0.00     0.049 C 
ATOM      7  O   LIG d   1       8.099  -1.395  -4.315  0.00  0.00    -0.376 OA
ATOM      8  H   LIG d   1       7.223  -1.311  -6.851  0.00  0.00     0.030 H 
ATOM      9  H   LIG d   1       5.856  -0.219  -6.516  0.00  0.00     0.030 H 
ATOM     10  H   LIG d   1       6.017  -4.015  -4.548  0.00  0.00     0.030 H 
ATOM     11  H   LIG d   1       7.318  -3.569  -5.679  0.00  0.00     0.030 H 
ATOM     12  H   LIG d   1       6.662  -2.168  -3.047  0.00  0.00     0.056 H 
ATOM     13  H   LIG d   1       8.062  -3.223  -3.354  0.00  0.00     0.056 H 
ENDROOT
BRANCH   4  14
ATOM     14  C   LIG d   1       4.973  -2.816  -6.799  0.00  0.00    -0.003 C 
ATOM     15  H   LIG d   1       3.968  -2.405  -6.892  0.00  0.00     0.033 H 
ATOM     16  H   LIG d   1       5.534  -2.612  -7.711  0.00  0.00     0.033 H 
BRANCH  14  17
ATOM     17  C   LIG d   1       4.887  -4.327  -6.580  0.00  0.00    -0.035 C 
ATOM     18  H   LIG d   1       5.263  -4.844  -7.464  0.00  0.00     0.081 H 
ATOM     19  H   LIG d   1       5.488  -4.604  -5.715  0.00  0.00     0.081 H 
BRANCH  17  20
ATOM     20  N   LIG d   1       3.478  -4.703  -6.370  0.00  0.00     0.218 N 
ATOM     21  H   LIG d   1       2.937  -4.520  -7.214  0.00  0.00     0.199 HD
ATOM     22  H   LIG d   1       3.412  -5.692  -6.134  0.00  0.00     0.199 HD
ATOM     23  H   LIG d   1       3.092  -4.148  -5.598  0.00  0.00     0.199 HD
ENDBRANCH  17  20
ENDBRANCH  14  17
ENDBRANCH   4  14
BRANCH   4  24
ATOM     24  C   LIG d   1       4.658  -1.693  -4.609  0.00  0.00     0.001 A 
ATOM     25  C   LIG d   1       3.880  -0.579  -4.889  0.00  0.00     0.124 A 
ATOM     26  C   LIG d   1       2.937  -0.145  -3.967  0.00  0.00    -0.020 A 
ATOM     27  C   LIG d   1       2.775  -0.824  -2.775  0.00  0.00    -0.058 A 
ATOM     28  H   LIG d   1       2.330   0.722  -4.182  0.00  0.00     0.065 H 
ATOM     29  C   LIG d   1       3.552  -1.934  -2.500  0.00  0.00    -0.061 A 
ATOM     30  H   LIG d   1       2.039  -0.489  -2.060  0.00  0.00     0.062 H 
ATOM     31  C   LIG d   1       4.492  -2.368  -3.415  0.00  0.00    -0.055 A 
ATOM     32  H   LIG d   1       3.424  -2.462  -1.567  0.00  0.00     0.062 H 
ATOM     33  H   LIG d   1       5.098  -3.235  -3.198  0.00  0.00     0.062 H 
BRANCH  25  34
ATOM     34  O   LIG d   1       4.040   0.086  -6.063  0.00  0.00    -0.495 OA
BRANCH  34  35
ATOM     35  C   LIG d   1       2.883   0.234  -6.888  0.00  0.00     0.079 C 
ATOM     36  H   LIG d   1       2.507   1.254  -6.807  0.00  0.00     0.066 H 
ATOM     37  H   LIG d   1       3.147   0.026  -7.925  0.00  0.00     0.066 H 
ATOM     38  H   LIG d   1       2.112  -0.464  -6.562  0.00  0.00     0.066 H 
ENDBRANCH  34  35
ENDBRANCH  25  34
ENDBRANCH   4  24
BRANCH   1  39
ATOM     39  C   LIG d   1       8.161   0.769  -5.391  0.00  0.00    -0.020 C 
ATOM     40  H   LIG d   1       9.203   0.451  -5.403  0.00  0.00     0.032 H 
BRANCH  39  41
ATOM     41  C   LIG d   1       7.736   1.177  -6.803  0.00  0.00    -0.060 C 
ATOM     42  H   LIG d   1       6.775   0.719  -7.039  0.00  0.00     0.023 H 
ATOM     43  H   LIG d   1       7.643   2.261  -6.856  0.00  0.00     0.023 H 
ATOM     44  H   LIG d   1       8.485   0.841  -7.519  0.00  0.00     0.023 H 
ENDBRANCH  39  41
BRANCH  39  45
ATOM     45  C   LIG d   1       8.004   1.963  -4.447  0.00  0.00    -0.060 C 
ATOM     46  H   LIG d   1       8.171   2.887  -4.999  0.00  0.00     0.023 H 
ATOM     47  H   LIG d   1       6.996   1.966  -4.030  0.00  0.00     0.023 H 
ATOM     48  H   LIG d   1       8.731   1.886  -3.638  0.00  0.00     0.023 H 
ENDBRANCH  39  45
ENDBRANCH   1  39
TORSDOF 9
ENDMDL
MODEL 2
REMARK VINA RESULT:      -5.2      1.756      3.899
REMARK  9 active torsions:
REMARK  status: ('A' for Active; 'I' for Inactive)
REMARK    1  A    between atoms: C_1  and  C_2 
REMARK    2  A    between atoms: C_2  and  C_3 
REMARK    3  A    between atoms: C_2  and  C_4 
REMARK    4  A    between atoms: C_7  and  C_11 
REMARK    5  A    between atoms: C_7  and  C_13 
REMARK    6  A    between atoms: C_11  and  C_12 
REMARK    7  A    between atoms: C_12  and  N_47 
REMARK    8  A    between atoms: C_18  and  O_19 
REMARK    9  A    between atoms: O_19  and  C_20 
ROOT
ATOM      1  C   LIG d   1       3.826   0.557  -7.428  0.00  0.00     0.062 C 
ATOM      2  H   LIG d   1       3.718   1.170  -6.532  0.00  0.00     0.060 H 
ATOM      3  C   LIG d   1       3.683  -0.921  -7.056  0.00  0.00    -0.016 C 
ATOM      4  C   LIG d   1       4.810  -1.307  -6.093  0.00  0.00     0.008 C 
ATOM      5  C   LIG d   1       6.158  -0.999  -6.750  0.00  0.00    -0.019 C 
ATOM      6  C   LIG d   1       6.204   0.482  -7.134  0.00  0.00     0.049 C 
ATOM      7  O   LIG d   1       5.113   0.781  -8.007  0.00  0.00    -0.376 OA
ATOM      8  H   LIG d   1       3.750  -1.531  -7.958  0.00  0.00     0.030 H 
ATOM      9  H   LIG d   1       2.720  -1.085  -6.575  0.00  0.00     0.030 H 
ATOM     10  H   LIG d   1       6.965  -1.220  -6.050  0.00  0.00     0.030 H 
ATOM     11  H   LIG d   1       6.275  -1.611  -7.645  0.00  0.00     0.030 H 
ATOM     12  H   LIG d   1       6.128   1.093  -6.234  0.00  0.00     0.056 H 
ATOM     13  H   LIG d   1       7.144   0.697  -7.641  0.00  0.00     0.056 H 
ENDROOT
BRANCH   4  14
ATOM     14  C   LIG d   1       4.724  -2.801  -5.775  0.00  0.00    -0.003 C 
ATOM     15  H   LIG d   1       5.698  -3.158  -5.441  0.00  0.00     0.033 H 
ATOM     16  H   LIG d   1       3.988  -2.963  -4.986  0.00  0.00     0.033 H 
BRANCH  14  17
ATOM     17  C   LIG d   1       4.304  -3.567  -7.030  0.00  0.00    -0.035 C 
ATOM     18  H   LIG d   1       3.721  -2.912  -7.677  0.00  0.00     0.081 H 
ATOM     19  H   LIG d   1       5.191  -3.907  -7.563  0.00  0.00     0.081 H 
BRANCH  17  20
ATOM     20  N   LIG d   1       3.469  -4.716  -6.635  0.00  0.00     0.218 N 
ATOM     21  H   LIG d   1       2.764  -4.420  -5.961  0.00  0.00     0.199 HD
ATOM     22  H   LIG d   1       3.010  -5.111  -7.454  0.00  0.00     0.199 HD
ATOM     23  H   LIG d   1       4.064  -5.433  -6.204  0.00  0.00     0.199 HD
ENDBRANCH  17  20
ENDBRANCH  14  17
ENDBRANCH   4  14
BRANCH   4  24
ATOM     24  C   LIG d   1       4.677  -0.512  -4.819  0.00  0.00     0.001 A 
ATOM     25  C   LIG d   1       5.741  -0.440  -3.932  0.00  0.00     0.124 A 
ATOM     26  C   LIG d   1       5.617   0.293  -2.761  0.00  0.00    -0.020 A 
ATOM     27  C   LIG d   1       4.434   0.951  -2.482  0.00  0.00    -0.058 A 
ATOM     28  H   LIG d   1       6.444   0.350  -2.068  0.00  0.00     0.065 H 
ATOM     29  C   LIG d   1       3.376   0.878  -3.368  0.00  0.00    -0.061 A 
ATOM     30  H   LIG d   1       4.339   1.526  -1.572  0.00  0.00     0.062 H 
ATOM     31  C   LIG d   1       3.497   0.147  -4.535  0.00  0.00    -0.055 A 
ATOM     32  H   LIG d   1       2.453   1.393  -3.147  0.00  0.00     0.062 H 
ATOM     33  H   LIG d   1       2.669   0.092  -5.226  0.00  0.00     0.062 H 
BRANCH  25  34
ATOM     34  O   LIG d   1       6.904  -1.087  -4.209  0.00  0.00    -0.495 OA
BRANCH  34  35
ATOM     35  C   LIG d   1       7.289  -2.138  -3.322  0.00  0.00     0.079 C 
ATOM     36  H   LIG d   1       7.050  -1.855  -2.297  0.00  0.00     0.066 H 
ATOM     37  H   LIG d   1       6.751  -3.049  -3.582  0.00  0.00     0.066 H 
ATOM     38  H   LIG d   1       8.362  -2.312  -3.409  0.00  0.00     0.066 H 
ENDBRANCH  34  35
ENDBRANCH  25  34
ENDBRANCH   4  24
BRANCH   1  39
ATOM     39  C   LIG d   1       2.739   0.936  -8.437  0.00  0.00    -0.020 C 
ATOM     40  H   LIG d   1       1.876   1.339  -7.908  0.00  0.00     0.032 H 
BRANCH  39  41
ATOM     41  C   LIG d   1       3.285   1.991  -9.402  0.00  0.00    -0.060 C 
ATOM     42  H   LIG d   1       4.373   2.009  -9.343  0.00  0.00     0.023 H 
ATOM     43  H   LIG d   1       2.980   1.745 -10.419  0.00  0.00     0.023 H 
ATOM     44  H   LIG d   1       2.890   2.970  -9.132  0.00  0.00     0.023 H 
ENDBRANCH  39  41
BRANCH  39  45
ATOM     45  C   LIG d   1       2.320  -0.307  -9.225  0.00  0.00    -0.060 C 
ATOM     46  H   LIG d   1       1.322  -0.157  -9.636  0.00  0.00     0.023 H 
ATOM     47  H   LIG d   1       3.025  -0.476 -10.039  0.00  0.00     0.023 H 
ATOM     48  H   LIG d   1       2.314  -1.172  -8.563  0.00  0.00     0.023 H 
ENDBRANCH  39  45
ENDBRANCH   1  39
TORSDOF 9
ENDMDL
MODEL 3
REMARK VINA RESULT:      -5.2      1.716      4.313
REMARK  9 active torsions:
REMARK  status: ('A' for Active; 'I' for Inactive)
REMARK    1  A    between atoms: C_1  and  C_2 
REMARK    2  A    between atoms: C_2  and  C_3 
REMARK    3  A    between atoms: C_2  and  C_4 
REMARK    4  A    between atoms: C_7  and  C_11 
REMARK    5  A    between atoms: C_7  and  C_13 
REMARK    6  A    between atoms: C_11  and  C_12 
REMARK    7  A    between atoms: C_12  and  N_47 
REMARK    8  A    between atoms: C_18  and  O_19 
REMARK    9  A    between atoms: O_19  and  C_20 
ROOT
ATOM      1  C   LIG d   1       3.933  -0.267  -4.120  0.00  0.00     0.062 C 
ATOM      2  H   LIG d   1       4.757   0.444  -4.197  0.00  0.00     0.060 H 
ATOM      3  C   LIG d   1       4.344  -1.594  -4.765  0.00  0.00    -0.016 C 
ATOM      4  C   LIG d   1       4.620  -1.363  -6.254  0.00  0.00     0.008 C 
ATOM      5  C   LIG d   1       3.374  -0.759  -6.907  0.00  0.00    -0.019 C 
ATOM      6  C   LIG d   1       3.002   0.535  -6.178  0.00  0.00     0.049 C 
ATOM      7  O   LIG d   1       2.787   0.255  -4.794  0.00  0.00    -0.376 OA
ATOM      8  H   LIG d   1       3.536  -2.318  -4.653  0.00  0.00     0.030 H 
ATOM      9  H   LIG d   1       5.244  -1.972  -4.282  0.00  0.00     0.030 H 
ATOM     10  H   LIG d   1       3.580  -0.540  -7.955  0.00  0.00     0.030 H 
ATOM     11  H   LIG d   1       2.547  -1.466  -6.839  0.00  0.00     0.030 H 
ATOM     12  H   LIG d   1       3.812   1.257  -6.283  0.00  0.00     0.056 H 
ATOM     13  H   LIG d   1       2.091   0.947  -6.612  0.00  0.00     0.056 H 
ENDROOT
BRANCH   4  14
ATOM     14  C   LIG d   1       4.956  -2.696  -6.927  0.00  0.00    -0.003 C 
ATOM     15  H   LIG d   1       4.357  -2.807  -7.831  0.00  0.00     0.033 H 
ATOM     16  H   LIG d   1       6.014  -2.715  -7.188  0.00  0.00     0.033 H 
BRANCH  14  17
ATOM     17  C   LIG d   1       4.647  -3.845  -5.966  0.00  0.00    -0.035 C 
ATOM     18  H   LIG d   1       5.522  -4.488  -5.875  0.00  0.00     0.081 H 
ATOM     19  H   LIG d   1       4.389  -3.442  -4.987  0.00  0.00     0.081 H 
BRANCH  17  20
ATOM     20  N   LIG d   1       3.527  -4.636  -6.508  0.00  0.00     0.218 N 
ATOM     21  H   LIG d   1       3.532  -4.597  -7.526  0.00  0.00     0.199 HD
ATOM     22  H   LIG d   1       3.608  -5.606  -6.206  0.00  0.00     0.199 HD
ATOM     23  H   LIG d   1       2.642  -4.250  -6.160  0.00  0.00     0.199 HD
ENDBRANCH  17  20
ENDBRANCH  14  17
ENDBRANCH   4  14
BRANCH   4  24
ATOM     24  C   LIG d   1       5.781  -0.414  -6.409  0.00  0.00     0.001 A 
ATOM     25  C   LIG d   1       6.064   0.138  -7.649  0.00  0.00     0.124 A 
ATOM     26  C   LIG d   1       7.133   1.013  -7.790  0.00  0.00    -0.020 A 
ATOM     27  C   LIG d   1       7.910   1.331  -6.693  0.00  0.00    -0.058 A 
ATOM     28  H   LIG d   1       7.356   1.444  -8.754  0.00  0.00     0.065 H 
ATOM     29  C   LIG d   1       7.625   0.780  -5.458  0.00  0.00    -0.061 A 
ATOM     30  H   LIG d   1       8.739   2.016  -6.801  0.00  0.00     0.062 H 
ATOM     31  C   LIG d   1       6.562  -0.092  -5.316  0.00  0.00    -0.055 A 
ATOM     32  H   LIG d   1       8.235   1.030  -4.603  0.00  0.00     0.062 H 
ATOM     33  H   LIG d   1       6.341  -0.522  -4.350  0.00  0.00     0.062 H 
BRANCH  25  34
ATOM     34  O   LIG d   1       5.297  -0.176  -8.726  0.00  0.00    -0.495 OA
BRANCH  34  35
ATOM     35  C   LIG d   1       5.264   0.769  -9.797  0.00  0.00     0.079 C 
ATOM     36  H   LIG d   1       5.499   0.265 -10.734  0.00  0.00     0.066 H 
ATOM     37  H   LIG d   1       4.269   1.210  -9.862  0.00  0.00     0.066 H 
ATOM     38  H   LIG d   1       5.998   1.554  -9.613  0.00  0.00     0.066 H 
ENDBRANCH  34  35
ENDBRANCH  25  34
ENDBRANCH   4  24
BRANCH   1  39
ATOM     39  C   LIG d   1       3.597  -0.500  -2.645  0.00  0.00    -0.020 C 
ATOM     40  H   LIG d   1       2.543  -0.281  -2.473  0.00  0.00     0.032 H 
BRANCH  39  41
ATOM     41  C   LIG d   1       3.881  -1.959  -2.282  0.00  0.00    -0.060 C 
ATOM     42  H   LIG d   1       3.102  -2.596  -2.700  0.00  0.00     0.023 H 
ATOM     43  H   LIG d   1       4.848  -2.253  -2.689  0.00  0.00     0.023 H 
ATOM     44  H   LIG d   1       3.896  -2.067  -1.198  0.00  0.00     0.023 H 
ENDBRANCH  39  41
BRANCH  39  45
ATOM     45  C   LIG d   1       4.457   0.419  -1.775  0.00  0.00    -0.060 C 
ATOM     46  H   LIG d   1       5.443  -0.024  -1.643  0.00  0.00     0.023 H 
ATOM     47  H   LIG d   1       4.557   1.390  -2.262  0.00  0.00     0.023 H 
ATOM     48  H   LIG d   1       3.982   0.548  -0.803  0.00  0.00     0.023 H 
ENDBRANCH  39  45
ENDBRANCH   1  39
TORSDOF 9
ENDMDL
MODEL 4
REMARK VINA RESULT:      -5.0      1.060      4.619
REMARK  9 active torsions:
REMARK  status: ('A' for Active; 'I' for Inactive)
REMARK    1  A    between atoms: C_1  and  C_2 
REMARK    2  A    between atoms: C_2  and  C_3 
REMARK    3  A    between atoms: C_2  and  C_4 
REMARK    4  A    between atoms: C_7  and  C_11 
REMARK    5  A    between atoms: C_7  and  C_13 
REMARK    6  A    between atoms: C_11  and  C_12 
REMARK    7  A    between atoms: C_12  and  N_47 
REMARK    8  A    between atoms: C_18  and  O_19 
REMARK    9  A    between atoms: O_19  and  C_20 
ROOT
ATOM      1  C   LIG d   1       3.707  -0.161  -4.600  0.00  0.00     0.062 C 
ATOM      2  H   LIG d   1       4.527   0.557  -4.650  0.00  0.00     0.060 H 
ATOM      3  C   LIG d   1       4.224  -1.553  -4.972  0.00  0.00    -0.016 C 
ATOM      4  C   LIG d   1       4.733  -1.530  -6.417  0.00  0.00     0.008 C 
ATOM      5  C   LIG d   1       3.603  -1.062  -7.339  0.00  0.00    -0.019 C 
ATOM      6  C   LIG d   1       3.111   0.311  -6.874  0.00  0.00     0.049 C 
ATOM      7  O   LIG d   1       2.679   0.226  -5.515  0.00  0.00    -0.376 OA
ATOM      8  H   LIG d   1       3.414  -2.278  -4.884  0.00  0.00     0.030 H 
ATOM      9  H   LIG d   1       5.037  -1.831  -4.303  0.00  0.00     0.030 H 
ATOM     10  H   LIG d   1       3.973  -0.990  -8.362  0.00  0.00     0.030 H 
ATOM     11  H   LIG d   1       2.781  -1.777  -7.298  0.00  0.00     0.030 H 
ATOM     12  H   LIG d   1       3.922   1.035  -6.954  0.00  0.00     0.056 H 
ATOM     13  H   LIG d   1       2.277   0.629  -7.500  0.00  0.00     0.056 H 
ENDROOT
BRANCH   4  14
ATOM     14  C   LIG d   1       5.181  -2.934  -6.827  0.00  0.00    -0.003 C 
ATOM     15  H   LIG d   1       4.822  -3.151  -7.833  0.00  0.00     0.033 H 
ATOM     16  H   LIG d   1       6.270  -2.988  -6.811  0.00  0.00     0.033 H 
BRANCH  14  17
ATOM     17  C   LIG d   1       4.605  -3.959  -5.848  0.00  0.00    -0.035 C 
ATOM     18  H   LIG d   1       5.387  -4.660  -5.555  0.00  0.00     0.081 H 
ATOM     19  H   LIG d   1       4.227  -3.446  -4.965  0.00  0.00     0.081 H 
BRANCH  17  20
ATOM     20  N   LIG d   1       3.522  -4.704  -6.515  0.00  0.00     0.218 N 
ATOM     21  H   LIG d   1       2.907  -5.124  -5.819  0.00  0.00     0.199 HD
ATOM     22  H   LIG d   1       2.983  -4.078  -7.110  0.00  0.00     0.199 HD
ATOM     23  H   LIG d   1       3.931  -5.447  -7.094  0.00  0.00     0.199 HD
ENDBRANCH  17  20
ENDBRANCH  14  17
ENDBRANCH   4  14
BRANCH   4  24
ATOM     24  C   LIG d   1       5.897  -0.578  -6.525  0.00  0.00     0.001 A 
ATOM     25  C   LIG d   1       6.880  -0.571  -5.547  0.00  0.00     0.124 A 
ATOM     26  C   LIG d   1       7.952   0.306  -5.649  0.00  0.00    -0.020 A 
ATOM     27  C   LIG d   1       8.035   1.168  -6.726  0.00  0.00    -0.058 A 
ATOM     28  H   LIG d   1       8.719   0.314  -4.889  0.00  0.00     0.065 H 
ATOM     29  C   LIG d   1       7.054   1.158  -7.699  0.00  0.00    -0.061 A 
ATOM     30  H   LIG d   1       8.871   1.847  -6.808  0.00  0.00     0.062 H 
ATOM     31  C   LIG d   1       5.985   0.287  -7.599  0.00  0.00    -0.055 A 
ATOM     32  H   LIG d   1       7.122   1.834  -8.539  0.00  0.00     0.062 H 
ATOM     33  H   LIG d   1       5.220   0.281  -8.361  0.00  0.00     0.062 H 
BRANCH  25  34
ATOM     34  O   LIG d   1       6.796  -1.421  -4.490  0.00  0.00    -0.495 OA
BRANCH  34  35
ATOM     35  C   LIG d   1       7.887  -2.322  -4.294  0.00  0.00     0.079 C 
ATOM     36  H   LIG d   1       8.255  -2.664  -5.261  0.00  0.00     0.066 H 
ATOM     37  H   LIG d   1       8.689  -1.812  -3.760  0.00  0.00     0.066 H 
ATOM     38  H   LIG d   1       7.549  -3.179  -3.710  0.00  0.00     0.066 H 
ENDBRANCH  34  35
ENDBRANCH  25  34
ENDBRANCH   4  24
BRANCH   1  39
ATOM     39  C   LIG d   1       3.141  -0.190  -3.179  0.00  0.00    -0.020 C 
ATOM     40  H   LIG d   1       2.059  -0.061  -3.215  0.00  0.00     0.032 H 
BRANCH  39  41
ATOM     41  C   LIG d   1       3.473  -1.533  -2.525  0.00  0.00    -0.060 C 
ATOM     42  H   LIG d   1       4.551  -1.614  -2.389  0.00  0.00     0.023 H 
ATOM     43  H   LIG d   1       2.979  -1.597  -1.556  0.00  0.00     0.023 H 
ATOM     44  H   LIG d   1       3.125  -2.344  -3.164  0.00  0.00     0.023 H 
ENDBRANCH  39  41
BRANCH  39  45
ATOM     45  C   LIG d   1       3.762   0.943  -2.359  0.00  0.00    -0.060 C 
ATOM     46  H   LIG d   1       4.801   0.702  -2.135  0.00  0.00     0.023 H 
ATOM     47  H   LIG d   1       3.720   1.870  -2.932  0.00  0.00     0.023 H 
ATOM     48  H   LIG d   1       3.208   1.065  -1.429  0.00  0.00     0.023 H 
ENDBRANCH  39  45
ENDBRANCH   1  39
TORSDOF 9
ENDMDL
MODEL 5
REMARK VINA RESULT:      -4.9      2.568      4.625
REMARK  9 active torsions:
REMARK  status: ('A' for Active; 'I' for Inactive)
REMARK    1  A    between atoms: C_1  and  C_2 
REMARK    2  A    between atoms: C_2  and  C_3 
REMARK    3  A    between atoms: C_2  and  C_4 
REMARK    4  A    between atoms: C_7  and  C_11 
REMARK    5  A    between atoms: C_7  and  C_13 
REMARK    6  A    between atoms: C_11  and  C_12 
REMARK    7  A    between atoms: C_12  and  N_47 
REMARK    8  A    between atoms: C_18  and  O_19 
REMARK    9  A    between atoms: O_19  and  C_20 
ROOT
ATOM      1  C   LIG d   1       3.911  -1.535  -4.168  0.00  0.00     0.062 C 
ATOM      2  H   LIG d   1       3.114  -1.395  -4.899  0.00  0.00     0.060 H 
ATOM      3  C   LIG d   1       5.127  -0.697  -4.572  0.00  0.00    -0.016 C 
ATOM      4  C   LIG d   1       5.647  -1.188  -5.927  0.00  0.00     0.008 C 
ATOM      5  C   LIG d   1       5.976  -2.681  -5.826  0.00  0.00    -0.019 C 
ATOM      6  C   LIG d   1       4.727  -3.441  -5.373  0.00  0.00     0.049 C 
ATOM      7  O   LIG d   1       4.279  -2.916  -4.122  0.00  0.00    -0.376 OA
ATOM      8  H   LIG d   1       5.910  -0.805  -3.821  0.00  0.00     0.030 H 
ATOM      9  H   LIG d   1       4.838   0.351  -4.651  0.00  0.00     0.030 H 
ATOM     10  H   LIG d   1       6.295  -3.051  -6.801  0.00  0.00     0.030 H 
ATOM     11  H   LIG d   1       6.776  -2.829  -5.100  0.00  0.00     0.030 H 
ATOM     12  H   LIG d   1       3.941  -3.326  -6.119  0.00  0.00     0.056 H 
ATOM     13  H   LIG d   1       4.967  -4.498  -5.257  0.00  0.00     0.056 H 
ENDROOT
BRANCH   4  14
ATOM     14  C   LIG d   1       6.909  -0.410  -6.306  0.00  0.00    -0.003 C 
ATOM     15  H   LIG d   1       7.676  -1.105  -6.644  0.00  0.00     0.033 H 
ATOM     16  H   LIG d   1       6.676   0.292  -7.107  0.00  0.00     0.033 H 
BRANCH  14  17
ATOM     17  C   LIG d   1       7.420   0.359  -5.087  0.00  0.00    -0.035 C 
ATOM     18  H   LIG d   1       6.661   0.344  -4.304  0.00  0.00     0.081 H 
ATOM     19  H   LIG d   1       8.332  -0.108  -4.717  0.00  0.00     0.081 H 
BRANCH  17  20
ATOM     20  N   LIG d   1       7.678   1.758  -5.475  0.00  0.00     0.218 N 
ATOM     21  H   LIG d   1       8.239   2.220  -4.761  0.00  0.00     0.199 HD
ATOM     22  H   LIG d   1       8.171   1.787  -6.365  0.00  0.00     0.199 HD
ATOM     23  H   LIG d   1       6.783   2.252  -5.571  0.00  0.00     0.199 HD
ENDBRANCH  17  20
ENDBRANCH  14  17
ENDBRANCH   4  14
BRANCH   4  24
ATOM     24  C   LIG d   1       4.589  -0.976  -6.979  0.00  0.00     0.001 A 
ATOM     25  C   LIG d   1       4.718  -1.575  -8.223  0.00  0.00     0.124 A 
ATOM     26  C   LIG d   1       3.742  -1.379  -9.191  0.00  0.00    -0.020 A 
ATOM     27  C   LIG d   1       2.644  -0.588  -8.910  0.00  0.00    -0.058 A 
ATOM     28  H   LIG d   1       3.840  -1.843 -10.160  0.00  0.00     0.065 H 
ATOM     29  C   LIG d   1       2.518   0.007  -7.669  0.00  0.00    -0.061 A 
ATOM     30  H   LIG d   1       1.882  -0.439  -9.661  0.00  0.00     0.062 H 
ATOM     31  C   LIG d   1       3.489  -0.186  -6.704  0.00  0.00    -0.055 A 
ATOM     32  H   LIG d   1       1.659   0.625  -7.453  0.00  0.00     0.062 H 
ATOM     33  H   LIG d   1       3.388   0.280  -5.735  0.00  0.00     0.062 H 
BRANCH  25  34
ATOM     34  O   LIG d   1       5.798  -2.353  -8.496  0.00  0.00    -0.495 OA
BRANCH  34  35
ATOM     35  C   LIG d   1       6.458  -2.133  -9.745  0.00  0.00     0.079 C 
ATOM     36  H   LIG d   1       7.351  -2.756  -9.798  0.00  0.00     0.066 H 
ATOM     37  H   LIG d   1       5.785  -2.392 -10.562  0.00  0.00     0.066 H 
ATOM     38  H   LIG d   1       6.741  -1.084  -9.826  0.00  0.00     0.066 H 
ENDBRANCH  34  35
ENDBRANCH  25  34
ENDBRANCH   4  24
BRANCH   1  39
ATOM     39  C   LIG d   1       3.422  -1.091  -2.788  0.00  0.00    -0.020 C 
ATOM     40  H   LIG d   1       2.469  -1.571  -2.568  0.00  0.00     0.032 H 
BRANCH  39  41
ATOM     41  C   LIG d   1       4.451  -1.490  -1.729  0.00  0.00    -0.060 C 
ATOM     42  H   LIG d   1       4.630  -2.564  -1.782  0.00  0.00     0.023 H 
ATOM     43  H   LIG d   1       5.385  -0.957  -1.911  0.00  0.00     0.023 H 
ATOM     44  H   LIG d   1       4.074  -1.232  -0.740  0.00  0.00     0.023 H 
ENDBRANCH  39  41
BRANCH  39  45
ATOM     45  C   LIG d   1       3.241   0.429  -2.776  0.00  0.00    -0.060 C 
ATOM     46  H   LIG d   1       2.208   0.670  -2.528  0.00  0.00     0.023 H 
ATOM     47  H   LIG d   1       3.905   0.868  -2.031  0.00  0.00     0.023 H 
ATOM     48  H   LIG d   1       3.482   0.831  -3.760  0.00  0.00     0.023 H 
ENDBRANCH  39  45
ENDBRANCH   1  39
TORSDOF 9
ENDMDL
MODEL 6
REMARK VINA RESULT:      -4.9      1.922      4.425
REMARK  9 active torsions:
REMARK  status: ('A' for Active; 'I' for Inactive)
REMARK    1  A    between atoms: C_1  and  C_2 
REMARK    2  A    between atoms: C_2  and  C_3 
REMARK    3  A    between atoms: C_2  and  C_4 
REMARK    4  A    between atoms: C_7  and  C_11 
REMARK    5  A    between atoms: C_7  and  C_13 
REMARK    6  A    between atoms: C_11  and  C_12 
REMARK    7  A    between atoms: C_12  and  N_47 
REMARK    8  A    between atoms: C_18  and  O_19 
REMARK    9  A    between atoms: O_19  and  C_20 
ROOT
ATOM      1  C   LIG d   1       5.797  -0.284  -3.030  0.00  0.00     0.062 C 
ATOM      2  H   LIG d   1       6.446  -1.122  -2.775  0.00  0.00     0.060 H 
ATOM      3  C   LIG d   1       5.244  -0.478  -4.445  0.00  0.00    -0.016 C 
ATOM      4  C   LIG d   1       6.408  -0.483  -5.442  0.00  0.00     0.008 C 
ATOM      5  C   LIG d   1       7.197   0.822  -5.298  0.00  0.00    -0.019 C 
ATOM      6  C   LIG d   1       7.672   0.965  -3.850  0.00  0.00     0.049 C 
ATOM      7  O   LIG d   1       6.545   0.933  -2.974  0.00  0.00    -0.376 OA
ATOM      8  H   LIG d   1       4.564   0.340  -4.685  0.00  0.00     0.030 H 
ATOM      9  H   LIG d   1       4.711  -1.426  -4.502  0.00  0.00     0.030 H 
ATOM     10  H   LIG d   1       8.059   0.803  -5.965  0.00  0.00     0.030 H 
ATOM     11  H   LIG d   1       6.555   1.665  -5.555  0.00  0.00     0.030 H 
ATOM     12  H   LIG d   1       8.347   0.144  -3.606  0.00  0.00     0.056 H 
ATOM     13  H   LIG d   1       8.197   1.913  -3.732  0.00  0.00     0.056 H 
ENDROOT
BRANCH   4  14
ATOM     14  C   LIG d   1       5.863  -0.598  -6.867  0.00  0.00    -0.003 C 
ATOM     15  H   LIG d   1       6.290   0.192  -7.484  0.00  0.00     0.033 H 
ATOM     16  H   LIG d   1       6.134  -1.570  -7.282  0.00  0.00     0.033 H 
BRANCH  14  17
ATOM     17  C   LIG d   1       4.340  -0.460  -6.844  0.00  0.00    -0.035 C 
ATOM     18  H   LIG d   1       4.007  -0.284  -5.821  0.00  0.00     0.081 H 
ATOM     19  H   LIG d   1       4.041   0.377  -7.473  0.00  0.00     0.081 H 
BRANCH  17  20
ATOM     20  N   LIG d   1       3.737  -1.713  -7.334  0.00  0.00     0.218 N 
ATOM     21  H   LIG d   1       3.985  -2.485  -6.716  0.00  0.00     0.199 HD
ATOM     22  H   LIG d   1       2.723  -1.621  -7.371  0.00  0.00     0.199 HD
ATOM     23  H   LIG d   1       4.090  -1.911  -8.277  0.00  0.00     0.199 HD
ENDBRANCH  17  20
ENDBRANCH  14  17
ENDBRANCH   4  14
BRANCH   4  24
ATOM     24  C   LIG d   1       7.313  -1.653  -5.152  0.00  0.00     0.001 A 
ATOM     25  C   LIG d   1       6.776  -2.919  -4.972  0.00  0.00     0.124 A 
ATOM     26  C   LIG d   1       7.612  -3.994  -4.706  0.00  0.00    -0.020 A 
ATOM     27  C   LIG d   1       8.977  -3.801  -4.622  0.00  0.00    -0.058 A 
ATOM     28  H   LIG d   1       7.196  -4.981  -4.565  0.00  0.00     0.065 H 
ATOM     29  C   LIG d   1       9.510  -2.538  -4.803  0.00  0.00    -0.061 A 
ATOM     30  H   LIG d   1       9.628  -4.638  -4.420  0.00  0.00     0.062 H 
ATOM     31  C   LIG d   1       8.679  -1.465  -5.067  0.00  0.00    -0.055 A 
ATOM     32  H   LIG d   1      10.578  -2.390  -4.736  0.00  0.00     0.062 H 
ATOM     33  H   LIG d   1       9.098  -0.480  -5.207  0.00  0.00     0.062 H 
BRANCH  25  34
ATOM     34  O   LIG d   1       5.433  -3.106  -5.056  0.00  0.00    -0.495 OA
BRANCH  34  35
ATOM     35  C   LIG d   1       4.974  -4.448  -5.231  0.00  0.00     0.079 C 
ATOM     36  H   LIG d   1       3.999  -4.439  -5.717  0.00  0.00     0.066 H 
ATOM     37  H   LIG d   1       5.683  -4.997  -5.850  0.00  0.00     0.066 H 
ATOM     38  H   LIG d   1       4.890  -4.933  -4.258  0.00  0.00     0.066 H 
ENDBRANCH  34  35
ENDBRANCH  25  34
ENDBRANCH   4  24
BRANCH   1  39
ATOM     39  C   LIG d   1       4.636  -0.217  -2.035  0.00  0.00    -0.020 C 
ATOM     40  H   LIG d   1       5.019  -0.333  -1.021  0.00  0.00     0.032 H 
BRANCH  39  41
ATOM     41  C   LIG d   1       3.932   1.135  -2.162  0.00  0.00    -0.060 C 
ATOM     42  H   LIG d   1       2.997   1.008  -2.707  0.00  0.00     0.023 H 
ATOM     43  H   LIG d   1       3.722   1.530  -1.168  0.00  0.00     0.023 H 
ATOM     44  H   LIG d   1       4.575   1.831  -2.700  0.00  0.00     0.023 H 
ENDBRANCH  39  41
BRANCH  39  45
ATOM     45  C   LIG d   1       3.642  -1.340  -2.336  0.00  0.00    -0.060 C 
ATOM     46  H   LIG d   1       3.899  -1.808  -3.285  0.00  0.00     0.023 H 
ATOM     47  H   LIG d   1       3.684  -2.085  -1.540  0.00  0.00     0.023 H 
ATOM     48  H   LIG d   1       2.634  -0.927  -2.395  0.00  0.00     0.023 H 
ENDBRANCH  39  45
ENDBRANCH   1  39
TORSDOF 9
ENDMDL
MODEL 7
REMARK VINA RESULT:      -4.9      2.166      4.101
REMARK  9 active torsions:
REMARK  status: ('A' for Active; 'I' for Inactive)
REMARK    1  A    between atoms: C_1  and  C_2 
REMARK    2  A    between atoms: C_2  and  C_3 
REMARK    3  A    between atoms: C_2  and  C_4 
REMARK    4  A    between atoms: C_7  and  C_11 
REMARK    5  A    between atoms: C_7  and  C_13 
REMARK    6  A    between atoms: C_11  and  C_12 
REMARK    7  A    between atoms: C_12  and  N_47 
REMARK    8  A    between atoms: C_18  and  O_19 
REMARK    9  A    between atoms: O_19  and  C_20 
ROOT
ATOM      1  C   LIG d   1       4.295  -0.942  -7.165  0.00  0.00     0.062 C 
ATOM      2  H   LIG d   1       3.798  -0.164  -6.584  0.00  0.00     0.060 H 
ATOM      3  C   LIG d   1       4.692  -2.095  -6.239  0.00  0.00    -0.016 C 
ATOM      4  C   LIG d   1       5.693  -1.582  -5.199  0.00  0.00     0.008 C 
ATOM      5  C   LIG d   1       6.898  -0.973  -5.921  0.00  0.00    -0.019 C 
ATOM      6  C   LIG d   1       6.415   0.136  -6.858  0.00  0.00     0.049 C 
ATOM      7  O   LIG d   1       5.466  -0.402  -7.781  0.00  0.00    -0.376 OA
ATOM      8  H   LIG d   1       5.153  -2.891  -6.826  0.00  0.00     0.030 H 
ATOM      9  H   LIG d   1       3.806  -2.479  -5.735  0.00  0.00     0.030 H 
ATOM     10  H   LIG d   1       7.590  -0.556  -5.189  0.00  0.00     0.030 H 
ATOM     11  H   LIG d   1       7.403  -1.746  -6.501  0.00  0.00     0.030 H 
ATOM     12  H   LIG d   1       5.947   0.928  -6.274  0.00  0.00     0.056 H 
ATOM     13  H   LIG d   1       7.264   0.543  -7.407  0.00  0.00     0.056 H 
ENDROOT
BRANCH   4  14
ATOM     14  C   LIG d   1       6.156  -2.743  -4.316  0.00  0.00    -0.003 C 
ATOM     15  H   LIG d   1       5.963  -2.504  -3.271  0.00  0.00     0.033 H 
ATOM     16  H   LIG d   1       5.612  -3.647  -4.589  0.00  0.00     0.033 H 
BRANCH  14  17
ATOM     17  C   LIG d   1       7.656  -2.970  -4.518  0.00  0.00    -0.035 C 
ATOM     18  H   LIG d   1       7.828  -4.000  -4.831  0.00  0.00     0.081 H 
ATOM     19  H   LIG d   1       8.026  -2.291  -5.285  0.00  0.00     0.081 H 
BRANCH  17  20
ATOM     20  N   LIG d   1       8.353  -2.735  -3.241  0.00  0.00     0.218 N 
ATOM     21  H   LIG d   1       8.930  -3.541  -3.004  0.00  0.00     0.199 HD
ATOM     22  H   LIG d   1       8.942  -1.907  -3.312  0.00  0.00     0.199 HD
ATOM     23  H   LIG d   1       7.659  -2.590  -2.499  0.00  0.00     0.199 HD
ENDBRANCH  17  20
ENDBRANCH  14  17
ENDBRANCH   4  14
BRANCH   4  24
ATOM     24  C   LIG d   1       5.034  -0.530  -4.343  0.00  0.00     0.001 A 
ATOM     25  C   LIG d   1       5.808   0.300  -3.546  0.00  0.00     0.124 A 
ATOM     26  C   LIG d   1       5.200   1.269  -2.760  0.00  0.00    -0.020 A 
ATOM     27  C   LIG d   1       3.825   1.404  -2.775  0.00  0.00    -0.058 A 
ATOM     28  H   LIG d   1       5.800   1.916  -2.138  0.00  0.00     0.065 H 
ATOM     29  C   LIG d   1       3.056   0.575  -3.571  0.00  0.00    -0.061 A 
ATOM     30  H   LIG d   1       3.351   2.160  -2.167  0.00  0.00     0.062 H 
ATOM     31  C   LIG d   1       3.660  -0.391  -4.354  0.00  0.00    -0.055 A 
ATOM     32  H   LIG d   1       1.981   0.683  -3.580  0.00  0.00     0.062 H 
ATOM     33  H   LIG d   1       3.057  -1.037  -4.975  0.00  0.00     0.062 H 
BRANCH  25  34
ATOM     34  O   LIG d   1       7.160   0.166  -3.534  0.00  0.00    -0.495 OA
BRANCH  34  35
ATOM     35  C   LIG d   1       7.933   1.361  -3.659  0.00  0.00     0.079 C 
ATOM     36  H   LIG d   1       8.073   1.595  -4.714  0.00  0.00     0.066 H 
ATOM     37  H   LIG d   1       7.410   2.184  -3.171  0.00  0.00     0.066 H 
ATOM     38  H   LIG d   1       8.905   1.217  -3.187  0.00  0.00     0.066 H 
ENDBRANCH  34  35
ENDBRANCH  25  34
ENDBRANCH   4  24
BRANCH   1  39
ATOM     39  C   LIG d   1       3.342  -1.459  -8.244  0.00  0.00    -0.020 C 
ATOM     40  H   LIG d   1       2.831  -2.351  -7.882  0.00  0.00     0.032 H 
BRANCH  39  41
ATOM     41  C   LIG d   1       2.311  -0.379  -8.574  0.00  0.00    -0.060 C 
ATOM     42  H   LIG d   1       2.771   0.383  -9.203  0.00  0.00     0.023 H 
ATOM     43  H   LIG d   1       1.471  -0.828  -9.105  0.00  0.00     0.023 H 
ATOM     44  H   LIG d   1       1.954   0.078  -7.652  0.00  0.00     0.023 H 
ENDBRANCH  39  41
BRANCH  39  45
ATOM     45  C   LIG d   1       4.139  -1.806  -9.504  0.00  0.00    -0.060 C 
ATOM     46  H   LIG d   1       3.727  -1.264 -10.355  0.00  0.00     0.023 H 
ATOM     47  H   LIG d   1       5.182  -1.521  -9.364  0.00  0.00     0.023 H 
ATOM     48  H   LIG d   1       4.076  -2.878  -9.690  0.00  0.00     0.023 H 
ENDBRANCH  39  45
ENDBRANCH   1  39
TORSDOF 9
ENDMDL
MODEL 8
REMARK VINA RESULT:      -4.9      2.384      4.880
REMARK  9 active torsions:
REMARK  status: ('A' for Active; 'I' for Inactive)
REMARK    1  A    between atoms: C_1  and  C_2 
REMARK    2  A    between atoms: C_2  and  C_3 
REMARK    3  A    between atoms: C_2  and  C_4 
REMARK    4  A    between atoms: C_7  and  C_11 
REMARK    5  A    between atoms: C_7  and  C_13 
REMARK    6  A    between atoms: C_11  and  C_12 
REMARK    7  A    between atoms: C_12  and  N_47 
REMARK    8  A    between atoms: C_18  and  O_19 
REMARK    9  A    between atoms: O_19  and  C_20 
ROOT
ATOM      1  C   LIG d   1       5.942  -0.196  -2.956  0.00  0.00     0.062 C 
ATOM      2  H   LIG d   1       6.680  -0.909  -2.586  0.00  0.00     0.060 H 
ATOM      3  C   LIG d   1       5.504  -0.600  -4.366  0.00  0.00    -0.016 C 
ATOM      4  C   LIG d   1       6.714  -0.544  -5.303  0.00  0.00     0.008 C 
ATOM      5  C   LIG d   1       7.315   0.865  -5.261  0.00  0.00    -0.019 C 
ATOM      6  C   LIG d   1       7.682   1.211  -3.816  0.00  0.00     0.049 C 
ATOM      7  O   LIG d   1       6.519   1.111  -2.993  0.00  0.00    -0.376 OA
ATOM      8  H   LIG d   1       4.737   0.089  -4.721  0.00  0.00     0.030 H 
ATOM      9  H   LIG d   1       5.104  -1.613  -4.348  0.00  0.00     0.030 H 
ATOM     10  H   LIG d   1       8.210   0.899  -5.883  0.00  0.00     0.030 H 
ATOM     11  H   LIG d   1       6.585   1.583  -5.634  0.00  0.00     0.030 H 
ATOM     12  H   LIG d   1       8.443   0.518  -3.458  0.00  0.00     0.056 H 
ATOM     13  H   LIG d   1       8.070   2.229  -3.775  0.00  0.00     0.056 H 
ENDROOT
BRANCH   4  14
ATOM     14  C   LIG d   1       6.274  -0.870  -6.732  0.00  0.00    -0.003 C 
ATOM     15  H   LIG d   1       6.978  -1.573  -7.177  0.00  0.00     0.033 H 
ATOM     16  H   LIG d   1       5.279  -1.315  -6.713  0.00  0.00     0.033 H 
BRANCH  14  17
ATOM     17  C   LIG d   1       6.242   0.414  -7.562  0.00  0.00    -0.035 C 
ATOM     18  H   LIG d   1       6.694   1.226  -6.993  0.00  0.00     0.081 H 
ATOM     19  H   LIG d   1       6.801   0.264  -8.486  0.00  0.00     0.081 H 
BRANCH  17  20
ATOM     20  N   LIG d   1       4.840   0.760  -7.859  0.00  0.00     0.218 N 
ATOM     21  H   LIG d   1       4.276   0.686  -7.014  0.00  0.00     0.199 HD
ATOM     22  H   LIG d   1       4.785   1.710  -8.222  0.00  0.00     0.199 HD
ATOM     23  H   LIG d   1       4.475   0.110  -8.564  0.00  0.00     0.199 HD
ENDBRANCH  17  20
ENDBRANCH  14  17
ENDBRANCH   4  14
BRANCH   4  24
ATOM     24  C   LIG d   1       7.747  -1.545  -4.853  0.00  0.00     0.001 A 
ATOM     25  C   LIG d   1       9.024  -1.516  -5.393  0.00  0.00     0.124 A 
ATOM     26  C   LIG d   1       9.973  -2.438  -4.976  0.00  0.00    -0.020 A 
ATOM     27  C   LIG d   1       9.643  -3.383  -4.023  0.00  0.00    -0.058 A 
ATOM     28  H   LIG d   1      10.968  -2.418  -5.395  0.00  0.00     0.065 H 
ATOM     29  C   LIG d   1       8.370  -3.409  -3.486  0.00  0.00    -0.061 A 
ATOM     30  H   LIG d   1      10.383  -4.098  -3.694  0.00  0.00     0.062 H 
ATOM     31  C   LIG d   1       7.422  -2.492  -3.900  0.00  0.00    -0.055 A 
ATOM     32  H   LIG d   1       8.115  -4.149  -2.741  0.00  0.00     0.062 H 
ATOM     33  H   LIG d   1       6.428  -2.515  -3.479  0.00  0.00     0.062 H 
BRANCH  25  34
ATOM     34  O   LIG d   1       9.346  -0.585  -6.329  0.00  0.00    -0.495 OA
BRANCH  34  35
ATOM     35  C   LIG d   1       9.947  -1.059  -7.536  0.00  0.00     0.079 C 
ATOM     36  H   LIG d   1       9.193  -1.555  -8.146  0.00  0.00     0.066 H 
ATOM     37  H   LIG d   1      10.366  -0.218  -8.088  0.00  0.00     0.066 H 
ATOM     38  H   LIG d   1      10.740  -1.766  -7.293  0.00  0.00     0.066 H 
ENDBRANCH  34  35
ENDBRANCH  25  34
ENDBRANCH   4  24
BRANCH   1  39
ATOM     39  C   LIG d   1       4.727  -0.191  -2.026  0.00  0.00    -0.020 C 
ATOM     40  H   LIG d   1       5.062  -0.223  -0.989  0.00  0.00     0.032 H 
BRANCH  39  41
ATOM     41  C   LIG d   1       3.910   1.081  -2.260  0.00  0.00    -0.060 C 
ATOM     42  H   LIG d   1       3.045   1.084  -1.596  0.00  0.00     0.023 H 
ATOM     43  H   LIG d   1       4.529   1.953  -2.054  0.00  0.00     0.023 H 
ATOM     44  H   LIG d   1       3.573   1.111  -3.296  0.00  0.00     0.023 H 
ENDBRANCH  39  41
BRANCH  39  45
ATOM     45  C   LIG d   1       3.858  -1.417  -2.318  0.00  0.00    -0.060 C 
ATOM     46  H   LIG d   1       3.062  -1.141  -3.009  0.00  0.00     0.023 H 
ATOM     47  H   LIG d   1       4.472  -2.199  -2.765  0.00  0.00     0.023 H 
ATOM     48  H   LIG d   1       3.422  -1.783  -1.388  0.00  0.00     0.023 H 
ENDBRANCH  39  45
ENDBRANCH   1  39
TORSDOF 9
ENDMDL
MODEL 9
REMARK VINA RESULT:      -4.8      1.929      4.250
REMARK  9 active torsions:
REMARK  status: ('A' for Active; 'I' for Inactive)
REMARK    1  A    between atoms: C_1  and  C_2 
REMARK    2  A    between atoms: C_2  and  C_3 
REMARK    3  A    between atoms: C_2  and  C_4 
REMARK    4  A    between atoms: C_7  and  C_11 
REMARK    5  A    between atoms: C_7  and  C_13 
REMARK    6  A    between atoms: C_11  and  C_12 
REMARK    7  A    between atoms: C_12  and  N_47 
REMARK    8  A    between atoms: C_18  and  O_19 
REMARK    9  A    between atoms: O_19  and  C_20 
ROOT
ATOM      1  C   LIG d   1       5.133  -0.951  -3.317  0.00  0.00     0.062 C 
ATOM      2  H   LIG d   1       5.258  -2.035  -3.320  0.00  0.00     0.060 H 
ATOM      3  C   LIG d   1       4.567  -0.500  -4.666  0.00  0.00    -0.016 C 
ATOM      4  C   LIG d   1       5.567  -0.849  -5.773  0.00  0.00     0.008 C 
ATOM      5  C   LIG d   1       6.914  -0.190  -5.456  0.00  0.00    -0.019 C 
ATOM      6  C   LIG d   1       7.388  -0.654  -4.077  0.00  0.00     0.049 C 
ATOM      7  O   LIG d   1       6.400  -0.326  -3.099  0.00  0.00    -0.376 OA
ATOM      8  H   LIG d   1       4.404   0.578  -4.650  0.00  0.00     0.030 H 
ATOM      9  H   LIG d   1       3.623  -1.010  -4.855  0.00  0.00     0.030 H 
ATOM     10  H   LIG d   1       7.647  -0.478  -6.210  0.00  0.00     0.030 H 
ATOM     11  H   LIG d   1       6.798   0.893  -5.456  0.00  0.00     0.030 H 
ATOM     12  H   LIG d   1       7.544  -1.733  -4.090  0.00  0.00     0.056 H 
ATOM     13  H   LIG d   1       8.325  -0.156  -3.828  0.00  0.00     0.056 H 
ENDROOT
BRANCH   4  14
ATOM     14  C   LIG d   1       5.048  -0.333  -7.116  0.00  0.00    -0.003 C 
ATOM     15  H   LIG d   1       5.569   0.588  -7.378  0.00  0.00     0.033 H 
ATOM     16  H   LIG d   1       5.227  -1.083  -7.887  0.00  0.00     0.033 H 
BRANCH  14  17
ATOM     17  C   LIG d   1       3.547  -0.057  -7.012  0.00  0.00    -0.035 C 
ATOM     18  H   LIG d   1       3.210  -0.261  -5.995  0.00  0.00     0.081 H 
ATOM     19  H   LIG d   1       3.351   0.986  -7.257  0.00  0.00     0.081 H 
BRANCH  17  20
ATOM     20  N   LIG d   1       2.829  -0.948  -7.941  0.00  0.00     0.218 N 
ATOM     21  H   LIG d   1       3.358  -1.051  -8.805  0.00  0.00     0.199 HD
ATOM     22  H   LIG d   1       2.697  -1.863  -7.514  0.00  0.00     0.199 HD
ATOM     23  H   LIG d   1       1.911  -0.542  -8.155  0.00  0.00     0.199 HD
ENDBRANCH  17  20
ENDBRANCH  14  17
ENDBRANCH   4  14
BRANCH   4  24
ATOM     24  C   LIG d   1       5.742  -2.344  -5.841  0.00  0.00     0.001 A 
ATOM     25  C   LIG d   1       6.753  -2.890  -6.617  0.00  0.00     0.124 A 
ATOM     26  C   LIG d   1       6.912  -4.268  -6.677  0.00  0.00    -0.020 A 
ATOM     27  C   LIG d   1       6.063  -5.091  -5.962  0.00  0.00    -0.058 A 
ATOM     28  H   LIG d   1       7.699  -4.696  -7.281  0.00  0.00     0.065 H 
ATOM     29  C   LIG d   1       5.056  -4.544  -5.189  0.00  0.00    -0.061 A 
ATOM     30  H   LIG d   1       6.190  -6.163  -6.005  0.00  0.00     0.062 H 
ATOM     31  C   LIG d   1       4.895  -3.172  -5.128  0.00  0.00    -0.055 A 
ATOM     32  H   LIG d   1       4.394  -5.190  -4.632  0.00  0.00     0.062 H 
ATOM     33  H   LIG d   1       4.108  -2.747  -4.523  0.00  0.00     0.062 H 
BRANCH  25  34
ATOM     34  O   LIG d   1       7.587  -2.078  -7.318  0.00  0.00    -0.495 OA
BRANCH  34  35
ATOM     35  C   LIG d   1       8.914  -2.555  -7.549  0.00  0.00     0.079 C 
ATOM     36  H   LIG d   1       9.026  -3.547  -7.110  0.00  0.00     0.066 H 
ATOM     37  H   LIG d   1       9.099  -2.610  -8.622  0.00  0.00     0.066 H 
ATOM     38  H   LIG d   1       9.631  -1.873  -7.091  0.00  0.00     0.066 H 
ENDBRANCH  34  35
ENDBRANCH  25  34
ENDBRANCH   4  24
BRANCH   1  39
ATOM     39  C   LIG d   1       4.167  -0.553  -2.200  0.00  0.00    -0.020 C 
ATOM     40  H   LIG d   1       4.269  -1.248  -1.366  0.00  0.00     0.032 H 
BRANCH  39  41
ATOM     41  C   LIG d   1       4.493   0.864  -1.725  0.00  0.00    -0.060 C 
ATOM     42  H   LIG d   1       3.936   1.585  -2.323  0.00  0.00     0.023 H 
ATOM     43  H   LIG d   1       4.213   0.970  -0.677  0.00  0.00     0.023 H 
ATOM     44  H   LIG d   1       5.561   1.048  -1.835  0.00  0.00     0.023 H 
ENDBRANCH  39  41
BRANCH  39  45
ATOM     45  C   LIG d   1       2.732  -0.597  -2.727  0.00  0.00    -0.060 C 
ATOM     46  H   LIG d   1       2.103   0.059  -2.126  0.00  0.00     0.023 H 
ATOM     47  H   LIG d   1       2.716  -0.263  -3.765  0.00  0.00     0.023 H 
ATOM     48  H   LIG d   1       2.353  -1.617  -2.668  0.00  0.00     0.023 H 
ENDBRANCH  39  45
ENDBRANCH   1  39
TORSDOF 9
ENDMDL
MODEL 10
REMARK VINA RESULT:      -4.8      2.601      4.543
REMARK  9 active torsions:
REMARK  status: ('A' for Active; 'I' for Inactive)
REMARK    1  A    between atoms: C_1  and  C_2 
REMARK    2  A    between atoms: C_2  and  C_3 
REMARK    3  A    between atoms: C_2  and  C_4 
REMARK    4  A    between atoms: C_7  and  C_11 
REMARK    5  A    between atoms: C_7  and  C_13 
REMARK    6  A    between atoms: C_11  and  C_12 
REMARK    7  A    between atoms: C_12  and  N_47 
REMARK    8  A    between atoms: C_18  and  O_19 
REMARK    9  A    between atoms: O_19  and  C_20 
ROOT
ATOM      1  C   LIG d   1       5.632  -3.686  -6.008  0.00  0.00     0.062 C 
ATOM      2  H   LIG d   1       4.770  -3.222  -5.525  0.00  0.00     0.060 H 
ATOM      3  C   LIG d   1       6.710  -3.973  -4.960  0.00  0.00    -0.016 C 
ATOM      4  C   LIG d   1       7.179  -2.651  -4.345  0.00  0.00     0.008 C 
ATOM      5  C   LIG d   1       7.682  -1.730  -5.461  0.00  0.00    -0.019 C 
ATOM      6  C   LIG d   1       6.566  -1.530  -6.489  0.00  0.00     0.049 C 
ATOM      7  O   LIG d   1       6.156  -2.800  -7.000  0.00  0.00    -0.376 OA
ATOM      8  H   LIG d   1       7.555  -4.473  -5.435  0.00  0.00     0.030 H 
ATOM      9  H   LIG d   1       6.299  -4.613  -4.180  0.00  0.00     0.030 H 
ATOM     10  H   LIG d   1       7.966  -0.766  -5.039  0.00  0.00     0.030 H 
ATOM     11  H   LIG d   1       8.546  -2.185  -5.946  0.00  0.00     0.030 H 
ATOM     12  H   LIG d   1       5.717  -1.038  -6.014  0.00  0.00     0.056 H 
ATOM     13  H   LIG d   1       6.933  -0.911  -7.307  0.00  0.00     0.056 H 
ENDROOT
BRANCH   4  14
ATOM     14  C   LIG d   1       8.311  -2.918  -3.352  0.00  0.00    -0.003 C 
ATOM     15  H   LIG d   1       8.633  -1.978  -2.906  0.00  0.00     0.033 H 
ATOM     16  H   LIG d   1       7.957  -3.590  -2.569  0.00  0.00     0.033 H 
BRANCH  14  17
ATOM     17  C   LIG d   1       9.489  -3.565  -4.083  0.00  0.00    -0.035 C 
ATOM     18  H   LIG d   1       9.310  -4.635  -4.185  0.00  0.00     0.081 H 
ATOM     19  H   LIG d   1       9.593  -3.119  -5.072  0.00  0.00     0.081 H 
BRANCH  17  20
ATOM     20  N   LIG d   1      10.717  -3.358  -3.294  0.00  0.00     0.218 N 
ATOM     21  H   LIG d   1      10.494  -3.342  -2.299  0.00  0.00     0.199 HD
ATOM     22  H   LIG d   1      11.381  -4.108  -3.480  0.00  0.00     0.199 HD
ATOM     23  H   LIG d   1      11.140  -2.461  -3.558  0.00  0.00     0.199 HD
ENDBRANCH  17  20
ENDBRANCH  14  17
ENDBRANCH   4  14
BRANCH   4  24
ATOM     24  C   LIG d   1       6.027  -1.992  -3.631  0.00  0.00     0.001 A 
ATOM     25  C   LIG d   1       6.143  -0.684  -3.186  0.00  0.00     0.124 A 
ATOM     26  C   LIG d   1       5.081  -0.079  -2.528  0.00  0.00    -0.020 A 
ATOM     27  C   LIG d   1       3.910  -0.782  -2.321  0.00  0.00    -0.058 A 
ATOM     28  H   LIG d   1       5.169   0.939  -2.180  0.00  0.00     0.065 H 
ATOM     29  C   LIG d   1       3.796  -2.086  -2.766  0.00  0.00    -0.061 A 
ATOM     30  H   LIG d   1       3.081  -0.311  -1.814  0.00  0.00     0.062 H 
ATOM     31  C   LIG d   1       4.853  -2.691  -3.420  0.00  0.00    -0.055 A 
ATOM     32  H   LIG d   1       2.880  -2.633  -2.602  0.00  0.00     0.062 H 
ATOM     33  H   LIG d   1       4.762  -3.709  -3.767  0.00  0.00     0.062 H 
BRANCH  25  34
ATOM     34  O   LIG d   1       7.296   0.006  -3.392  0.00  0.00    -0.495 OA
BRANCH  34  35
ATOM     35  C   LIG d   1       7.174   1.396  -3.698  0.00  0.00     0.079 C 
ATOM     36  H   LIG d   1       8.063   1.729  -4.233  0.00  0.00     0.066 H 
ATOM     37  H   LIG d   1       6.294   1.556  -4.321  0.00  0.00     0.066 H 
ATOM     38  H   LIG d   1       7.073   1.964  -2.773  0.00  0.00     0.066 H 
ENDBRANCH  34  35
ENDBRANCH  25  34
ENDBRANCH   4  24
BRANCH   1  39
ATOM     39  C   LIG d   1       5.201  -4.996  -6.670  0.00  0.00    -0.020 C 
ATOM     40  H   LIG d   1       5.784  -5.154  -7.578  0.00  0.00     0.032 H 
BRANCH  39  41
ATOM     41  C   LIG d   1       5.438  -6.158  -5.703  0.00  0.00    -0.060 C 
ATOM     42  H   LIG d   1       6.381  -6.646  -5.946  0.00  0.00     0.023 H 
ATOM     43  H   LIG d   1       5.478  -5.778  -4.682  0.00  0.00     0.023 H 
ATOM     44  H   LIG d   1       4.623  -6.876  -5.791  0.00  0.00     0.023 H 
ENDBRANCH  39  41
BRANCH  39  45
ATOM     45  C   LIG d   1       3.715  -4.923  -7.025  0.00  0.00    -0.060 C 
ATOM     46  H   LIG d   1       3.536  -4.059  -7.665  0.00  0.00     0.023 H 
ATOM     47  H   LIG d   1       3.422  -5.832  -7.553  0.00  0.00     0.023 H 
ATOM     48  H   LIG d   1       3.127  -4.828  -6.112  0.00  0.00     0.023 H 
ENDBRANCH  39  45
ENDBRANCH   1  39
TORSDOF 9
ENDMDL
