MODEL 1
REMARK VINA RESULT:      -7.5      0.000      0.000
REMARK  4 active torsions:
REMARK  status: ('A' for Active; 'I' for Inactive)
REMARK    1  A    between atoms: C_1  and  C_2 
REMARK    2  A    between atoms: C_2  and  C_14 
REMARK    3  A    between atoms: N_3  and  C_4 
REMARK    4  A    between atoms: N_22  and  C_25 
ROOT
ATOM      1  C   LIG d   1       6.599  -3.155  -6.443  0.00  0.00     0.051 C 
ATOM      2  N   LIG d   1       6.172  -3.043  -7.674  0.00  0.00    -0.252 NA
ENDROOT
BRANCH   1   3
ATOM      3  C   LIG d   1       7.406  -4.360  -6.034  0.00  0.00    -0.022 C 
ATOM      4  H   LIG d   1       7.163  -5.199  -6.685  0.00  0.00     0.029 H 
ATOM      5  H   LIG d   1       8.469  -4.131  -6.117  0.00  0.00     0.029 H 
ATOM      6  H   LIG d   1       7.171  -4.622  -5.002  0.00  0.00     0.029 H 
ENDBRANCH   1   3
BRANCH   1   7
ATOM      7  C   LIG d   1       6.292  -2.112  -5.464  0.00  0.00     0.052 A 
ATOM      8  C   LIG d   1       7.183  -1.061  -5.255  0.00  0.00    -0.023 A 
ATOM      9  N   LIG d   1       6.929  -0.077  -4.362  0.00  0.00    -0.356 N 
ATOM     10  O   LIG d   1       8.327  -1.021  -5.967  0.00  0.00    -0.861 OA
ATOM     11  C   LIG d   1       5.779  -0.063  -3.598  0.00  0.00     0.052 A 
ATOM     12  C   LIG d   1       4.830  -1.087  -3.740  0.00  0.00     0.046 A 
ATOM     13  C   LIG d   1       5.548   0.960  -2.684  0.00  0.00    -0.037 A 
ATOM     14  C   LIG d   1       5.084  -2.167  -4.713  0.00  0.00     0.198 A 
ATOM     15  C   LIG d   1       3.668  -1.075  -2.969  0.00  0.00    -0.049 A 
ATOM     16  O   LIG d   1       4.287  -3.075  -4.868  0.00  0.00    -0.286 OA
ATOM     17  C   LIG d   1       3.458  -0.053  -2.068  0.00  0.00    -0.061 A 
ATOM     18  H   LIG d   1       2.935  -1.862  -3.076  0.00  0.00     0.062 H 
ATOM     19  C   LIG d   1       4.397   0.959  -1.928  0.00  0.00    -0.060 A 
ATOM     20  H   LIG d   1       2.559  -0.040  -1.469  0.00  0.00     0.062 H 
ATOM     21  H   LIG d   1       4.221   1.756  -1.219  0.00  0.00     0.062 H 
ATOM     22  H   LIG d   1       6.271   1.753  -2.566  0.00  0.00     0.064 H 
BRANCH   9  23
ATOM     23  C   LIG d   1       7.906   1.003  -4.197  0.00  0.00     0.011 C 
ATOM     24  H   LIG d   1       8.699   0.891  -4.936  0.00  0.00     0.045 H 
ATOM     25  H   LIG d   1       7.412   1.964  -4.337  0.00  0.00     0.045 H 
ATOM     26  H   LIG d   1       8.332   0.957  -3.195  0.00  0.00     0.045 H 
ENDBRANCH   9  23
ENDBRANCH   1   7
BRANCH   2  27
ATOM     27  C   LIG d   1       5.337  -2.015  -8.017  0.00  0.00     0.065 A 
ATOM     28  C   LIG d   1       5.861  -0.763  -8.290  0.00  0.00    -0.029 A 
ATOM     29  C   LIG d   1       4.998   0.284  -8.646  0.00  0.00    -0.016 A 
ATOM     30  H   LIG d   1       6.927  -0.594  -8.233  0.00  0.00     0.065 H 
ATOM     31  C   LIG d   1       3.602   0.047  -8.711  0.00  0.00    -0.018 A 
ATOM     32  C   LIG d   1       5.494   1.568  -8.935  0.00  0.00    -0.054 A 
ATOM     33  C   LIG d   1       3.099  -1.235  -8.423  0.00  0.00    -0.052 A 
ATOM     34  C   LIG d   1       2.742   1.100  -9.062  0.00  0.00    -0.054 A 
ATOM     35  C   LIG d   1       3.948  -2.238  -8.084  0.00  0.00    -0.036 A 
ATOM     36  H   LIG d   1       2.036  -1.422  -8.471  0.00  0.00     0.062 H 
ATOM     37  H   LIG d   1       3.555  -3.219  -7.865  0.00  0.00     0.064 H 
ATOM     38  C   LIG d   1       3.257   2.331  -9.335  0.00  0.00    -0.061 A 
ATOM     39  H   LIG d   1       1.676   0.935  -9.116  0.00  0.00     0.062 H 
ATOM     40  C   LIG d   1       4.629   2.564  -9.272  0.00  0.00    -0.061 A 
ATOM     41  H   LIG d   1       2.592   3.138  -9.604  0.00  0.00     0.062 H 
ATOM     42  H   LIG d   1       5.012   3.549  -9.493  0.00  0.00     0.062 H 
ATOM     43  H   LIG d   1       6.555   1.763  -8.891  0.00  0.00     0.062 H 
ENDBRANCH   2  27
TORSDOF 4
ENDMDL
MODEL 2
REMARK VINA RESULT:      -7.4      1.626      5.791
REMARK  4 active torsions:
REMARK  status: ('A' for Active; 'I' for Inactive)
REMARK    1  A    between atoms: C_1  and  C_2 
REMARK    2  A    between atoms: C_2  and  C_14 
REMARK    3  A    between atoms: N_3  and  C_4 
REMARK    4  A    between atoms: N_22  and  C_25 
ROOT
ATOM      1  C   LIG d   1       8.559  -0.988  -7.190  0.00  0.00     0.051 C 
ATOM      2  N   LIG d   1       8.848  -0.945  -5.917  0.00  0.00    -0.252 NA
ENDROOT
BRANCH   1   3
ATOM      3  C   LIG d   1       9.609  -1.409  -8.187  0.00  0.00    -0.022 C 
ATOM      4  H   LIG d   1       9.804  -2.476  -8.081  0.00  0.00     0.029 H 
ATOM      5  H   LIG d   1       9.255  -1.202  -9.197  0.00  0.00     0.029 H 
ATOM      6  H   LIG d   1      10.528  -0.852  -8.003  0.00  0.00     0.029 H 
ENDBRANCH   1   3
BRANCH   1   7
ATOM      7  C   LIG d   1       7.218  -0.628  -7.649  0.00  0.00     0.052 A 
ATOM      8  C   LIG d   1       6.199  -1.579  -7.657  0.00  0.00    -0.023 A 
ATOM      9  N   LIG d   1       4.946  -1.279  -8.069  0.00  0.00    -0.356 N 
ATOM     10  O   LIG d   1       6.469  -2.831  -7.236  0.00  0.00    -0.861 OA
ATOM     11  C   LIG d   1       4.606  -0.018  -8.516  0.00  0.00     0.052 A 
ATOM     12  C   LIG d   1       5.573   1.000  -8.548  0.00  0.00     0.046 A 
ATOM     13  C   LIG d   1       3.310   0.259  -8.939  0.00  0.00    -0.037 A 
ATOM     14  C   LIG d   1       6.944   0.695  -8.097  0.00  0.00     0.198 A 
ATOM     15  C   LIG d   1       5.232   2.274  -9.000  0.00  0.00    -0.049 A 
ATOM     16  O   LIG d   1       7.814   1.549  -8.107  0.00  0.00    -0.286 OA
ATOM     17  C   LIG d   1       3.943   2.528  -9.415  0.00  0.00    -0.061 A 
ATOM     18  H   LIG d   1       5.974   3.059  -9.025  0.00  0.00     0.062 H 
ATOM     19  C   LIG d   1       2.987   1.522  -9.385  0.00  0.00    -0.060 A 
ATOM     20  H   LIG d   1       3.675   3.514  -9.766  0.00  0.00     0.062 H 
ATOM     21  H   LIG d   1       1.979   1.733  -9.712  0.00  0.00     0.062 H 
ATOM     22  H   LIG d   1       2.558  -0.516  -8.920  0.00  0.00     0.064 H 
BRANCH   9  23
ATOM     23  C   LIG d   1       3.920  -2.326  -8.045  0.00  0.00     0.011 C 
ATOM     24  H   LIG d   1       4.193  -3.118  -8.741  0.00  0.00     0.045 H 
ATOM     25  H   LIG d   1       3.844  -2.736  -7.038  0.00  0.00     0.045 H 
ATOM     26  H   LIG d   1       2.960  -1.899  -8.336  0.00  0.00     0.045 H 
ENDBRANCH   9  23
ENDBRANCH   1   7
BRANCH   2  27
ATOM     27  C   LIG d   1       7.939  -0.446  -5.025  0.00  0.00     0.065 A 
ATOM     28  C   LIG d   1       7.053  -1.302  -4.393  0.00  0.00    -0.029 A 
ATOM     29  C   LIG d   1       6.127  -0.784  -3.476  0.00  0.00    -0.016 A 
ATOM     30  H   LIG d   1       7.078  -2.363  -4.600  0.00  0.00     0.065 H 
ATOM     31  C   LIG d   1       6.104   0.611  -3.219  0.00  0.00    -0.018 A 
ATOM     32  C   LIG d   1       5.214  -1.622  -2.810  0.00  0.00    -0.054 A 
ATOM     33  C   LIG d   1       7.013   1.456  -3.882  0.00  0.00    -0.052 A 
ATOM     34  C   LIG d   1       5.171   1.126  -2.305  0.00  0.00    -0.054 A 
ATOM     35  C   LIG d   1       7.906   0.937  -4.762  0.00  0.00    -0.036 A 
ATOM     36  H   LIG d   1       7.001   2.519  -3.690  0.00  0.00     0.062 H 
ATOM     37  H   LIG d   1       8.601   1.592  -5.266  0.00  0.00     0.064 H 
ATOM     38  C   LIG d   1       4.302   0.284  -1.679  0.00  0.00    -0.061 A 
ATOM     39  H   LIG d   1       5.141   2.186  -2.099  0.00  0.00     0.062 H 
ATOM     40  C   LIG d   1       4.324  -1.087  -1.931  0.00  0.00    -0.061 A 
ATOM     41  H   LIG d   1       3.586   0.685  -0.977  0.00  0.00     0.062 H 
ATOM     42  H   LIG d   1       3.625  -1.732  -1.422  0.00  0.00     0.062 H 
ATOM     43  H   LIG d   1       5.222  -2.686  -2.995  0.00  0.00     0.062 H 
ENDBRANCH   2  27
TORSDOF 4
ENDMDL
MODEL 3
REMARK VINA RESULT:      -7.2      1.394      5.071
REMARK  4 active torsions:
REMARK  status: ('A' for Active; 'I' for Inactive)
REMARK    1  A    between atoms: C_1  and  C_2 
REMARK    2  A    between atoms: C_2  and  C_14 
REMARK    3  A    between atoms: N_3  and  C_4 
REMARK    4  A    between atoms: N_22  and  C_25 
ROOT
ATOM      1  C   LIG d   1       6.308  -3.025  -7.331  0.00  0.00     0.051 C 
ATOM      2  N   LIG d   1       6.305  -3.310  -6.056  0.00  0.00    -0.252 NA
ENDROOT
BRANCH   1   3
ATOM      3  C   LIG d   1       6.713  -4.072  -8.336  0.00  0.00    -0.022 C 
ATOM      4  H   LIG d   1       5.910  -4.211  -9.059  0.00  0.00     0.029 H 
ATOM      5  H   LIG d   1       7.616  -3.748  -8.854  0.00  0.00     0.029 H 
ATOM      6  H   LIG d   1       6.907  -5.014  -7.822  0.00  0.00     0.029 H 
ENDBRANCH   1   3
BRANCH   1   7
ATOM      7  C   LIG d   1       5.918  -1.689  -7.782  0.00  0.00     0.052 A 
ATOM      8  C   LIG d   1       6.878  -0.689  -7.928  0.00  0.00    -0.023 A 
ATOM      9  N   LIG d   1       6.555   0.556  -8.348  0.00  0.00    -0.356 N 
ATOM     10  O   LIG d   1       8.166  -0.972  -7.647  0.00  0.00    -0.861 OA
ATOM     11  C   LIG d   1       5.255   0.911  -8.647  0.00  0.00     0.052 A 
ATOM     12  C   LIG d   1       4.223  -0.033  -8.522  0.00  0.00     0.046 A 
ATOM     13  C   LIG d   1       4.952   2.200  -9.072  0.00  0.00    -0.037 A 
ATOM     14  C   LIG d   1       4.555  -1.398  -8.071  0.00  0.00     0.198 A 
ATOM     15  C   LIG d   1       2.908   0.323  -8.823  0.00  0.00    -0.049 A 
ATOM     16  O   LIG d   1       3.691  -2.249  -7.949  0.00  0.00    -0.286 OA
ATOM     17  C   LIG d   1       2.629   1.606  -9.242  0.00  0.00    -0.061 A 
ATOM     18  H   LIG d   1       2.113  -0.401  -8.728  0.00  0.00     0.062 H 
ATOM     19  C   LIG d   1       3.649   2.540  -9.365  0.00  0.00    -0.060 A 
ATOM     20  H   LIG d   1       1.612   1.886  -9.475  0.00  0.00     0.062 H 
ATOM     21  H   LIG d   1       3.418   3.542  -9.695  0.00  0.00     0.062 H 
ATOM     22  H   LIG d   1       5.736   2.935  -9.172  0.00  0.00     0.064 H 
BRANCH   9  23
ATOM     23  C   LIG d   1       7.615   1.558  -8.486  0.00  0.00     0.011 C 
ATOM     24  H   LIG d   1       7.883   1.660  -9.537  0.00  0.00     0.045 H 
ATOM     25  H   LIG d   1       7.261   2.516  -8.106  0.00  0.00     0.045 H 
ATOM     26  H   LIG d   1       8.489   1.242  -7.916  0.00  0.00     0.045 H 
ENDBRANCH   9  23
ENDBRANCH   1   7
BRANCH   2  27
ATOM     27  C   LIG d   1       6.059  -2.329  -5.135  0.00  0.00     0.065 A 
ATOM     28  C   LIG d   1       4.754  -1.968  -4.845  0.00  0.00    -0.029 A 
ATOM     29  C   LIG d   1       4.510  -0.964  -3.896  0.00  0.00    -0.016 A 
ATOM     30  H   LIG d   1       3.930  -2.459  -5.342  0.00  0.00     0.065 H 
ATOM     31  C   LIG d   1       5.603  -0.326  -3.257  0.00  0.00    -0.018 A 
ATOM     32  C   LIG d   1       3.198  -0.574  -3.571  0.00  0.00    -0.054 A 
ATOM     33  C   LIG d   1       6.918  -0.711  -3.577  0.00  0.00    -0.052 A 
ATOM     34  C   LIG d   1       5.353   0.682  -2.312  0.00  0.00    -0.054 A 
ATOM     35  C   LIG d   1       7.136  -1.688  -4.494  0.00  0.00    -0.036 A 
ATOM     36  H   LIG d   1       7.755  -0.229  -3.093  0.00  0.00     0.062 H 
ATOM     37  H   LIG d   1       8.148  -1.978  -4.733  0.00  0.00     0.064 H 
ATOM     38  C   LIG d   1       4.070   1.034  -2.023  0.00  0.00    -0.061 A 
ATOM     39  H   LIG d   1       6.176   1.177  -1.816  0.00  0.00     0.062 H 
ATOM     40  C   LIG d   1       2.995   0.407  -2.650  0.00  0.00    -0.061 A 
ATOM     41  H   LIG d   1       3.883   1.810  -1.296  0.00  0.00     0.062 H 
ATOM     42  H   LIG d   1       1.988   0.705  -2.403  0.00  0.00     0.062 H 
ATOM     43  H   LIG d   1       2.356  -1.053  -4.049  0.00  0.00     0.062 H 
ENDBRANCH   2  27
TORSDOF 4
ENDMDL
MODEL 4
REMARK VINA RESULT:      -7.0      1.022      1.879
REMARK  4 active torsions:
REMARK  status: ('A' for Active; 'I' for Inactive)
REMARK    1  A    between atoms: C_1  and  C_2 
REMARK    2  A    between atoms: C_2  and  C_14 
REMARK    3  A    between atoms: N_3  and  C_4 
REMARK    4  A    between atoms: N_22  and  C_25 
ROOT
ATOM      1  C   LIG d   1       7.892  -2.084  -6.663  0.00  0.00     0.051 C 
ATOM      2  N   LIG d   1       7.771  -1.716  -7.911  0.00  0.00    -0.252 NA
ENDROOT
BRANCH   1   3
ATOM      3  C   LIG d   1       8.687  -3.317  -6.315  0.00  0.00    -0.022 C 
ATOM      4  H   LIG d   1       8.027  -4.184  -6.305  0.00  0.00     0.029 H 
ATOM      5  H   LIG d   1       9.471  -3.465  -7.058  0.00  0.00     0.029 H 
ATOM      6  H   LIG d   1       9.138  -3.192  -5.330  0.00  0.00     0.029 H 
ENDBRANCH   1   3
BRANCH   1   7
ATOM      7  C   LIG d   1       7.254  -1.302  -5.604  0.00  0.00     0.052 A 
ATOM      8  C   LIG d   1       7.867  -0.149  -5.116  0.00  0.00    -0.023 A 
ATOM      9  N   LIG d   1       7.304   0.602  -4.142  0.00  0.00    -0.356 N 
ATOM     10  O   LIG d   1       9.052   0.231  -5.634  0.00  0.00    -0.861 OA
ATOM     11  C   LIG d   1       6.096   0.264  -3.566  0.00  0.00     0.052 A 
ATOM     12  C   LIG d   1       5.412  -0.886  -3.993  0.00  0.00     0.046 A 
ATOM     13  C   LIG d   1       5.544   1.053  -2.562  0.00  0.00    -0.037 A 
ATOM     14  C   LIG d   1       6.006  -1.715  -5.059  0.00  0.00     0.198 A 
ATOM     15  C   LIG d   1       4.191  -1.229  -3.412  0.00  0.00    -0.049 A 
ATOM     16  O   LIG d   1       5.446  -2.720  -5.460  0.00  0.00    -0.286 OA
ATOM     17  C   LIG d   1       3.661  -0.435  -2.419  0.00  0.00    -0.061 A 
ATOM     18  H   LIG d   1       3.662  -2.113  -3.740  0.00  0.00     0.062 H 
ATOM     19  C   LIG d   1       4.337   0.702  -1.996  0.00  0.00    -0.060 A 
ATOM     20  H   LIG d   1       2.716  -0.697  -1.967  0.00  0.00     0.062 H 
ATOM     21  H   LIG d   1       3.912   1.317  -1.217  0.00  0.00     0.062 H 
ATOM     22  H   LIG d   1       6.060   1.939  -2.225  0.00  0.00     0.064 H 
BRANCH   9  23
ATOM     23  C   LIG d   1       8.000   1.806  -3.680  0.00  0.00     0.011 C 
ATOM     24  H   LIG d   1       8.577   1.572  -2.787  0.00  0.00     0.045 H 
ATOM     25  H   LIG d   1       8.670   2.161  -4.463  0.00  0.00     0.045 H 
ATOM     26  H   LIG d   1       7.269   2.581  -3.449  0.00  0.00     0.045 H 
ENDBRANCH   9  23
ENDBRANCH   1   7
BRANCH   2  27
ATOM     27  C   LIG d   1       6.950  -0.673  -8.240  0.00  0.00     0.065 A 
ATOM     28  C   LIG d   1       5.579  -0.863  -8.281  0.00  0.00    -0.029 A 
ATOM     29  C   LIG d   1       4.742   0.213  -8.615  0.00  0.00    -0.016 A 
ATOM     30  H   LIG d   1       5.156  -1.831  -8.053  0.00  0.00     0.065 H 
ATOM     31  C   LIG d   1       5.314   1.475  -8.916  0.00  0.00    -0.018 A 
ATOM     32  C   LIG d   1       3.345   0.060  -8.661  0.00  0.00    -0.054 A 
ATOM     33  C   LIG d   1       6.711   1.635  -8.872  0.00  0.00    -0.052 A 
ATOM     34  C   LIG d   1       4.473   2.547  -9.256  0.00  0.00    -0.054 A 
ATOM     35  C   LIG d   1       7.506   0.585  -8.542  0.00  0.00    -0.036 A 
ATOM     36  H   LIG d   1       7.153   2.594  -9.100  0.00  0.00     0.062 H 
ATOM     37  H   LIG d   1       8.577   0.716  -8.509  0.00  0.00     0.064 H 
ATOM     38  C   LIG d   1       3.124   2.362  -9.291  0.00  0.00    -0.061 A 
ATOM     39  H   LIG d   1       4.894   3.514  -9.488  0.00  0.00     0.062 H 
ATOM     40  C   LIG d   1       2.561   1.122  -8.995  0.00  0.00    -0.061 A 
ATOM     41  H   LIG d   1       2.481   3.189  -9.553  0.00  0.00     0.062 H 
ATOM     42  H   LIG d   1       1.489   1.002  -9.030  0.00  0.00     0.062 H 
ATOM     43  H   LIG d   1       2.895  -0.895  -8.433  0.00  0.00     0.062 H 
ENDBRANCH   2  27
TORSDOF 4
ENDMDL
MODEL 5
REMARK VINA RESULT:      -6.7      1.552      2.996
REMARK  4 active torsions:
REMARK  status: ('A' for Active; 'I' for Inactive)
REMARK    1  A    between atoms: C_1  and  C_2 
REMARK    2  A    between atoms: C_2  and  C_14 
REMARK    3  A    between atoms: N_3  and  C_4 
REMARK    4  A    between atoms: N_22  and  C_25 
ROOT
ATOM      1  C   LIG d   1       8.214  -0.641  -6.954  0.00  0.00     0.051 C 
ATOM      2  N   LIG d   1       7.829  -0.219  -8.129  0.00  0.00    -0.252 NA
ENDROOT
BRANCH   1   3
ATOM      3  C   LIG d   1       9.666  -0.963  -6.708  0.00  0.00    -0.022 C 
ATOM      4  H   LIG d   1       9.740  -1.811  -6.028  0.00  0.00     0.029 H 
ATOM      5  H   LIG d   1      10.148  -1.212  -7.654  0.00  0.00     0.029 H 
ATOM      6  H   LIG d   1      10.160  -0.098  -6.265  0.00  0.00     0.029 H 
ENDBRANCH   1   3
BRANCH   1   7
ATOM      7  C   LIG d   1       7.237  -0.801  -5.877  0.00  0.00     0.052 A 
ATOM      8  C   LIG d   1       6.588  -2.020  -5.692  0.00  0.00    -0.023 A 
ATOM      9  N   LIG d   1       5.683  -2.206  -4.704  0.00  0.00    -0.356 N 
ATOM     10  O   LIG d   1       6.875  -3.046  -6.519  0.00  0.00    -0.861 OA
ATOM     11  C   LIG d   1       5.341  -1.195  -3.828  0.00  0.00     0.052 A 
ATOM     12  C   LIG d   1       5.942   0.069  -3.946  0.00  0.00     0.046 A 
ATOM     13  C   LIG d   1       4.403  -1.413  -2.825  0.00  0.00    -0.037 A 
ATOM     14  C   LIG d   1       6.936   0.290  -5.013  0.00  0.00     0.198 A 
ATOM     15  C   LIG d   1       5.598   1.092  -3.062  0.00  0.00    -0.049 A 
ATOM     16  O   LIG d   1       7.482   1.371  -5.151  0.00  0.00    -0.286 OA
ATOM     17  C   LIG d   1       4.666   0.855  -2.075  0.00  0.00    -0.061 A 
ATOM     18  H   LIG d   1       6.059   2.065  -3.150  0.00  0.00     0.062 H 
ATOM     19  C   LIG d   1       4.071  -0.394  -1.959  0.00  0.00    -0.060 A 
ATOM     20  H   LIG d   1       4.397   1.645  -1.389  0.00  0.00     0.062 H 
ATOM     21  H   LIG d   1       3.342  -0.568  -1.181  0.00  0.00     0.062 H 
ATOM     22  H   LIG d   1       3.934  -2.380  -2.725  0.00  0.00     0.064 H 
BRANCH   9  23
ATOM     23  C   LIG d   1       5.043  -3.516  -4.562  0.00  0.00     0.011 C 
ATOM     24  H   LIG d   1       5.129  -3.852  -3.530  0.00  0.00     0.045 H 
ATOM     25  H   LIG d   1       3.990  -3.437  -4.832  0.00  0.00     0.045 H 
ATOM     26  H   LIG d   1       5.534  -4.233  -5.221  0.00  0.00     0.045 H 
ENDBRANCH   9  23
ENDBRANCH   1   7
BRANCH   2  27
ATOM     27  C   LIG d   1       6.497  -0.046  -8.391  0.00  0.00     0.065 A 
ATOM     28  C   LIG d   1       5.717  -1.136  -8.739  0.00  0.00    -0.029 A 
ATOM     29  C   LIG d   1       4.351  -0.950  -9.001  0.00  0.00    -0.016 A 
ATOM     30  H   LIG d   1       6.154  -2.122  -8.803  0.00  0.00     0.065 H 
ATOM     31  C   LIG d   1       3.794   0.351  -8.918  0.00  0.00    -0.018 A 
ATOM     32  C   LIG d   1       3.525  -2.033  -9.352  0.00  0.00    -0.054 A 
ATOM     33  C   LIG d   1       4.615   1.439  -8.568  0.00  0.00    -0.052 A 
ATOM     34  C   LIG d   1       2.428   0.532  -9.187  0.00  0.00    -0.054 A 
ATOM     35  C   LIG d   1       5.933   1.241  -8.312  0.00  0.00    -0.036 A 
ATOM     36  H   LIG d   1       4.195   2.432  -8.502  0.00  0.00     0.062 H 
ATOM     37  H   LIG d   1       6.556   2.081  -8.043  0.00  0.00     0.064 H 
ATOM     38  C   LIG d   1       1.658  -0.540  -9.525  0.00  0.00    -0.061 A 
ATOM     39  H   LIG d   1       1.989   1.517  -9.128  0.00  0.00     0.062 H 
ATOM     40  C   LIG d   1       2.205  -1.819  -9.607  0.00  0.00    -0.061 A 
ATOM     41  H   LIG d   1       0.608  -0.396  -9.732  0.00  0.00     0.062 H 
ATOM     42  H   LIG d   1       1.573  -2.651  -9.876  0.00  0.00     0.062 H 
ATOM     43  H   LIG d   1       3.935  -3.030  -9.418  0.00  0.00     0.062 H 
ENDBRANCH   2  27
TORSDOF 4
ENDMDL
MODEL 6
REMARK VINA RESULT:      -6.5      1.835      5.595
REMARK  4 active torsions:
REMARK  status: ('A' for Active; 'I' for Inactive)
REMARK    1  A    between atoms: C_1  and  C_2 
REMARK    2  A    between atoms: C_2  and  C_14 
REMARK    3  A    between atoms: N_3  and  C_4 
REMARK    4  A    between atoms: N_22  and  C_25 
ROOT
ATOM      1  C   LIG d   1       8.381  -0.703  -7.453  0.00  0.00     0.051 C 
ATOM      2  N   LIG d   1       8.697  -0.807  -6.189  0.00  0.00    -0.252 NA
ENDROOT
BRANCH   1   3
ATOM      3  C   LIG d   1       9.446  -0.384  -8.471  0.00  0.00    -0.022 C 
ATOM      4  H   LIG d   1      10.424  -0.398  -7.990  0.00  0.00     0.029 H 
ATOM      5  H   LIG d   1       9.422  -1.130  -9.267  0.00  0.00     0.029 H 
ATOM      6  H   LIG d   1       9.262   0.603  -8.893  0.00  0.00     0.029 H 
ENDBRANCH   1   3
BRANCH   1   7
ATOM      7  C   LIG d   1       6.995  -0.894  -7.879  0.00  0.00     0.052 A 
ATOM      8  C   LIG d   1       6.128   0.194  -7.958  0.00  0.00    -0.023 A 
ATOM      9  N   LIG d   1       4.841   0.055  -8.353  0.00  0.00    -0.356 N 
ATOM     10  O   LIG d   1       6.585   1.420  -7.636  0.00  0.00    -0.861 OA
ATOM     11  C   LIG d   1       4.310  -1.174  -8.691  0.00  0.00     0.052 A 
ATOM     12  C   LIG d   1       5.112  -2.325  -8.634  0.00  0.00     0.046 A 
ATOM     13  C   LIG d   1       2.982  -1.287  -9.089  0.00  0.00    -0.037 A 
ATOM     14  C   LIG d   1       6.519  -2.194  -8.211  0.00  0.00     0.198 A 
ATOM     15  C   LIG d   1       4.577  -3.567  -8.975  0.00  0.00    -0.049 A 
ATOM     16  O   LIG d   1       7.251  -3.167  -8.149  0.00  0.00    -0.286 OA
ATOM     17  C   LIG d   1       3.259  -3.658  -9.366  0.00  0.00    -0.061 A 
ATOM     18  H   LIG d   1       5.192  -4.455  -8.933  0.00  0.00     0.062 H 
ATOM     19  C   LIG d   1       2.466  -2.520  -9.422  0.00  0.00    -0.060 A 
ATOM     20  H   LIG d   1       2.841  -4.618  -9.631  0.00  0.00     0.062 H 
ATOM     21  H   LIG d   1       1.434  -2.603  -9.731  0.00  0.00     0.062 H 
ATOM     22  H   LIG d   1       2.355  -0.409  -9.136  0.00  0.00     0.064 H 
BRANCH   9  23
ATOM     23  C   LIG d   1       3.985   1.242  -8.420  0.00  0.00     0.011 C 
ATOM     24  H   LIG d   1       3.825   1.631  -7.415  0.00  0.00     0.045 H 
ATOM     25  H   LIG d   1       4.469   2.004  -9.032  0.00  0.00     0.045 H 
ATOM     26  H   LIG d   1       3.027   0.974  -8.865  0.00  0.00     0.045 H 
ENDBRANCH   9  23
ENDBRANCH   1   7
BRANCH   2  27
ATOM     27  C   LIG d   1       7.716  -0.972  -5.250  0.00  0.00     0.065 A 
ATOM     28  C   LIG d   1       7.214   0.130  -4.579  0.00  0.00    -0.029 A 
ATOM     29  C   LIG d   1       6.204  -0.047  -3.620  0.00  0.00    -0.016 A 
ATOM     30  H   LIG d   1       7.593   1.119  -4.793  0.00  0.00     0.065 H 
ATOM     31  C   LIG d   1       5.722  -1.352  -3.346  0.00  0.00    -0.018 A 
ATOM     32  C   LIG d   1       5.666   1.048  -2.921  0.00  0.00    -0.054 A 
ATOM     33  C   LIG d   1       6.256  -2.452  -4.042  0.00  0.00    -0.052 A 
ATOM     34  C   LIG d   1       4.715  -1.524  -2.382  0.00  0.00    -0.054 A 
ATOM     35  C   LIG d   1       7.229  -2.263  -4.969  0.00  0.00    -0.036 A 
ATOM     36  H   LIG d   1       5.892  -3.449  -3.838  0.00  0.00     0.062 H 
ATOM     37  H   LIG d   1       7.633  -3.112  -5.499  0.00  0.00     0.064 H 
ATOM     38  C   LIG d   1       4.218  -0.441  -1.724  0.00  0.00    -0.061 A 
ATOM     39  H   LIG d   1       4.337  -2.512  -2.163  0.00  0.00     0.062 H 
ATOM     40  C   LIG d   1       4.691   0.842  -1.993  0.00  0.00    -0.061 A 
ATOM     41  H   LIG d   1       3.444  -0.578  -0.983  0.00  0.00     0.062 H 
ATOM     42  H   LIG d   1       4.279   1.684  -1.458  0.00  0.00     0.062 H 
ATOM     43  H   LIG d   1       6.023   2.048  -3.121  0.00  0.00     0.062 H 
ENDBRANCH   2  27
TORSDOF 4
ENDMDL
MODEL 7
REMARK VINA RESULT:      -6.3      2.021      3.746
REMARK  4 active torsions:
REMARK  status: ('A' for Active; 'I' for Inactive)
REMARK    1  A    between atoms: C_1  and  C_2 
REMARK    2  A    between atoms: C_2  and  C_14 
REMARK    3  A    between atoms: N_3  and  C_4 
REMARK    4  A    between atoms: N_22  and  C_25 
ROOT
ATOM      1  C   LIG d   1       4.592  -1.209  -3.423  0.00  0.00     0.051 C 
ATOM      2  N   LIG d   1       3.597  -1.284  -4.266  0.00  0.00    -0.252 NA
ENDROOT
BRANCH   1   3
ATOM      3  C   LIG d   1       4.355  -1.455  -1.955  0.00  0.00    -0.022 C 
ATOM      4  H   LIG d   1       4.952  -0.758  -1.368  0.00  0.00     0.029 H 
ATOM      5  H   LIG d   1       3.298  -1.309  -1.728  0.00  0.00     0.029 H 
ATOM      6  H   LIG d   1       4.641  -2.477  -1.706  0.00  0.00     0.029 H 
ENDBRANCH   1   3
BRANCH   1   7
ATOM      7  C   LIG d   1       5.936  -0.887  -3.902  0.00  0.00     0.052 A 
ATOM      8  C   LIG d   1       6.353   0.441  -3.982  0.00  0.00    -0.023 A 
ATOM      9  N   LIG d   1       7.590   0.776  -4.416  0.00  0.00    -0.356 N 
ATOM     10  O   LIG d   1       5.502   1.418  -3.612  0.00  0.00    -0.861 OA
ATOM     11  C   LIG d   1       8.507  -0.177  -4.815  0.00  0.00     0.052 A 
ATOM     12  C   LIG d   1       8.167  -1.539  -4.773  0.00  0.00     0.046 A 
ATOM     13  C   LIG d   1       9.770   0.198  -5.261  0.00  0.00    -0.037 A 
ATOM     14  C   LIG d   1       6.825  -1.925  -4.297  0.00  0.00     0.198 A 
ATOM     15  C   LIG d   1       9.092  -2.502  -5.176  0.00  0.00    -0.049 A 
ATOM     16  O   LIG d   1       6.490  -3.095  -4.244  0.00  0.00    -0.286 OA
ATOM     17  C   LIG d   1      10.337  -2.110  -5.615  0.00  0.00    -0.061 A 
ATOM     18  H   LIG d   1       8.834  -3.551  -5.144  0.00  0.00     0.062 H 
ATOM     19  C   LIG d   1      10.673  -0.764  -5.658  0.00  0.00    -0.060 A 
ATOM     20  H   LIG d   1      11.056  -2.853  -5.928  0.00  0.00     0.062 H 
ATOM     21  H   LIG d   1      11.653  -0.468  -6.003  0.00  0.00     0.062 H 
ATOM     22  H   LIG d   1      10.042   1.242  -5.299  0.00  0.00     0.064 H 
BRANCH   9  23
ATOM     23  C   LIG d   1       7.967   2.191  -4.468  0.00  0.00     0.011 C 
ATOM     24  H   LIG d   1       7.069   2.802  -4.555  0.00  0.00     0.045 H 
ATOM     25  H   LIG d   1       8.502   2.458  -3.557  0.00  0.00     0.045 H 
ATOM     26  H   LIG d   1       8.610   2.363  -5.331  0.00  0.00     0.045 H 
ENDBRANCH   9  23
ENDBRANCH   1   7
BRANCH   2  27
ATOM     27  C   LIG d   1       3.784  -0.940  -5.577  0.00  0.00     0.065 A 
ATOM     28  C   LIG d   1       3.241   0.237  -6.064  0.00  0.00    -0.029 A 
ATOM     29  C   LIG d   1       3.442   0.586  -7.408  0.00  0.00    -0.016 A 
ATOM     30  H   LIG d   1       2.672   0.885  -5.413  0.00  0.00     0.065 H 
ATOM     31  C   LIG d   1       4.187  -0.279  -8.250  0.00  0.00    -0.018 A 
ATOM     32  C   LIG d   1       2.910   1.775  -7.938  0.00  0.00    -0.054 A 
ATOM     33  C   LIG d   1       4.721  -1.471  -7.727  0.00  0.00    -0.052 A 
ATOM     34  C   LIG d   1       4.379   0.072  -9.596  0.00  0.00    -0.054 A 
ATOM     35  C   LIG d   1       4.522  -1.790  -6.423  0.00  0.00    -0.036 A 
ATOM     36  H   LIG d   1       5.290  -2.133  -8.364  0.00  0.00     0.062 H 
ATOM     37  H   LIG d   1       4.935  -2.706  -6.029  0.00  0.00     0.064 H 
ATOM     38  C   LIG d   1       3.850   1.231 -10.075  0.00  0.00    -0.061 A 
ATOM     39  H   LIG d   1       4.945  -0.576 -10.250  0.00  0.00     0.062 H 
ATOM     40  C   LIG d   1       3.118   2.081  -9.248  0.00  0.00    -0.061 A 
ATOM     41  H   LIG d   1       4.000   1.497 -11.111  0.00  0.00     0.062 H 
ATOM     42  H   LIG d   1       2.709   2.995  -9.653  0.00  0.00     0.062 H 
ATOM     43  H   LIG d   1       2.342   2.444  -7.308  0.00  0.00     0.062 H 
ENDBRANCH   2  27
TORSDOF 4
ENDMDL
MODEL 8
REMARK VINA RESULT:      -6.3      2.164      3.577
REMARK  4 active torsions:
REMARK  status: ('A' for Active; 'I' for Inactive)
REMARK    1  A    between atoms: C_1  and  C_2 
REMARK    2  A    between atoms: C_2  and  C_14 
REMARK    3  A    between atoms: N_3  and  C_4 
REMARK    4  A    between atoms: N_22  and  C_25 
ROOT
ATOM      1  C   LIG d   1       6.274  -3.191  -6.057  0.00  0.00     0.051 C 
ATOM      2  N   LIG d   1       7.437  -2.949  -6.601  0.00  0.00    -0.252 NA
ENDROOT
BRANCH   1   3
ATOM      3  C   LIG d   1       5.709  -4.588  -6.080  0.00  0.00    -0.022 C 
ATOM      4  H   LIG d   1       5.122  -4.728  -6.987  0.00  0.00     0.029 H 
ATOM      5  H   LIG d   1       6.525  -5.311  -6.060  0.00  0.00     0.029 H 
ATOM      6  H   LIG d   1       5.071  -4.737  -5.208  0.00  0.00     0.029 H 
ENDBRANCH   1   3
BRANCH   1   7
ATOM      7  C   LIG d   1       5.520  -2.107  -5.428  0.00  0.00     0.052 A 
ATOM      8  C   LIG d   1       4.549  -1.415  -6.151  0.00  0.00    -0.023 A 
ATOM      9  N   LIG d   1       3.830  -0.411  -5.600  0.00  0.00    -0.356 N 
ATOM     10  O   LIG d   1       4.318  -1.759  -7.433  0.00  0.00    -0.861 OA
ATOM     11  C   LIG d   1       4.022  -0.006  -4.294  0.00  0.00     0.052 A 
ATOM     12  C   LIG d   1       4.984  -0.645  -3.495  0.00  0.00     0.046 A 
ATOM     13  C   LIG d   1       3.270   1.033  -3.756  0.00  0.00    -0.037 A 
ATOM     14  C   LIG d   1       5.775  -1.746  -4.075  0.00  0.00     0.198 A 
ATOM     15  C   LIG d   1       5.180  -0.237  -2.176  0.00  0.00    -0.049 A 
ATOM     16  O   LIG d   1       6.620  -2.328  -3.418  0.00  0.00    -0.286 OA
ATOM     17  C   LIG d   1       4.425   0.795  -1.662  0.00  0.00    -0.061 A 
ATOM     18  H   LIG d   1       5.919  -0.727  -1.559  0.00  0.00     0.062 H 
ATOM     19  C   LIG d   1       3.475   1.427  -2.451  0.00  0.00    -0.060 A 
ATOM     20  H   LIG d   1       4.574   1.113  -0.640  0.00  0.00     0.062 H 
ATOM     21  H   LIG d   1       2.888   2.234  -2.037  0.00  0.00     0.062 H 
ATOM     22  H   LIG d   1       2.528   1.533  -4.360  0.00  0.00     0.064 H 
BRANCH   9  23
ATOM     23  C   LIG d   1       2.819   0.271  -6.414  0.00  0.00     0.011 C 
ATOM     24  H   LIG d   1       1.938   0.472  -5.806  0.00  0.00     0.045 H 
ATOM     25  H   LIG d   1       3.227   1.211  -6.786  0.00  0.00     0.045 H 
ATOM     26  H   LIG d   1       2.544  -0.364  -7.256  0.00  0.00     0.045 H 
ENDBRANCH   9  23
ENDBRANCH   1   7
BRANCH   2  27
ATOM     27  C   LIG d   1       7.895  -1.663  -6.693  0.00  0.00     0.065 A 
ATOM     28  C   LIG d   1       7.552  -0.886  -7.787  0.00  0.00    -0.029 A 
ATOM     29  C   LIG d   1       8.022   0.433  -7.871  0.00  0.00    -0.016 A 
ATOM     30  H   LIG d   1       6.925  -1.292  -8.568  0.00  0.00     0.065 H 
ATOM     31  C   LIG d   1       8.849   0.947  -6.841  0.00  0.00    -0.018 A 
ATOM     32  C   LIG d   1       7.692   1.254  -8.965  0.00  0.00    -0.054 A 
ATOM     33  C   LIG d   1       9.184   0.131  -5.744  0.00  0.00    -0.052 A 
ATOM     34  C   LIG d   1       9.321   2.267  -6.933  0.00  0.00    -0.054 A 
ATOM     35  C   LIG d   1       8.717  -1.141  -5.676  0.00  0.00    -0.036 A 
ATOM     36  H   LIG d   1       9.814   0.518  -4.956  0.00  0.00     0.062 H 
ATOM     37  H   LIG d   1       8.978  -1.760  -4.831  0.00  0.00     0.064 H 
ATOM     38  C   LIG d   1       8.982   3.032  -8.006  0.00  0.00    -0.061 A 
ATOM     39  H   LIG d   1       9.952   2.673  -6.156  0.00  0.00     0.062 H 
ATOM     40  C   LIG d   1       8.168   2.528  -9.020  0.00  0.00    -0.061 A 
ATOM     41  H   LIG d   1       9.347   4.046  -8.073  0.00  0.00     0.062 H 
ATOM     42  H   LIG d   1       7.914   3.156  -9.859  0.00  0.00     0.062 H 
ATOM     43  H   LIG d   1       7.061   0.876  -9.756  0.00  0.00     0.062 H 
ENDBRANCH   2  27
TORSDOF 4
ENDMDL
MODEL 9
REMARK VINA RESULT:      -6.2      2.257      4.023
REMARK  4 active torsions:
REMARK  status: ('A' for Active; 'I' for Inactive)
REMARK    1  A    between atoms: C_1  and  C_2 
REMARK    2  A    between atoms: C_2  and  C_14 
REMARK    3  A    between atoms: N_3  and  C_4 
REMARK    4  A    between atoms: N_22  and  C_25 
ROOT
ATOM      1  C   LIG d   1       7.030  -3.031  -5.728  0.00  0.00     0.051 C 
ATOM      2  N   LIG d   1       8.154  -2.653  -6.279  0.00  0.00    -0.252 NA
ENDROOT
BRANCH   1   3
ATOM      3  C   LIG d   1       6.697  -4.497  -5.626  0.00  0.00    -0.022 C 
ATOM      4  H   LIG d   1       5.627  -4.638  -5.776  0.00  0.00     0.029 H 
ATOM      5  H   LIG d   1       7.247  -5.048  -6.391  0.00  0.00     0.029 H 
ATOM      6  H   LIG d   1       6.978  -4.867  -4.640  0.00  0.00     0.029 H 
ENDBRANCH   1   3
BRANCH   1   7
ATOM      7  C   LIG d   1       6.096  -2.031  -5.210  0.00  0.00     0.052 A 
ATOM      8  C   LIG d   1       5.095  -1.514  -6.030  0.00  0.00    -0.023 A 
ATOM      9  N   LIG d   1       4.211  -0.593  -5.584  0.00  0.00    -0.356 N 
ATOM     10  O   LIG d   1       5.001  -1.949  -7.303  0.00  0.00    -0.861 OA
ATOM     11  C   LIG d   1       4.256  -0.102  -4.294  0.00  0.00     0.052 A 
ATOM     12  C   LIG d   1       5.237  -0.564  -3.401  0.00  0.00     0.046 A 
ATOM     13  C   LIG d   1       3.337   0.849  -3.865  0.00  0.00    -0.037 A 
ATOM     14  C   LIG d   1       6.207  -1.573  -3.867  0.00  0.00     0.198 A 
ATOM     15  C   LIG d   1       5.285  -0.069  -2.098  0.00  0.00    -0.049 A 
ATOM     16  O   LIG d   1       7.074  -2.001  -3.126  0.00  0.00    -0.286 OA
ATOM     17  C   LIG d   1       4.365   0.873  -1.692  0.00  0.00    -0.061 A 
ATOM     18  H   LIG d   1       6.038  -0.423  -1.409  0.00  0.00     0.062 H 
ATOM     19  C   LIG d   1       3.396   1.330  -2.574  0.00  0.00    -0.060 A 
ATOM     20  H   LIG d   1       4.399   1.258  -0.684  0.00  0.00     0.062 H 
ATOM     21  H   LIG d   1       2.679   2.068  -2.245  0.00  0.00     0.062 H 
ATOM     22  H   LIG d   1       2.578   1.212  -4.541  0.00  0.00     0.064 H 
BRANCH   9  23
ATOM     23  C   LIG d   1       3.178  -0.096  -6.497  0.00  0.00     0.011 C 
ATOM     24  H   LIG d   1       2.595  -0.935  -6.876  0.00  0.00     0.045 H 
ATOM     25  H   LIG d   1       2.522   0.591  -5.964  0.00  0.00     0.045 H 
ATOM     26  H   LIG d   1       3.650   0.425  -7.330  0.00  0.00     0.045 H 
ENDBRANCH   9  23
ENDBRANCH   1   7
BRANCH   2  27
ATOM     27  C   LIG d   1       8.402  -1.324  -6.484  0.00  0.00     0.065 A 
ATOM     28  C   LIG d   1       8.972  -0.566  -5.475  0.00  0.00    -0.029 A 
ATOM     29  C   LIG d   1       9.228   0.796  -5.695  0.00  0.00    -0.016 A 
ATOM     30  H   LIG d   1       9.222  -1.020  -4.527  0.00  0.00     0.065 H 
ATOM     31  C   LIG d   1       8.889   1.378  -6.943  0.00  0.00    -0.018 A 
ATOM     32  C   LIG d   1       9.811   1.597  -4.696  0.00  0.00    -0.054 A 
ATOM     33  C   LIG d   1       8.306   0.582  -7.947  0.00  0.00    -0.052 A 
ATOM     34  C   LIG d   1       9.142   2.742  -7.157  0.00  0.00    -0.054 A 
ATOM     35  C   LIG d   1       8.070  -0.735  -7.719  0.00  0.00    -0.036 A 
ATOM     36  H   LIG d   1       8.046   1.020  -8.900  0.00  0.00     0.062 H 
ATOM     37  H   LIG d   1       7.622  -1.338  -8.494  0.00  0.00     0.064 H 
ATOM     38  C   LIG d   1       9.707   3.487  -6.167  0.00  0.00    -0.061 A 
ATOM     39  H   LIG d   1       8.890   3.200  -8.102  0.00  0.00     0.062 H 
ATOM     40  C   LIG d   1      10.041   2.916  -4.940  0.00  0.00    -0.061 A 
ATOM     41  H   LIG d   1       9.900   4.537  -6.335  0.00  0.00     0.062 H 
ATOM     42  H   LIG d   1      10.488   3.529  -4.172  0.00  0.00     0.062 H 
ATOM     43  H   LIG d   1      10.075   1.167  -3.742  0.00  0.00     0.062 H 
ENDBRANCH   2  27
TORSDOF 4
ENDMDL
