MODEL 1
REMARK VINA RESULT:      -6.1      0.000      0.000
REMARK  4 active torsions:
REMARK  status: ('A' for Active; 'I' for Inactive)
REMARK    1  A    between atoms: C_4  and  N_7 
REMARK    2  A    between atoms: N_7  and  C_8 
REMARK    3  A    between atoms: N_10  and  C_11 
REMARK    4  A    between atoms: C_11  and  C_12 
ROOT
ATOM      1  C   LIG d   1       4.426  -1.832  -6.154  0.00  0.00     0.135 C 
ATOM      2  S   LIG d   1       6.124  -1.833  -6.364  0.00  0.00    -0.019 SA
ATOM      3  N   LIG d   1       3.618  -1.554  -7.197  0.00  0.00    -0.319 N 
ATOM      4  H   LIG d   1       2.656  -1.553  -7.078  0.00  0.00     0.148 HD
ENDROOT
BRANCH   1   5
ATOM      5  N   LIG d   1       3.896  -2.109  -4.946  0.00  0.00    -0.297 N 
ATOM      6  H   LIG d   1       3.474  -2.968  -4.787  0.00  0.00     0.154 HD
BRANCH   5   7
ATOM      7  C   LIG d   1       3.956  -1.159  -3.921  0.00  0.00     0.033 A 
ATOM      8  C   LIG d   1       4.435  -1.516  -2.668  0.00  0.00    -0.041 A 
ATOM      9  C   LIG d   1       4.494  -0.575  -1.659  0.00  0.00    -0.060 A 
ATOM     10  H   LIG d   1       4.763  -2.528  -2.483  0.00  0.00     0.064 H 
ATOM     11  C   LIG d   1       4.075   0.722  -1.896  0.00  0.00    -0.062 A 
ATOM     12  H   LIG d   1       4.867  -0.851  -0.684  0.00  0.00     0.062 H 
ATOM     13  C   LIG d   1       3.596   1.081  -3.142  0.00  0.00    -0.060 A 
ATOM     14  H   LIG d   1       4.117   1.455  -1.103  0.00  0.00     0.062 H 
ATOM     15  C   LIG d   1       3.535   0.144  -4.156  0.00  0.00    -0.041 A 
ATOM     16  H   LIG d   1       3.270   2.093  -3.324  0.00  0.00     0.062 H 
ATOM     17  H   LIG d   1       3.162   0.425  -5.130  0.00  0.00     0.064 H 
ENDBRANCH   5   7
ENDBRANCH   1   5
BRANCH   3  18
ATOM     18  C   LIG d   1       4.194  -1.252  -8.509  0.00  0.00     0.069 C 
ATOM     19  H   LIG d   1       5.276  -1.375  -8.469  0.00  0.00     0.054 H 
ATOM     20  H   LIG d   1       3.780  -1.934  -9.252  0.00  0.00     0.054 H 
BRANCH  18  21
ATOM     21  C   LIG d   1       3.862   0.168  -8.889  0.00  0.00     0.122 A 
ATOM     22  O   LIG d   1       4.274   0.800 -10.000  0.00  0.00    -0.466 OA
ATOM     23  C   LIG d   1       3.785   2.051 -10.011  0.00  0.00     0.092 A 
ATOM     24  C   LIG d   1       3.059   2.233  -8.893  0.00  0.00    -0.024 A 
ATOM     25  H   LIG d   1       3.950   2.787 -10.784  0.00  0.00     0.103 H 
ATOM     26  C   LIG d   1       3.109   1.019  -8.170  0.00  0.00    -0.019 A 
ATOM     27  H   LIG d   1       2.537   3.134  -8.604  0.00  0.00     0.065 H 
ATOM     28  H   LIG d   1       2.633   0.814  -7.222  0.00  0.00     0.065 H 
ENDBRANCH  18  21
ENDBRANCH   3  18
TORSDOF 4
ENDMDL
MODEL 2
REMARK VINA RESULT:      -6.1      1.695      1.969
REMARK  4 active torsions:
REMARK  status: ('A' for Active; 'I' for Inactive)
REMARK    1  A    between atoms: C_4  and  N_7 
REMARK    2  A    between atoms: N_7  and  C_8 
REMARK    3  A    between atoms: N_10  and  C_11 
REMARK    4  A    between atoms: C_11  and  C_12 
ROOT
ATOM      1  C   LIG d   1       3.412  -0.094  -6.360  0.00  0.00     0.135 C 
ATOM      2  S   LIG d   1       4.935  -0.815  -6.658  0.00  0.00    -0.019 SA
ATOM      3  N   LIG d   1       2.895   0.781  -7.244  0.00  0.00    -0.319 N 
ATOM      4  H   LIG d   1       2.032   1.190  -7.075  0.00  0.00     0.148 HD
ENDROOT
BRANCH   1   5
ATOM      5  N   LIG d   1       2.729  -0.402  -5.239  0.00  0.00    -0.297 N 
ATOM      6  H   LIG d   1       1.831  -0.765  -5.302  0.00  0.00     0.154 HD
BRANCH   5   7
ATOM      7  C   LIG d   1       3.314  -0.200  -3.985  0.00  0.00     0.033 A 
ATOM      8  C   LIG d   1       3.696  -1.288  -3.211  0.00  0.00    -0.041 A 
ATOM      9  C   LIG d   1       4.275  -1.084  -1.974  0.00  0.00    -0.060 A 
ATOM     10  H   LIG d   1       3.542  -2.292  -3.577  0.00  0.00     0.064 H 
ATOM     11  C   LIG d   1       4.474   0.202  -1.505  0.00  0.00    -0.062 A 
ATOM     12  H   LIG d   1       4.573  -1.929  -1.372  0.00  0.00     0.062 H 
ATOM     13  C   LIG d   1       4.094   1.287  -2.273  0.00  0.00    -0.060 A 
ATOM     14  H   LIG d   1       4.923   0.358  -0.535  0.00  0.00     0.062 H 
ATOM     15  C   LIG d   1       3.515   1.091  -3.511  0.00  0.00    -0.041 A 
ATOM     16  H   LIG d   1       4.251   2.290  -1.904  0.00  0.00     0.062 H 
ATOM     17  H   LIG d   1       3.219   1.938  -4.111  0.00  0.00     0.064 H 
ENDBRANCH   5   7
ENDBRANCH   1   5
BRANCH   3  18
ATOM     18  C   LIG d   1       3.637   1.117  -8.462  0.00  0.00     0.069 C 
ATOM     19  H   LIG d   1       3.564   2.189  -8.648  0.00  0.00     0.054 H 
ATOM     20  H   LIG d   1       4.684   0.842  -8.335  0.00  0.00     0.054 H 
BRANCH  18  21
ATOM     21  C   LIG d   1       3.056   0.362  -9.629  0.00  0.00     0.122 A 
ATOM     22  O   LIG d   1       3.648   0.184 -10.822  0.00  0.00    -0.466 OA
ATOM     23  C   LIG d   1       2.842  -0.539 -11.617  0.00  0.00     0.092 A 
ATOM     24  C   LIG d   1       1.717  -0.823 -10.937  0.00  0.00    -0.024 A 
ATOM     25  H   LIG d   1       3.060  -0.839 -12.632  0.00  0.00     0.103 H 
ATOM     26  C   LIG d   1       1.854  -0.241  -9.657  0.00  0.00    -0.019 A 
ATOM     27  H   LIG d   1       0.870  -1.387 -11.301  0.00  0.00     0.065 H 
ATOM     28  H   LIG d   1       1.133  -0.276  -8.853  0.00  0.00     0.065 H 
ENDBRANCH  18  21
ENDBRANCH   3  18
TORSDOF 4
ENDMDL
MODEL 3
REMARK VINA RESULT:      -6.0      1.771      5.704
REMARK  4 active torsions:
REMARK  status: ('A' for Active; 'I' for Inactive)
REMARK    1  A    between atoms: C_4  and  N_7 
REMARK    2  A    between atoms: N_7  and  C_8 
REMARK    3  A    between atoms: N_10  and  C_11 
REMARK    4  A    between atoms: C_11  and  C_12 
ROOT
ATOM      1  C   LIG d   1       4.320  -1.465  -6.718  0.00  0.00     0.135 C 
ATOM      2  S   LIG d   1       6.009  -1.462  -6.991  0.00  0.00    -0.019 SA
ATOM      3  N   LIG d   1       3.839  -1.647  -5.472  0.00  0.00    -0.319 N 
ATOM      4  H   LIG d   1       2.882  -1.650  -5.317  0.00  0.00     0.148 HD
ENDROOT
BRANCH   1   5
ATOM      5  N   LIG d   1       3.470  -1.286  -7.749  0.00  0.00    -0.297 N 
ATOM      6  H   LIG d   1       2.845  -1.988  -7.990  0.00  0.00     0.154 HD
BRANCH   5   7
ATOM      7  C   LIG d   1       3.489  -0.088  -8.471  0.00  0.00     0.033 A 
ATOM      8  C   LIG d   1       3.034   1.085  -7.883  0.00  0.00    -0.041 A 
ATOM      9  C   LIG d   1       3.055   2.267  -8.598  0.00  0.00    -0.060 A 
ATOM     10  H   LIG d   1       2.666   1.074  -6.868  0.00  0.00     0.064 H 
ATOM     11  C   LIG d   1       3.528   2.282  -9.898  0.00  0.00    -0.062 A 
ATOM     12  H   LIG d   1       2.703   3.180  -8.142  0.00  0.00     0.062 H 
ATOM     13  C   LIG d   1       3.980   1.116 -10.486  0.00  0.00    -0.060 A 
ATOM     14  H   LIG d   1       3.538   3.207 -10.457  0.00  0.00     0.062 H 
ATOM     15  C   LIG d   1       3.962  -0.070  -9.776  0.00  0.00    -0.041 A 
ATOM     16  H   LIG d   1       4.348   1.130 -11.501  0.00  0.00     0.062 H 
ATOM     17  H   LIG d   1       4.317  -0.981 -10.236  0.00  0.00     0.064 H 
ENDBRANCH   5   7
ENDBRANCH   1   5
BRANCH   3  18
ATOM     18  C   LIG d   1       4.762  -1.843  -4.352  0.00  0.00     0.069 C 
ATOM     19  H   LIG d   1       4.467  -2.728  -3.788  0.00  0.00     0.054 H 
ATOM     20  H   LIG d   1       5.774  -1.978  -4.734  0.00  0.00     0.054 H 
BRANCH  18  21
ATOM     21  C   LIG d   1       4.722  -0.636  -3.451  0.00  0.00     0.122 A 
ATOM     22  O   LIG d   1       4.996   0.627  -3.817  0.00  0.00    -0.466 OA
ATOM     23  C   LIG d   1       4.856   1.441  -2.757  0.00  0.00     0.092 A 
ATOM     24  C   LIG d   1       4.498   0.697  -1.695  0.00  0.00    -0.024 A 
ATOM     25  H   LIG d   1       5.009   2.510  -2.758  0.00  0.00     0.103 H 
ATOM     26  C   LIG d   1       4.413  -0.641  -2.142  0.00  0.00    -0.019 A 
ATOM     27  H   LIG d   1       4.312   1.055  -0.692  0.00  0.00     0.065 H 
ATOM     28  H   LIG d   1       4.148  -1.503  -1.546  0.00  0.00     0.065 H 
ENDBRANCH  18  21
ENDBRANCH   3  18
TORSDOF 4
ENDMDL
MODEL 4
REMARK VINA RESULT:      -5.9      2.056      2.463
REMARK  4 active torsions:
REMARK  status: ('A' for Active; 'I' for Inactive)
REMARK    1  A    between atoms: C_4  and  N_7 
REMARK    2  A    between atoms: N_7  and  C_8 
REMARK    3  A    between atoms: N_10  and  C_11 
REMARK    4  A    between atoms: C_11  and  C_12 
ROOT
ATOM      1  C   LIG d   1       7.083  -0.207  -5.863  0.00  0.00     0.135 C 
ATOM      2  S   LIG d   1       8.103  -1.311  -6.680  0.00  0.00    -0.019 SA
ATOM      3  N   LIG d   1       6.050   0.365  -6.513  0.00  0.00    -0.319 N 
ATOM      4  H   LIG d   1       5.473   0.992  -6.050  0.00  0.00     0.148 HD
ENDROOT
BRANCH   1   5
ATOM      5  N   LIG d   1       7.313   0.092  -4.569  0.00  0.00    -0.297 N 
ATOM      6  H   LIG d   1       8.180   0.431  -4.296  0.00  0.00     0.154 HD
BRANCH   5   7
ATOM      7  C   LIG d   1       6.301  -0.087  -3.620  0.00  0.00     0.033 A 
ATOM      8  C   LIG d   1       5.774   1.010  -2.950  0.00  0.00    -0.041 A 
ATOM      9  C   LIG d   1       4.774   0.830  -2.014  0.00  0.00    -0.060 A 
ATOM     10  H   LIG d   1       6.144   2.001  -3.161  0.00  0.00     0.064 H 
ATOM     11  C   LIG d   1       4.298  -0.440  -1.744  0.00  0.00    -0.062 A 
ATOM     12  H   LIG d   1       4.363   1.681  -1.494  0.00  0.00     0.062 H 
ATOM     13  C   LIG d   1       4.822  -1.534  -2.408  0.00  0.00    -0.060 A 
ATOM     14  H   LIG d   1       3.520  -0.579  -1.008  0.00  0.00     0.062 H 
ATOM     15  C   LIG d   1       5.822  -1.361  -3.346  0.00  0.00    -0.041 A 
ATOM     16  H   LIG d   1       4.449  -2.524  -2.195  0.00  0.00     0.062 H 
ATOM     17  H   LIG d   1       6.230  -2.215  -3.865  0.00  0.00     0.064 H 
ENDBRANCH   5   7
ENDBRANCH   1   5
BRANCH   3  18
ATOM     18  C   LIG d   1       5.801   0.042  -7.920  0.00  0.00     0.069 C 
ATOM     19  H   LIG d   1       6.723   0.159  -8.489  0.00  0.00     0.054 H 
ATOM     20  H   LIG d   1       5.455  -0.989  -7.999  0.00  0.00     0.054 H 
BRANCH  18  21
ATOM     21  C   LIG d   1       4.749   0.970  -8.470  0.00  0.00     0.122 A 
ATOM     22  O   LIG d   1       3.599   1.303  -7.861  0.00  0.00    -0.466 OA
ATOM     23  C   LIG d   1       2.909   2.152  -8.641  0.00  0.00     0.092 A 
ATOM     24  C   LIG d   1       3.614   2.363  -9.767  0.00  0.00    -0.024 A 
ATOM     25  H   LIG d   1       1.950   2.588  -8.404  0.00  0.00     0.103 H 
ATOM     26  C   LIG d   1       4.799   1.600  -9.657  0.00  0.00    -0.019 A 
ATOM     27  H   LIG d   1       3.328   2.993 -10.596  0.00  0.00     0.065 H 
ATOM     28  H   LIG d   1       5.594   1.537 -10.387  0.00  0.00     0.065 H 
ENDBRANCH  18  21
ENDBRANCH   3  18
TORSDOF 4
ENDMDL
MODEL 5
REMARK VINA RESULT:      -5.5      2.610      3.006
REMARK  4 active torsions:
REMARK  status: ('A' for Active; 'I' for Inactive)
REMARK    1  A    between atoms: C_4  and  N_7 
REMARK    2  A    between atoms: N_7  and  C_8 
REMARK    3  A    between atoms: N_10  and  C_11 
REMARK    4  A    between atoms: C_11  and  C_12 
ROOT
ATOM      1  C   LIG d   1       3.890  -0.587  -6.508  0.00  0.00     0.135 C 
ATOM      2  S   LIG d   1       4.589  -2.093  -6.921  0.00  0.00    -0.019 SA
ATOM      3  N   LIG d   1       4.216   0.521  -7.203  0.00  0.00    -0.319 N 
ATOM      4  H   LIG d   1       3.820   1.374  -6.969  0.00  0.00     0.148 HD
ENDROOT
BRANCH   1   5
ATOM      5  N   LIG d   1       3.013  -0.508  -5.488  0.00  0.00    -0.297 N 
ATOM      6  H   LIG d   1       2.061  -0.573  -5.661  0.00  0.00     0.154 HD
BRANCH   5   7
ATOM      7  C   LIG d   1       3.476  -0.334  -4.179  0.00  0.00     0.033 A 
ATOM      8  C   LIG d   1       3.497   0.933  -3.612  0.00  0.00    -0.041 A 
ATOM      9  C   LIG d   1       3.954   1.102  -2.320  0.00  0.00    -0.060 A 
ATOM     10  H   LIG d   1       3.154   1.785  -4.179  0.00  0.00     0.064 H 
ATOM     11  C   LIG d   1       4.391   0.010  -1.591  0.00  0.00    -0.062 A 
ATOM     12  H   LIG d   1       3.970   2.086  -1.877  0.00  0.00     0.062 H 
ATOM     13  C   LIG d   1       4.373  -1.252  -2.154  0.00  0.00    -0.060 A 
ATOM     14  H   LIG d   1       4.753   0.146  -0.582  0.00  0.00     0.062 H 
ATOM     15  C   LIG d   1       3.916  -1.428  -3.446  0.00  0.00    -0.041 A 
ATOM     16  H   LIG d   1       4.715  -2.102  -1.583  0.00  0.00     0.062 H 
ATOM     17  H   LIG d   1       3.901  -2.415  -3.885  0.00  0.00     0.064 H 
ENDBRANCH   5   7
ENDBRANCH   1   5
BRANCH   3  18
ATOM     18  C   LIG d   1       5.169   0.436  -8.312  0.00  0.00     0.069 C 
ATOM     19  H   LIG d   1       5.352  -0.610  -8.555  0.00  0.00     0.054 H 
ATOM     20  H   LIG d   1       4.757   0.944  -9.184  0.00  0.00     0.054 H 
BRANCH  18  21
ATOM     21  C   LIG d   1       6.465   1.094  -7.912  0.00  0.00     0.122 A 
ATOM     22  O   LIG d   1       7.024   1.050  -6.692  0.00  0.00    -0.466 OA
ATOM     23  C   LIG d   1       8.174   1.743  -6.701  0.00  0.00     0.092 A 
ATOM     24  C   LIG d   1       8.356   2.248  -7.935  0.00  0.00    -0.024 A 
ATOM     25  H   LIG d   1       8.838   1.876  -5.860  0.00  0.00     0.103 H 
ATOM     26  C   LIG d   1       7.254   1.830  -8.715  0.00  0.00    -0.019 A 
ATOM     27  H   LIG d   1       9.186   2.856  -8.265  0.00  0.00     0.065 H 
ATOM     28  H   LIG d   1       7.080   2.057  -9.757  0.00  0.00     0.065 H 
ENDBRANCH  18  21
ENDBRANCH   3  18
TORSDOF 4
ENDMDL
MODEL 6
REMARK VINA RESULT:      -5.5      4.836      7.021
REMARK  4 active torsions:
REMARK  status: ('A' for Active; 'I' for Inactive)
REMARK    1  A    between atoms: C_4  and  N_7 
REMARK    2  A    between atoms: N_7  and  C_8 
REMARK    3  A    between atoms: N_10  and  C_11 
REMARK    4  A    between atoms: C_11  and  C_12 
ROOT
ATOM      1  C   LIG d   1       7.574  -1.519  -3.894  0.00  0.00     0.135 C 
ATOM      2  S   LIG d   1       7.428  -1.419  -5.595  0.00  0.00    -0.019 SA
ATOM      3  N   LIG d   1       8.226  -2.557  -3.332  0.00  0.00    -0.319 N 
ATOM      4  H   LIG d   1       8.308  -2.614  -2.368  0.00  0.00     0.148 HD
ENDROOT
BRANCH   1   5
ATOM      5  N   LIG d   1       7.036  -0.560  -3.113  0.00  0.00    -0.297 N 
ATOM      6  H   LIG d   1       7.611   0.082  -2.669  0.00  0.00     0.154 HD
BRANCH   5   7
ATOM      7  C   LIG d   1       5.649  -0.490  -2.946  0.00  0.00     0.033 A 
ATOM      8  C   LIG d   1       5.012   0.743  -2.922  0.00  0.00    -0.041 A 
ATOM      9  C   LIG d   1       3.643   0.808  -2.758  0.00  0.00    -0.060 A 
ATOM     10  H   LIG d   1       5.587   1.650  -3.033  0.00  0.00     0.064 H 
ATOM     11  C   LIG d   1       2.906  -0.354  -2.617  0.00  0.00    -0.062 A 
ATOM     12  H   LIG d   1       3.146   1.767  -2.739  0.00  0.00     0.062 H 
ATOM     13  C   LIG d   1       3.537  -1.583  -2.639  0.00  0.00    -0.060 A 
ATOM     14  H   LIG d   1       1.835  -0.300  -2.483  0.00  0.00     0.062 H 
ATOM     15  C   LIG d   1       4.907  -1.656  -2.803  0.00  0.00    -0.041 A 
ATOM     16  H   LIG d   1       2.959  -2.489  -2.528  0.00  0.00     0.062 H 
ATOM     17  H   LIG d   1       5.400  -2.616  -2.822  0.00  0.00     0.064 H 
ENDBRANCH   5   7
ENDBRANCH   1   5
BRANCH   3  18
ATOM     18  C   LIG d   1       8.809  -3.600  -4.179  0.00  0.00     0.069 C 
ATOM     19  H   LIG d   1       8.079  -3.914  -4.924  0.00  0.00     0.054 H 
ATOM     20  H   LIG d   1       9.693  -3.207  -4.682  0.00  0.00     0.054 H 
BRANCH  18  21
ATOM     21  C   LIG d   1       9.199  -4.780  -3.327  0.00  0.00     0.122 A 
ATOM     22  O   LIG d   1       9.079  -6.072  -3.673  0.00  0.00    -0.466 OA
ATOM     23  C   LIG d   1       9.527  -6.847  -2.671  0.00  0.00     0.092 A 
ATOM     24  C   LIG d   1       9.931  -6.051  -1.666  0.00  0.00    -0.024 A 
ATOM     25  H   LIG d   1       9.554  -7.927  -2.673  0.00  0.00     0.103 H 
ATOM     26  C   LIG d   1       9.719  -4.719  -2.088  0.00  0.00    -0.019 A 
ATOM     27  H   LIG d   1      10.339  -6.368  -0.717  0.00  0.00     0.065 H 
ATOM     28  H   LIG d   1       9.934  -3.822  -1.524  0.00  0.00     0.065 H 
ENDBRANCH  18  21
ENDBRANCH   3  18
TORSDOF 4
ENDMDL
MODEL 7
REMARK VINA RESULT:      -5.3      2.854      3.195
REMARK  4 active torsions:
REMARK  status: ('A' for Active; 'I' for Inactive)
REMARK    1  A    between atoms: C_4  and  N_7 
REMARK    2  A    between atoms: N_7  and  C_8 
REMARK    3  A    between atoms: N_10  and  C_11 
REMARK    4  A    between atoms: C_11  and  C_12 
ROOT
ATOM      1  C   LIG d   1       7.744   0.268  -4.555  0.00  0.00     0.135 C 
ATOM      2  S   LIG d   1       8.789   1.621  -4.499  0.00  0.00    -0.019 SA
ATOM      3  N   LIG d   1       7.344  -0.227  -5.743  0.00  0.00    -0.319 N 
ATOM      4  H   LIG d   1       6.752  -0.994  -5.775  0.00  0.00     0.148 HD
ENDROOT
BRANCH   1   5
ATOM      5  N   LIG d   1       7.320  -0.305  -3.410  0.00  0.00    -0.297 N 
ATOM      6  H   LIG d   1       7.945  -0.791  -2.850  0.00  0.00     0.154 HD
BRANCH   5   7
ATOM      7  C   LIG d   1       5.978  -0.196  -3.029  0.00  0.00     0.033 A 
ATOM      8  C   LIG d   1       5.420   1.054  -2.800  0.00  0.00    -0.041 A 
ATOM      9  C   LIG d   1       4.094   1.159  -2.425  0.00  0.00    -0.060 A 
ATOM     10  H   LIG d   1       6.020   1.944  -2.916  0.00  0.00     0.064 H 
ATOM     11  C   LIG d   1       3.325   0.019  -2.277  0.00  0.00    -0.062 A 
ATOM     12  H   LIG d   1       3.658   2.130  -2.247  0.00  0.00     0.062 H 
ATOM     13  C   LIG d   1       3.878  -1.227  -2.503  0.00  0.00    -0.060 A 
ATOM     14  H   LIG d   1       2.290   0.103  -1.979  0.00  0.00     0.062 H 
ATOM     15  C   LIG d   1       5.204  -1.339  -2.879  0.00  0.00    -0.041 A 
ATOM     16  H   LIG d   1       3.275  -2.115  -2.387  0.00  0.00     0.062 H 
ATOM     17  H   LIG d   1       5.636  -2.312  -3.057  0.00  0.00     0.064 H 
ENDBRANCH   5   7
ENDBRANCH   1   5
BRANCH   3  18
ATOM     18  C   LIG d   1       7.804   0.394  -6.988  0.00  0.00     0.069 C 
ATOM     19  H   LIG d   1       8.464   1.230  -6.755  0.00  0.00     0.054 H 
ATOM     20  H   LIG d   1       8.347  -0.341  -7.581  0.00  0.00     0.054 H 
BRANCH  18  21
ATOM     21  C   LIG d   1       6.616   0.893  -7.769  0.00  0.00     0.122 A 
ATOM     22  O   LIG d   1       5.345   0.494  -7.605  0.00  0.00    -0.466 OA
ATOM     23  C   LIG d   1       4.554   1.152  -8.469  0.00  0.00     0.092 A 
ATOM     24  C   LIG d   1       5.321   1.977  -9.204  0.00  0.00    -0.024 A 
ATOM     25  H   LIG d   1       3.484   1.035  -8.560  0.00  0.00     0.103 H 
ATOM     26  C   LIG d   1       6.650   1.810  -8.753  0.00  0.00    -0.019 A 
ATOM     27  H   LIG d   1       4.986   2.640  -9.988  0.00  0.00     0.065 H 
ATOM     28  H   LIG d   1       7.526   2.321  -9.126  0.00  0.00     0.065 H 
ENDBRANCH  18  21
ENDBRANCH   3  18
TORSDOF 4
ENDMDL
MODEL 8
REMARK VINA RESULT:      -5.2      2.311      6.075
REMARK  4 active torsions:
REMARK  status: ('A' for Active; 'I' for Inactive)
REMARK    1  A    between atoms: C_4  and  N_7 
REMARK    2  A    between atoms: N_7  and  C_8 
REMARK    3  A    between atoms: N_10  and  C_11 
REMARK    4  A    between atoms: C_11  and  C_12 
ROOT
ATOM      1  C   LIG d   1       4.542  -0.604  -6.795  0.00  0.00     0.135 C 
ATOM      2  S   LIG d   1       6.204  -0.937  -6.564  0.00  0.00    -0.019 SA
ATOM      3  N   LIG d   1       3.660  -0.856  -5.807  0.00  0.00    -0.319 N 
ATOM      4  H   LIG d   1       2.718  -0.668  -5.938  0.00  0.00     0.148 HD
ENDROOT
BRANCH   1   5
ATOM      5  N   LIG d   1       4.114  -0.089  -7.965  0.00  0.00    -0.297 N 
ATOM      6  H   LIG d   1       4.430   0.780  -8.257  0.00  0.00     0.154 HD
BRANCH   5   7
ATOM      7  C   LIG d   1       3.214  -0.809  -8.759  0.00  0.00     0.033 A 
ATOM      8  C   LIG d   1       2.154  -0.158  -9.374  0.00  0.00    -0.041 A 
ATOM      9  C   LIG d   1       1.268  -0.871 -10.158  0.00  0.00    -0.060 A 
ATOM     10  H   LIG d   1       2.022   0.906  -9.241  0.00  0.00     0.064 H 
ATOM     11  C   LIG d   1       1.437  -2.233 -10.329  0.00  0.00    -0.062 A 
ATOM     12  H   LIG d   1       0.444  -0.366 -10.637  0.00  0.00     0.062 H 
ATOM     13  C   LIG d   1       2.492  -2.885  -9.717  0.00  0.00    -0.060 A 
ATOM     14  H   LIG d   1       0.740  -2.790 -10.939  0.00  0.00     0.062 H 
ATOM     15  C   LIG d   1       3.381  -2.177  -8.932  0.00  0.00    -0.041 A 
ATOM     16  H   LIG d   1       2.621  -3.948  -9.852  0.00  0.00     0.062 H 
ATOM     17  H   LIG d   1       4.205  -2.686  -8.454  0.00  0.00     0.064 H 
ENDBRANCH   5   7
ENDBRANCH   1   5
BRANCH   3  18
ATOM     18  C   LIG d   1       4.124  -1.416  -4.536  0.00  0.00     0.069 C 
ATOM     19  H   LIG d   1       3.434  -2.194  -4.208  0.00  0.00     0.054 H 
ATOM     20  H   LIG d   1       5.117  -1.845  -4.669  0.00  0.00     0.054 H 
BRANCH  18  21
ATOM     21  C   LIG d   1       4.182  -0.326  -3.497  0.00  0.00     0.122 A 
ATOM     22  O   LIG d   1       3.860   0.963  -3.693  0.00  0.00    -0.466 OA
ATOM     23  C   LIG d   1       4.029   1.645  -2.548  0.00  0.00     0.092 A 
ATOM     24  C   LIG d   1       4.472   0.793  -1.607  0.00  0.00    -0.024 A 
ATOM     25  H   LIG d   1       3.843   2.700  -2.409  0.00  0.00     0.103 H 
ATOM     26  C   LIG d   1       4.571  -0.477  -2.219  0.00  0.00    -0.019 A 
ATOM     27  H   LIG d   1       4.707   1.034  -0.580  0.00  0.00     0.065 H 
ATOM     28  H   LIG d   1       4.897  -1.395  -1.749  0.00  0.00     0.065 H 
ENDBRANCH  18  21
ENDBRANCH   3  18
TORSDOF 4
ENDMDL
MODEL 9
REMARK VINA RESULT:      -5.1      6.000      7.325
REMARK  4 active torsions:
REMARK  status: ('A' for Active; 'I' for Inactive)
REMARK    1  A    between atoms: C_4  and  N_7 
REMARK    2  A    between atoms: N_7  and  C_8 
REMARK    3  A    between atoms: N_10  and  C_11 
REMARK    4  A    between atoms: C_11  and  C_12 
ROOT
ATOM      1  C   LIG d   1       9.380   1.764  -4.089  0.00  0.00     0.135 C 
ATOM      2  S   LIG d   1       9.850   0.737  -5.375  0.00  0.00    -0.019 SA
ATOM      3  N   LIG d   1       8.129   1.693  -3.593  0.00  0.00    -0.319 N 
ATOM      4  H   LIG d   1       7.863   2.276  -2.865  0.00  0.00     0.148 HD
ENDROOT
BRANCH   1   5
ATOM      5  N   LIG d   1      10.262   2.644  -3.573  0.00  0.00    -0.297 N 
ATOM      6  H   LIG d   1      11.091   2.327  -3.182  0.00  0.00     0.154 HD
BRANCH   5   7
ATOM      7  C   LIG d   1       9.980   4.014  -3.602  0.00  0.00     0.033 A 
ATOM      8  C   LIG d   1      10.101   4.773  -2.446  0.00  0.00    -0.041 A 
ATOM      9  C   LIG d   1       9.824   6.126  -2.478  0.00  0.00    -0.060 A 
ATOM     10  H   LIG d   1      10.413   4.308  -1.523  0.00  0.00     0.064 H 
ATOM     11  C   LIG d   1       9.426   6.724  -3.660  0.00  0.00    -0.062 A 
ATOM     12  H   LIG d   1       9.918   6.718  -1.580  0.00  0.00     0.062 H 
ATOM     13  C   LIG d   1       9.303   5.970  -4.812  0.00  0.00    -0.060 A 
ATOM     14  H   LIG d   1       9.204   7.781  -3.681  0.00  0.00     0.062 H 
ATOM     15  C   LIG d   1       9.579   4.616  -4.787  0.00  0.00    -0.041 A 
ATOM     16  H   LIG d   1       8.992   6.439  -5.733  0.00  0.00     0.062 H 
ATOM     17  H   LIG d   1       9.485   4.028  -5.688  0.00  0.00     0.064 H 
ENDBRANCH   5   7
ENDBRANCH   1   5
BRANCH   3  18
ATOM     18  C   LIG d   1       7.171   0.738  -4.154  0.00  0.00     0.069 C 
ATOM     19  H   LIG d   1       6.769   1.132  -5.088  0.00  0.00     0.054 H 
ATOM     20  H   LIG d   1       7.674  -0.209  -4.348  0.00  0.00     0.054 H 
BRANCH  18  21
ATOM     21  C   LIG d   1       6.047   0.520  -3.175  0.00  0.00     0.122 A 
ATOM     22  O   LIG d   1       5.472   1.466  -2.415  0.00  0.00    -0.466 OA
ATOM     23  C   LIG d   1       4.504   0.913  -1.666  0.00  0.00     0.092 A 
ATOM     24  C   LIG d   1       4.458  -0.404  -1.937  0.00  0.00    -0.024 A 
ATOM     25  H   LIG d   1       3.873   1.436  -0.964  0.00  0.00     0.103 H 
ATOM     26  C   LIG d   1       5.453  -0.657  -2.909  0.00  0.00    -0.019 A 
ATOM     27  H   LIG d   1       3.790  -1.129  -1.496  0.00  0.00     0.065 H 
ATOM     28  H   LIG d   1       5.690  -1.613  -3.354  0.00  0.00     0.065 H 
ENDBRANCH  18  21
ENDBRANCH   3  18
TORSDOF 4
ENDMDL
MODEL 10
REMARK VINA RESULT:      -5.1      2.941      4.707
REMARK  4 active torsions:
REMARK  status: ('A' for Active; 'I' for Inactive)
REMARK    1  A    between atoms: C_4  and  N_7 
REMARK    2  A    between atoms: N_7  and  C_8 
REMARK    3  A    between atoms: N_10  and  C_11 
REMARK    4  A    between atoms: C_11  and  C_12 
ROOT
ATOM      1  C   LIG d   1       4.225  -1.397  -6.257  0.00  0.00     0.135 C 
ATOM      2  S   LIG d   1       5.638  -0.611  -6.816  0.00  0.00    -0.019 SA
ATOM      3  N   LIG d   1       3.991  -2.681  -6.590  0.00  0.00    -0.319 N 
ATOM      4  H   LIG d   1       3.190  -3.126  -6.274  0.00  0.00     0.148 HD
ENDROOT
BRANCH   1   5
ATOM      5  N   LIG d   1       3.346  -0.731  -5.481  0.00  0.00    -0.297 N 
ATOM      6  H   LIG d   1       2.480  -0.477  -5.838  0.00  0.00     0.154 HD
BRANCH   5   7
ATOM      7  C   LIG d   1       3.681  -0.407  -4.162  0.00  0.00     0.033 A 
ATOM      8  C   LIG d   1       3.455   0.876  -3.682  0.00  0.00    -0.041 A 
ATOM      9  C   LIG d   1       3.787   1.192  -2.379  0.00  0.00    -0.060 A 
ATOM     10  H   LIG d   1       3.020   1.625  -4.326  0.00  0.00     0.064 H 
ATOM     11  C   LIG d   1       4.344   0.232  -1.554  0.00  0.00    -0.062 A 
ATOM     12  H   LIG d   1       3.611   2.189  -2.004  0.00  0.00     0.062 H 
ATOM     13  C   LIG d   1       4.571  -1.046  -2.029  0.00  0.00    -0.060 A 
ATOM     14  H   LIG d   1       4.607   0.484  -0.536  0.00  0.00     0.062 H 
ATOM     15  C   LIG d   1       4.242  -1.369  -3.332  0.00  0.00    -0.041 A 
ATOM     16  H   LIG d   1       5.007  -1.792  -1.383  0.00  0.00     0.062 H 
ATOM     17  H   LIG d   1       4.418  -2.367  -3.702  0.00  0.00     0.064 H 
ENDBRANCH   5   7
ENDBRANCH   1   5
BRANCH   3  18
ATOM     18  C   LIG d   1       4.945  -3.405  -7.433  0.00  0.00     0.069 C 
ATOM     19  H   LIG d   1       4.537  -3.508  -8.439  0.00  0.00     0.054 H 
ATOM     20  H   LIG d   1       5.883  -2.850  -7.479  0.00  0.00     0.054 H 
BRANCH  18  21
ATOM     21  C   LIG d   1       5.197  -4.771  -6.850  0.00  0.00     0.122 A 
ATOM     22  O   LIG d   1       6.132  -5.642  -7.263  0.00  0.00    -0.466 OA
ATOM     23  C   LIG d   1       6.071  -6.754  -6.513  0.00  0.00     0.092 A 
ATOM     24  C   LIG d   1       5.082  -6.606  -5.613  0.00  0.00    -0.024 A 
ATOM     25  H   LIG d   1       6.706  -7.622  -6.617  0.00  0.00     0.103 H 
ATOM     26  C   LIG d   1       4.518  -5.328  -5.831  0.00  0.00    -0.019 A 
ATOM     27  H   LIG d   1       4.777  -7.326  -4.867  0.00  0.00     0.065 H 
ATOM     28  H   LIG d   1       3.700  -4.884  -5.283  0.00  0.00     0.065 H 
ENDBRANCH  18  21
ENDBRANCH   3  18
TORSDOF 4
ENDMDL
