MODEL 1
REMARK VINA RESULT:      -4.9      0.000      0.000
REMARK  4 active torsions:
REMARK  status: ('A' for Active; 'I' for Inactive)
REMARK    1  A    between atoms: C_1  and  C_2 
REMARK    2  A    between atoms: C_2  and  C_3 
REMARK    3  A    between atoms: C_3  and  O_4 
REMARK    4  A    between atoms: O_4  and  C_5 
ROOT
ATOM      1  C   LIG d   1       3.922  -0.454  -4.365  0.00  0.00     0.134 A 
ATOM      2  C   LIG d   1       3.601   0.722  -3.703  0.00  0.00    -0.019 A 
ATOM      3  C   LIG d   1       3.812   0.826  -2.341  0.00  0.00    -0.058 A 
ATOM      4  C   LIG d   1       4.349  -0.238  -1.640  0.00  0.00    -0.060 A 
ATOM      5  C   LIG d   1       4.674  -1.411  -2.298  0.00  0.00    -0.044 A 
ATOM      6  C   LIG d   1       4.461  -1.521  -3.659  0.00  0.00     0.059 A 
ATOM      7 BR   LIG d   1       4.906  -3.123  -4.560  0.00  0.00    -0.046 Br
ATOM      8  H   LIG d   1       3.186   1.555  -4.250  0.00  0.00     0.065 H 
ATOM      9  H   LIG d   1       3.559   1.740  -1.824  0.00  0.00     0.062 H 
ATOM     10  H   LIG d   1       4.515  -0.154  -0.576  0.00  0.00     0.062 H 
ATOM     11  H   LIG d   1       5.094  -2.239  -1.749  0.00  0.00     0.063 H 
ENDROOT
BRANCH   1  12
ATOM     12  O   LIG d   1       3.711  -0.560  -5.704  0.00  0.00    -0.491 OA
BRANCH  12  13
ATOM     13  C   LIG d   1       2.763   0.338  -6.284  0.00  0.00     0.089 C 
ATOM     14  H   LIG d   1       2.983   1.356  -5.962  0.00  0.00     0.070 H 
ATOM     15  H   LIG d   1       1.758   0.063  -5.963  0.00  0.00     0.070 H 
BRANCH  13  16
ATOM     16  C   LIG d   1       2.851   0.256  -7.810  0.00  0.00    -0.021 C 
ATOM     17  H   LIG d   1       3.738  -0.310  -8.093  0.00  0.00     0.029 H 
ATOM     18  H   LIG d   1       1.962  -0.243  -8.198  0.00  0.00     0.029 H 
BRANCH  16  19
ATOM     19  C   LIG d   1       2.940   1.668  -8.392  0.00  0.00    -0.062 C 
ATOM     20  H   LIG d   1       3.563   2.288  -7.748  0.00  0.00     0.023 H 
ATOM     21  H   LIG d   1       3.380   1.623  -9.388  0.00  0.00     0.023 H 
ATOM     22  H   LIG d   1       1.941   2.099  -8.456  0.00  0.00     0.023 H 
ENDBRANCH  16  19
ENDBRANCH  13  16
ENDBRANCH  12  13
ENDBRANCH   1  12
TORSDOF 4
ENDMDL
MODEL 2
REMARK VINA RESULT:      -4.7      1.800      2.376
REMARK  4 active torsions:
REMARK  status: ('A' for Active; 'I' for Inactive)
REMARK    1  A    between atoms: C_1  and  C_2 
REMARK    2  A    between atoms: C_2  and  C_3 
REMARK    3  A    between atoms: C_3  and  O_4 
REMARK    4  A    between atoms: O_4  and  C_5 
ROOT
ATOM      1  C   LIG d   1       4.122  -0.559  -4.588  0.00  0.00     0.134 A 
ATOM      2  C   LIG d   1       4.379  -1.902  -4.819  0.00  0.00    -0.019 A 
ATOM      3  C   LIG d   1       4.404  -2.791  -3.762  0.00  0.00    -0.058 A 
ATOM      4  C   LIG d   1       4.166  -2.346  -2.475  0.00  0.00    -0.060 A 
ATOM      5  C   LIG d   1       3.905  -1.007  -2.241  0.00  0.00    -0.044 A 
ATOM      6  C   LIG d   1       3.883  -0.113  -3.295  0.00  0.00     0.059 A 
ATOM      7 BR   LIG d   1       3.524   1.717  -2.976  0.00  0.00    -0.046 Br
ATOM      8  H   LIG d   1       4.561  -2.252  -5.824  0.00  0.00     0.065 H 
ATOM      9  H   LIG d   1       4.608  -3.837  -3.942  0.00  0.00     0.062 H 
ATOM     10  H   LIG d   1       4.184  -3.043  -1.651  0.00  0.00     0.062 H 
ATOM     11  H   LIG d   1       3.717  -0.662  -1.236  0.00  0.00     0.063 H 
ENDROOT
BRANCH   1  12
ATOM     12  O   LIG d   1       4.101   0.319  -5.626  0.00  0.00    -0.491 OA
BRANCH  12  13
ATOM     13  C   LIG d   1       2.989   0.240  -6.519  0.00  0.00     0.089 C 
ATOM     14  H   LIG d   1       2.237   0.974  -6.228  0.00  0.00     0.070 H 
ATOM     15  H   LIG d   1       2.558  -0.760  -6.475  0.00  0.00     0.070 H 
BRANCH  13  16
ATOM     16  C   LIG d   1       3.459   0.531  -7.946  0.00  0.00    -0.021 C 
ATOM     17  H   LIG d   1       4.549   0.565  -7.970  0.00  0.00     0.029 H 
ATOM     18  H   LIG d   1       3.106  -0.256  -8.612  0.00  0.00     0.029 H 
BRANCH  16  19
ATOM     19  C   LIG d   1       2.898   1.879  -8.404  0.00  0.00    -0.062 C 
ATOM     20  H   LIG d   1       1.809   1.847  -8.375  0.00  0.00     0.023 H 
ATOM     21  H   LIG d   1       3.256   2.666  -7.741  0.00  0.00     0.023 H 
ATOM     22  H   LIG d   1       3.228   2.083  -9.422  0.00  0.00     0.023 H 
ENDBRANCH  16  19
ENDBRANCH  13  16
ENDBRANCH  12  13
ENDBRANCH   1  12
TORSDOF 4
ENDMDL
MODEL 3
REMARK VINA RESULT:      -4.6      3.679      4.688
REMARK  4 active torsions:
REMARK  status: ('A' for Active; 'I' for Inactive)
REMARK    1  A    between atoms: C_1  and  C_2 
REMARK    2  A    between atoms: C_2  and  C_3 
REMARK    3  A    between atoms: C_3  and  O_4 
REMARK    4  A    between atoms: O_4  and  C_5 
ROOT
ATOM      1  C   LIG d   1       6.175  -0.908  -3.185  0.00  0.00     0.134 A 
ATOM      2  C   LIG d   1       5.092  -1.527  -2.579  0.00  0.00    -0.019 A 
ATOM      3  C   LIG d   1       4.106  -0.765  -1.983  0.00  0.00    -0.058 A 
ATOM      4  C   LIG d   1       4.193   0.615  -1.998  0.00  0.00    -0.060 A 
ATOM      5  C   LIG d   1       5.269   1.237  -2.606  0.00  0.00    -0.044 A 
ATOM      6  C   LIG d   1       6.260   0.478  -3.200  0.00  0.00     0.059 A 
ATOM      7 BR   LIG d   1       7.731   1.327  -4.032  0.00  0.00    -0.046 Br
ATOM      8  H   LIG d   1       5.021  -2.604  -2.570  0.00  0.00     0.065 H 
ATOM      9  H   LIG d   1       3.265  -1.247  -1.507  0.00  0.00     0.062 H 
ATOM     10  H   LIG d   1       3.420   1.209  -1.534  0.00  0.00     0.062 H 
ATOM     11  H   LIG d   1       5.334   2.314  -2.618  0.00  0.00     0.063 H 
ENDROOT
BRANCH   1  12
ATOM     12  O   LIG d   1       7.148  -1.656  -3.768  0.00  0.00    -0.491 OA
BRANCH  12  13
ATOM     13  C   LIG d   1       6.727  -2.678  -4.673  0.00  0.00     0.089 C 
ATOM     14  H   LIG d   1       6.730  -2.287  -5.690  0.00  0.00     0.070 H 
ATOM     15  H   LIG d   1       5.720  -3.003  -4.410  0.00  0.00     0.070 H 
BRANCH  13  16
ATOM     16  C   LIG d   1       7.686  -3.867  -4.582  0.00  0.00    -0.021 C 
ATOM     17  H   LIG d   1       7.132  -4.759  -4.289  0.00  0.00     0.029 H 
ATOM     18  H   LIG d   1       8.152  -4.033  -5.553  0.00  0.00     0.029 H 
BRANCH  16  19
ATOM     19  C   LIG d   1       8.767  -3.573  -3.540  0.00  0.00    -0.062 C 
ATOM     20  H   LIG d   1       8.662  -4.262  -2.703  0.00  0.00     0.023 H 
ATOM     21  H   LIG d   1       9.750  -3.697  -3.992  0.00  0.00     0.023 H 
ATOM     22  H   LIG d   1       8.659  -2.549  -3.183  0.00  0.00     0.023 H 
ENDBRANCH  16  19
ENDBRANCH  13  16
ENDBRANCH  12  13
ENDBRANCH   1  12
TORSDOF 4
ENDMDL
MODEL 4
REMARK VINA RESULT:      -4.6      3.290      3.681
REMARK  4 active torsions:
REMARK  status: ('A' for Active; 'I' for Inactive)
REMARK    1  A    between atoms: C_1  and  C_2 
REMARK    2  A    between atoms: C_2  and  C_3 
REMARK    3  A    between atoms: C_3  and  O_4 
REMARK    4  A    between atoms: O_4  and  C_5 
ROOT
ATOM      1  C   LIG d   1       6.381   0.135  -3.329  0.00  0.00     0.134 A 
ATOM      2  C   LIG d   1       5.579   1.078  -2.702  0.00  0.00    -0.019 A 
ATOM      3  C   LIG d   1       4.477   0.672  -1.975  0.00  0.00    -0.058 A 
ATOM      4  C   LIG d   1       4.176  -0.673  -1.864  0.00  0.00    -0.060 A 
ATOM      5  C   LIG d   1       4.976  -1.617  -2.484  0.00  0.00    -0.044 A 
ATOM      6  C   LIG d   1       6.077  -1.216  -3.217  0.00  0.00     0.059 A 
ATOM      7 BR   LIG d   1       7.171  -2.505  -4.063  0.00  0.00    -0.046 Br
ATOM      8  H   LIG d   1       5.815   2.128  -2.785  0.00  0.00     0.065 H 
ATOM      9  H   LIG d   1       3.851   1.406  -1.490  0.00  0.00     0.062 H 
ATOM     10  H   LIG d   1       3.316  -0.988  -1.293  0.00  0.00     0.062 H 
ATOM     11  H   LIG d   1       4.740  -2.666  -2.394  0.00  0.00     0.063 H 
ENDROOT
BRANCH   1  12
ATOM     12  O   LIG d   1       7.463   0.532  -4.049  0.00  0.00    -0.491 OA
BRANCH  12  13
ATOM     13  C   LIG d   1       7.890   1.885  -3.885  0.00  0.00     0.089 C 
ATOM     14  H   LIG d   1       8.612   1.941  -3.071  0.00  0.00     0.070 H 
ATOM     15  H   LIG d   1       7.029   2.512  -3.653  0.00  0.00     0.070 H 
BRANCH  13  16
ATOM     16  C   LIG d   1       8.543   2.374  -5.179  0.00  0.00    -0.021 C 
ATOM     17  H   LIG d   1       8.258   3.411  -5.361  0.00  0.00     0.029 H 
ATOM     18  H   LIG d   1       9.627   2.307  -5.087  0.00  0.00     0.029 H 
BRANCH  16  19
ATOM     19  C   LIG d   1       8.075   1.505  -6.348  0.00  0.00    -0.062 C 
ATOM     20  H   LIG d   1       7.560   0.625  -5.962  0.00  0.00     0.023 H 
ATOM     21  H   LIG d   1       7.394   2.077  -6.977  0.00  0.00     0.023 H 
ATOM     22  H   LIG d   1       8.937   1.192  -6.937  0.00  0.00     0.023 H 
ENDBRANCH  16  19
ENDBRANCH  13  16
ENDBRANCH  12  13
ENDBRANCH   1  12
TORSDOF 4
ENDMDL
MODEL 5
REMARK VINA RESULT:      -4.5      2.318      3.851
REMARK  4 active torsions:
REMARK  status: ('A' for Active; 'I' for Inactive)
REMARK    1  A    between atoms: C_1  and  C_2 
REMARK    2  A    between atoms: C_2  and  C_3 
REMARK    3  A    between atoms: C_3  and  O_4 
REMARK    4  A    between atoms: O_4  and  C_5 
ROOT
ATOM      1  C   LIG d   1       4.269  -1.123  -3.959  0.00  0.00     0.134 A 
ATOM      2  C   LIG d   1       4.748  -1.254  -2.663  0.00  0.00    -0.019 A 
ATOM      3  C   LIG d   1       4.560  -0.232  -1.752  0.00  0.00    -0.058 A 
ATOM      4  C   LIG d   1       3.887   0.916  -2.127  0.00  0.00    -0.060 A 
ATOM      5  C   LIG d   1       3.402   1.047  -3.416  0.00  0.00    -0.044 A 
ATOM      6  C   LIG d   1       3.592   0.030  -4.333  0.00  0.00     0.059 A 
ATOM      7 BR   LIG d   1       2.930   0.209  -6.095  0.00  0.00    -0.046 Br
ATOM      8  H   LIG d   1       5.271  -2.151  -2.369  0.00  0.00     0.065 H 
ATOM      9  H   LIG d   1       4.937  -0.332  -0.745  0.00  0.00     0.062 H 
ATOM     10  H   LIG d   1       3.738   1.711  -1.413  0.00  0.00     0.062 H 
ATOM     11  H   LIG d   1       2.875   1.943  -3.706  0.00  0.00     0.063 H 
ENDROOT
BRANCH   1  12
ATOM     12  O   LIG d   1       4.457  -2.125  -4.858  0.00  0.00    -0.491 OA
BRANCH  12  13
ATOM     13  C   LIG d   1       4.902  -3.382  -4.345  0.00  0.00     0.089 C 
ATOM     14  H   LIG d   1       4.076  -3.880  -3.839  0.00  0.00     0.070 H 
ATOM     15  H   LIG d   1       5.717  -3.218  -3.639  0.00  0.00     0.070 H 
BRANCH  13  16
ATOM     16  C   LIG d   1       5.396  -4.257  -5.499  0.00  0.00    -0.021 C 
ATOM     17  H   LIG d   1       5.200  -3.755  -6.446  0.00  0.00     0.029 H 
ATOM     18  H   LIG d   1       6.467  -4.427  -5.393  0.00  0.00     0.029 H 
BRANCH  16  19
ATOM     19  C   LIG d   1       4.661  -5.599  -5.472  0.00  0.00    -0.062 C 
ATOM     20  H   LIG d   1       5.018  -6.225  -6.290  0.00  0.00     0.023 H 
ATOM     21  H   LIG d   1       4.851  -6.099  -4.523  0.00  0.00     0.023 H 
ATOM     22  H   LIG d   1       3.590  -5.430  -5.585  0.00  0.00     0.023 H 
ENDBRANCH  16  19
ENDBRANCH  13  16
ENDBRANCH  12  13
ENDBRANCH   1  12
TORSDOF 4
ENDMDL
MODEL 6
REMARK VINA RESULT:      -4.4      1.487      1.594
REMARK  4 active torsions:
REMARK  status: ('A' for Active; 'I' for Inactive)
REMARK    1  A    between atoms: C_1  and  C_2 
REMARK    2  A    between atoms: C_2  and  C_3 
REMARK    3  A    between atoms: C_3  and  O_4 
REMARK    4  A    between atoms: O_4  and  C_5 
ROOT
ATOM      1  C   LIG d   1       3.781  -0.160  -5.369  0.00  0.00     0.134 A 
ATOM      2  C   LIG d   1       2.726   0.251  -4.567  0.00  0.00    -0.019 A 
ATOM      3  C   LIG d   1       2.474  -0.397  -3.373  0.00  0.00    -0.058 A 
ATOM      4  C   LIG d   1       3.277  -1.449  -2.973  0.00  0.00    -0.060 A 
ATOM      5  C   LIG d   1       4.333  -1.858  -3.767  0.00  0.00    -0.044 A 
ATOM      6  C   LIG d   1       4.586  -1.216  -4.965  0.00  0.00     0.059 A 
ATOM      7 BR   LIG d   1       6.030  -1.774  -6.052  0.00  0.00    -0.046 Br
ATOM      8  H   LIG d   1       2.100   1.075  -4.877  0.00  0.00     0.065 H 
ATOM      9  H   LIG d   1       1.651  -0.080  -2.751  0.00  0.00     0.062 H 
ATOM     10  H   LIG d   1       3.081  -1.952  -2.038  0.00  0.00     0.062 H 
ATOM     11  H   LIG d   1       4.960  -2.678  -3.452  0.00  0.00     0.063 H 
ENDROOT
BRANCH   1  12
ATOM     12  O   LIG d   1       4.027   0.473  -6.546  0.00  0.00    -0.491 OA
BRANCH  12  13
ATOM     13  C   LIG d   1       2.995   0.431  -7.533  0.00  0.00     0.089 C 
ATOM     14  H   LIG d   1       2.206   1.133  -7.264  0.00  0.00     0.070 H 
ATOM     15  H   LIG d   1       2.584  -0.577  -7.586  0.00  0.00     0.070 H 
BRANCH  13  16
ATOM     16  C   LIG d   1       3.576   0.816  -8.895  0.00  0.00    -0.021 C 
ATOM     17  H   LIG d   1       4.608   0.472  -8.961  0.00  0.00     0.029 H 
ATOM     18  H   LIG d   1       2.988   0.351  -9.686  0.00  0.00     0.029 H 
BRANCH  16  19
ATOM     19  C   LIG d   1       3.536   2.337  -9.056  0.00  0.00    -0.062 C 
ATOM     20  H   LIG d   1       3.970   2.808  -8.174  0.00  0.00     0.023 H 
ATOM     21  H   LIG d   1       4.106   2.625  -9.939  0.00  0.00     0.023 H 
ATOM     22  H   LIG d   1       2.502   2.664  -9.170  0.00  0.00     0.023 H 
ENDBRANCH  16  19
ENDBRANCH  13  16
ENDBRANCH  12  13
ENDBRANCH   1  12
TORSDOF 4
ENDMDL
MODEL 7
REMARK VINA RESULT:      -4.3      1.491      4.519
REMARK  4 active torsions:
REMARK  status: ('A' for Active; 'I' for Inactive)
REMARK    1  A    between atoms: C_1  and  C_2 
REMARK    2  A    between atoms: C_2  and  C_3 
REMARK    3  A    between atoms: C_3  and  O_4 
REMARK    4  A    between atoms: O_4  and  C_5 
ROOT
ATOM      1  C   LIG d   1       3.896  -0.314  -5.918  0.00  0.00     0.134 A 
ATOM      2  C   LIG d   1       2.889   0.290  -6.656  0.00  0.00    -0.019 A 
ATOM      3  C   LIG d   1       2.560  -0.202  -7.905  0.00  0.00    -0.058 A 
ATOM      4  C   LIG d   1       3.227  -1.300  -8.416  0.00  0.00    -0.060 A 
ATOM      5  C   LIG d   1       4.229  -1.907  -7.680  0.00  0.00    -0.044 A 
ATOM      6  C   LIG d   1       4.565  -1.416  -6.432  0.00  0.00     0.059 A 
ATOM      7 BR   LIG d   1       5.934  -2.247  -5.426  0.00  0.00    -0.046 Br
ATOM      8  H   LIG d   1       2.365   1.145  -6.257  0.00  0.00     0.065 H 
ATOM      9  H   LIG d   1       1.778   0.271  -8.481  0.00  0.00     0.062 H 
ATOM     10  H   LIG d   1       2.966  -1.684  -9.390  0.00  0.00     0.062 H 
ATOM     11  H   LIG d   1       4.747  -2.765  -8.080  0.00  0.00     0.063 H 
ENDROOT
BRANCH   1  12
ATOM     12  O   LIG d   1       4.225   0.171  -4.692  0.00  0.00    -0.491 OA
BRANCH  12  13
ATOM     13  C   LIG d   1       3.255   0.022  -3.654  0.00  0.00     0.089 C 
ATOM     14  H   LIG d   1       2.483  -0.676  -3.976  0.00  0.00     0.070 H 
ATOM     15  H   LIG d   1       2.804   0.990  -3.437  0.00  0.00     0.070 H 
BRANCH  13  16
ATOM     16  C   LIG d   1       3.935  -0.518  -2.394  0.00  0.00    -0.021 C 
ATOM     17  H   LIG d   1       4.993  -0.252  -2.409  0.00  0.00     0.029 H 
ATOM     18  H   LIG d   1       3.465  -0.082  -1.512  0.00  0.00     0.029 H 
BRANCH  16  19
ATOM     19  C   LIG d   1       3.793  -2.040  -2.348  0.00  0.00    -0.062 C 
ATOM     20  H   LIG d   1       3.757  -2.371  -1.310  0.00  0.00     0.023 H 
ATOM     21  H   LIG d   1       2.874  -2.334  -2.855  0.00  0.00     0.023 H 
ATOM     22  H   LIG d   1       4.646  -2.500  -2.847  0.00  0.00     0.023 H 
ENDBRANCH  16  19
ENDBRANCH  13  16
ENDBRANCH  12  13
ENDBRANCH   1  12
TORSDOF 4
ENDMDL
MODEL 8
REMARK VINA RESULT:      -4.2      2.492      4.070
REMARK  4 active torsions:
REMARK  status: ('A' for Active; 'I' for Inactive)
REMARK    1  A    between atoms: C_1  and  C_2 
REMARK    2  A    between atoms: C_2  and  C_3 
REMARK    3  A    between atoms: C_3  and  O_4 
REMARK    4  A    between atoms: O_4  and  C_5 
ROOT
ATOM      1  C   LIG d   1       5.525   0.157  -3.982  0.00  0.00     0.134 A 
ATOM      2  C   LIG d   1       5.685   0.614  -2.682  0.00  0.00    -0.019 A 
ATOM      3  C   LIG d   1       4.575   0.856  -1.895  0.00  0.00    -0.058 A 
ATOM      4  C   LIG d   1       3.306   0.633  -2.398  0.00  0.00    -0.060 A 
ATOM      5  C   LIG d   1       3.144   0.172  -3.692  0.00  0.00    -0.044 A 
ATOM      6  C   LIG d   1       4.250  -0.067  -4.485  0.00  0.00     0.059 A 
ATOM      7 BR   LIG d   1       4.028  -0.698  -6.254  0.00  0.00    -0.046 Br
ATOM      8  H   LIG d   1       6.674   0.785  -2.287  0.00  0.00     0.065 H 
ATOM      9  H   LIG d   1       4.699   1.216  -0.884  0.00  0.00     0.062 H 
ATOM     10  H   LIG d   1       2.441   0.819  -1.780  0.00  0.00     0.062 H 
ATOM     11  H   LIG d   1       2.153  -0.003  -4.082  0.00  0.00     0.063 H 
ENDROOT
BRANCH   1  12
ATOM     12  O   LIG d   1       6.615  -0.077  -4.760  0.00  0.00    -0.491 OA
BRANCH  12  13
ATOM     13  C   LIG d   1       7.628  -0.926  -4.218  0.00  0.00     0.089 C 
ATOM     14  H   LIG d   1       7.825  -0.642  -3.185  0.00  0.00     0.070 H 
ATOM     15  H   LIG d   1       8.540  -0.823  -4.806  0.00  0.00     0.070 H 
BRANCH  13  16
ATOM     16  C   LIG d   1       7.153  -2.380  -4.265  0.00  0.00    -0.021 C 
ATOM     17  H   LIG d   1       6.292  -2.502  -3.608  0.00  0.00     0.029 H 
ATOM     18  H   LIG d   1       6.869  -2.637  -5.286  0.00  0.00     0.029 H 
BRANCH  16  19
ATOM     19  C   LIG d   1       8.283  -3.302  -3.802  0.00  0.00    -0.062 C 
ATOM     20  H   LIG d   1       9.238  -2.787  -3.908  0.00  0.00     0.023 H 
ATOM     21  H   LIG d   1       8.128  -3.569  -2.757  0.00  0.00     0.023 H 
ATOM     22  H   LIG d   1       8.288  -4.205  -4.411  0.00  0.00     0.023 H 
ENDBRANCH  16  19
ENDBRANCH  13  16
ENDBRANCH  12  13
ENDBRANCH   1  12
TORSDOF 4
ENDMDL
MODEL 9
REMARK VINA RESULT:      -3.9      2.683      4.712
REMARK  4 active torsions:
REMARK  status: ('A' for Active; 'I' for Inactive)
REMARK    1  A    between atoms: C_1  and  C_2 
REMARK    2  A    between atoms: C_2  and  C_3 
REMARK    3  A    between atoms: C_3  and  O_4 
REMARK    4  A    between atoms: O_4  and  C_5 
ROOT
ATOM      1  C   LIG d   1       5.099  -0.319  -4.345  0.00  0.00     0.134 A 
ATOM      2  C   LIG d   1       4.832  -0.609  -5.675  0.00  0.00    -0.019 A 
ATOM      3  C   LIG d   1       3.611  -0.266  -6.224  0.00  0.00    -0.058 A 
ATOM      4  C   LIG d   1       2.659   0.374  -5.453  0.00  0.00    -0.060 A 
ATOM      5  C   LIG d   1       2.924   0.669  -4.127  0.00  0.00    -0.044 A 
ATOM      6  C   LIG d   1       4.141   0.323  -3.572  0.00  0.00     0.059 A 
ATOM      7 BR   LIG d   1       4.504   0.727  -1.760  0.00  0.00    -0.046 Br
ATOM      8  H   LIG d   1       5.576  -1.105  -6.280  0.00  0.00     0.065 H 
ATOM      9  H   LIG d   1       3.402  -0.494  -7.259  0.00  0.00     0.062 H 
ATOM     10  H   LIG d   1       1.707   0.645  -5.884  0.00  0.00     0.062 H 
ATOM     11  H   LIG d   1       2.180   1.170  -3.527  0.00  0.00     0.063 H 
ENDROOT
BRANCH   1  12
ATOM     12  O   LIG d   1       6.296  -0.661  -3.801  0.00  0.00    -0.491 OA
BRANCH  12  13
ATOM     13  C   LIG d   1       6.579  -2.056  -3.679  0.00  0.00     0.089 C 
ATOM     14  H   LIG d   1       5.799  -2.629  -4.180  0.00  0.00     0.070 H 
ATOM     15  H   LIG d   1       6.611  -2.329  -2.624  0.00  0.00     0.070 H 
BRANCH  13  16
ATOM     16  C   LIG d   1       7.932  -2.361  -4.326  0.00  0.00    -0.021 C 
ATOM     17  H   LIG d   1       7.779  -2.665  -5.361  0.00  0.00     0.029 H 
ATOM     18  H   LIG d   1       8.557  -1.468  -4.298  0.00  0.00     0.029 H 
BRANCH  16  19
ATOM     19  C   LIG d   1       8.621  -3.491  -3.559  0.00  0.00    -0.062 C 
ATOM     20  H   LIG d   1       8.752  -3.196  -2.517  0.00  0.00     0.023 H 
ATOM     21  H   LIG d   1       8.007  -4.390  -3.606  0.00  0.00     0.023 H 
ATOM     22  H   LIG d   1       9.595  -3.692  -4.005  0.00  0.00     0.023 H 
ENDBRANCH  16  19
ENDBRANCH  13  16
ENDBRANCH  12  13
ENDBRANCH   1  12
TORSDOF 4
ENDMDL
MODEL 10
REMARK VINA RESULT:      -3.8      2.945      4.572
REMARK  4 active torsions:
REMARK  status: ('A' for Active; 'I' for Inactive)
REMARK    1  A    between atoms: C_1  and  C_2 
REMARK    2  A    between atoms: C_2  and  C_3 
REMARK    3  A    between atoms: C_3  and  O_4 
REMARK    4  A    between atoms: O_4  and  C_5 
ROOT
ATOM      1  C   LIG d   1       5.189  -2.259  -4.610  0.00  0.00     0.134 A 
ATOM      2  C   LIG d   1       4.709  -3.510  -4.970  0.00  0.00    -0.019 A 
ATOM      3  C   LIG d   1       5.593  -4.523  -5.285  0.00  0.00    -0.058 A 
ATOM      4  C   LIG d   1       6.956  -4.296  -5.233  0.00  0.00    -0.060 A 
ATOM      5  C   LIG d   1       7.439  -3.051  -4.870  0.00  0.00    -0.044 A 
ATOM      6  C   LIG d   1       6.558  -2.032  -4.559  0.00  0.00     0.059 A 
ATOM      7 BR   LIG d   1       7.217  -0.331  -4.061  0.00  0.00    -0.046 Br
ATOM      8  H   LIG d   1       3.645  -3.690  -5.007  0.00  0.00     0.065 H 
ATOM      9  H   LIG d   1       5.219  -5.496  -5.569  0.00  0.00     0.062 H 
ATOM     10  H   LIG d   1       7.645  -5.090  -5.476  0.00  0.00     0.062 H 
ATOM     11  H   LIG d   1       8.503  -2.876  -4.828  0.00  0.00     0.063 H 
ENDROOT
BRANCH   1  12
ATOM     12  O   LIG d   1       4.321  -1.259  -4.305  0.00  0.00    -0.491 OA
BRANCH  12  13
ATOM     13  C   LIG d   1       3.703  -1.306  -3.018  0.00  0.00     0.089 C 
ATOM     14  H   LIG d   1       4.406  -1.716  -2.293  0.00  0.00     0.070 H 
ATOM     15  H   LIG d   1       2.816  -1.938  -3.064  0.00  0.00     0.070 H 
BRANCH  13  16
ATOM     16  C   LIG d   1       3.300   0.108  -2.593  0.00  0.00    -0.021 C 
ATOM     17  H   LIG d   1       3.143   0.723  -3.480  0.00  0.00     0.029 H 
ATOM     18  H   LIG d   1       2.378   0.064  -2.014  0.00  0.00     0.029 H 
BRANCH  16  19
ATOM     19  C   LIG d   1       4.411   0.720  -1.739  0.00  0.00    -0.062 C 
ATOM     20  H   LIG d   1       5.299   0.090  -1.791  0.00  0.00     0.023 H 
ATOM     21  H   LIG d   1       4.651   1.715  -2.112  0.00  0.00     0.023 H 
ATOM     22  H   LIG d   1       4.077   0.792  -0.704  0.00  0.00     0.023 H 
ENDBRANCH  16  19
ENDBRANCH  13  16
ENDBRANCH  12  13
ENDBRANCH   1  12
TORSDOF 4
ENDMDL
