MODEL 1
REMARK VINA RESULT:      -6.3      0.000      0.000
REMARK  4 active torsions:
REMARK  status: ('A' for Active; 'I' for Inactive)
REMARK    1  A    between atoms: C_4  and  C_7 
REMARK    2  A    between atoms: C_8  and  C_9 
REMARK    3  A    between atoms: C_12  and  N_16 
REMARK    4  A    between atoms: C_14  and  N_15 
ROOT
ATOM      1  C   LIG d   1       3.255  -0.516  -7.779  0.00  0.00    -0.004 A 
ATOM      2  C   LIG d   1       2.745   0.612  -8.428  0.00  0.00    -0.051 A 
ATOM      3  C   LIG d   1       2.260   0.507  -9.713  0.00  0.00    -0.040 A 
ATOM      4  C   LIG d   1       2.278  -0.721 -10.371  0.00  0.00     0.026 A 
ATOM      5  C   LIG d   1       2.778  -1.848  -9.734  0.00  0.00    -0.020 A 
ATOM      6  C   LIG d   1       3.272  -1.754  -8.443  0.00  0.00     0.034 A 
ATOM      7  H   LIG d   1       2.729   1.566  -7.922  0.00  0.00     0.062 H 
ATOM      8  H   LIG d   1       1.867   1.379 -10.213  0.00  0.00     0.064 H 
ATOM      9  H   LIG d   1       2.786  -2.799 -10.246  0.00  0.00     0.065 H 
ENDROOT
BRANCH   1  10
ATOM     10  C   LIG d   1       3.772  -0.407  -6.406  0.00  0.00    -0.052 C 
ATOM     11  C   LIG d   1       2.939  -0.106  -5.395  0.00  0.00    -0.054 C 
ATOM     12  H   LIG d   1       1.889   0.056  -5.592  0.00  0.00     0.062 H 
ATOM     13  H   LIG d   1       4.822  -0.569  -6.210  0.00  0.00     0.062 H 
BRANCH  11  14
ATOM     14  C   LIG d   1       3.457   0.003  -4.020  0.00  0.00    -0.025 A 
ATOM     15  C   LIG d   1       3.562   1.254  -3.407  0.00  0.00    -0.055 A 
ATOM     16  C   LIG d   1       4.048   1.348  -2.119  0.00  0.00    -0.061 A 
ATOM     17  H   LIG d   1       3.265   2.145  -3.940  0.00  0.00     0.062 H 
ATOM     18  C   LIG d   1       4.430   0.207  -1.436  0.00  0.00    -0.062 A 
ATOM     19  H   LIG d   1       4.130   2.314  -1.644  0.00  0.00     0.062 H 
ATOM     20  C   LIG d   1       4.328  -1.036  -2.037  0.00  0.00    -0.061 A 
ATOM     21  H   LIG d   1       4.809   0.287  -0.428  0.00  0.00     0.062 H 
ATOM     22  C   LIG d   1       3.839  -1.145  -3.322  0.00  0.00    -0.055 A 
ATOM     23  H   LIG d   1       4.628  -1.921  -1.497  0.00  0.00     0.062 H 
ATOM     24  H   LIG d   1       3.756  -2.116  -3.787  0.00  0.00     0.062 H 
ENDBRANCH  11  14
ENDBRANCH   1  10
BRANCH   6  25
ATOM     25  N   LIG d   1       3.780  -2.883  -7.804  0.00  0.00    -0.357 N 
ATOM     26  H   LIG d   1       4.609  -2.826  -7.304  0.00  0.00     0.142 HD
ATOM     27  H   LIG d   1       3.302  -3.726  -7.857  0.00  0.00     0.142 HD
ENDBRANCH   6  25
BRANCH   4  28
ATOM     28  N   LIG d   1       1.786  -0.818 -11.672  0.00  0.00    -0.358 N 
ATOM     29  H   LIG d   1       2.297  -1.288 -12.350  0.00  0.00     0.142 HD
ATOM     30  H   LIG d   1       0.932  -0.418 -11.899  0.00  0.00     0.142 HD
ENDBRANCH   4  28
TORSDOF 4
ENDMDL
MODEL 2
REMARK VINA RESULT:      -6.2      1.215      1.745
REMARK  4 active torsions:
REMARK  status: ('A' for Active; 'I' for Inactive)
REMARK    1  A    between atoms: C_4  and  C_7 
REMARK    2  A    between atoms: C_8  and  C_9 
REMARK    3  A    between atoms: C_12  and  N_16 
REMARK    4  A    between atoms: C_14  and  N_15 
ROOT
ATOM      1  C   LIG d   1       3.267  -0.332  -7.814  0.00  0.00    -0.004 A 
ATOM      2  C   LIG d   1       3.159  -1.610  -8.370  0.00  0.00    -0.051 A 
ATOM      3  C   LIG d   1       2.683  -1.765  -9.653  0.00  0.00    -0.040 A 
ATOM      4  C   LIG d   1       2.305  -0.652 -10.400  0.00  0.00     0.026 A 
ATOM      5  C   LIG d   1       2.412   0.622  -9.859  0.00  0.00    -0.020 A 
ATOM      6  C   LIG d   1       2.885   0.790  -8.569  0.00  0.00     0.034 A 
ATOM      7  H   LIG d   1       3.451  -2.476  -7.794  0.00  0.00     0.062 H 
ATOM      8  H   LIG d   1       2.601  -2.753 -10.081  0.00  0.00     0.064 H 
ATOM      9  H   LIG d   1       2.122   1.483 -10.444  0.00  0.00     0.065 H 
ENDROOT
BRANCH   1  10
ATOM     10  C   LIG d   1       3.776  -0.163  -6.444  0.00  0.00    -0.052 C 
ATOM     11  C   LIG d   1       2.942  -0.281  -5.397  0.00  0.00    -0.054 C 
ATOM     12  H   LIG d   1       1.897  -0.500  -5.561  0.00  0.00     0.062 H 
ATOM     13  H   LIG d   1       4.821   0.056  -6.280  0.00  0.00     0.062 H 
BRANCH  11  14
ATOM     14  C   LIG d   1       3.452  -0.112  -4.025  0.00  0.00    -0.025 A 
ATOM     15  C   LIG d   1       3.533   1.163  -3.459  0.00  0.00    -0.055 A 
ATOM     16  C   LIG d   1       4.013   1.313  -2.174  0.00  0.00    -0.061 A 
ATOM     17  H   LIG d   1       3.223   2.028  -4.026  0.00  0.00     0.062 H 
ATOM     18  C   LIG d   1       4.411   0.206  -1.447  0.00  0.00    -0.062 A 
ATOM     19  H   LIG d   1       4.076   2.298  -1.735  0.00  0.00     0.062 H 
ATOM     20  C   LIG d   1       4.333  -1.060  -2.001  0.00  0.00    -0.061 A 
ATOM     21  H   LIG d   1       4.785   0.330  -0.441  0.00  0.00     0.062 H 
ATOM     22  C   LIG d   1       3.852  -1.226  -3.283  0.00  0.00    -0.055 A 
ATOM     23  H   LIG d   1       4.647  -1.919  -1.428  0.00  0.00     0.062 H 
ATOM     24  H   LIG d   1       3.788  -2.215  -3.712  0.00  0.00     0.062 H 
ENDBRANCH  11  14
ENDBRANCH   1  10
BRANCH   6  25
ATOM     25  N   LIG d   1       2.988   2.068  -8.021  0.00  0.00    -0.357 N 
ATOM     26  H   LIG d   1       2.277   2.414  -7.462  0.00  0.00     0.142 HD
ATOM     27  H   LIG d   1       3.774   2.610  -8.199  0.00  0.00     0.142 HD
ENDBRANCH   6  25
BRANCH   4  28
ATOM     28  N   LIG d   1       1.823  -0.818 -11.698  0.00  0.00    -0.358 N 
ATOM     29  H   LIG d   1       0.917  -0.551 -11.917  0.00  0.00     0.142 HD
ATOM     30  H   LIG d   1       2.396  -1.197 -12.383  0.00  0.00     0.142 HD
ENDBRANCH   4  28
TORSDOF 4
ENDMDL
MODEL 3
REMARK VINA RESULT:      -6.0      3.777      5.316
REMARK  4 active torsions:
REMARK  status: ('A' for Active; 'I' for Inactive)
REMARK    1  A    between atoms: C_4  and  C_7 
REMARK    2  A    between atoms: C_8  and  C_9 
REMARK    3  A    between atoms: C_12  and  N_16 
REMARK    4  A    between atoms: C_14  and  N_15 
ROOT
ATOM      1  C   LIG d   1       5.636  -4.227  -5.303  0.00  0.00    -0.004 A 
ATOM      2  C   LIG d   1       6.946  -4.646  -5.059  0.00  0.00    -0.051 A 
ATOM      3  C   LIG d   1       7.344  -5.912  -5.426  0.00  0.00    -0.040 A 
ATOM      4  C   LIG d   1       6.443  -6.779  -6.041  0.00  0.00     0.026 A 
ATOM      5  C   LIG d   1       5.140  -6.372  -6.292  0.00  0.00    -0.020 A 
ATOM      6  C   LIG d   1       4.728  -5.102  -5.923  0.00  0.00     0.034 A 
ATOM      7  H   LIG d   1       7.648  -3.977  -4.583  0.00  0.00     0.062 H 
ATOM      8  H   LIG d   1       8.357  -6.234  -5.237  0.00  0.00     0.064 H 
ATOM      9  H   LIG d   1       4.447  -7.046  -6.772  0.00  0.00     0.065 H 
ENDROOT
BRANCH   1  10
ATOM     10  C   LIG d   1       5.208  -2.874  -4.912  0.00  0.00    -0.052 C 
ATOM     11  C   LIG d   1       4.776  -2.641  -3.662  0.00  0.00    -0.054 C 
ATOM     12  H   LIG d   1       4.742  -3.446  -2.943  0.00  0.00     0.062 H 
ATOM     13  H   LIG d   1       5.241  -2.069  -5.631  0.00  0.00     0.062 H 
BRANCH  11  14
ATOM     14  C   LIG d   1       4.347  -1.286  -3.270  0.00  0.00    -0.025 A 
ATOM     15  C   LIG d   1       3.499  -0.551  -4.102  0.00  0.00    -0.055 A 
ATOM     16  C   LIG d   1       3.103   0.717  -3.729  0.00  0.00    -0.061 A 
ATOM     17  H   LIG d   1       3.155  -0.973  -5.035  0.00  0.00     0.062 H 
ATOM     18  C   LIG d   1       3.542   1.259  -2.535  0.00  0.00    -0.062 A 
ATOM     19  H   LIG d   1       2.447   1.286  -4.371  0.00  0.00     0.062 H 
ATOM     20  C   LIG d   1       4.382   0.536  -1.705  0.00  0.00    -0.061 A 
ATOM     21  H   LIG d   1       3.228   2.252  -2.248  0.00  0.00     0.062 H 
ATOM     22  C   LIG d   1       4.783  -0.734  -2.063  0.00  0.00    -0.055 A 
ATOM     23  H   LIG d   1       4.722   0.967  -0.776  0.00  0.00     0.062 H 
ATOM     24  H   LIG d   1       5.435  -1.298  -1.413  0.00  0.00     0.062 H 
ENDBRANCH  11  14
ENDBRANCH   1  10
BRANCH   6  25
ATOM     25  N   LIG d   1       3.419  -4.692  -6.169  0.00  0.00    -0.357 N 
ATOM     26  H   LIG d   1       3.235  -4.057  -6.878  0.00  0.00     0.142 HD
ATOM     27  H   LIG d   1       2.691  -5.044  -5.631  0.00  0.00     0.142 HD
ENDBRANCH   6  25
BRANCH   4  28
ATOM     28  N   LIG d   1       6.854  -8.060  -6.409  0.00  0.00    -0.358 N 
ATOM     29  H   LIG d   1       6.388  -8.535  -7.115  0.00  0.00     0.142 HD
ATOM     30  H   LIG d   1       7.608  -8.475  -5.962  0.00  0.00     0.142 HD
ENDBRANCH   4  28
TORSDOF 4
ENDMDL
MODEL 4
REMARK VINA RESULT:      -5.6      5.209      6.911
REMARK  4 active torsions:
REMARK  status: ('A' for Active; 'I' for Inactive)
REMARK    1  A    between atoms: C_4  and  C_7 
REMARK    2  A    between atoms: C_8  and  C_9 
REMARK    3  A    between atoms: C_12  and  N_16 
REMARK    4  A    between atoms: C_14  and  N_15 
ROOT
ATOM      1  C   LIG d   1       8.455   1.994  -4.430  0.00  0.00    -0.004 A 
ATOM      2  C   LIG d   1       9.233   2.524  -3.398  0.00  0.00    -0.051 A 
ATOM      3  C   LIG d   1      10.194   3.471  -3.676  0.00  0.00    -0.040 A 
ATOM      4  C   LIG d   1      10.394   3.902  -4.985  0.00  0.00     0.026 A 
ATOM      5  C   LIG d   1       9.624   3.385  -6.018  0.00  0.00    -0.020 A 
ATOM      6  C   LIG d   1       8.658   2.430  -5.750  0.00  0.00     0.034 A 
ATOM      7  H   LIG d   1       9.081   2.193  -2.381  0.00  0.00     0.062 H 
ATOM      8  H   LIG d   1      10.794   3.880  -2.878  0.00  0.00     0.064 H 
ATOM      9  H   LIG d   1       9.780   3.726  -7.031  0.00  0.00     0.065 H 
ENDROOT
BRANCH   1  10
ATOM     10  C   LIG d   1       7.427   0.983  -4.135  0.00  0.00    -0.052 C 
ATOM     11  C   LIG d   1       6.360   1.308  -3.385  0.00  0.00    -0.054 C 
ATOM     12  H   LIG d   1       6.257   2.311  -2.998  0.00  0.00     0.062 H 
ATOM     13  H   LIG d   1       7.529  -0.020  -4.522  0.00  0.00     0.062 H 
BRANCH  11  14
ATOM     14  C   LIG d   1       5.330   0.296  -3.090  0.00  0.00    -0.025 A 
ATOM     15  C   LIG d   1       5.679  -1.054  -3.000  0.00  0.00    -0.055 A 
ATOM     16  C   LIG d   1       4.709  -1.995  -2.723  0.00  0.00    -0.061 A 
ATOM     17  H   LIG d   1       6.705  -1.360  -3.146  0.00  0.00     0.062 H 
ATOM     18  C   LIG d   1       3.395  -1.605  -2.535  0.00  0.00    -0.062 A 
ATOM     19  H   LIG d   1       4.977  -3.039  -2.653  0.00  0.00     0.062 H 
ATOM     20  C   LIG d   1       3.042  -0.270  -2.624  0.00  0.00    -0.061 A 
ATOM     21  H   LIG d   1       2.641  -2.348  -2.319  0.00  0.00     0.062 H 
ATOM     22  C   LIG d   1       4.002   0.683  -2.894  0.00  0.00    -0.055 A 
ATOM     23  H   LIG d   1       2.015   0.026  -2.477  0.00  0.00     0.062 H 
ATOM     24  H   LIG d   1       3.726   1.725  -2.958  0.00  0.00     0.062 H 
ENDBRANCH  11  14
ENDBRANCH   1  10
BRANCH   6  25
ATOM     25  N   LIG d   1       7.886   1.905  -6.786  0.00  0.00    -0.357 N 
ATOM     26  H   LIG d   1       8.302   1.669  -7.629  0.00  0.00     0.142 HD
ATOM     27  H   LIG d   1       6.932   1.775  -6.662  0.00  0.00     0.142 HD
ENDBRANCH   6  25
BRANCH   4  28
ATOM     28  N   LIG d   1      11.370   4.861  -5.259  0.00  0.00    -0.358 N 
ATOM     29  H   LIG d   1      11.109   5.756  -5.525  0.00  0.00     0.142 HD
ATOM     30  H   LIG d   1      12.309   4.633  -5.180  0.00  0.00     0.142 HD
ENDBRANCH   4  28
TORSDOF 4
ENDMDL
MODEL 5
REMARK VINA RESULT:      -5.6      2.025      2.741
REMARK  4 active torsions:
REMARK  status: ('A' for Active; 'I' for Inactive)
REMARK    1  A    between atoms: C_4  and  C_7 
REMARK    2  A    between atoms: C_8  and  C_9 
REMARK    3  A    between atoms: C_12  and  N_16 
REMARK    4  A    between atoms: C_14  and  N_15 
ROOT
ATOM      1  C   LIG d   1       3.971   0.055  -8.474  0.00  0.00    -0.004 A 
ATOM      2  C   LIG d   1       4.388  -1.085  -9.166  0.00  0.00    -0.051 A 
ATOM      3  C   LIG d   1       4.537  -1.045 -10.534  0.00  0.00    -0.040 A 
ATOM      4  C   LIG d   1       4.273   0.131 -11.233  0.00  0.00     0.026 A 
ATOM      5  C   LIG d   1       3.862   1.271 -10.556  0.00  0.00    -0.020 A 
ATOM      6  C   LIG d   1       3.704   1.240  -9.180  0.00  0.00     0.034 A 
ATOM      7  H   LIG d   1       4.594  -1.999  -8.628  0.00  0.00     0.062 H 
ATOM      8  H   LIG d   1       4.859  -1.926 -11.067  0.00  0.00     0.064 H 
ATOM      9  H   LIG d   1       3.662   2.181 -11.101  0.00  0.00     0.065 H 
ENDROOT
BRANCH   1  10
ATOM     10  C   LIG d   1       3.812   0.015  -7.012  0.00  0.00    -0.052 C 
ATOM     11  C   LIG d   1       4.286  -1.030  -6.312  0.00  0.00    -0.054 C 
ATOM     12  H   LIG d   1       4.784  -1.841  -6.824  0.00  0.00     0.062 H 
ATOM     13  H   LIG d   1       3.313   0.825  -6.500  0.00  0.00     0.062 H 
BRANCH  11  14
ATOM     14  C   LIG d   1       4.126  -1.071  -4.848  0.00  0.00    -0.025 A 
ATOM     15  C   LIG d   1       4.393  -2.249  -4.145  0.00  0.00    -0.055 A 
ATOM     16  C   LIG d   1       4.241  -2.278  -2.774  0.00  0.00    -0.061 A 
ATOM     17  H   LIG d   1       4.717  -3.133  -4.674  0.00  0.00     0.062 H 
ATOM     18  C   LIG d   1       3.827  -1.146  -2.096  0.00  0.00    -0.062 A 
ATOM     19  H   LIG d   1       4.447  -3.188  -2.230  0.00  0.00     0.062 H 
ATOM     20  C   LIG d   1       3.561   0.024  -2.785  0.00  0.00    -0.061 A 
ATOM     21  H   LIG d   1       3.710  -1.176  -1.023  0.00  0.00     0.062 H 
ATOM     22  C   LIG d   1       3.713   0.070  -4.155  0.00  0.00    -0.055 A 
ATOM     23  H   LIG d   1       3.237   0.903  -2.249  0.00  0.00     0.062 H 
ATOM     24  H   LIG d   1       3.509   0.986  -4.691  0.00  0.00     0.062 H 
ENDBRANCH  11  14
ENDBRANCH   1  10
BRANCH   6  25
ATOM     25  N   LIG d   1       3.287   2.382  -8.497  0.00  0.00    -0.357 N 
ATOM     26  H   LIG d   1       3.490   3.260  -8.854  0.00  0.00     0.142 HD
ATOM     27  H   LIG d   1       2.794   2.296  -7.667  0.00  0.00     0.142 HD
ENDBRANCH   6  25
BRANCH   4  28
ATOM     28  N   LIG d   1       4.426   0.164 -12.619  0.00  0.00    -0.358 N 
ATOM     29  H   LIG d   1       4.044  -0.541 -13.166  0.00  0.00     0.142 HD
ATOM     30  H   LIG d   1       4.911   0.892 -13.036  0.00  0.00     0.142 HD
ENDBRANCH   4  28
TORSDOF 4
ENDMDL
MODEL 6
REMARK VINA RESULT:      -5.6      5.353      6.563
REMARK  4 active torsions:
REMARK  status: ('A' for Active; 'I' for Inactive)
REMARK    1  A    between atoms: C_4  and  C_7 
REMARK    2  A    between atoms: C_8  and  C_9 
REMARK    3  A    between atoms: C_12  and  N_16 
REMARK    4  A    between atoms: C_14  and  N_15 
ROOT
ATOM      1  C   LIG d   1       7.823  -3.560  -4.220  0.00  0.00    -0.004 A 
ATOM      2  C   LIG d   1       7.414  -4.187  -5.400  0.00  0.00    -0.051 A 
ATOM      3  C   LIG d   1       8.071  -5.313  -5.844  0.00  0.00    -0.040 A 
ATOM      4  C   LIG d   1       9.143  -5.830  -5.122  0.00  0.00     0.026 A 
ATOM      5  C   LIG d   1       9.555  -5.218  -3.946  0.00  0.00    -0.020 A 
ATOM      6  C   LIG d   1       8.905  -4.083  -3.491  0.00  0.00     0.034 A 
ATOM      7  H   LIG d   1       6.583  -3.789  -5.963  0.00  0.00     0.062 H 
ATOM      8  H   LIG d   1       7.754  -5.796  -6.756  0.00  0.00     0.064 H 
ATOM      9  H   LIG d   1      10.384  -5.625  -3.386  0.00  0.00     0.065 H 
ENDROOT
BRANCH   1  10
ATOM     10  C   LIG d   1       7.123  -2.357  -3.742  0.00  0.00    -0.052 C 
ATOM     11  C   LIG d   1       5.781  -2.347  -3.664  0.00  0.00    -0.054 C 
ATOM     12  H   LIG d   1       5.216  -3.221  -3.952  0.00  0.00     0.062 H 
ATOM     13  H   LIG d   1       7.687  -1.482  -3.454  0.00  0.00     0.062 H 
BRANCH  11  14
ATOM     14  C   LIG d   1       5.080  -1.142  -3.185  0.00  0.00    -0.025 A 
ATOM     15  C   LIG d   1       5.803   0.007  -2.856  0.00  0.00    -0.055 A 
ATOM     16  C   LIG d   1       5.140   1.130  -2.409  0.00  0.00    -0.061 A 
ATOM     17  H   LIG d   1       6.879   0.015  -2.952  0.00  0.00     0.062 H 
ATOM     18  C   LIG d   1       3.762   1.121  -2.286  0.00  0.00    -0.062 A 
ATOM     19  H   LIG d   1       5.698   2.020  -2.154  0.00  0.00     0.062 H 
ATOM     20  C   LIG d   1       3.038  -0.014  -2.609  0.00  0.00    -0.061 A 
ATOM     21  H   LIG d   1       3.248   2.004  -1.935  0.00  0.00     0.062 H 
ATOM     22  C   LIG d   1       3.688  -1.143  -3.063  0.00  0.00    -0.055 A 
ATOM     23  H   LIG d   1       1.964  -0.014  -2.510  0.00  0.00     0.062 H 
ATOM     24  H   LIG d   1       3.121  -2.026  -3.319  0.00  0.00     0.062 H 
ENDBRANCH  11  14
ENDBRANCH   1  10
BRANCH   6  25
ATOM     25  N   LIG d   1       9.319  -3.463  -2.313  0.00  0.00    -0.357 N 
ATOM     26  H   LIG d   1      10.253  -3.488  -2.055  0.00  0.00     0.142 HD
ATOM     27  H   LIG d   1       8.672  -3.005  -1.753  0.00  0.00     0.142 HD
ENDBRANCH   6  25
BRANCH   4  28
ATOM     28  N   LIG d   1       9.803  -6.971  -5.579  0.00  0.00    -0.358 N 
ATOM     29  H   LIG d   1      10.768  -6.966  -5.679  0.00  0.00     0.142 HD
ATOM     30  H   LIG d   1       9.297  -7.770  -5.794  0.00  0.00     0.142 HD
ENDBRANCH   4  28
TORSDOF 4
ENDMDL
MODEL 7
REMARK VINA RESULT:      -5.6      2.373      6.762
REMARK  4 active torsions:
REMARK  status: ('A' for Active; 'I' for Inactive)
REMARK    1  A    between atoms: C_4  and  C_7 
REMARK    2  A    between atoms: C_8  and  C_9 
REMARK    3  A    between atoms: C_12  and  N_16 
REMARK    4  A    between atoms: C_14  and  N_15 
ROOT
ATOM      1  C   LIG d   1       3.855  -0.211  -5.532  0.00  0.00    -0.004 A 
ATOM      2  C   LIG d   1       2.833   0.323  -4.742  0.00  0.00    -0.051 A 
ATOM      3  C   LIG d   1       3.087   0.676  -3.435  0.00  0.00    -0.040 A 
ATOM      4  C   LIG d   1       4.359   0.501  -2.895  0.00  0.00     0.026 A 
ATOM      5  C   LIG d   1       5.382  -0.026  -3.672  0.00  0.00    -0.020 A 
ATOM      6  C   LIG d   1       5.137  -0.388  -4.987  0.00  0.00     0.034 A 
ATOM      7  H   LIG d   1       1.846   0.462  -5.156  0.00  0.00     0.062 H 
ATOM      8  H   LIG d   1       2.297   1.089  -2.826  0.00  0.00     0.064 H 
ATOM      9  H   LIG d   1       6.368  -0.156  -3.251  0.00  0.00     0.065 H 
ENDROOT
BRANCH   1  10
ATOM     10  C   LIG d   1       3.587  -0.587  -6.929  0.00  0.00    -0.052 C 
ATOM     11  C   LIG d   1       3.084   0.318  -7.785  0.00  0.00    -0.054 C 
ATOM     12  H   LIG d   1       2.875   1.322  -7.447  0.00  0.00     0.062 H 
ATOM     13  H   LIG d   1       3.795  -1.592  -7.267  0.00  0.00     0.062 H 
BRANCH  11  14
ATOM     14  C   LIG d   1       2.816  -0.059  -9.184  0.00  0.00    -0.025 A 
ATOM     15  C   LIG d   1       1.624  -0.706  -9.520  0.00  0.00    -0.055 A 
ATOM     16  C   LIG d   1       1.381  -1.056 -10.833  0.00  0.00    -0.061 A 
ATOM     17  H   LIG d   1       0.896  -0.932  -8.756  0.00  0.00     0.062 H 
ATOM     18  C   LIG d   1       2.313  -0.767 -11.813  0.00  0.00    -0.062 A 
ATOM     19  H   LIG d   1       0.460  -1.556 -11.094  0.00  0.00     0.062 H 
ATOM     20  C   LIG d   1       3.496  -0.126 -11.487  0.00  0.00    -0.061 A 
ATOM     21  H   LIG d   1       2.117  -1.044 -12.838  0.00  0.00     0.062 H 
ATOM     22  C   LIG d   1       3.751   0.234 -10.180  0.00  0.00    -0.055 A 
ATOM     23  H   LIG d   1       4.219   0.095 -12.258  0.00  0.00     0.062 H 
ATOM     24  H   LIG d   1       4.672   0.738  -9.928  0.00  0.00     0.062 H 
ENDBRANCH  11  14
ENDBRANCH   1  10
BRANCH   6  25
ATOM     25  N   LIG d   1       6.162  -0.921  -5.768  0.00  0.00    -0.357 N 
ATOM     26  H   LIG d   1       6.140  -1.856  -6.023  0.00  0.00     0.142 HD
ATOM     27  H   LIG d   1       6.895  -0.355  -6.056  0.00  0.00     0.142 HD
ENDBRANCH   6  25
BRANCH   4  28
ATOM     28  N   LIG d   1       4.607   0.860  -1.571  0.00  0.00    -0.358 N 
ATOM     29  H   LIG d   1       3.867   1.050  -0.973  0.00  0.00     0.142 HD
ATOM     30  H   LIG d   1       5.519   0.916  -1.246  0.00  0.00     0.142 HD
ENDBRANCH   4  28
TORSDOF 4
ENDMDL
MODEL 8
REMARK VINA RESULT:      -5.5      6.043      7.412
REMARK  4 active torsions:
REMARK  status: ('A' for Active; 'I' for Inactive)
REMARK    1  A    between atoms: C_4  and  C_7 
REMARK    2  A    between atoms: C_8  and  C_9 
REMARK    3  A    between atoms: C_12  and  N_16 
REMARK    4  A    between atoms: C_14  and  N_15 
ROOT
ATOM      1  C   LIG d   1       9.107   2.604  -4.555  0.00  0.00    -0.004 A 
ATOM      2  C   LIG d   1       8.994   2.705  -5.944  0.00  0.00    -0.051 A 
ATOM      3  C   LIG d   1      10.028   3.235  -6.683  0.00  0.00    -0.040 A 
ATOM      4  C   LIG d   1      11.188   3.674  -6.050  0.00  0.00     0.026 A 
ATOM      5  C   LIG d   1      11.313   3.575  -4.671  0.00  0.00    -0.020 A 
ATOM      6  C   LIG d   1      10.278   3.047  -3.917  0.00  0.00     0.034 A 
ATOM      7  H   LIG d   1       8.096   2.365  -6.438  0.00  0.00     0.062 H 
ATOM      8  H   LIG d   1       9.938   3.312  -7.756  0.00  0.00     0.064 H 
ATOM      9  H   LIG d   1      12.217   3.912  -4.185  0.00  0.00     0.065 H 
ENDROOT
BRANCH   1  10
ATOM     10  C   LIG d   1       8.005   2.036  -3.763  0.00  0.00    -0.052 C 
ATOM     11  C   LIG d   1       7.424   0.887  -4.145  0.00  0.00    -0.054 C 
ATOM     12  H   LIG d   1       7.767   0.379  -5.035  0.00  0.00     0.062 H 
ATOM     13  H   LIG d   1       7.661   2.545  -2.873  0.00  0.00     0.062 H 
BRANCH  11  14
ATOM     14  C   LIG d   1       6.320   0.318  -3.352  0.00  0.00    -0.025 A 
ATOM     15  C   LIG d   1       6.132  -1.065  -3.301  0.00  0.00    -0.055 A 
ATOM     16  C   LIG d   1       5.096  -1.590  -2.557  0.00  0.00    -0.061 A 
ATOM     17  H   LIG d   1       6.796  -1.723  -3.844  0.00  0.00     0.062 H 
ATOM     18  C   LIG d   1       4.245  -0.749  -1.862  0.00  0.00    -0.062 A 
ATOM     19  H   LIG d   1       4.950  -2.659  -2.516  0.00  0.00     0.062 H 
ATOM     20  C   LIG d   1       4.424   0.622  -1.907  0.00  0.00    -0.061 A 
ATOM     21  H   LIG d   1       3.436  -1.166  -1.280  0.00  0.00     0.062 H 
ATOM     22  C   LIG d   1       5.459   1.161  -2.644  0.00  0.00    -0.055 A 
ATOM     23  H   LIG d   1       3.756   1.271  -1.363  0.00  0.00     0.062 H 
ATOM     24  H   LIG d   1       5.601   2.231  -2.675  0.00  0.00     0.062 H 
ENDBRANCH  11  14
ENDBRANCH   1  10
BRANCH   6  25
ATOM     25  N   LIG d   1      10.399   2.951  -2.532  0.00  0.00    -0.357 N 
ATOM     26  H   LIG d   1      10.875   2.204  -2.138  0.00  0.00     0.142 HD
ATOM     27  H   LIG d   1      10.008   3.633  -1.963  0.00  0.00     0.142 HD
ENDBRANCH   6  25
BRANCH   4  28
ATOM     28  N   LIG d   1      12.230   4.211  -6.805  0.00  0.00    -0.358 N 
ATOM     29  H   LIG d   1      12.797   4.901  -6.428  0.00  0.00     0.142 HD
ATOM     30  H   LIG d   1      12.390   3.891  -7.707  0.00  0.00     0.142 HD
ENDBRANCH   4  28
TORSDOF 4
ENDMDL
MODEL 9
REMARK VINA RESULT:      -5.2      4.776      6.514
REMARK  4 active torsions:
REMARK  status: ('A' for Active; 'I' for Inactive)
REMARK    1  A    between atoms: C_4  and  C_7 
REMARK    2  A    between atoms: C_8  and  C_9 
REMARK    3  A    between atoms: C_12  and  N_16 
REMARK    4  A    between atoms: C_14  and  N_15 
ROOT
ATOM      1  C   LIG d   1       5.667  -1.407  -3.650  0.00  0.00    -0.004 A 
ATOM      2  C   LIG d   1       4.691  -1.950  -2.811  0.00  0.00    -0.051 A 
ATOM      3  C   LIG d   1       3.369  -1.601  -2.976  0.00  0.00    -0.040 A 
ATOM      4  C   LIG d   1       3.000  -0.705  -3.977  0.00  0.00     0.026 A 
ATOM      5  C   LIG d   1       3.962  -0.162  -4.818  0.00  0.00    -0.020 A 
ATOM      6  C   LIG d   1       5.294  -0.504  -4.659  0.00  0.00     0.034 A 
ATOM      7  H   LIG d   1       4.972  -2.646  -2.034  0.00  0.00     0.062 H 
ATOM      8  H   LIG d   1       2.616  -2.021  -2.327  0.00  0.00     0.064 H 
ATOM      9  H   LIG d   1       3.671   0.529  -5.596  0.00  0.00     0.065 H 
ENDROOT
BRANCH   1  10
ATOM     10  C   LIG d   1       7.080  -1.780  -3.477  0.00  0.00    -0.052 C 
ATOM     11  C   LIG d   1       7.540  -2.930  -3.998  0.00  0.00    -0.054 C 
ATOM     12  H   LIG d   1       6.873  -3.581  -4.543  0.00  0.00     0.062 H 
ATOM     13  H   LIG d   1       7.747  -1.130  -2.931  0.00  0.00     0.062 H 
BRANCH  11  14
ATOM     14  C   LIG d   1       8.955  -3.304  -3.825  0.00  0.00    -0.025 A 
ATOM     15  C   LIG d   1       9.932  -2.761  -4.664  0.00  0.00    -0.055 A 
ATOM     16  C   LIG d   1      11.255  -3.116  -4.496  0.00  0.00    -0.061 A 
ATOM     17  H   LIG d   1       9.653  -2.066  -5.442  0.00  0.00     0.062 H 
ATOM     18  C   LIG d   1      11.614  -4.006  -3.500  0.00  0.00    -0.062 A 
ATOM     19  H   LIG d   1      12.011  -2.696  -5.143  0.00  0.00     0.062 H 
ATOM     20  C   LIG d   1      10.652  -4.548  -2.665  0.00  0.00    -0.061 A 
ATOM     21  H   LIG d   1      12.651  -4.279  -3.373  0.00  0.00     0.062 H 
ATOM     22  C   LIG d   1       9.327  -4.198  -2.818  0.00  0.00    -0.055 A 
ATOM     23  H   LIG d   1      10.941  -5.242  -1.891  0.00  0.00     0.062 H 
ATOM     24  H   LIG d   1       8.578  -4.619  -2.163  0.00  0.00     0.062 H 
ENDBRANCH  11  14
ENDBRANCH   1  10
BRANCH   6  25
ATOM     25  N   LIG d   1       6.263   0.044  -5.500  0.00  0.00    -0.357 N 
ATOM     26  H   LIG d   1       6.001   0.452  -6.339  0.00  0.00     0.142 HD
ATOM     27  H   LIG d   1       7.198   0.016  -5.244  0.00  0.00     0.142 HD
ENDBRANCH   6  25
BRANCH   4  28
ATOM     28  N   LIG d   1       1.660  -0.355  -4.136  0.00  0.00    -0.358 N 
ATOM     29  H   LIG d   1       1.388   0.192  -4.890  0.00  0.00     0.142 HD
ATOM     30  H   LIG d   1       1.000  -0.661  -3.496  0.00  0.00     0.142 HD
ENDBRANCH   4  28
TORSDOF 4
ENDMDL
