MODEL 1
REMARK VINA RESULT:      -6.9      0.000      0.000
REMARK  8 active torsions:
REMARK  status: ('A' for Active; 'I' for Inactive)
REMARK    1  A    between atoms: C_1  and  C_2 
REMARK    2  A    between atoms: C_2  and  C_3 
REMARK    3  A    between atoms: C_4  and  C_24 
REMARK    4  A    between atoms: C_8  and  O_14 
REMARK    5  A    between atoms: O_14  and  C_15 
REMARK    6  A    between atoms: C_15  and  C_16 
REMARK    7  A    between atoms: C_20  and  O_22 
REMARK    8  A    between atoms: O_22  and  C_23 
ROOT
ATOM      1  C   LIG d   1       5.093  -0.603  -2.686  0.00  0.00     0.040 A 
ATOM      2  C   LIG d   1       6.080  -1.059  -3.501  0.00  0.00    -0.030 A 
ATOM      3  C   LIG d   1       7.107  -0.111  -3.939  0.00  0.00     0.021 A 
ATOM      4  C   LIG d   1       8.150  -0.517  -4.779  0.00  0.00    -0.047 A 
ATOM      5  C   LIG d   1       9.091   0.388  -5.177  0.00  0.00    -0.019 A 
ATOM      6  C   LIG d   1       9.026   1.711  -4.745  0.00  0.00     0.124 A 
ATOM      7  C   LIG d   1       8.000   2.130  -3.914  0.00  0.00     0.023 A 
ATOM      8  C   LIG d   1       7.033   1.226  -3.504  0.00  0.00     0.143 A 
ATOM      9  O   LIG d   1       6.024   1.612  -2.694  0.00  0.00    -0.422 OA
ATOM     10  C   LIG d   1       5.080   0.749  -2.289  0.00  0.00     0.341 A 
ATOM     11  O   LIG d   1       4.189   1.144  -1.557  0.00  0.00    -0.245 OA
ATOM     12  H   LIG d   1       8.210  -1.542  -5.114  0.00  0.00     0.063 H 
ATOM     13  H   LIG d   1       9.894   0.075  -5.828  0.00  0.00     0.065 H 
ATOM     14  H   LIG d   1       7.954   3.159  -3.587  0.00  0.00     0.069 H 
ENDROOT
BRANCH   6  15
ATOM     15  O   LIG d   1       9.972   2.598  -5.146  0.00  0.00    -0.487 OA
BRANCH  15  16
ATOM     16  C   LIG d   1      10.899   3.051  -4.157  0.00  0.00     0.115 C 
ATOM     17  H   LIG d   1      11.880   3.183  -4.612  0.00  0.00     0.075 H 
ATOM     18  H   LIG d   1      10.965   2.313  -3.358  0.00  0.00     0.075 H 
BRANCH  16  19
ATOM     19  C   LIG d   1      10.426   4.365  -3.591  0.00  0.00    -0.007 A 
ATOM     20  C   LIG d   1      10.554   4.619  -2.239  0.00  0.00    -0.014 A 
ATOM     21  C   LIG d   1      10.113   5.826  -1.717  0.00  0.00     0.120 A 
ATOM     22  H   LIG d   1      10.993   3.877  -1.588  0.00  0.00     0.066 H 
ATOM     23  C   LIG d   1       9.555   6.780  -2.556  0.00  0.00    -0.020 A 
ATOM     24  C   LIG d   1       9.435   6.523  -3.908  0.00  0.00    -0.058 A 
ATOM     25  H   LIG d   1       9.215   7.723  -2.153  0.00  0.00     0.065 H 
ATOM     26  C   LIG d   1       9.870   5.317  -4.425  0.00  0.00    -0.055 A 
ATOM     27  H   LIG d   1       9.001   7.266  -4.562  0.00  0.00     0.062 H 
ATOM     28  H   LIG d   1       9.775   5.118  -5.482  0.00  0.00     0.062 H 
BRANCH  21  29
ATOM     29  O   LIG d   1      10.232   6.076  -0.386  0.00  0.00    -0.495 OA
BRANCH  29  30
ATOM     30  C   LIG d   1      11.431   5.631   0.252  0.00  0.00     0.079 C 
ATOM     31  H   LIG d   1      12.125   6.466   0.345  0.00  0.00     0.066 H 
ATOM     32  H   LIG d   1      11.889   4.842  -0.344  0.00  0.00     0.066 H 
ATOM     33  H   LIG d   1      11.193   5.245   1.243  0.00  0.00     0.066 H 
ENDBRANCH  29  30
ENDBRANCH  21  29
ENDBRANCH  16  19
ENDBRANCH  15  16
ENDBRANCH   6  15
BRANCH   2  34
ATOM     34  C   LIG d   1       6.119  -2.499  -3.940  0.00  0.00    -0.039 C 
ATOM     35  H   LIG d   1       7.035  -2.684  -4.501  0.00  0.00     0.028 H 
ATOM     36  H   LIG d   1       6.094  -3.147  -3.063  0.00  0.00     0.028 H 
ATOM     37  H   LIG d   1       5.257  -2.711  -4.573  0.00  0.00     0.028 H 
ENDBRANCH   2  34
BRANCH   1  38
ATOM     38  C   LIG d   1       4.015  -1.542  -2.208  0.00  0.00    -0.024 C 
ATOM     39  H   LIG d   1       4.328  -2.572  -2.382  0.00  0.00     0.031 H 
ATOM     40  H   LIG d   1       3.846  -1.389  -1.143  0.00  0.00     0.031 H 
BRANCH  38  41
ATOM     41  C   LIG d   1       2.721  -1.266  -2.975  0.00  0.00    -0.061 C 
ATOM     42  H   LIG d   1       1.873  -1.650  -2.407  0.00  0.00     0.023 H 
ATOM     43  H   LIG d   1       2.606  -0.191  -3.118  0.00  0.00     0.023 H 
ATOM     44  H   LIG d   1       2.761  -1.760  -3.946  0.00  0.00     0.023 H 
ENDBRANCH  38  41
ENDBRANCH   1  38
TORSDOF 8
ENDMDL
MODEL 2
REMARK VINA RESULT:      -6.5      1.310      2.047
REMARK  8 active torsions:
REMARK  status: ('A' for Active; 'I' for Inactive)
REMARK    1  A    between atoms: C_1  and  C_2 
REMARK    2  A    between atoms: C_2  and  C_3 
REMARK    3  A    between atoms: C_4  and  C_24 
REMARK    4  A    between atoms: C_8  and  O_14 
REMARK    5  A    between atoms: O_14  and  C_15 
REMARK    6  A    between atoms: C_15  and  C_16 
REMARK    7  A    between atoms: C_20  and  O_22 
REMARK    8  A    between atoms: O_22  and  C_23 
ROOT
ATOM      1  C   LIG d   1       5.031  -0.626  -2.709  0.00  0.00     0.040 A 
ATOM      2  C   LIG d   1       5.995  -1.119  -3.530  0.00  0.00    -0.030 A 
ATOM      3  C   LIG d   1       7.063  -0.216  -3.962  0.00  0.00     0.021 A 
ATOM      4  C   LIG d   1       8.085  -0.661  -4.808  0.00  0.00    -0.047 A 
ATOM      5  C   LIG d   1       9.066   0.202  -5.200  0.00  0.00    -0.019 A 
ATOM      6  C   LIG d   1       9.063   1.524  -4.756  0.00  0.00     0.124 A 
ATOM      7  C   LIG d   1       8.059   1.982  -3.919  0.00  0.00     0.023 A 
ATOM      8  C   LIG d   1       7.052   1.119  -3.514  0.00  0.00     0.143 A 
ATOM      9  O   LIG d   1       6.063   1.545  -2.699  0.00  0.00    -0.422 OA
ATOM     10  C   LIG d   1       5.081   0.722  -2.299  0.00  0.00     0.341 A 
ATOM     11  O   LIG d   1       4.211   1.151  -1.562  0.00  0.00    -0.245 OA
ATOM     12  H   LIG d   1       8.096  -1.685  -5.152  0.00  0.00     0.063 H 
ATOM     13  H   LIG d   1       9.853  -0.141  -5.856  0.00  0.00     0.065 H 
ATOM     14  H   LIG d   1       8.061   3.008  -3.582  0.00  0.00     0.069 H 
ENDROOT
BRANCH   6  15
ATOM     15  O   LIG d   1      10.048   2.369  -5.151  0.00  0.00    -0.487 OA
BRANCH  15  16
ATOM     16  C   LIG d   1      10.865   2.938  -4.126  0.00  0.00     0.115 C 
ATOM     17  H   LIG d   1      11.904   2.956  -4.458  0.00  0.00     0.075 H 
ATOM     18  H   LIG d   1      10.783   2.337  -3.221  0.00  0.00     0.075 H 
BRANCH  16  19
ATOM     19  C   LIG d   1      10.405   4.344  -3.840  0.00  0.00    -0.007 A 
ATOM     20  C   LIG d   1      10.035   5.174  -4.881  0.00  0.00    -0.014 A 
ATOM     21  C   LIG d   1       9.618   6.471  -4.617  0.00  0.00     0.120 A 
ATOM     22  H   LIG d   1      10.074   4.815  -5.899  0.00  0.00     0.066 H 
ATOM     23  C   LIG d   1       9.562   6.926  -3.308  0.00  0.00    -0.020 A 
ATOM     24  C   LIG d   1       9.927   6.090  -2.271  0.00  0.00    -0.058 A 
ATOM     25  H   LIG d   1       9.232   7.934  -3.100  0.00  0.00     0.065 H 
ATOM     26  C   LIG d   1      10.348   4.801  -2.536  0.00  0.00    -0.055 A 
ATOM     27  H   LIG d   1       9.883   6.445  -1.252  0.00  0.00     0.062 H 
ATOM     28  H   LIG d   1      10.633   4.149  -1.724  0.00  0.00     0.062 H 
BRANCH  21  29
ATOM     29  O   LIG d   1       9.258   7.291  -5.640  0.00  0.00    -0.495 OA
BRANCH  29  30
ATOM     30  C   LIG d   1       9.503   8.688  -5.467  0.00  0.00     0.079 C 
ATOM     31  H   LIG d   1       9.758   9.134  -6.429  0.00  0.00     0.066 H 
ATOM     32  H   LIG d   1      10.331   8.829  -4.772  0.00  0.00     0.066 H 
ATOM     33  H   LIG d   1       8.609   9.168  -5.070  0.00  0.00     0.066 H 
ENDBRANCH  29  30
ENDBRANCH  21  29
ENDBRANCH  16  19
ENDBRANCH  15  16
ENDBRANCH   6  15
BRANCH   2  34
ATOM     34  C   LIG d   1       5.966  -2.555  -3.982  0.00  0.00    -0.039 C 
ATOM     35  H   LIG d   1       6.236  -2.610  -5.036  0.00  0.00     0.028 H 
ATOM     36  H   LIG d   1       6.678  -3.136  -3.394  0.00  0.00     0.028 H 
ATOM     37  H   LIG d   1       4.964  -2.962  -3.843  0.00  0.00     0.028 H 
ENDBRANCH   2  34
BRANCH   1  38
ATOM     38  C   LIG d   1       3.912  -1.518  -2.237  0.00  0.00    -0.024 C 
ATOM     39  H   LIG d   1       4.178  -2.560  -2.416  0.00  0.00     0.031 H 
ATOM     40  H   LIG d   1       3.749  -1.363  -1.170  0.00  0.00     0.031 H 
BRANCH  38  41
ATOM     41  C   LIG d   1       2.632  -1.181  -3.003  0.00  0.00    -0.061 C 
ATOM     42  H   LIG d   1       1.982  -2.055  -3.029  0.00  0.00     0.023 H 
ATOM     43  H   LIG d   1       2.116  -0.360  -2.504  0.00  0.00     0.023 H 
ATOM     44  H   LIG d   1       2.885  -0.886  -4.021  0.00  0.00     0.023 H 
ENDBRANCH  38  41
ENDBRANCH   1  38
TORSDOF 8
ENDMDL
MODEL 3
REMARK VINA RESULT:      -6.5      2.951      4.374
REMARK  8 active torsions:
REMARK  status: ('A' for Active; 'I' for Inactive)
REMARK    1  A    between atoms: C_1  and  C_2 
REMARK    2  A    between atoms: C_2  and  C_3 
REMARK    3  A    between atoms: C_4  and  C_24 
REMARK    4  A    between atoms: C_8  and  O_14 
REMARK    5  A    between atoms: O_14  and  C_15 
REMARK    6  A    between atoms: C_15  and  C_16 
REMARK    7  A    between atoms: C_20  and  O_22 
REMARK    8  A    between atoms: O_22  and  C_23 
ROOT
ATOM      1  C   LIG d   1       5.347  -0.461  -2.684  0.00  0.00     0.040 A 
ATOM      2  C   LIG d   1       6.266  -0.975  -3.541  0.00  0.00    -0.030 A 
ATOM      3  C   LIG d   1       7.223  -0.057  -4.163  0.00  0.00     0.021 A 
ATOM      4  C   LIG d   1       8.195  -0.523  -5.055  0.00  0.00    -0.047 A 
ATOM      5  C   LIG d   1       9.071   0.355  -5.624  0.00  0.00    -0.019 A 
ATOM      6  C   LIG d   1       9.011   1.713  -5.315  0.00  0.00     0.124 A 
ATOM      7  C   LIG d   1       8.054   2.192  -4.435  0.00  0.00     0.023 A 
ATOM      8  C   LIG d   1       7.153   1.315  -3.851  0.00  0.00     0.143 A 
ATOM      9  O   LIG d   1       6.213   1.760  -2.990  0.00  0.00    -0.422 OA
ATOM     10  C   LIG d   1       5.334   0.924  -2.418  0.00  0.00     0.341 A 
ATOM     11  O   LIG d   1       4.505   1.372  -1.646  0.00  0.00    -0.245 OA
ATOM     12  H   LIG d   1       8.250  -1.574  -5.295  0.00  0.00     0.063 H 
ATOM     13  H   LIG d   1       9.819  -0.005  -6.315  0.00  0.00     0.065 H 
ATOM     14  H   LIG d   1       8.011   3.246  -4.203  0.00  0.00     0.069 H 
ENDROOT
BRANCH   6  15
ATOM     15  O   LIG d   1       9.891   2.573  -5.886  0.00  0.00    -0.487 OA
BRANCH  15  16
ATOM     16  C   LIG d   1       9.946   2.593  -7.314  0.00  0.00     0.115 C 
ATOM     17  H   LIG d   1       9.173   1.939  -7.717  0.00  0.00     0.075 H 
ATOM     18  H   LIG d   1      10.925   2.246  -7.644  0.00  0.00     0.075 H 
BRANCH  16  19
ATOM     19  C   LIG d   1       9.720   4.000  -7.805  0.00  0.00    -0.007 A 
ATOM     20  C   LIG d   1       9.144   4.215  -9.041  0.00  0.00    -0.014 A 
ATOM     21  C   LIG d   1       8.942   5.510  -9.496  0.00  0.00     0.120 A 
ATOM     22  H   LIG d   1       8.854   3.375  -9.656  0.00  0.00     0.066 H 
ATOM     23  C   LIG d   1       9.308   6.586  -8.701  0.00  0.00    -0.020 A 
ATOM     24  C   LIG d   1       9.879   6.366  -7.462  0.00  0.00    -0.058 A 
ATOM     25  H   LIG d   1       9.148   7.596  -9.051  0.00  0.00     0.065 H 
ATOM     26  C   LIG d   1      10.084   5.075  -7.014  0.00  0.00    -0.055 A 
ATOM     27  H   LIG d   1      10.164   7.204  -6.843  0.00  0.00     0.062 H 
ATOM     28  H   LIG d   1      10.530   4.905  -6.046  0.00  0.00     0.062 H 
BRANCH  21  29
ATOM     29  O   LIG d   1       8.380   5.723 -10.715  0.00  0.00    -0.495 OA
BRANCH  29  30
ATOM     30  C   LIG d   1       9.233   6.236 -11.741  0.00  0.00     0.079 C 
ATOM     31  H   LIG d   1       8.698   6.237 -12.691  0.00  0.00     0.066 H 
ATOM     32  H   LIG d   1      10.120   5.608 -11.825  0.00  0.00     0.066 H 
ATOM     33  H   LIG d   1       9.531   7.254 -11.491  0.00  0.00     0.066 H 
ENDBRANCH  29  30
ENDBRANCH  21  29
ENDBRANCH  16  19
ENDBRANCH  15  16
ENDBRANCH   6  15
BRANCH   2  34
ATOM     34  C   LIG d   1       6.303  -2.450  -3.844  0.00  0.00    -0.039 C 
ATOM     35  H   LIG d   1       5.472  -2.708  -4.500  0.00  0.00     0.028 H 
ATOM     36  H   LIG d   1       7.244  -2.697  -4.337  0.00  0.00     0.028 H 
ATOM     37  H   LIG d   1       6.220  -3.015  -2.915  0.00  0.00     0.028 H 
ENDBRANCH   2  34
BRANCH   1  38
ATOM     38  C   LIG d   1       4.343  -1.367  -2.020  0.00  0.00    -0.024 C 
ATOM     39  H   LIG d   1       4.736  -2.384  -1.991  0.00  0.00     0.031 H 
ATOM     40  H   LIG d   1       4.158  -1.021  -1.004  0.00  0.00     0.031 H 
BRANCH  38  41
ATOM     41  C   LIG d   1       3.035  -1.349  -2.813  0.00  0.00    -0.061 C 
ATOM     42  H   LIG d   1       3.256  -1.270  -3.877  0.00  0.00     0.023 H 
ATOM     43  H   LIG d   1       2.483  -2.270  -2.624  0.00  0.00     0.023 H 
ATOM     44  H   LIG d   1       2.434  -0.494  -2.502  0.00  0.00     0.023 H 
ENDBRANCH  38  41
ENDBRANCH   1  38
TORSDOF 8
ENDMDL
MODEL 4
REMARK VINA RESULT:      -6.4      6.571      8.806
REMARK  8 active torsions:
REMARK  status: ('A' for Active; 'I' for Inactive)
REMARK    1  A    between atoms: C_1  and  C_2 
REMARK    2  A    between atoms: C_2  and  C_3 
REMARK    3  A    between atoms: C_4  and  C_24 
REMARK    4  A    between atoms: C_8  and  O_14 
REMARK    5  A    between atoms: O_14  and  C_15 
REMARK    6  A    between atoms: C_15  and  C_16 
REMARK    7  A    between atoms: C_20  and  O_22 
REMARK    8  A    between atoms: O_22  and  C_23 
ROOT
ATOM      1  C   LIG d   1       2.319  -1.579 -12.225  0.00  0.00     0.040 A 
ATOM      2  C   LIG d   1       3.260  -0.672 -11.853  0.00  0.00    -0.030 A 
ATOM      3  C   LIG d   1       3.249  -0.194 -10.469  0.00  0.00     0.021 A 
ATOM      4  C   LIG d   1       4.190   0.741 -10.022  0.00  0.00    -0.047 A 
ATOM      5  C   LIG d   1       4.155   1.174  -8.728  0.00  0.00    -0.019 A 
ATOM      6  C   LIG d   1       3.193   0.684  -7.845  0.00  0.00     0.124 A 
ATOM      7  C   LIG d   1       2.253  -0.240  -8.271  0.00  0.00     0.023 A 
ATOM      8  C   LIG d   1       2.272  -0.687  -9.583  0.00  0.00     0.143 A 
ATOM      9  O   LIG d   1       1.365  -1.588 -10.019  0.00  0.00    -0.422 OA
ATOM     10  C   LIG d   1       1.370  -2.030 -11.286  0.00  0.00     0.341 A 
ATOM     11  O   LIG d   1       0.533  -2.844 -11.633  0.00  0.00    -0.245 OA
ATOM     12  H   LIG d   1       4.941   1.120 -10.698  0.00  0.00     0.063 H 
ATOM     13  H   LIG d   1       4.880   1.897  -8.384  0.00  0.00     0.065 H 
ATOM     14  H   LIG d   1       1.509  -0.612  -7.582  0.00  0.00     0.069 H 
ENDROOT
BRANCH   6  15
ATOM     15  O   LIG d   1       3.174   1.122  -6.561  0.00  0.00    -0.487 OA
BRANCH  15  16
ATOM     16  C   LIG d   1       2.488   0.307  -5.608  0.00  0.00     0.115 C 
ATOM     17  H   LIG d   1       2.373  -0.701  -6.007  0.00  0.00     0.075 H 
ATOM     18  H   LIG d   1       1.506   0.733  -5.408  0.00  0.00     0.075 H 
BRANCH  16  19
ATOM     19  C   LIG d   1       3.283   0.253  -4.329  0.00  0.00    -0.007 A 
ATOM     20  C   LIG d   1       4.153  -0.796  -4.102  0.00  0.00    -0.014 A 
ATOM     21  C   LIG d   1       4.880  -0.849  -2.921  0.00  0.00     0.120 A 
ATOM     22  H   LIG d   1       4.265  -1.576  -4.840  0.00  0.00     0.066 H 
ATOM     23  C   LIG d   1       4.740   0.158  -1.977  0.00  0.00    -0.020 A 
ATOM     24  C   LIG d   1       3.874   1.209  -2.212  0.00  0.00    -0.058 A 
ATOM     25  H   LIG d   1       5.309   0.122  -1.059  0.00  0.00     0.065 H 
ATOM     26  C   LIG d   1       3.146   1.256  -3.387  0.00  0.00    -0.055 A 
ATOM     27  H   LIG d   1       3.765   1.993  -1.478  0.00  0.00     0.062 H 
ATOM     28  H   LIG d   1       2.469   2.077  -3.568  0.00  0.00     0.062 H 
BRANCH  21  29
ATOM     29  O   LIG d   1       5.732  -1.883  -2.692  0.00  0.00    -0.495 OA
BRANCH  29  30
ATOM     30  C   LIG d   1       6.967  -1.877  -3.413  0.00  0.00     0.079 C 
ATOM     31  H   LIG d   1       7.731  -1.372  -2.821  0.00  0.00     0.066 H 
ATOM     32  H   LIG d   1       6.834  -1.351  -4.359  0.00  0.00     0.066 H 
ATOM     33  H   LIG d   1       7.278  -2.903  -3.608  0.00  0.00     0.066 H 
ENDBRANCH  29  30
ENDBRANCH  21  29
ENDBRANCH  16  19
ENDBRANCH  15  16
ENDBRANCH   6  15
BRANCH   2  34
ATOM     34  C   LIG d   1       4.286  -0.173 -12.835  0.00  0.00    -0.039 C 
ATOM     35  H   LIG d   1       4.572   0.847 -12.577  0.00  0.00     0.028 H 
ATOM     36  H   LIG d   1       5.167  -0.816 -12.799  0.00  0.00     0.028 H 
ATOM     37  H   LIG d   1       3.866  -0.188 -13.841  0.00  0.00     0.028 H 
ENDBRANCH   2  34
BRANCH   1  38
ATOM     38  C   LIG d   1       2.292  -2.100 -13.639  0.00  0.00    -0.024 C 
ATOM     39  H   LIG d   1       1.261  -2.293 -13.935  0.00  0.00     0.031 H 
ATOM     40  H   LIG d   1       2.730  -1.360 -14.307  0.00  0.00     0.031 H 
BRANCH  38  41
ATOM     41  C   LIG d   1       3.096  -3.399 -13.719  0.00  0.00    -0.061 C 
ATOM     42  H   LIG d   1       3.665  -3.533 -12.799  0.00  0.00     0.023 H 
ATOM     43  H   LIG d   1       2.414  -4.240 -13.849  0.00  0.00     0.023 H 
ATOM     44  H   LIG d   1       3.780  -3.352 -14.566  0.00  0.00     0.023 H 
ENDBRANCH  38  41
ENDBRANCH   1  38
TORSDOF 8
ENDMDL
MODEL 5
REMARK VINA RESULT:      -6.2      6.440      9.072
REMARK  8 active torsions:
REMARK  status: ('A' for Active; 'I' for Inactive)
REMARK    1  A    between atoms: C_1  and  C_2 
REMARK    2  A    between atoms: C_2  and  C_3 
REMARK    3  A    between atoms: C_4  and  C_24 
REMARK    4  A    between atoms: C_8  and  O_14 
REMARK    5  A    between atoms: O_14  and  C_15 
REMARK    6  A    between atoms: C_15  and  C_16 
REMARK    7  A    between atoms: C_20  and  O_22 
REMARK    8  A    between atoms: O_22  and  C_23 
ROOT
ATOM      1  C   LIG d   1       3.536  -1.063 -12.787  0.00  0.00     0.040 A 
ATOM      2  C   LIG d   1       2.551  -1.073 -11.852  0.00  0.00    -0.030 A 
ATOM      3  C   LIG d   1       2.884  -0.639 -10.493  0.00  0.00     0.021 A 
ATOM      4  C   LIG d   1       1.915  -0.626  -9.483  0.00  0.00    -0.047 A 
ATOM      5  C   LIG d   1       2.253  -0.222  -8.224  0.00  0.00    -0.019 A 
ATOM      6  C   LIG d   1       3.555   0.188  -7.939  0.00  0.00     0.124 A 
ATOM      7  C   LIG d   1       4.527   0.180  -8.927  0.00  0.00     0.023 A 
ATOM      8  C   LIG d   1       4.202  -0.232 -10.210  0.00  0.00     0.143 A 
ATOM      9  O   LIG d   1       5.133  -0.247 -11.188  0.00  0.00    -0.422 OA
ATOM     10  C   LIG d   1       4.834  -0.643 -12.434  0.00  0.00     0.341 A 
ATOM     11  O   LIG d   1       5.708  -0.639 -13.284  0.00  0.00    -0.245 OA
ATOM     12  H   LIG d   1       0.904  -0.937  -9.698  0.00  0.00     0.063 H 
ATOM     13  H   LIG d   1       1.506  -0.215  -7.444  0.00  0.00     0.065 H 
ATOM     14  H   LIG d   1       5.534   0.496  -8.697  0.00  0.00     0.069 H 
ENDROOT
BRANCH   6  15
ATOM     15  O   LIG d   1       3.874   0.591  -6.684  0.00  0.00    -0.487 OA
BRANCH  15  16
ATOM     16  C   LIG d   1       2.907   0.351  -5.659  0.00  0.00     0.115 C 
ATOM     17  H   LIG d   1       2.107  -0.275  -6.054  0.00  0.00     0.075 H 
ATOM     18  H   LIG d   1       2.492   1.301  -5.323  0.00  0.00     0.075 H 
BRANCH  16  19
ATOM     19  C   LIG d   1       3.567  -0.348  -4.499  0.00  0.00    -0.007 A 
ATOM     20  C   LIG d   1       4.944  -0.438  -4.441  0.00  0.00    -0.014 A 
ATOM     21  C   LIG d   1       5.551  -1.088  -3.376  0.00  0.00     0.120 A 
ATOM     22  H   LIG d   1       5.548  -0.007  -5.226  0.00  0.00     0.066 H 
ATOM     23  C   LIG d   1       4.773  -1.636  -2.366  0.00  0.00    -0.020 A 
ATOM     24  C   LIG d   1       3.396  -1.537  -2.426  0.00  0.00    -0.058 A 
ATOM     25  H   LIG d   1       5.244  -2.138  -1.534  0.00  0.00     0.065 H 
ATOM     26  C   LIG d   1       2.794  -0.894  -3.491  0.00  0.00    -0.055 A 
ATOM     27  H   LIG d   1       2.791  -1.963  -1.640  0.00  0.00     0.062 H 
ATOM     28  H   LIG d   1       1.718  -0.819  -3.536  0.00  0.00     0.062 H 
BRANCH  21  29
ATOM     29  O   LIG d   1       6.906  -1.183  -3.320  0.00  0.00    -0.495 OA
BRANCH  29  30
ATOM     30  C   LIG d   1       7.484  -2.439  -3.683  0.00  0.00     0.079 C 
ATOM     31  H   LIG d   1       6.726  -3.220  -3.621  0.00  0.00     0.066 H 
ATOM     32  H   LIG d   1       8.303  -2.673  -3.003  0.00  0.00     0.066 H 
ATOM     33  H   LIG d   1       7.864  -2.382  -4.703  0.00  0.00     0.066 H 
ENDBRANCH  29  30
ENDBRANCH  21  29
ENDBRANCH  16  19
ENDBRANCH  15  16
ENDBRANCH   6  15
BRANCH   2  34
ATOM     34  C   LIG d   1       1.155  -1.516 -12.201  0.00  0.00    -0.039 C 
ATOM     35  H   LIG d   1       1.117  -2.604 -12.239  0.00  0.00     0.028 H 
ATOM     36  H   LIG d   1       0.458  -1.156 -11.443  0.00  0.00     0.028 H 
ATOM     37  H   LIG d   1       0.875  -1.109 -13.173  0.00  0.00     0.028 H 
ENDBRANCH   2  34
BRANCH   1  38
ATOM     38  C   LIG d   1       3.240  -1.500 -14.199  0.00  0.00    -0.024 C 
ATOM     39  H   LIG d   1       2.185  -1.333 -14.418  0.00  0.00     0.031 H 
ATOM     40  H   LIG d   1       3.851  -0.923 -14.893  0.00  0.00     0.031 H 
BRANCH  38  41
ATOM     41  C   LIG d   1       3.562  -2.988 -14.351  0.00  0.00    -0.061 C 
ATOM     42  H   LIG d   1       3.538  -3.467 -13.372  0.00  0.00     0.023 H 
ATOM     43  H   LIG d   1       2.822  -3.454 -15.002  0.00  0.00     0.023 H 
ATOM     44  H   LIG d   1       4.554  -3.102 -14.787  0.00  0.00     0.023 H 
ENDBRANCH  38  41
ENDBRANCH   1  38
TORSDOF 8
ENDMDL
MODEL 6
REMARK VINA RESULT:      -6.1      5.293      8.317
REMARK  8 active torsions:
REMARK  status: ('A' for Active; 'I' for Inactive)
REMARK    1  A    between atoms: C_1  and  C_2 
REMARK    2  A    between atoms: C_2  and  C_3 
REMARK    3  A    between atoms: C_4  and  C_24 
REMARK    4  A    between atoms: C_8  and  O_14 
REMARK    5  A    between atoms: O_14  and  C_15 
REMARK    6  A    between atoms: C_15  and  C_16 
REMARK    7  A    between atoms: C_20  and  O_22 
REMARK    8  A    between atoms: O_22  and  C_23 
ROOT
ATOM      1  C   LIG d   1       6.109  -9.331  -5.043  0.00  0.00     0.040 A 
ATOM      2  C   LIG d   1       7.157  -8.467  -5.070  0.00  0.00    -0.030 A 
ATOM      3  C   LIG d   1       6.874  -7.041  -5.246  0.00  0.00     0.021 A 
ATOM      4  C   LIG d   1       7.909  -6.100  -5.282  0.00  0.00    -0.047 A 
ATOM      5  C   LIG d   1       7.618  -4.778  -5.452  0.00  0.00    -0.019 A 
ATOM      6  C   LIG d   1       6.295  -4.356  -5.580  0.00  0.00     0.124 A 
ATOM      7  C   LIG d   1       5.258  -5.274  -5.547  0.00  0.00     0.023 A 
ATOM      8  C   LIG d   1       5.536  -6.622  -5.379  0.00  0.00     0.143 A 
ATOM      9  O   LIG d   1       4.541  -7.534  -5.344  0.00  0.00    -0.422 OA
ATOM     10  C   LIG d   1       4.794  -8.842  -5.183  0.00  0.00     0.341 A 
ATOM     11  O   LIG d   1       3.863  -9.628  -5.157  0.00  0.00    -0.245 OA
ATOM     12  H   LIG d   1       8.935  -6.419  -5.179  0.00  0.00     0.063 H 
ATOM     13  H   LIG d   1       8.417  -4.052  -5.484  0.00  0.00     0.065 H 
ATOM     14  H   LIG d   1       4.236  -4.941  -5.650  0.00  0.00     0.069 H 
ENDROOT
BRANCH   6  15
ATOM     15  O   LIG d   1       6.022  -3.037  -5.744  0.00  0.00    -0.487 OA
BRANCH  15  16
ATOM     16  C   LIG d   1       4.698  -2.604  -5.425  0.00  0.00     0.115 C 
ATOM     17  H   LIG d   1       4.069  -3.473  -5.229  0.00  0.00     0.075 H 
ATOM     18  H   LIG d   1       4.289  -2.041  -6.264  0.00  0.00     0.075 H 
BRANCH  16  19
ATOM     19  C   LIG d   1       4.738  -1.726  -4.201  0.00  0.00    -0.007 A 
ATOM     20  C   LIG d   1       5.386  -0.507  -4.248  0.00  0.00    -0.014 A 
ATOM     21  C   LIG d   1       5.428   0.298  -3.119  0.00  0.00     0.120 A 
ATOM     22  H   LIG d   1       5.864  -0.183  -5.161  0.00  0.00     0.066 H 
ATOM     23  C   LIG d   1       4.808  -0.117  -1.950  0.00  0.00    -0.020 A 
ATOM     24  C   LIG d   1       4.155  -1.334  -1.910  0.00  0.00    -0.058 A 
ATOM     25  H   LIG d   1       4.836   0.510  -1.071  0.00  0.00     0.065 H 
ATOM     26  C   LIG d   1       4.120  -2.137  -3.034  0.00  0.00    -0.055 A 
ATOM     27  H   LIG d   1       3.673  -1.658  -1.000  0.00  0.00     0.062 H 
ATOM     28  H   LIG d   1       3.610  -3.088  -3.001  0.00  0.00     0.062 H 
BRANCH  21  29
ATOM     29  O   LIG d   1       6.071   1.495  -3.161  0.00  0.00    -0.495 OA
BRANCH  29  30
ATOM     30  C   LIG d   1       7.364   1.517  -3.770  0.00  0.00     0.079 C 
ATOM     31  H   LIG d   1       7.780   0.509  -3.774  0.00  0.00     0.066 H 
ATOM     32  H   LIG d   1       8.021   2.178  -3.205  0.00  0.00     0.066 H 
ATOM     33  H   LIG d   1       7.277   1.879  -4.794  0.00  0.00     0.066 H 
ENDBRANCH  29  30
ENDBRANCH  21  29
ENDBRANCH  16  19
ENDBRANCH  15  16
ENDBRANCH   6  15
BRANCH   2  34
ATOM     34  C   LIG d   1       8.572  -8.962  -4.922  0.00  0.00    -0.039 C 
ATOM     35  H   LIG d   1       9.064  -8.420  -4.115  0.00  0.00     0.028 H 
ATOM     36  H   LIG d   1       8.562 -10.028  -4.690  0.00  0.00     0.028 H 
ATOM     37  H   LIG d   1       9.115  -8.798  -5.853  0.00  0.00     0.028 H 
ENDBRANCH   2  34
BRANCH   1  38
ATOM     38  C   LIG d   1       6.351 -10.807  -4.863  0.00  0.00    -0.024 C 
ATOM     39  H   LIG d   1       5.622 -11.369  -5.448  0.00  0.00     0.031 H 
ATOM     40  H   LIG d   1       7.357 -11.054  -5.203  0.00  0.00     0.031 H 
BRANCH  38  41
ATOM     41  C   LIG d   1       6.209 -11.172  -3.385  0.00  0.00    -0.061 C 
ATOM     42  H   LIG d   1       5.684 -10.372  -2.862  0.00  0.00     0.023 H 
ATOM     43  H   LIG d   1       5.641 -12.098  -3.293  0.00  0.00     0.023 H 
ATOM     44  H   LIG d   1       7.197 -11.306  -2.946  0.00  0.00     0.023 H 
ENDBRANCH  38  41
ENDBRANCH   1  38
TORSDOF 8
ENDMDL
MODEL 7
REMARK VINA RESULT:      -6.0      2.842      7.917
REMARK  8 active torsions:
REMARK  status: ('A' for Active; 'I' for Inactive)
REMARK    1  A    between atoms: C_1  and  C_2 
REMARK    2  A    between atoms: C_2  and  C_3 
REMARK    3  A    between atoms: C_4  and  C_24 
REMARK    4  A    between atoms: C_8  and  O_14 
REMARK    5  A    between atoms: O_14  and  C_15 
REMARK    6  A    between atoms: C_15  and  C_16 
REMARK    7  A    between atoms: C_20  and  O_22 
REMARK    8  A    between atoms: O_22  and  C_23 
ROOT
ATOM      1  C   LIG d   1       9.408   3.886  -8.265  0.00  0.00     0.040 A 
ATOM      2  C   LIG d   1       9.563   4.115  -6.936  0.00  0.00    -0.030 A 
ATOM      3  C   LIG d   1       9.045   3.118  -5.997  0.00  0.00     0.021 A 
ATOM      4  C   LIG d   1       9.172   3.295  -4.615  0.00  0.00    -0.047 A 
ATOM      5  C   LIG d   1       8.675   2.352  -3.761  0.00  0.00    -0.019 A 
ATOM      6  C   LIG d   1       8.050   1.210  -4.258  0.00  0.00     0.124 A 
ATOM      7  C   LIG d   1       7.914   1.019  -5.623  0.00  0.00     0.023 A 
ATOM      8  C   LIG d   1       8.409   1.969  -6.504  0.00  0.00     0.143 A 
ATOM      9  O   LIG d   1       8.287   1.803  -7.839  0.00  0.00    -0.422 OA
ATOM     10  C   LIG d   1       8.761   2.713  -8.704  0.00  0.00     0.341 A 
ATOM     11  O   LIG d   1       8.629   2.520  -9.900  0.00  0.00    -0.245 OA
ATOM     12  H   LIG d   1       9.660   4.175  -4.223  0.00  0.00     0.063 H 
ATOM     13  H   LIG d   1       8.771   2.491  -2.694  0.00  0.00     0.065 H 
ATOM     14  H   LIG d   1       7.425   0.133  -6.000  0.00  0.00     0.069 H 
ENDROOT
BRANCH   6  15
ATOM     15  O   LIG d   1       7.565   0.280  -3.396  0.00  0.00    -0.487 OA
BRANCH  15  16
ATOM     16  C   LIG d   1       7.003  -0.903  -3.967  0.00  0.00     0.115 C 
ATOM     17  H   LIG d   1       7.489  -1.780  -3.538  0.00  0.00     0.075 H 
ATOM     18  H   LIG d   1       7.157  -0.894  -5.046  0.00  0.00     0.075 H 
BRANCH  16  19
ATOM     19  C   LIG d   1       5.527  -0.951  -3.671  0.00  0.00    -0.007 A 
ATOM     20  C   LIG d   1       4.634  -0.304  -4.503  0.00  0.00    -0.014 A 
ATOM     21  C   LIG d   1       3.276  -0.343  -4.226  0.00  0.00     0.120 A 
ATOM     22  H   LIG d   1       4.994   0.236  -5.367  0.00  0.00     0.066 H 
ATOM     23  C   LIG d   1       2.815  -1.043  -3.120  0.00  0.00    -0.020 A 
ATOM     24  C   LIG d   1       3.711  -1.694  -2.294  0.00  0.00    -0.058 A 
ATOM     25  H   LIG d   1       1.757  -1.079  -2.905  0.00  0.00     0.065 H 
ATOM     26  C   LIG d   1       5.065  -1.649  -2.569  0.00  0.00    -0.055 A 
ATOM     27  H   LIG d   1       3.353  -2.239  -1.433  0.00  0.00     0.062 H 
ATOM     28  H   LIG d   1       5.764  -2.158  -1.922  0.00  0.00     0.062 H 
BRANCH  21  29
ATOM     29  O   LIG d   1       2.396   0.298  -5.040  0.00  0.00    -0.495 OA
BRANCH  29  30
ATOM     30  C   LIG d   1       2.740   0.386  -6.425  0.00  0.00     0.079 C 
ATOM     31  H   LIG d   1       3.694   0.902  -6.530  0.00  0.00     0.066 H 
ATOM     32  H   LIG d   1       1.967   0.940  -6.957  0.00  0.00     0.066 H 
ATOM     33  H   LIG d   1       2.822  -0.617  -6.844  0.00  0.00     0.066 H 
ENDBRANCH  29  30
ENDBRANCH  21  29
ENDBRANCH  16  19
ENDBRANCH  15  16
ENDBRANCH   6  15
BRANCH   2  34
ATOM     34  C   LIG d   1      10.251   5.360  -6.439  0.00  0.00    -0.039 C 
ATOM     35  H   LIG d   1      10.156   6.150  -7.184  0.00  0.00     0.028 H 
ATOM     36  H   LIG d   1       9.788   5.683  -5.506  0.00  0.00     0.028 H 
ATOM     37  H   LIG d   1      11.307   5.149  -6.267  0.00  0.00     0.028 H 
ENDBRANCH   2  34
BRANCH   1  38
ATOM     38  C   LIG d   1       9.926   4.883  -9.269  0.00  0.00    -0.024 C 
ATOM     39  H   LIG d   1      10.744   5.453  -8.826  0.00  0.00     0.031 H 
ATOM     40  H   LIG d   1      10.288   4.356 -10.152  0.00  0.00     0.031 H 
BRANCH  38  41
ATOM     41  C   LIG d   1       8.800   5.837  -9.670  0.00  0.00    -0.061 C 
ATOM     42  H   LIG d   1       7.842   5.322  -9.592  0.00  0.00     0.023 H 
ATOM     43  H   LIG d   1       8.802   6.701  -9.005  0.00  0.00     0.023 H 
ATOM     44  H   LIG d   1       8.952   6.168 -10.697  0.00  0.00     0.023 H 
ENDBRANCH  38  41
ENDBRANCH   1  38
TORSDOF 8
ENDMDL
MODEL 8
REMARK VINA RESULT:      -5.7      2.362      7.960
REMARK  8 active torsions:
REMARK  status: ('A' for Active; 'I' for Inactive)
REMARK    1  A    between atoms: C_1  and  C_2 
REMARK    2  A    between atoms: C_2  and  C_3 
REMARK    3  A    between atoms: C_4  and  C_24 
REMARK    4  A    between atoms: C_8  and  O_14 
REMARK    5  A    between atoms: O_14  and  C_15 
REMARK    6  A    between atoms: C_15  and  C_16 
REMARK    7  A    between atoms: C_20  and  O_22 
REMARK    8  A    between atoms: O_22  and  C_23 
ROOT
ATOM      1  C   LIG d   1      10.129   5.257  -5.650  0.00  0.00     0.040 A 
ATOM      2  C   LIG d   1       9.736   4.582  -4.540  0.00  0.00    -0.030 A 
ATOM      3  C   LIG d   1       9.089   3.280  -4.715  0.00  0.00     0.021 A 
ATOM      4  C   LIG d   1       8.660   2.533  -3.612  0.00  0.00    -0.047 A 
ATOM      5  C   LIG d   1       8.055   1.325  -3.804  0.00  0.00    -0.019 A 
ATOM      6  C   LIG d   1       7.870   0.824  -5.091  0.00  0.00     0.124 A 
ATOM      7  C   LIG d   1       8.288   1.550  -6.195  0.00  0.00     0.023 A 
ATOM      8  C   LIG d   1       8.900   2.782  -6.019  0.00  0.00     0.143 A 
ATOM      9  O   LIG d   1       9.315   3.506  -7.080  0.00  0.00    -0.422 OA
ATOM     10  C   LIG d   1       9.908   4.699  -6.926  0.00  0.00     0.341 A 
ATOM     11  O   LIG d   1      10.267   5.316  -7.914  0.00  0.00    -0.245 OA
ATOM     12  H   LIG d   1       8.805   2.913  -2.611  0.00  0.00     0.063 H 
ATOM     13  H   LIG d   1       7.721   0.751  -2.952  0.00  0.00     0.065 H 
ATOM     14  H   LIG d   1       8.137   1.157  -7.190  0.00  0.00     0.069 H 
ENDROOT
BRANCH   6  15
ATOM     15  O   LIG d   1       7.271  -0.380  -5.265  0.00  0.00    -0.487 OA
BRANCH  15  16
ATOM     16  C   LIG d   1       7.028  -1.160  -4.092  0.00  0.00     0.115 C 
ATOM     17  H   LIG d   1       7.592  -0.745  -3.257  0.00  0.00     0.075 H 
ATOM     18  H   LIG d   1       7.344  -2.188  -4.269  0.00  0.00     0.075 H 
BRANCH  16  19
ATOM     19  C   LIG d   1       5.557  -1.134  -3.768  0.00  0.00    -0.007 A 
ATOM     20  C   LIG d   1       4.678  -0.469  -4.600  0.00  0.00    -0.014 A 
ATOM     21  C   LIG d   1       3.325  -0.439  -4.298  0.00  0.00     0.120 A 
ATOM     22  H   LIG d   1       5.045   0.032  -5.485  0.00  0.00     0.066 H 
ATOM     23  C   LIG d   1       2.855  -1.089  -3.166  0.00  0.00    -0.020 A 
ATOM     24  C   LIG d   1       3.737  -1.759  -2.339  0.00  0.00    -0.058 A 
ATOM     25  H   LIG d   1       1.801  -1.072  -2.930  0.00  0.00     0.065 H 
ATOM     26  C   LIG d   1       5.086  -1.781  -2.640  0.00  0.00    -0.055 A 
ATOM     27  H   LIG d   1       3.372  -2.265  -1.458  0.00  0.00     0.062 H 
ATOM     28  H   LIG d   1       5.774  -2.305  -1.993  0.00  0.00     0.062 H 
BRANCH  21  29
ATOM     29  O   LIG d   1       2.459   0.220  -5.113  0.00  0.00    -0.495 OA
BRANCH  29  30
ATOM     30  C   LIG d   1       2.853   0.388  -6.477  0.00  0.00     0.079 C 
ATOM     31  H   LIG d   1       3.498  -0.439  -6.773  0.00  0.00     0.066 H 
ATOM     32  H   LIG d   1       3.394   1.328  -6.586  0.00  0.00     0.066 H 
ATOM     33  H   LIG d   1       1.967   0.403  -7.111  0.00  0.00     0.066 H 
ENDBRANCH  29  30
ENDBRANCH  21  29
ENDBRANCH  16  19
ENDBRANCH  15  16
ENDBRANCH   6  15
BRANCH   2  34
ATOM     34  C   LIG d   1       9.961   5.154  -3.165  0.00  0.00    -0.039 C 
ATOM     35  H   LIG d   1       9.025   5.562  -2.783  0.00  0.00     0.028 H 
ATOM     36  H   LIG d   1      10.312   4.367  -2.496  0.00  0.00     0.028 H 
ATOM     37  H   LIG d   1      10.707   5.947  -3.217  0.00  0.00     0.028 H 
ENDBRANCH   2  34
BRANCH   1  38
ATOM     38  C   LIG d   1      10.801   6.600  -5.519  0.00  0.00    -0.024 C 
ATOM     39  H   LIG d   1      10.514   7.233  -6.359  0.00  0.00     0.031 H 
ATOM     40  H   LIG d   1      10.490   7.071  -4.587  0.00  0.00     0.031 H 
BRANCH  38  41
ATOM     41  C   LIG d   1      12.319   6.414  -5.516  0.00  0.00    -0.061 C 
ATOM     42  H   LIG d   1      12.571   5.486  -5.003  0.00  0.00     0.023 H 
ATOM     43  H   LIG d   1      12.681   6.370  -6.544  0.00  0.00     0.023 H 
ATOM     44  H   LIG d   1      12.787   7.252  -5.001  0.00  0.00     0.023 H 
ENDBRANCH  38  41
ENDBRANCH   1  38
TORSDOF 8
ENDMDL
MODEL 9
REMARK VINA RESULT:      -5.5      6.878     10.048
REMARK  8 active torsions:
REMARK  status: ('A' for Active; 'I' for Inactive)
REMARK    1  A    between atoms: C_1  and  C_2 
REMARK    2  A    between atoms: C_2  and  C_3 
REMARK    3  A    between atoms: C_4  and  C_24 
REMARK    4  A    between atoms: C_8  and  O_14 
REMARK    5  A    between atoms: O_14  and  C_15 
REMARK    6  A    between atoms: C_15  and  C_16 
REMARK    7  A    between atoms: C_20  and  O_22 
REMARK    8  A    between atoms: O_22  and  C_23 
ROOT
ATOM      1  C   LIG d   1       4.425  -0.849  -4.067  0.00  0.00     0.040 A 
ATOM      2  C   LIG d   1       4.679  -1.631  -5.148  0.00  0.00    -0.030 A 
ATOM      3  C   LIG d   1       4.112  -1.234  -6.438  0.00  0.00     0.021 A 
ATOM      4  C   LIG d   1       4.336  -1.996  -7.590  0.00  0.00    -0.047 A 
ATOM      5  C   LIG d   1       3.791  -1.607  -8.779  0.00  0.00    -0.019 A 
ATOM      6  C   LIG d   1       3.020  -0.448  -8.856  0.00  0.00     0.124 A 
ATOM      7  C   LIG d   1       2.787   0.319  -7.726  0.00  0.00     0.023 A 
ATOM      8  C   LIG d   1       3.329  -0.065  -6.509  0.00  0.00     0.143 A 
ATOM      9  O   LIG d   1       3.115   0.667  -5.395  0.00  0.00    -0.422 OA
ATOM     10  C   LIG d   1       3.633   0.308  -4.210  0.00  0.00     0.341 A 
ATOM     11  O   LIG d   1       3.413   1.001  -3.232  0.00  0.00    -0.245 OA
ATOM     12  H   LIG d   1       4.936  -2.893  -7.539  0.00  0.00     0.063 H 
ATOM     13  H   LIG d   1       3.961  -2.197  -9.667  0.00  0.00     0.065 H 
ATOM     14  H   LIG d   1       2.186   1.214  -7.793  0.00  0.00     0.069 H 
ENDROOT
BRANCH   6  15
ATOM     15  O   LIG d   1       2.489  -0.071 -10.047  0.00  0.00    -0.487 OA
BRANCH  15  16
ATOM     16  C   LIG d   1       1.310  -0.755 -10.477  0.00  0.00     0.115 C 
ATOM     17  H   LIG d   1       0.472  -0.058 -10.494  0.00  0.00     0.075 H 
ATOM     18  H   LIG d   1       1.092  -1.570  -9.788  0.00  0.00     0.075 H 
BRANCH  16  19
ATOM     19  C   LIG d   1       1.529  -1.311 -11.860  0.00  0.00    -0.007 A 
ATOM     20  C   LIG d   1       2.774  -1.218 -12.452  0.00  0.00    -0.014 A 
ATOM     21  C   LIG d   1       2.974  -1.725 -13.728  0.00  0.00     0.120 A 
ATOM     22  H   LIG d   1       3.591  -0.748 -11.923  0.00  0.00     0.066 H 
ATOM     23  C   LIG d   1       1.926  -2.334 -14.402  0.00  0.00    -0.020 A 
ATOM     24  C   LIG d   1       0.684  -2.431 -13.803  0.00  0.00    -0.058 A 
ATOM     25  H   LIG d   1       2.080  -2.734 -15.393  0.00  0.00     0.065 H 
ATOM     26  C   LIG d   1       0.486  -1.920 -12.534  0.00  0.00    -0.055 A 
ATOM     27  H   LIG d   1      -0.132  -2.906 -14.327  0.00  0.00     0.062 H 
ATOM     28  H   LIG d   1      -0.485  -1.996 -12.068  0.00  0.00     0.062 H 
BRANCH  21  29
ATOM     29  O   LIG d   1       4.196  -1.629 -14.314  0.00  0.00    -0.495 OA
BRANCH  29  30
ATOM     30  C   LIG d   1       5.184  -0.852 -13.633  0.00  0.00     0.079 C 
ATOM     31  H   LIG d   1       5.781  -0.303 -14.362  0.00  0.00     0.066 H 
ATOM     32  H   LIG d   1       5.831  -1.512 -13.055  0.00  0.00     0.066 H 
ATOM     33  H   LIG d   1       4.692  -0.147 -12.962  0.00  0.00     0.066 H 
ENDBRANCH  29  30
ENDBRANCH  21  29
ENDBRANCH  16  19
ENDBRANCH  15  16
ENDBRANCH   6  15
BRANCH   2  34
ATOM     34  C   LIG d   1       5.523  -2.873  -5.025  0.00  0.00    -0.039 C 
ATOM     35  H   LIG d   1       6.194  -2.774  -4.171  0.00  0.00     0.028 H 
ATOM     36  H   LIG d   1       4.876  -3.738  -4.879  0.00  0.00     0.028 H 
ATOM     37  H   LIG d   1       6.110  -3.007  -5.934  0.00  0.00     0.028 H 
ENDBRANCH   2  34
BRANCH   1  38
ATOM     38  C   LIG d   1       4.989  -1.217  -2.719  0.00  0.00    -0.024 C 
ATOM     39  H   LIG d   1       5.904  -1.795  -2.854  0.00  0.00     0.031 H 
ATOM     40  H   LIG d   1       5.212  -0.310  -2.159  0.00  0.00     0.031 H 
BRANCH  38  41
ATOM     41  C   LIG d   1       3.966  -2.054  -1.949  0.00  0.00    -0.061 C 
ATOM     42  H   LIG d   1       3.075  -2.193  -2.562  0.00  0.00     0.023 H 
ATOM     43  H   LIG d   1       4.399  -3.027  -1.712  0.00  0.00     0.023 H 
ATOM     44  H   LIG d   1       3.697  -1.541  -1.027  0.00  0.00     0.023 H 
ENDBRANCH  38  41
ENDBRANCH   1  38
TORSDOF 8
ENDMDL
MODEL 10
REMARK VINA RESULT:      -5.4      1.782      8.106
REMARK  8 active torsions:
REMARK  status: ('A' for Active; 'I' for Inactive)
REMARK    1  A    between atoms: C_1  and  C_2 
REMARK    2  A    between atoms: C_2  and  C_3 
REMARK    3  A    between atoms: C_4  and  C_24 
REMARK    4  A    between atoms: C_8  and  O_14 
REMARK    5  A    between atoms: O_14  and  C_15 
REMARK    6  A    between atoms: C_15  and  C_16 
REMARK    7  A    between atoms: C_20  and  O_22 
REMARK    8  A    between atoms: O_22  and  C_23 
ROOT
ATOM      1  C   LIG d   1      11.399   7.350  -1.284  0.00  0.00     0.040 A 
ATOM      2  C   LIG d   1      10.665   7.210  -2.418  0.00  0.00    -0.030 A 
ATOM      3  C   LIG d   1      10.313   5.857  -2.852  0.00  0.00     0.021 A 
ATOM      4  C   LIG d   1       9.559   5.644  -4.011  0.00  0.00    -0.047 A 
ATOM      5  C   LIG d   1       9.250   4.372  -4.396  0.00  0.00    -0.019 A 
ATOM      6  C   LIG d   1       9.671   3.282  -3.636  0.00  0.00     0.124 A 
ATOM      7  C   LIG d   1      10.419   3.474  -2.486  0.00  0.00     0.023 A 
ATOM      8  C   LIG d   1      10.747   4.759  -2.083  0.00  0.00     0.143 A 
ATOM      9  O   LIG d   1      11.475   4.969  -0.966  0.00  0.00    -0.422 OA
ATOM     10  C   LIG d   1      11.800   6.207  -0.563  0.00  0.00     0.341 A 
ATOM     11  O   LIG d   1      12.458   6.347   0.453  0.00  0.00    -0.245 OA
ATOM     12  H   LIG d   1       9.225   6.484  -4.602  0.00  0.00     0.063 H 
ATOM     13  H   LIG d   1       8.671   4.209  -5.293  0.00  0.00     0.065 H 
ATOM     14  H   LIG d   1      10.746   2.624  -1.905  0.00  0.00     0.069 H 
ENDROOT
BRANCH   6  15
ATOM     15  O   LIG d   1       9.352   2.024  -4.030  0.00  0.00    -0.487 OA
BRANCH  15  16
ATOM     16  C   LIG d   1       8.141   1.863  -4.771  0.00  0.00     0.115 C 
ATOM     17  H   LIG d   1       8.369   1.464  -5.759  0.00  0.00     0.075 H 
ATOM     18  H   LIG d   1       7.647   2.829  -4.873  0.00  0.00     0.075 H 
BRANCH  16  19
ATOM     19  C   LIG d   1       7.230   0.908  -4.043  0.00  0.00    -0.007 A 
ATOM     20  C   LIG d   1       7.410  -0.455  -4.177  0.00  0.00    -0.014 A 
ATOM     21  C   LIG d   1       6.567  -1.333  -3.511  0.00  0.00     0.120 A 
ATOM     22  H   LIG d   1       8.203  -0.837  -4.802  0.00  0.00     0.066 H 
ATOM     23  C   LIG d   1       5.553  -0.840  -2.703  0.00  0.00    -0.020 A 
ATOM     24  C   LIG d   1       5.381   0.524  -2.567  0.00  0.00    -0.058 A 
ATOM     25  H   LIG d   1       4.898  -1.522  -2.180  0.00  0.00     0.065 H 
ATOM     26  C   LIG d   1       6.218   1.397  -3.236  0.00  0.00    -0.055 A 
ATOM     27  H   LIG d   1       4.591   0.908  -1.938  0.00  0.00     0.062 H 
ATOM     28  H   LIG d   1       6.082   2.463  -3.129  0.00  0.00     0.062 H 
BRANCH  21  29
ATOM     29  O   LIG d   1       6.738  -2.675  -3.646  0.00  0.00    -0.495 OA
BRANCH  29  30
ATOM     30  C   LIG d   1       6.738  -3.198  -4.976  0.00  0.00     0.079 C 
ATOM     31  H   LIG d   1       7.736  -3.103  -5.404  0.00  0.00     0.066 H 
ATOM     32  H   LIG d   1       6.027  -2.640  -5.587  0.00  0.00     0.066 H 
ATOM     33  H   LIG d   1       6.451  -4.249  -4.953  0.00  0.00     0.066 H 
ENDBRANCH  29  30
ENDBRANCH  21  29
ENDBRANCH  16  19
ENDBRANCH  15  16
ENDBRANCH   6  15
BRANCH   2  34
ATOM     34  C   LIG d   1      10.222   8.414  -3.207  0.00  0.00    -0.039 C 
ATOM     35  H   LIG d   1      10.731   8.425  -4.171  0.00  0.00     0.028 H 
ATOM     36  H   LIG d   1       9.144   8.368  -3.367  0.00  0.00     0.028 H 
ATOM     37  H   LIG d   1      10.469   9.323  -2.657  0.00  0.00     0.028 H 
ENDBRANCH   2  34
BRANCH   1  38
ATOM     38  C   LIG d   1      11.783   8.724  -0.798  0.00  0.00    -0.024 C 
ATOM     39  H   LIG d   1      12.763   8.680  -0.321  0.00  0.00     0.031 H 
ATOM     40  H   LIG d   1      11.822   9.410  -1.643  0.00  0.00     0.031 H 
BRANCH  38  41
ATOM     41  C   LIG d   1      10.746   9.217   0.213  0.00  0.00    -0.061 C 
ATOM     42  H   LIG d   1      11.188   9.993   0.838  0.00  0.00     0.023 H 
ATOM     43  H   LIG d   1       9.887   9.625  -0.319  0.00  0.00     0.023 H 
ATOM     44  H   LIG d   1      10.425   8.385   0.840  0.00  0.00     0.023 H 
ENDBRANCH  38  41
ENDBRANCH   1  38
TORSDOF 8
ENDMDL
