MODEL 1
REMARK VINA RESULT:      -6.0      0.000      0.000
REMARK  5 active torsions:
REMARK  status: ('A' for Active; 'I' for Inactive)
REMARK    1  A    between atoms: C_1  and  C_2 
REMARK    2  A    between atoms: C_2  and  C_3 
REMARK    3  A    between atoms: C_2  and  C_4 
REMARK    4  A    between atoms: C_2  and  C_6 
REMARK    5  A    between atoms: C_4  and  O_5 
ROOT
ATOM      1  C   LIG d   1       4.081  -1.473  -5.784  0.00  0.00     0.070 C 
ATOM      2  H   LIG d   1       3.116  -1.980  -5.734  0.00  0.00     0.060 H 
ATOM      3  C   LIG d   1       4.300  -0.661  -4.510  0.00  0.00    -0.007 C 
ATOM      4  H   LIG d   1       5.265  -0.158  -4.563  0.00  0.00     0.033 H 
ATOM      5  C   LIG d   1       3.197   0.375  -4.298  0.00  0.00    -0.044 C 
ATOM      6  C   LIG d   1       3.598   1.256  -3.110  0.00  0.00    -0.034 C 
ATOM      7  C   LIG d   1       4.095   0.425  -1.967  0.00  0.00    -0.088 C 
ATOM      8  C   LIG d   1       4.411  -0.833  -2.045  0.00  0.00    -0.084 C 
ATOM      9  C   LIG d   1       4.292  -1.617  -3.312  0.00  0.00    -0.013 C 
ATOM     10  H   LIG d   1       3.350  -2.165  -3.303  0.00  0.00     0.035 H 
ATOM     11  C   LIG d   1       5.435  -2.617  -3.488  0.00  0.00    -0.008 C 
ATOM     12  H   LIG d   1       5.433  -3.326  -2.659  0.00  0.00     0.033 H 
ATOM     13  C   LIG d   1       6.766  -1.862  -3.520  0.00  0.00    -0.047 C 
ATOM     14  C   LIG d   1       7.911  -2.849  -3.750  0.00  0.00    -0.053 C 
ATOM     15  C   LIG d   1       7.706  -3.564  -5.087  0.00  0.00    -0.051 C 
ATOM     16  C   LIG d   1       6.378  -4.325  -5.056  0.00  0.00    -0.026 C 
ATOM     17  C   LIG d   1       5.216  -3.363  -4.809  0.00  0.00     0.062 C 
ATOM     18  H   LIG d   1       4.280  -3.918  -4.752  0.00  0.00     0.060 H 
ATOM     19  O   LIG d   1       5.132  -2.441  -5.893  0.00  0.00    -0.372 OA
ATOM     20  H   LIG d   1       3.091   0.988  -5.193  0.00  0.00     0.027 H 
ATOM     21  H   LIG d   1       2.255  -0.129  -4.082  0.00  0.00     0.027 H 
ATOM     22  H   LIG d   1       4.387   1.941  -3.424  0.00  0.00     0.031 H 
ATOM     23  H   LIG d   1       2.732   1.832  -2.784  0.00  0.00     0.031 H 
ATOM     24  H   LIG d   1       4.198   0.907  -1.006  0.00  0.00     0.057 H 
ATOM     25  H   LIG d   1       4.775  -1.332  -1.159  0.00  0.00     0.057 H 
ATOM     26  H   LIG d   1       6.748  -1.132  -4.329  0.00  0.00     0.027 H 
ATOM     27  H   LIG d   1       6.914  -1.348  -2.571  0.00  0.00     0.027 H 
ATOM     28  H   LIG d   1       8.858  -2.309  -3.767  0.00  0.00     0.026 H 
ATOM     29  H   LIG d   1       7.925  -3.583  -2.943  0.00  0.00     0.026 H 
ATOM     30  H   LIG d   1       7.685  -2.830  -5.891  0.00  0.00     0.027 H 
ATOM     31  H   LIG d   1       8.523  -4.266  -5.253  0.00  0.00     0.027 H 
ATOM     32  H   LIG d   1       6.231  -4.835  -6.008  0.00  0.00     0.029 H 
ATOM     33  H   LIG d   1       6.399  -5.058  -4.250  0.00  0.00     0.029 H 
ENDROOT
BRANCH   1  34
ATOM     34  C   LIG d   1       4.111  -0.542  -6.999  0.00  0.00     0.015 C 
BRANCH  34  35
ATOM     35  C   LIG d   1       2.889   0.379  -6.967  0.00  0.00    -0.055 C 
ATOM     36  H   LIG d   1       3.215   1.409  -6.822  0.00  0.00     0.024 H 
ATOM     37  H   LIG d   1       2.349   0.297  -7.910  0.00  0.00     0.024 H 
ATOM     38  H   LIG d   1       2.235   0.085  -6.145  0.00  0.00     0.024 H 
ENDBRANCH  34  35
BRANCH  34  39
ATOM     39  C   LIG d   1       5.387   0.302  -6.962  0.00  0.00    -0.055 C 
ATOM     40  H   LIG d   1       5.915   0.122  -6.026  0.00  0.00     0.024 H 
ATOM     41  H   LIG d   1       6.028   0.027  -7.800  0.00  0.00     0.024 H 
ATOM     42  H   LIG d   1       5.126   1.358  -7.036  0.00  0.00     0.024 H 
ENDBRANCH  34  39
BRANCH  34  43
ATOM     43  C   LIG d   1       4.088  -1.377  -8.281  0.00  0.00     0.052 C 
ATOM     44  H   LIG d   1       3.571  -0.823  -9.065  0.00  0.00     0.056 H 
ATOM     45  H   LIG d   1       5.109  -1.586  -8.597  0.00  0.00     0.056 H 
BRANCH  43  46
ATOM     46  O   LIG d   1       3.402  -2.607  -8.036  0.00  0.00    -0.394 OA
ATOM     47  H   LIG d   1       2.524  -2.497  -7.648  0.00  0.00     0.209 HD
ENDBRANCH  43  46
ENDBRANCH  34  43
ENDBRANCH   1  34
TORSDOF 5
ENDMDL
MODEL 2
REMARK VINA RESULT:      -5.9      1.483      3.968
REMARK  5 active torsions:
REMARK  status: ('A' for Active; 'I' for Inactive)
REMARK    1  A    between atoms: C_1  and  C_2 
REMARK    2  A    between atoms: C_2  and  C_3 
REMARK    3  A    between atoms: C_2  and  C_4 
REMARK    4  A    between atoms: C_2  and  C_6 
REMARK    5  A    between atoms: C_4  and  O_5 
ROOT
ATOM      1  C   LIG d   1       5.554  -0.376  -6.045  0.00  0.00     0.070 C 
ATOM      2  H   LIG d   1       6.260   0.455  -6.085  0.00  0.00     0.060 H 
ATOM      3  C   LIG d   1       6.278  -1.643  -5.595  0.00  0.00    -0.007 C 
ATOM      4  H   LIG d   1       5.569  -2.469  -5.554  0.00  0.00     0.033 H 
ATOM      5  C   LIG d   1       7.429  -2.004  -6.532  0.00  0.00    -0.044 C 
ATOM      6  C   LIG d   1       7.969  -3.374  -6.110  0.00  0.00    -0.034 C 
ATOM      7  C   LIG d   1       8.142  -3.451  -4.624  0.00  0.00    -0.088 C 
ATOM      8  C   LIG d   1       7.653  -2.599  -3.774  0.00  0.00    -0.084 C 
ATOM      9  C   LIG d   1       6.859  -1.404  -4.197  0.00  0.00    -0.013 C 
ATOM     10  H   LIG d   1       7.516  -0.535  -4.230  0.00  0.00     0.035 H 
ATOM     11  C   LIG d   1       5.705  -1.105  -3.241  0.00  0.00    -0.008 C 
ATOM     12  H   LIG d   1       6.096  -0.905  -2.243  0.00  0.00     0.033 H 
ATOM     13  C   LIG d   1       4.761  -2.309  -3.195  0.00  0.00    -0.047 C 
ATOM     14  C   LIG d   1       3.574  -1.998  -2.283  0.00  0.00    -0.053 C 
ATOM     15  C   LIG d   1       2.817  -0.786  -2.830  0.00  0.00    -0.051 C 
ATOM     16  C   LIG d   1       3.756   0.422  -2.872  0.00  0.00    -0.026 C 
ATOM     17  C   LIG d   1       4.963   0.131  -3.763  0.00  0.00     0.062 C 
ATOM     18  H   LIG d   1       5.643   0.983  -3.757  0.00  0.00     0.060 H 
ATOM     19  O   LIG d   1       4.516  -0.085  -5.100  0.00  0.00    -0.372 OA
ATOM     20  H   LIG d   1       7.067  -2.050  -7.559  0.00  0.00     0.027 H 
ATOM     21  H   LIG d   1       8.218  -1.256  -6.453  0.00  0.00     0.027 H 
ATOM     22  H   LIG d   1       7.270  -4.148  -6.430  0.00  0.00     0.031 H 
ATOM     23  H   LIG d   1       8.933  -3.542  -6.591  0.00  0.00     0.031 H 
ATOM     24  H   LIG d   1       8.716  -4.277  -4.230  0.00  0.00     0.057 H 
ATOM     25  H   LIG d   1       7.827  -2.760  -2.721  0.00  0.00     0.057 H 
ATOM     26  H   LIG d   1       4.400  -2.524  -4.201  0.00  0.00     0.027 H 
ATOM     27  H   LIG d   1       5.298  -3.176  -2.810  0.00  0.00     0.027 H 
ATOM     28  H   LIG d   1       2.907  -2.860  -2.249  0.00  0.00     0.026 H 
ATOM     29  H   LIG d   1       3.936  -1.777  -1.278  0.00  0.00     0.026 H 
ATOM     30  H   LIG d   1       2.461  -1.004  -3.836  0.00  0.00     0.027 H 
ATOM     31  H   LIG d   1       1.969  -0.565  -2.182  0.00  0.00     0.027 H 
ATOM     32  H   LIG d   1       3.217   1.286  -3.260  0.00  0.00     0.029 H 
ATOM     33  H   LIG d   1       4.112   0.639  -1.865  0.00  0.00     0.029 H 
ENDROOT
BRANCH   1  34
ATOM     34  C   LIG d   1       4.942  -0.598  -7.429  0.00  0.00     0.015 C 
BRANCH  34  35
ATOM     35  C   LIG d   1       5.978  -0.266  -8.505  0.00  0.00    -0.055 C 
ATOM     36  H   LIG d   1       6.920  -0.761  -8.267  0.00  0.00     0.024 H 
ATOM     37  H   LIG d   1       5.620  -0.614  -9.474  0.00  0.00     0.024 H 
ATOM     38  H   LIG d   1       6.132   0.813  -8.540  0.00  0.00     0.024 H 
ENDBRANCH  34  35
BRANCH  34  39
ATOM     39  C   LIG d   1       4.512  -2.060  -7.568  0.00  0.00    -0.055 C 
ATOM     40  H   LIG d   1       5.202  -2.580  -8.232  0.00  0.00     0.024 H 
ATOM     41  H   LIG d   1       4.523  -2.536  -6.587  0.00  0.00     0.024 H 
ATOM     42  H   LIG d   1       3.504  -2.105  -7.982  0.00  0.00     0.024 H 
ENDBRANCH  34  39
BRANCH  34  43
ATOM     43  C   LIG d   1       3.722   0.310  -7.599  0.00  0.00     0.052 C 
ATOM     44  H   LIG d   1       3.861   1.219  -7.012  0.00  0.00     0.056 H 
ATOM     45  H   LIG d   1       3.606   0.571  -8.650  0.00  0.00     0.056 H 
BRANCH  43  46
ATOM     46  O   LIG d   1       2.552  -0.375  -7.145  0.00  0.00    -0.394 OA
ATOM     47  H   LIG d   1       2.486  -1.288  -7.456  0.00  0.00     0.209 HD
ENDBRANCH  43  46
ENDBRANCH  34  43
ENDBRANCH   1  34
TORSDOF 5
ENDMDL
MODEL 3
REMARK VINA RESULT:      -5.9      1.850      4.439
REMARK  5 active torsions:
REMARK  status: ('A' for Active; 'I' for Inactive)
REMARK    1  A    between atoms: C_1  and  C_2 
REMARK    2  A    between atoms: C_2  and  C_3 
REMARK    3  A    between atoms: C_2  and  C_4 
REMARK    4  A    between atoms: C_2  and  C_6 
REMARK    5  A    between atoms: C_4  and  O_5 
ROOT
ATOM      1  C   LIG d   1       5.801  -1.362  -5.450  0.00  0.00     0.070 C 
ATOM      2  H   LIG d   1       5.513  -2.368  -5.758  0.00  0.00     0.060 H 
ATOM      3  C   LIG d   1       4.932  -0.335  -6.171  0.00  0.00    -0.007 C 
ATOM      4  H   LIG d   1       5.221   0.667  -5.859  0.00  0.00     0.033 H 
ATOM      5  C   LIG d   1       5.055  -0.452  -7.689  0.00  0.00    -0.044 C 
ATOM      6  C   LIG d   1       4.301   0.726  -8.316  0.00  0.00    -0.034 C 
ATOM      7  C   LIG d   1       2.962   0.913  -7.671  0.00  0.00    -0.088 C 
ATOM      8  C   LIG d   1       2.587   0.353  -6.560  0.00  0.00    -0.084 C 
ATOM      9  C   LIG d   1       3.467  -0.581  -5.792  0.00  0.00    -0.013 C 
ATOM     10  H   LIG d   1       3.203  -1.607  -6.046  0.00  0.00     0.035 H 
ATOM     11  C   LIG d   1       3.326  -0.403  -4.280  0.00  0.00    -0.008 C 
ATOM     12  H   LIG d   1       2.295  -0.599  -3.982  0.00  0.00     0.033 H 
ATOM     13  C   LIG d   1       3.710   1.030  -3.903  0.00  0.00    -0.047 C 
ATOM     14  C   LIG d   1       3.623   1.202  -2.385  0.00  0.00    -0.053 C 
ATOM     15  C   LIG d   1       4.588   0.227  -1.707  0.00  0.00    -0.051 C 
ATOM     16  C   LIG d   1       4.203  -1.207  -2.079  0.00  0.00    -0.026 C 
ATOM     17  C   LIG d   1       4.263  -1.402  -3.594  0.00  0.00     0.062 C 
ATOM     18  H   LIG d   1       3.952  -2.415  -3.850  0.00  0.00     0.060 H 
ATOM     19  O   LIG d   1       5.604  -1.212  -4.038  0.00  0.00    -0.372 OA
ATOM     20  H   LIG d   1       6.105  -0.413  -7.978  0.00  0.00     0.027 H 
ATOM     21  H   LIG d   1       4.615  -1.391  -8.024  0.00  0.00     0.027 H 
ATOM     22  H   LIG d   1       4.890   1.635  -8.190  0.00  0.00     0.031 H 
ATOM     23  H   LIG d   1       4.162   0.535  -9.381  0.00  0.00     0.031 H 
ATOM     24  H   LIG d   1       2.255   1.562  -8.166  0.00  0.00     0.057 H 
ATOM     25  H   LIG d   1       1.602   0.571  -6.176  0.00  0.00     0.057 H 
ATOM     26  H   LIG d   1       4.729   1.230  -4.233  0.00  0.00     0.027 H 
ATOM     27  H   LIG d   1       3.027   1.728  -4.387  0.00  0.00     0.027 H 
ATOM     28  H   LIG d   1       3.893   2.225  -2.120  0.00  0.00     0.026 H 
ATOM     29  H   LIG d   1       2.606   0.996  -2.054  0.00  0.00     0.026 H 
ATOM     30  H   LIG d   1       5.604   0.429  -2.044  0.00  0.00     0.027 H 
ATOM     31  H   LIG d   1       4.530   0.351  -0.626  0.00  0.00     0.027 H 
ATOM     32  H   LIG d   1       4.889  -1.903  -1.596  0.00  0.00     0.029 H 
ATOM     33  H   LIG d   1       3.186  -1.408  -1.742  0.00  0.00     0.029 H 
ENDROOT
BRANCH   1  34
ATOM     34  C   LIG d   1       7.273  -1.121  -5.792  0.00  0.00     0.015 C 
BRANCH  34  35
ATOM     35  C   LIG d   1       7.694  -2.060  -6.925  0.00  0.00    -0.055 C 
ATOM     36  H   LIG d   1       8.503  -1.602  -7.495  0.00  0.00     0.024 H 
ATOM     37  H   LIG d   1       8.036  -3.005  -6.504  0.00  0.00     0.024 H 
ATOM     38  H   LIG d   1       6.843  -2.241  -7.581  0.00  0.00     0.024 H 
ENDBRANCH  34  35
BRANCH  34  39
ATOM     39  C   LIG d   1       7.461   0.332  -6.236  0.00  0.00    -0.055 C 
ATOM     40  H   LIG d   1       6.510   0.731  -6.585  0.00  0.00     0.024 H 
ATOM     41  H   LIG d   1       7.819   0.925  -5.394  0.00  0.00     0.024 H 
ATOM     42  H   LIG d   1       8.192   0.372  -7.045  0.00  0.00     0.024 H 
ENDBRANCH  34  39
BRANCH  34  43
ATOM     43  C   LIG d   1       8.135  -1.393  -4.557  0.00  0.00     0.052 C 
ATOM     44  H   LIG d   1       7.714  -2.229  -3.997  0.00  0.00     0.056 H 
ATOM     45  H   LIG d   1       9.149  -1.638  -4.869  0.00  0.00     0.056 H 
BRANCH  43  46
ATOM     46  O   LIG d   1       8.158  -0.229  -3.728  0.00  0.00    -0.394 OA
ATOM     47  H   LIG d   1       7.344   0.291  -3.756  0.00  0.00     0.209 HD
ENDBRANCH  43  46
ENDBRANCH  34  43
ENDBRANCH   1  34
TORSDOF 5
ENDMDL
MODEL 4
REMARK VINA RESULT:      -5.7      1.677      3.889
REMARK  5 active torsions:
REMARK  status: ('A' for Active; 'I' for Inactive)
REMARK    1  A    between atoms: C_1  and  C_2 
REMARK    2  A    between atoms: C_2  and  C_3 
REMARK    3  A    between atoms: C_2  and  C_4 
REMARK    4  A    between atoms: C_2  and  C_6 
REMARK    5  A    between atoms: C_4  and  O_5 
ROOT
ATOM      1  C   LIG d   1       4.955  -0.754  -6.416  0.00  0.00     0.070 C 
ATOM      2  H   LIG d   1       5.927  -0.698  -6.907  0.00  0.00     0.060 H 
ATOM      3  C   LIG d   1       4.644  -2.205  -6.056  0.00  0.00    -0.007 C 
ATOM      4  H   LIG d   1       3.673  -2.255  -5.564  0.00  0.00     0.033 H 
ATOM      5  C   LIG d   1       4.637  -3.107  -7.289  0.00  0.00    -0.044 C 
ATOM      6  C   LIG d   1       4.138  -4.491  -6.859  0.00  0.00    -0.034 C 
ATOM      7  C   LIG d   1       4.803  -4.934  -5.591  0.00  0.00    -0.088 C 
ATOM      8  C   LIG d   1       5.495  -4.163  -4.807  0.00  0.00    -0.084 C 
ATOM      9  C   LIG d   1       5.726  -2.715  -5.098  0.00  0.00    -0.013 C 
ATOM     10  H   LIG d   1       6.701  -2.600  -5.572  0.00  0.00     0.035 H 
ATOM     11  C   LIG d   1       5.694  -1.854  -3.835  0.00  0.00    -0.008 C 
ATOM     12  H   LIG d   1       6.475  -2.182  -3.148  0.00  0.00     0.033 H 
ATOM     13  C   LIG d   1       4.325  -1.990  -3.166  0.00  0.00    -0.047 C 
ATOM     14  C   LIG d   1       4.265  -1.091  -1.930  0.00  0.00    -0.053 C 
ATOM     15  C   LIG d   1       4.477   0.365  -2.351  0.00  0.00    -0.051 C 
ATOM     16  C   LIG d   1       5.848   0.505  -3.016  0.00  0.00    -0.026 C 
ATOM     17  C   LIG d   1       5.943  -0.399  -4.245  0.00  0.00     0.062 C 
ATOM     18  H   LIG d   1       6.934  -0.319  -4.689  0.00  0.00     0.060 H 
ATOM     19  O   LIG d   1       4.977   0.019  -5.208  0.00  0.00    -0.372 OA
ATOM     20  H   LIG d   1       3.971  -2.693  -8.045  0.00  0.00     0.027 H 
ATOM     21  H   LIG d   1       5.647  -3.189  -7.691  0.00  0.00     0.027 H 
ATOM     22  H   LIG d   1       3.059  -4.448  -6.701  0.00  0.00     0.031 H 
ATOM     23  H   LIG d   1       4.356  -5.211  -7.648  0.00  0.00     0.031 H 
ATOM     24  H   LIG d   1       4.700  -5.971  -5.309  0.00  0.00     0.057 H 
ATOM     25  H   LIG d   1       5.918  -4.585  -3.908  0.00  0.00     0.057 H 
ATOM     26  H   LIG d   1       3.547  -1.694  -3.869  0.00  0.00     0.027 H 
ATOM     27  H   LIG d   1       4.168  -3.027  -2.868  0.00  0.00     0.027 H 
ATOM     28  H   LIG d   1       3.289  -1.194  -1.453  0.00  0.00     0.026 H 
ATOM     29  H   LIG d   1       5.046  -1.385  -1.229  0.00  0.00     0.026 H 
ATOM     30  H   LIG d   1       3.700   0.656  -3.057  0.00  0.00     0.027 H 
ATOM     31  H   LIG d   1       4.431   1.007  -1.472  0.00  0.00     0.027 H 
ATOM     32  H   LIG d   1       6.001   1.542  -3.315  0.00  0.00     0.029 H 
ATOM     33  H   LIG d   1       6.625   0.214  -2.309  0.00  0.00     0.029 H 
ENDROOT
BRANCH   1  34
ATOM     34  C   LIG d   1       3.873  -0.212  -7.352  0.00  0.00     0.015 C 
BRANCH  34  35
ATOM     35  C   LIG d   1       3.349  -1.346  -8.236  0.00  0.00    -0.055 C 
ATOM     36  H   LIG d   1       4.188  -1.943  -8.596  0.00  0.00     0.024 H 
ATOM     37  H   LIG d   1       2.677  -1.978  -7.656  0.00  0.00     0.024 H 
ATOM     38  H   LIG d   1       2.811  -0.925  -9.086  0.00  0.00     0.024 H 
ENDBRANCH  34  35
BRANCH  34  39
ATOM     39  C   LIG d   1       2.721   0.361  -6.522  0.00  0.00    -0.055 C 
ATOM     40  H   LIG d   1       2.953   1.387  -6.239  0.00  0.00     0.024 H 
ATOM     41  H   LIG d   1       1.805   0.344  -7.113  0.00  0.00     0.024 H 
ATOM     42  H   LIG d   1       2.586  -0.243  -5.624  0.00  0.00     0.024 H 
ENDBRANCH  34  39
BRANCH  34  43
ATOM     43  C   LIG d   1       4.465   0.890  -8.232  0.00  0.00     0.052 C 
ATOM     44  H   LIG d   1       4.469   0.561  -9.272  0.00  0.00     0.056 H 
ATOM     45  H   LIG d   1       3.863   1.793  -8.139  0.00  0.00     0.056 H 
BRANCH  43  46
ATOM     46  O   LIG d   1       5.804   1.164  -7.815  0.00  0.00    -0.394 OA
ATOM     47  H   LIG d   1       5.945   2.073  -7.518  0.00  0.00     0.209 HD
ENDBRANCH  43  46
ENDBRANCH  34  43
ENDBRANCH   1  34
TORSDOF 5
ENDMDL
MODEL 5
REMARK VINA RESULT:      -5.6      2.411      5.011
REMARK  5 active torsions:
REMARK  status: ('A' for Active; 'I' for Inactive)
REMARK    1  A    between atoms: C_1  and  C_2 
REMARK    2  A    between atoms: C_2  and  C_3 
REMARK    3  A    between atoms: C_2  and  C_4 
REMARK    4  A    between atoms: C_2  and  C_6 
REMARK    5  A    between atoms: C_4  and  O_5 
ROOT
ATOM      1  C   LIG d   1       7.220  -0.364  -4.048  0.00  0.00     0.070 C 
ATOM      2  H   LIG d   1       7.912  -0.802  -3.328  0.00  0.00     0.060 H 
ATOM      3  C   LIG d   1       6.455  -1.474  -4.765  0.00  0.00    -0.007 C 
ATOM      4  H   LIG d   1       5.764  -1.032  -5.482  0.00  0.00     0.033 H 
ATOM      5  C   LIG d   1       7.395  -2.436  -5.490  0.00  0.00    -0.044 C 
ATOM      6  C   LIG d   1       6.538  -3.394  -6.325  0.00  0.00    -0.034 C 
ATOM      7  C   LIG d   1       5.379  -3.913  -5.529  0.00  0.00    -0.088 C 
ATOM      8  C   LIG d   1       4.981  -3.426  -4.393  0.00  0.00    -0.084 C 
ATOM      9  C   LIG d   1       5.664  -2.275  -3.725  0.00  0.00    -0.013 C 
ATOM     10  H   LIG d   1       6.354  -2.659  -2.974  0.00  0.00     0.035 H 
ATOM     11  C   LIG d   1       4.676  -1.330  -3.040  0.00  0.00    -0.008 C 
ATOM     12  H   LIG d   1       4.119  -1.871  -2.276  0.00  0.00     0.033 H 
ATOM     13  C   LIG d   1       3.709  -0.767  -4.084  0.00  0.00    -0.047 C 
ATOM     14  C   LIG d   1       2.752   0.222  -3.418  0.00  0.00    -0.053 C 
ATOM     15  C   LIG d   1       3.554   1.371  -2.804  0.00  0.00    -0.051 C 
ATOM     16  C   LIG d   1       4.518   0.812  -1.755  0.00  0.00    -0.026 C 
ATOM     17  C   LIG d   1       5.476  -0.195  -2.391  0.00  0.00     0.062 C 
ATOM     18  H   LIG d   1       6.134  -0.614  -1.630  0.00  0.00     0.060 H 
ATOM     19  O   LIG d   1       6.275   0.472  -3.367  0.00  0.00    -0.372 OA
ATOM     20  H   LIG d   1       8.063  -1.875  -6.143  0.00  0.00     0.027 H 
ATOM     21  H   LIG d   1       7.977  -3.001  -4.763  0.00  0.00     0.027 H 
ATOM     22  H   LIG d   1       6.162  -2.865  -7.202  0.00  0.00     0.031 H 
ATOM     23  H   LIG d   1       7.153  -4.233  -6.650  0.00  0.00     0.031 H 
ATOM     24  H   LIG d   1       4.835  -4.755  -5.930  0.00  0.00     0.057 H 
ATOM     25  H   LIG d   1       4.122  -3.869  -3.911  0.00  0.00     0.057 H 
ATOM     26  H   LIG d   1       4.275  -0.255  -4.863  0.00  0.00     0.027 H 
ATOM     27  H   LIG d   1       3.138  -1.583  -4.527  0.00  0.00     0.027 H 
ATOM     28  H   LIG d   1       2.061   0.617  -4.163  0.00  0.00     0.026 H 
ATOM     29  H   LIG d   1       2.190  -0.289  -2.635  0.00  0.00     0.026 H 
ATOM     30  H   LIG d   1       4.120   1.877  -3.585  0.00  0.00     0.027 H 
ATOM     31  H   LIG d   1       2.872   2.078  -2.331  0.00  0.00     0.027 H 
ATOM     32  H   LIG d   1       5.090   1.630  -1.316  0.00  0.00     0.029 H 
ATOM     33  H   LIG d   1       3.951   0.306  -0.974  0.00  0.00     0.029 H 
ENDROOT
BRANCH   1  34
ATOM     34  C   LIG d   1       7.998   0.467  -5.070  0.00  0.00     0.015 C 
BRANCH  34  35
ATOM     35  C   LIG d   1       9.394  -0.132  -5.258  0.00  0.00    -0.055 C 
ATOM     36  H   LIG d   1       9.335  -0.984  -5.935  0.00  0.00     0.024 H 
ATOM     37  H   LIG d   1      10.059   0.622  -5.680  0.00  0.00     0.024 H 
ATOM     38  H   LIG d   1       9.781  -0.460  -4.293  0.00  0.00     0.024 H 
ENDBRANCH  34  35
BRANCH  34  39
ATOM     39  C   LIG d   1       7.254   0.458  -6.407  0.00  0.00    -0.055 C 
ATOM     40  H   LIG d   1       7.213   1.470  -6.808  0.00  0.00     0.024 H 
ATOM     41  H   LIG d   1       7.779  -0.191  -7.110  0.00  0.00     0.024 H 
ATOM     42  H   LIG d   1       6.241   0.085  -6.256  0.00  0.00     0.024 H 
ENDBRANCH  34  39
BRANCH  34  43
ATOM     43  C   LIG d   1       8.124   1.906  -4.566  0.00  0.00     0.052 C 
ATOM     44  H   LIG d   1       7.134   2.297  -4.331  0.00  0.00     0.056 H 
ATOM     45  H   LIG d   1       8.744   1.925  -3.671  0.00  0.00     0.056 H 
BRANCH  43  46
ATOM     46  O   LIG d   1       8.727   2.714  -5.580  0.00  0.00    -0.394 OA
ATOM     47  H   LIG d   1       9.656   2.922  -5.416  0.00  0.00     0.209 HD
ENDBRANCH  43  46
ENDBRANCH  34  43
ENDBRANCH   1  34
TORSDOF 5
ENDMDL
MODEL 6
REMARK VINA RESULT:      -5.4      2.293      3.090
REMARK  5 active torsions:
REMARK  status: ('A' for Active; 'I' for Inactive)
REMARK    1  A    between atoms: C_1  and  C_2 
REMARK    2  A    between atoms: C_2  and  C_3 
REMARK    3  A    between atoms: C_2  and  C_4 
REMARK    4  A    between atoms: C_2  and  C_6 
REMARK    5  A    between atoms: C_4  and  O_5 
ROOT
ATOM      1  C   LIG d   1       5.396  -0.931  -6.115  0.00  0.00     0.070 C 
ATOM      2  H   LIG d   1       5.658  -1.969  -6.322  0.00  0.00     0.060 H 
ATOM      3  C   LIG d   1       4.905  -0.803  -4.675  0.00  0.00    -0.007 C 
ATOM      4  H   LIG d   1       4.647   0.236  -4.472  0.00  0.00     0.033 H 
ATOM      5  C   LIG d   1       3.692  -1.692  -4.407  0.00  0.00    -0.044 C 
ATOM      6  C   LIG d   1       3.163  -1.359  -3.008  0.00  0.00    -0.034 C 
ATOM      7  C   LIG d   1       4.282  -1.274  -2.015  0.00  0.00    -0.088 C 
ATOM      8  C   LIG d   1       5.543  -1.212  -2.320  0.00  0.00    -0.084 C 
ATOM      9  C   LIG d   1       6.033  -1.238  -3.733  0.00  0.00    -0.013 C 
ATOM     10  H   LIG d   1       6.332  -2.256  -3.985  0.00  0.00     0.035 H 
ATOM     11  C   LIG d   1       7.228  -0.311  -3.952  0.00  0.00    -0.008 C 
ATOM     12  H   LIG d   1       8.054  -0.618  -3.310  0.00  0.00     0.033 H 
ATOM     13  C   LIG d   1       6.820   1.126  -3.619  0.00  0.00    -0.047 C 
ATOM     14  C   LIG d   1       7.994   2.069  -3.888  0.00  0.00    -0.053 C 
ATOM     15  C   LIG d   1       8.384   1.986  -5.365  0.00  0.00    -0.051 C 
ATOM     16  C   LIG d   1       8.798   0.552  -5.700  0.00  0.00    -0.026 C 
ATOM     17  C   LIG d   1       7.648  -0.416  -5.422  0.00  0.00     0.062 C 
ATOM     18  H   LIG d   1       7.964  -1.438  -5.630  0.00  0.00     0.060 H 
ATOM     19  O   LIG d   1       6.552  -0.098  -6.277  0.00  0.00    -0.372 OA
ATOM     20  H   LIG d   1       2.920  -1.495  -5.150  0.00  0.00     0.027 H 
ATOM     21  H   LIG d   1       3.987  -2.740  -4.450  0.00  0.00     0.027 H 
ATOM     22  H   LIG d   1       2.640  -0.402  -3.042  0.00  0.00     0.031 H 
ATOM     23  H   LIG d   1       2.466  -2.137  -2.695  0.00  0.00     0.031 H 
ATOM     24  H   LIG d   1       4.020  -1.264  -0.967  0.00  0.00     0.057 H 
ATOM     25  H   LIG d   1       6.266  -1.136  -1.522  0.00  0.00     0.057 H 
ATOM     26  H   LIG d   1       5.973   1.415  -4.240  0.00  0.00     0.027 H 
ATOM     27  H   LIG d   1       6.537   1.188  -2.568  0.00  0.00     0.027 H 
ATOM     28  H   LIG d   1       7.701   3.091  -3.645  0.00  0.00     0.026 H 
ATOM     29  H   LIG d   1       8.843   1.776  -3.270  0.00  0.00     0.026 H 
ATOM     30  H   LIG d   1       7.533   2.272  -5.982  0.00  0.00     0.027 H 
ATOM     31  H   LIG d   1       9.219   2.660  -5.558  0.00  0.00     0.027 H 
ATOM     32  H   LIG d   1       9.077   0.492  -6.752  0.00  0.00     0.029 H 
ATOM     33  H   LIG d   1       9.649   0.266  -5.082  0.00  0.00     0.029 H 
ENDROOT
BRANCH   1  34
ATOM     34  C   LIG d   1       4.296  -0.476  -7.076  0.00  0.00     0.015 C 
BRANCH  34  35
ATOM     35  C   LIG d   1       3.713  -1.694  -7.798  0.00  0.00    -0.055 C 
ATOM     36  H   LIG d   1       3.281  -1.380  -8.748  0.00  0.00     0.024 H 
ATOM     37  H   LIG d   1       4.505  -2.420  -7.980  0.00  0.00     0.024 H 
ATOM     38  H   LIG d   1       2.939  -2.146  -7.178  0.00  0.00     0.024 H 
ENDBRANCH  34  35
BRANCH  34  39
ATOM     39  C   LIG d   1       3.190   0.228  -6.287  0.00  0.00    -0.055 C 
ATOM     40  H   LIG d   1       2.220  -0.164  -6.593  0.00  0.00     0.024 H 
ATOM     41  H   LIG d   1       3.335   0.050  -5.222  0.00  0.00     0.024 H 
ATOM     42  H   LIG d   1       3.228   1.299  -6.486  0.00  0.00     0.024 H 
ENDBRANCH  34  39
BRANCH  34  43
ATOM     43  C   LIG d   1       4.885   0.492  -8.104  0.00  0.00     0.052 C 
ATOM     44  H   LIG d   1       5.879   0.804  -7.782  0.00  0.00     0.056 H 
ATOM     45  H   LIG d   1       4.956  -0.004  -9.072  0.00  0.00     0.056 H 
BRANCH  43  46
ATOM     46  O   LIG d   1       4.040   1.639  -8.217  0.00  0.00    -0.394 OA
ATOM     47  H   LIG d   1       4.496   2.436  -8.518  0.00  0.00     0.209 HD
ENDBRANCH  43  46
ENDBRANCH  34  43
ENDBRANCH   1  34
TORSDOF 5
ENDMDL
MODEL 7
REMARK VINA RESULT:      -5.3      1.810      4.900
REMARK  5 active torsions:
REMARK  status: ('A' for Active; 'I' for Inactive)
REMARK    1  A    between atoms: C_1  and  C_2 
REMARK    2  A    between atoms: C_2  and  C_3 
REMARK    3  A    between atoms: C_2  and  C_4 
REMARK    4  A    between atoms: C_2  and  C_6 
REMARK    5  A    between atoms: C_4  and  O_5 
ROOT
ATOM      1  C   LIG d   1       4.335  -0.998  -4.420  0.00  0.00     0.070 C 
ATOM      2  H   LIG d   1       3.775  -1.914  -4.224  0.00  0.00     0.060 H 
ATOM      3  C   LIG d   1       5.747  -1.349  -4.883  0.00  0.00    -0.007 C 
ATOM      4  H   LIG d   1       6.301  -0.432  -5.079  0.00  0.00     0.033 H 
ATOM      5  C   LIG d   1       6.494  -2.185  -3.845  0.00  0.00    -0.044 C 
ATOM      6  C   LIG d   1       7.947  -2.327  -4.311  0.00  0.00    -0.034 C 
ATOM      7  C   LIG d   1       8.014  -2.678  -5.766  0.00  0.00    -0.088 C 
ATOM      8  C   LIG d   1       7.017  -2.605  -6.594  0.00  0.00    -0.084 C 
ATOM      9  C   LIG d   1       5.650  -2.169  -6.174  0.00  0.00    -0.013 C 
ATOM     10  H   LIG d   1       5.038  -3.052  -5.988  0.00  0.00     0.035 H 
ATOM     11  C   LIG d   1       4.959  -1.314  -7.236  0.00  0.00    -0.008 C 
ATOM     12  H   LIG d   1       4.854  -1.886  -8.158  0.00  0.00     0.033 H 
ATOM     13  C   LIG d   1       5.797  -0.060  -7.497  0.00  0.00    -0.047 C 
ATOM     14  C   LIG d   1       5.086   0.829  -8.519  0.00  0.00    -0.053 C 
ATOM     15  C   LIG d   1       3.720   1.243  -7.970  0.00  0.00    -0.051 C 
ATOM     16  C   LIG d   1       2.877  -0.008  -7.712  0.00  0.00    -0.026 C 
ATOM     17  C   LIG d   1       3.574  -0.926  -6.707  0.00  0.00     0.062 C 
ATOM     18  H   LIG d   1       2.984  -1.830  -6.558  0.00  0.00     0.060 H 
ATOM     19  O   LIG d   1       3.690  -0.248  -5.458  0.00  0.00    -0.372 OA
ATOM     20  H   LIG d   1       6.464  -1.684  -2.878  0.00  0.00     0.027 H 
ATOM     21  H   LIG d   1       6.035  -3.170  -3.764  0.00  0.00     0.027 H 
ATOM     22  H   LIG d   1       8.469  -1.384  -4.145  0.00  0.00     0.031 H 
ATOM     23  H   LIG d   1       8.433  -3.112  -3.730  0.00  0.00     0.031 H 
ATOM     24  H   LIG d   1       8.963  -3.018  -6.154  0.00  0.00     0.057 H 
ATOM     25  H   LIG d   1       7.182  -2.868  -7.629  0.00  0.00     0.057 H 
ATOM     26  H   LIG d   1       5.926   0.490  -6.565  0.00  0.00     0.027 H 
ATOM     27  H   LIG d   1       6.773  -0.350  -7.885  0.00  0.00     0.027 H 
ATOM     28  H   LIG d   1       5.688   1.719  -8.707  0.00  0.00     0.026 H 
ATOM     29  H   LIG d   1       4.953   0.277  -9.450  0.00  0.00     0.026 H 
ATOM     30  H   LIG d   1       3.853   1.789  -7.037  0.00  0.00     0.027 H 
ATOM     31  H   LIG d   1       3.213   1.879  -8.696  0.00  0.00     0.027 H 
ATOM     32  H   LIG d   1       1.903   0.285  -7.321  0.00  0.00     0.029 H 
ATOM     33  H   LIG d   1       2.744  -0.554  -8.646  0.00  0.00     0.029 H 
ENDROOT
BRANCH   1  34
ATOM     34  C   LIG d   1       4.405  -0.156  -3.145  0.00  0.00     0.015 C 
BRANCH  34  35
ATOM     35  C   LIG d   1       4.351  -1.075  -1.922  0.00  0.00    -0.055 C 
ATOM     36  H   LIG d   1       3.359  -1.522  -1.848  0.00  0.00     0.024 H 
ATOM     37  H   LIG d   1       5.097  -1.863  -2.027  0.00  0.00     0.024 H 
ATOM     38  H   LIG d   1       4.557  -0.495  -1.023  0.00  0.00     0.024 H 
ENDBRANCH  34  35
BRANCH  34  39
ATOM     39  C   LIG d   1       5.715   0.636  -3.130  0.00  0.00    -0.055 C 
ATOM     40  H   LIG d   1       5.783   1.208  -2.205  0.00  0.00     0.024 H 
ATOM     41  H   LIG d   1       6.557  -0.053  -3.194  0.00  0.00     0.024 H 
ATOM     42  H   LIG d   1       5.737   1.317  -3.981  0.00  0.00     0.024 H 
ENDBRANCH  34  39
BRANCH  34  43
ATOM     43  C   LIG d   1       3.222   0.813  -3.108  0.00  0.00     0.052 C 
ATOM     44  H   LIG d   1       2.459   0.483  -3.813  0.00  0.00     0.056 H 
ATOM     45  H   LIG d   1       2.803   0.836  -2.103  0.00  0.00     0.056 H 
BRANCH  43  46
ATOM     46  O   LIG d   1       3.668   2.123  -3.468  0.00  0.00    -0.394 OA
ATOM     47  H   LIG d   1       4.283   2.517  -2.835  0.00  0.00     0.209 HD
ENDBRANCH  43  46
ENDBRANCH  34  43
ENDBRANCH   1  34
TORSDOF 5
ENDMDL
MODEL 8
REMARK VINA RESULT:      -5.0      3.625      7.068
REMARK  5 active torsions:
REMARK  status: ('A' for Active; 'I' for Inactive)
REMARK    1  A    between atoms: C_1  and  C_2 
REMARK    2  A    between atoms: C_2  and  C_3 
REMARK    3  A    between atoms: C_2  and  C_4 
REMARK    4  A    between atoms: C_2  and  C_6 
REMARK    5  A    between atoms: C_4  and  O_5 
ROOT
ATOM      1  C   LIG d   1       3.014  -2.403  -8.687  0.00  0.00     0.070 C 
ATOM      2  H   LIG d   1       2.105  -2.665  -8.144  0.00  0.00     0.060 H 
ATOM      3  C   LIG d   1       2.749  -2.463 -10.190  0.00  0.00    -0.007 C 
ATOM      4  H   LIG d   1       3.659  -2.199 -10.728  0.00  0.00     0.033 H 
ATOM      5  C   LIG d   1       2.281  -3.849 -10.629  0.00  0.00    -0.044 C 
ATOM      6  C   LIG d   1       2.222  -3.864 -12.161  0.00  0.00    -0.034 C 
ATOM      7  C   LIG d   1       1.554  -2.630 -12.686  0.00  0.00    -0.088 C 
ATOM      8  C   LIG d   1       1.303  -1.566 -11.985  0.00  0.00    -0.084 C 
ATOM      9  C   LIG d   1       1.646  -1.456 -10.534  0.00  0.00    -0.013 C 
ATOM     10  H   LIG d   1       0.759  -1.687  -9.942  0.00  0.00     0.035 H 
ATOM     11  C   LIG d   1       2.135  -0.059 -10.154  0.00  0.00    -0.008 C 
ATOM     12  H   LIG d   1       1.355   0.673 -10.365  0.00  0.00     0.033 H 
ATOM     13  C   LIG d   1       3.390   0.274 -10.963  0.00  0.00    -0.047 C 
ATOM     14  C   LIG d   1       3.918   1.649 -10.551  0.00  0.00    -0.053 C 
ATOM     15  C   LIG d   1       4.269   1.632  -9.062  0.00  0.00    -0.051 C 
ATOM     16  C   LIG d   1       3.015   1.305  -8.249  0.00  0.00    -0.026 C 
ATOM     17  C   LIG d   1       2.454  -0.058  -8.655  0.00  0.00     0.062 C 
ATOM     18  H   LIG d   1       1.541  -0.265  -8.097  0.00  0.00     0.060 H 
ATOM     19  O   LIG d   1       3.413  -1.068  -8.350  0.00  0.00    -0.372 OA
ATOM     20  H   LIG d   1       2.985  -4.604 -10.280  0.00  0.00     0.027 H 
ATOM     21  H   LIG d   1       1.291  -4.051 -10.220  0.00  0.00     0.027 H 
ATOM     22  H   LIG d   1       3.237  -3.918 -12.557  0.00  0.00     0.031 H 
ATOM     23  H   LIG d   1       1.663  -4.741 -12.488  0.00  0.00     0.031 H 
ATOM     24  H   LIG d   1       1.258  -2.626 -13.725  0.00  0.00     0.057 H 
ATOM     25  H   LIG d   1       0.830  -0.725 -12.471  0.00  0.00     0.057 H 
ATOM     26  H   LIG d   1       4.154  -0.480 -10.774  0.00  0.00     0.027 H 
ATOM     27  H   LIG d   1       3.145   0.283 -12.026  0.00  0.00     0.027 H 
ATOM     28  H   LIG d   1       4.810   1.885 -11.133  0.00  0.00     0.026 H 
ATOM     29  H   LIG d   1       3.152   2.402 -10.736  0.00  0.00     0.026 H 
ATOM     30  H   LIG d   1       5.030   0.875  -8.876  0.00  0.00     0.027 H 
ATOM     31  H   LIG d   1       4.649   2.611  -8.767  0.00  0.00     0.027 H 
ATOM     32  H   LIG d   1       3.263   1.294  -7.188  0.00  0.00     0.029 H 
ATOM     33  H   LIG d   1       2.254   2.063  -8.435  0.00  0.00     0.029 H 
ENDROOT
BRANCH   1  34
ATOM     34  C   LIG d   1       4.132  -3.382  -8.322  0.00  0.00     0.015 C 
BRANCH  34  35
ATOM     35  C   LIG d   1       5.171  -3.411  -9.445  0.00  0.00    -0.055 C 
ATOM     36  H   LIG d   1       5.786  -4.307  -9.347  0.00  0.00     0.024 H 
ATOM     37  H   LIG d   1       4.663  -3.423 -10.409  0.00  0.00     0.024 H 
ATOM     38  H   LIG d   1       5.804  -2.526  -9.377  0.00  0.00     0.024 H 
ENDBRANCH  34  35
BRANCH  34  39
ATOM     39  C   LIG d   1       4.799  -2.930  -7.020  0.00  0.00    -0.055 C 
ATOM     40  H   LIG d   1       4.115  -2.288  -6.465  0.00  0.00     0.024 H 
ATOM     41  H   LIG d   1       5.049  -3.803  -6.418  0.00  0.00     0.024 H 
ATOM     42  H   LIG d   1       5.710  -2.376  -7.253  0.00  0.00     0.024 H 
ENDBRANCH  34  39
BRANCH  34  43
ATOM     43  C   LIG d   1       3.543  -4.781  -8.134  0.00  0.00     0.052 C 
ATOM     44  H   LIG d   1       2.664  -4.894  -8.769  0.00  0.00     0.056 H 
ATOM     45  H   LIG d   1       4.287  -5.528  -8.408  0.00  0.00     0.056 H 
BRANCH  43  46
ATOM     46  O   LIG d   1       3.168  -4.960  -6.766  0.00  0.00    -0.394 OA
ATOM     47  H   LIG d   1       3.631  -5.684  -6.323  0.00  0.00     0.209 HD
ENDBRANCH  43  46
ENDBRANCH  34  43
ENDBRANCH   1  34
TORSDOF 5
ENDMDL
MODEL 9
REMARK VINA RESULT:      -4.8     10.800     12.128
REMARK  5 active torsions:
REMARK  status: ('A' for Active; 'I' for Inactive)
REMARK    1  A    between atoms: C_1  and  C_2 
REMARK    2  A    between atoms: C_2  and  C_3 
REMARK    3  A    between atoms: C_2  and  C_4 
REMARK    4  A    between atoms: C_2  and  C_6 
REMARK    5  A    between atoms: C_4  and  O_5 
ROOT
ATOM      1  C   LIG d   1       9.639   9.225  -2.260  0.00  0.00     0.070 C 
ATOM      2  H   LIG d   1       8.608   9.251  -1.906  0.00  0.00     0.060 H 
ATOM      3  C   LIG d   1      10.589   9.152  -1.066  0.00  0.00    -0.007 C 
ATOM      4  H   LIG d   1      11.618   9.124  -1.424  0.00  0.00     0.033 H 
ATOM      5  C   LIG d   1      10.409  10.340  -0.123  0.00  0.00    -0.044 C 
ATOM      6  C   LIG d   1      11.520  10.278   0.931  0.00  0.00    -0.034 C 
ATOM      7  C   LIG d   1      11.671   8.890   1.473  0.00  0.00    -0.088 C 
ATOM      8  C   LIG d   1      11.145   7.825   0.946  0.00  0.00    -0.084 C 
ATOM      9  C   LIG d   1      10.291   7.870  -0.280  0.00  0.00    -0.013 C 
ATOM     10  H   LIG d   1       9.242   7.874   0.018  0.00  0.00     0.035 H 
ATOM     11  C   LIG d   1      10.531   6.675  -1.202  0.00  0.00    -0.008 C 
ATOM     12  H   LIG d   1      10.299   5.750  -0.672  0.00  0.00     0.033 H 
ATOM     13  C   LIG d   1      11.996   6.664  -1.644  0.00  0.00    -0.047 C 
ATOM     14  C   LIG d   1      12.232   5.502  -2.610  0.00  0.00    -0.053 C 
ATOM     15  C   LIG d   1      11.337   5.672  -3.839  0.00  0.00    -0.051 C 
ATOM     16  C   LIG d   1       9.871   5.677  -3.400  0.00  0.00    -0.026 C 
ATOM     17  C   LIG d   1       9.610   6.819  -2.418  0.00  0.00     0.062 C 
ATOM     18  H   LIG d   1       8.573   6.792  -2.084  0.00  0.00     0.060 H 
ATOM     19  O   LIG d   1       9.844   8.063  -3.074  0.00  0.00    -0.372 OA
ATOM     20  H   LIG d   1      10.485  11.271  -0.685  0.00  0.00     0.027 H 
ATOM     21  H   LIG d   1       9.436  10.281   0.363  0.00  0.00     0.027 H 
ATOM     22  H   LIG d   1      12.461  10.591   0.478  0.00  0.00     0.031 H 
ATOM     23  H   LIG d   1      11.274  10.956   1.749  0.00  0.00     0.031 H 
ATOM     24  H   LIG d   1      12.262   8.764   2.368  0.00  0.00     0.057 H 
ATOM     25  H   LIG d   1      11.333   6.869   1.412  0.00  0.00     0.057 H 
ATOM     26  H   LIG d   1      12.230   7.604  -2.144  0.00  0.00     0.027 H 
ATOM     27  H   LIG d   1      12.638   6.548  -0.771  0.00  0.00     0.027 H 
ATOM     28  H   LIG d   1      13.278   5.495  -2.919  0.00  0.00     0.026 H 
ATOM     29  H   LIG d   1      11.993   4.562  -2.112  0.00  0.00     0.026 H 
ATOM     30  H   LIG d   1      11.572   6.614  -4.332  0.00  0.00     0.027 H 
ATOM     31  H   LIG d   1      11.507   4.846  -4.529  0.00  0.00     0.027 H 
ATOM     32  H   LIG d   1       9.232   5.797  -4.275  0.00  0.00     0.029 H 
ATOM     33  H   LIG d   1       9.637   4.734  -2.906  0.00  0.00     0.029 H 
ENDROOT
BRANCH   1  34
ATOM     34  C   LIG d   1       9.935  10.484  -3.077  0.00  0.00     0.015 C 
BRANCH  34  35
ATOM     35  C   LIG d   1      11.410  10.861  -2.917  0.00  0.00    -0.055 C 
ATOM     36  H   LIG d   1      11.948  10.620  -3.834  0.00  0.00     0.024 H 
ATOM     37  H   LIG d   1      11.492  11.930  -2.718  0.00  0.00     0.024 H 
ATOM     38  H   LIG d   1      11.839  10.302  -2.086  0.00  0.00     0.024 H 
ENDBRANCH  34  35
BRANCH  34  39
ATOM     39  C   LIG d   1       9.634  10.216  -4.553  0.00  0.00    -0.055 C 
ATOM     40  H   LIG d   1      10.483  10.528  -5.160  0.00  0.00     0.024 H 
ATOM     41  H   LIG d   1       9.453   9.151  -4.699  0.00  0.00     0.024 H 
ATOM     42  H   LIG d   1       8.748  10.778  -4.851  0.00  0.00     0.024 H 
ENDBRANCH  34  39
BRANCH  34  43
ATOM     43  C   LIG d   1       9.058  11.634  -2.578  0.00  0.00     0.052 C 
ATOM     44  H   LIG d   1       9.073  11.656  -1.487  0.00  0.00     0.056 H 
ATOM     45  H   LIG d   1       9.440  12.578  -2.965  0.00  0.00     0.056 H 
BRANCH  43  46
ATOM     46  O   LIG d   1       7.716  11.440  -3.031  0.00  0.00    -0.394 OA
ATOM     47  H   LIG d   1       7.070  11.347  -2.318  0.00  0.00     0.209 HD
ENDBRANCH  43  46
ENDBRANCH  34  43
ENDBRANCH   1  34
TORSDOF 5
ENDMDL
