MODEL 1
REMARK VINA RESULT:      -6.7      0.000      0.000
REMARK  7 active torsions:
REMARK  status: ('A' for Active; 'I' for Inactive)
REMARK    1  A    between atoms: C_1  and  C_2 
REMARK    2  A    between atoms: C_11  and  C_25 
REMARK    3  A    between atoms: C_17  and  C_22 
REMARK    4  A    between atoms: C_22  and  C_24 
REMARK    5  A    between atoms: C_26  and  C_35 
REMARK    6  A    between atoms: C_27  and  O_34 
REMARK    7  A    between atoms: C_29  and  O_33 
ROOT
ATOM      1  C   LIG d   1      10.054   2.300  -3.957  0.00  0.00    -0.014 C 
ATOM      2  H   LIG d   1      10.502   1.533  -3.327  0.00  0.00     0.033 H 
ATOM      3  C   LIG d   1       8.532   2.259  -3.807  0.00  0.00    -0.044 C 
ATOM      4  C   LIG d   1       8.018   0.883  -4.233  0.00  0.00    -0.034 C 
ATOM      5  H   LIG d   1       8.461   0.113  -3.603  0.00  0.00     0.031 H 
ATOM      6  C   LIG d   1       8.386   0.623  -5.703  0.00  0.00    -0.030 C 
ATOM      7  H   LIG d   1       7.956   1.414  -6.319  0.00  0.00     0.031 H 
ATOM      8  C   LIG d   1       7.843  -0.715  -6.193  0.00  0.00    -0.049 C 
ATOM      9  C   LIG d   1       6.328  -0.828  -5.955  0.00  0.00    -0.046 C 
ATOM     10  C   LIG d   1       6.088  -0.636  -4.469  0.00  0.00    -0.016 C 
ATOM     11  C   LIG d   1       6.506   0.824  -4.126  0.00  0.00    -0.031 C 
ATOM     12  H   LIG d   1       6.049   1.526  -4.823  0.00  0.00     0.031 H 
ATOM     13  C   LIG d   1       5.931   0.989  -2.714  0.00  0.00    -0.046 C 
ATOM     14  C   LIG d   1       4.587   0.230  -2.793  0.00  0.00    -0.028 C 
ATOM     15  H   LIG d   1       4.598  -0.453  -1.944  0.00  0.00     0.031 H 
ATOM     16  C   LIG d   1       4.614  -0.658  -4.026  0.00  0.00     0.037 C 
ATOM     17  C   LIG d   1       3.778  -0.224  -5.187  0.00  0.00    -0.040 C 
ATOM     18  C   LIG d   1       2.467   0.420  -4.760  0.00  0.00    -0.052 C 
ATOM     19  C   LIG d   1       2.795   1.633  -3.880  0.00  0.00    -0.053 C 
ATOM     20  C   LIG d   1       3.403   1.115  -2.581  0.00  0.00    -0.049 C 
ATOM     21  C   LIG d   1       9.907   0.676  -5.852  0.00  0.00     0.000 C 
ATOM     22  C   LIG d   1      10.433   2.046  -5.417  0.00  0.00     0.077 C 
ATOM     23  C   LIG d   1      11.957   2.074  -5.560  0.00  0.00     0.003 C 
ATOM     24  C   LIG d   1      12.337   1.821  -7.020  0.00  0.00     0.058 C 
ATOM     25  H   LIG d   1      11.899   2.597  -7.649  0.00  0.00     0.059 H 
ATOM     26  C   LIG d   1      11.809   0.453  -7.456  0.00  0.00    -0.026 C 
ATOM     27  C   LIG d   1      10.286   0.425  -7.313  0.00  0.00    -0.042 C 
ATOM     28  H   LIG d   1       8.083   3.027  -4.437  0.00  0.00     0.027 H 
ATOM     29  H   LIG d   1       8.264   2.439  -2.765  0.00  0.00     0.027 H 
ATOM     30  H   LIG d   1       8.348  -1.520  -5.659  0.00  0.00     0.027 H 
ATOM     31  H   LIG d   1       8.044  -0.814  -7.260  0.00  0.00     0.027 H 
ATOM     32  H   LIG d   1       5.976  -1.813  -6.263  0.00  0.00     0.027 H 
ATOM     33  H   LIG d   1       5.805  -0.055  -6.517  0.00  0.00     0.027 H 
ATOM     34  H   LIG d   1       6.589   0.533  -1.974  0.00  0.00     0.027 H 
ATOM     35  H   LIG d   1       5.766   2.042  -2.486  0.00  0.00     0.027 H 
ATOM     36  H   LIG d   1       3.558  -1.088  -5.814  0.00  0.00     0.028 H 
ATOM     37  H   LIG d   1       4.349   0.498  -5.773  0.00  0.00     0.028 H 
ATOM     38  H   LIG d   1       1.874  -0.298  -4.191  0.00  0.00     0.027 H 
ATOM     39  H   LIG d   1       1.910   0.741  -5.639  0.00  0.00     0.027 H 
ATOM     40  H   LIG d   1       1.883   2.190  -3.665  0.00  0.00     0.026 H 
ATOM     41  H   LIG d   1       3.509   2.278  -4.392  0.00  0.00     0.026 H 
ATOM     42  H   LIG d   1       2.641   0.556  -2.037  0.00  0.00     0.027 H 
ATOM     43  H   LIG d   1       3.707   1.968  -1.975  0.00  0.00     0.027 H 
ATOM     44  H   LIG d   1      12.332   3.049  -5.250  0.00  0.00     0.032 H 
ATOM     45  H   LIG d   1      12.394   1.299  -4.931  0.00  0.00     0.032 H 
ATOM     46  H   LIG d   1      12.080   0.274  -8.496  0.00  0.00     0.029 H 
ATOM     47  H   LIG d   1      12.247  -0.322  -6.827  0.00  0.00     0.029 H 
ATOM     48  H   LIG d   1       9.848   1.201  -7.942  0.00  0.00     0.027 H 
ATOM     49  H   LIG d   1       9.909  -0.549  -7.624  0.00  0.00     0.027 H 
ENDROOT
BRANCH  16  50
ATOM     50  C   LIG d   1       4.219  -2.062  -3.649  0.00  0.00     0.137 C 
ATOM     51  O   LIG d   1       4.224  -2.935  -4.483  0.00  0.00    -0.297 OA
BRANCH  50  52
ATOM     52  C   LIG d   1       3.820  -2.377  -2.230  0.00  0.00    -0.005 C 
ATOM     53  H   LIG d   1       2.861  -2.657  -2.208  0.00  0.00     0.031 H 
ATOM     54  H   LIG d   1       4.443  -3.186  -1.849  0.00  0.00     0.031 H 
ATOM     55  H   LIG d   1       3.953  -1.491  -1.609  0.00  0.00     0.031 H 
ENDBRANCH  50  52
ENDBRANCH  16  50
BRANCH  10  56
ATOM     56  C   LIG d   1       6.920  -1.636  -3.662  0.00  0.00    -0.058 C 
ATOM     57  H   LIG d   1       7.631  -1.095  -3.037  0.00  0.00     0.024 H 
ATOM     58  H   LIG d   1       6.260  -2.230  -3.030  0.00  0.00     0.024 H 
ATOM     59  H   LIG d   1       7.460  -2.293  -4.343  0.00  0.00     0.024 H 
ENDBRANCH  10  56
BRANCH  21  60
ATOM     60  C   LIG d   1      10.525  -0.410  -4.971  0.00  0.00    -0.057 C 
ATOM     61  H   LIG d   1      11.375   0.002  -4.428  0.00  0.00     0.024 H 
ATOM     62  H   LIG d   1       9.779  -0.770  -4.262  0.00  0.00     0.024 H 
ATOM     63  H   LIG d   1      10.860  -1.238  -5.595  0.00  0.00     0.024 H 
ENDBRANCH  21  60
BRANCH   1  64
ATOM     64  C   LIG d   1      10.570   3.676  -3.530  0.00  0.00    -0.060 C 
ATOM     65  H   LIG d   1       9.993   4.031  -2.675  0.00  0.00     0.023 H 
ATOM     66  H   LIG d   1      11.622   3.600  -3.252  0.00  0.00     0.023 H 
ATOM     67  H   LIG d   1      10.462   4.378  -4.357  0.00  0.00     0.023 H 
ENDBRANCH   1  64
BRANCH  22  68
ATOM     68  O   LIG d   1       9.858   3.061  -6.243  0.00  0.00    -0.388 OA
ATOM     69  H   LIG d   1      10.413   3.320  -6.990  0.00  0.00     0.210 HD
ENDBRANCH  22  68
BRANCH  24  70
ATOM     70  O   LIG d   1      13.760   1.848  -7.153  0.00  0.00    -0.392 OA
ATOM     71  H   LIG d   1      14.208   2.373  -6.477  0.00  0.00     0.210 HD
ENDBRANCH  24  70
TORSDOF 7
ENDMDL
MODEL 2
REMARK VINA RESULT:      -6.6      4.140      6.990
REMARK  7 active torsions:
REMARK  status: ('A' for Active; 'I' for Inactive)
REMARK    1  A    between atoms: C_1  and  C_2 
REMARK    2  A    between atoms: C_11  and  C_25 
REMARK    3  A    between atoms: C_17  and  C_22 
REMARK    4  A    between atoms: C_22  and  C_24 
REMARK    5  A    between atoms: C_26  and  C_35 
REMARK    6  A    between atoms: C_27  and  O_34 
REMARK    7  A    between atoms: C_29  and  O_33 
ROOT
ATOM      1  C   LIG d   1       2.645  -0.798  -9.936  0.00  0.00    -0.014 C 
ATOM      2  H   LIG d   1       3.357  -0.045 -10.273  0.00  0.00     0.033 H 
ATOM      3  C   LIG d   1       2.549  -0.762  -8.409  0.00  0.00    -0.044 C 
ATOM      4  C   LIG d   1       3.924  -1.056  -7.808  0.00  0.00    -0.034 C 
ATOM      5  H   LIG d   1       4.639  -0.303  -8.139  0.00  0.00     0.031 H 
ATOM      6  C   LIG d   1       4.398  -2.449  -8.250  0.00  0.00    -0.030 C 
ATOM      7  H   LIG d   1       3.663  -3.189  -7.932  0.00  0.00     0.031 H 
ATOM      8  C   LIG d   1       5.742  -2.812  -7.627  0.00  0.00    -0.049 C 
ATOM      9  C   LIG d   1       5.706  -2.680  -6.096  0.00  0.00    -0.046 C 
ATOM     10  C   LIG d   1       5.306  -1.252  -5.774  0.00  0.00    -0.016 C 
ATOM     11  C   LIG d   1       3.851  -1.060  -6.292  0.00  0.00    -0.031 C 
ATOM     12  H   LIG d   1       3.211  -1.871  -5.946  0.00  0.00     0.031 H 
ATOM     13  C   LIG d   1       3.461   0.272  -5.641  0.00  0.00    -0.046 C 
ATOM     14  C   LIG d   1       4.118   0.183  -4.244  0.00  0.00    -0.028 C 
ATOM     15  H   LIG d   1       4.685   1.108  -4.139  0.00  0.00     0.031 H 
ATOM     16  C   LIG d   1       5.157  -0.926  -4.277  0.00  0.00     0.037 C 
ATOM     17  C   LIG d   1       4.812  -2.193  -3.562  0.00  0.00    -0.040 C 
ATOM     18  C   LIG d   1       4.019  -1.951  -2.286  0.00  0.00    -0.052 C 
ATOM     19  C   LIG d   1       2.732  -1.204  -2.658  0.00  0.00    -0.053 C 
ATOM     20  C   LIG d   1       3.124   0.192  -3.130  0.00  0.00    -0.049 C 
ATOM     21  C   LIG d   1       4.483  -2.485  -9.777  0.00  0.00     0.000 C 
ATOM     22  C   LIG d   1       3.114  -2.182 -10.389  0.00  0.00     0.077 C 
ATOM     23  C   LIG d   1       3.222  -2.208 -11.915  0.00  0.00     0.003 C 
ATOM     24  C   LIG d   1       3.690  -3.592 -12.370  0.00  0.00     0.058 C 
ATOM     25  H   LIG d   1       2.970  -4.343 -12.044  0.00  0.00     0.059 H 
ATOM     26  C   LIG d   1       5.057  -3.896 -11.756  0.00  0.00    -0.026 C 
ATOM     27  C   LIG d   1       4.949  -3.870 -10.230  0.00  0.00    -0.042 C 
ATOM     28  H   LIG d   1       1.836  -1.515  -8.072  0.00  0.00     0.027 H 
ATOM     29  H   LIG d   1       2.216   0.225  -8.088  0.00  0.00     0.027 H 
ATOM     30  H   LIG d   1       6.508  -2.146  -8.024  0.00  0.00     0.027 H 
ATOM     31  H   LIG d   1       5.993  -3.840  -7.891  0.00  0.00     0.027 H 
ATOM     32  H   LIG d   1       6.692  -2.892  -5.682  0.00  0.00     0.027 H 
ATOM     33  H   LIG d   1       4.973  -3.372  -5.681  0.00  0.00     0.027 H 
ATOM     34  H   LIG d   1       3.868   1.112  -6.205  0.00  0.00     0.027 H 
ATOM     35  H   LIG d   1       2.378   0.357  -5.552  0.00  0.00     0.027 H 
ATOM     36  H   LIG d   1       5.730  -2.725  -3.310  0.00  0.00     0.028 H 
ATOM     37  H   LIG d   1       4.218  -2.817  -4.231  0.00  0.00     0.028 H 
ATOM     38  H   LIG d   1       4.609  -1.346  -1.596  0.00  0.00     0.027 H 
ATOM     39  H   LIG d   1       3.771  -2.903  -1.819  0.00  0.00     0.027 H 
ATOM     40  H   LIG d   1       2.083  -1.130  -1.785  0.00  0.00     0.026 H 
ATOM     41  H   LIG d   1       2.216  -1.734  -3.458  0.00  0.00     0.026 H 
ATOM     42  H   LIG d   1       3.547   0.739  -2.287  0.00  0.00     0.027 H 
ATOM     43  H   LIG d   1       2.227   0.711  -3.465  0.00  0.00     0.027 H 
ATOM     44  H   LIG d   1       2.247  -1.991 -12.352  0.00  0.00     0.032 H 
ATOM     45  H   LIG d   1       3.942  -1.457 -12.241  0.00  0.00     0.032 H 
ATOM     46  H   LIG d   1       5.389  -4.883 -12.079  0.00  0.00     0.029 H 
ATOM     47  H   LIG d   1       5.777  -3.145 -12.081  0.00  0.00     0.029 H 
ATOM     48  H   LIG d   1       4.229  -4.621  -9.904  0.00  0.00     0.027 H 
ATOM     49  H   LIG d   1       5.923  -4.088  -9.792  0.00  0.00     0.027 H 
ENDROOT
BRANCH  16  50
ATOM     50  C   LIG d   1       6.466  -0.411  -3.738  0.00  0.00     0.137 C 
ATOM     51  O   LIG d   1       7.376  -1.177  -3.530  0.00  0.00    -0.297 OA
BRANCH  50  52
ATOM     52  C   LIG d   1       6.639   1.059  -3.458  0.00  0.00    -0.005 C 
ATOM     53  H   LIG d   1       6.227   1.590  -4.198  0.00  0.00     0.031 H 
ATOM     54  H   LIG d   1       6.151   1.310  -2.516  0.00  0.00     0.031 H 
ATOM     55  H   LIG d   1       7.702   1.294  -3.391  0.00  0.00     0.031 H 
ENDBRANCH  50  52
ENDBRANCH  16  50
BRANCH  10  56
ATOM     56  C   LIG d   1       6.255  -0.267  -6.460  0.00  0.00    -0.058 C 
ATOM     57  H   LIG d   1       5.917  -0.087  -7.480  0.00  0.00     0.024 H 
ATOM     58  H   LIG d   1       6.261   0.674  -5.909  0.00  0.00     0.024 H 
ATOM     59  H   LIG d   1       7.262  -0.684  -6.477  0.00  0.00     0.024 H 
ENDBRANCH  10  56
BRANCH  21  60
ATOM     60  C   LIG d   1       5.492  -1.432 -10.237  0.00  0.00    -0.057 C 
ATOM     61  H   LIG d   1       5.053  -0.440 -10.135  0.00  0.00     0.024 H 
ATOM     62  H   LIG d   1       6.391  -1.498  -9.625  0.00  0.00     0.024 H 
ATOM     63  H   LIG d   1       5.751  -1.608 -11.281  0.00  0.00     0.024 H 
ENDBRANCH  21  60
BRANCH   1  64
ATOM     64  C   LIG d   1       1.270  -0.504 -10.539  0.00  0.00    -0.060 C 
ATOM     65  H   LIG d   1       0.496  -0.944  -9.911  0.00  0.00     0.023 H 
ATOM     66  H   LIG d   1       1.122   0.575 -10.597  0.00  0.00     0.023 H 
ATOM     67  H   LIG d   1       1.213  -0.933 -11.540  0.00  0.00     0.023 H 
ENDBRANCH   1  64
BRANCH  22  68
ATOM     68  O   LIG d   1       2.172  -3.168  -9.961  0.00  0.00    -0.388 OA
ATOM     69  H   LIG d   1       1.833  -3.025  -9.068  0.00  0.00     0.210 HD
ENDBRANCH  22  68
BRANCH  24  70
ATOM     70  O   LIG d   1       3.791  -3.617 -13.795  0.00  0.00    -0.392 OA
ATOM     71  H   LIG d   1       4.146  -4.443 -14.150  0.00  0.00     0.210 HD
ENDBRANCH  24  70
TORSDOF 7
ENDMDL
MODEL 3
REMARK VINA RESULT:      -6.0      3.950      5.681
REMARK  7 active torsions:
REMARK  status: ('A' for Active; 'I' for Inactive)
REMARK    1  A    between atoms: C_1  and  C_2 
REMARK    2  A    between atoms: C_11  and  C_25 
REMARK    3  A    between atoms: C_17  and  C_22 
REMARK    4  A    between atoms: C_22  and  C_24 
REMARK    5  A    between atoms: C_26  and  C_35 
REMARK    6  A    between atoms: C_27  and  O_34 
REMARK    7  A    between atoms: C_29  and  O_33 
ROOT
ATOM      1  C   LIG d   1       6.095  -1.878  -3.989  0.00  0.00    -0.014 C 
ATOM      2  H   LIG d   1       5.451  -2.752  -3.896  0.00  0.00     0.033 H 
ATOM      3  C   LIG d   1       5.468  -0.886  -4.972  0.00  0.00    -0.044 C 
ATOM      4  C   LIG d   1       5.314  -1.556  -6.338  0.00  0.00    -0.034 C 
ATOM      5  H   LIG d   1       4.668  -2.428  -6.250  0.00  0.00     0.031 H 
ATOM      6  C   LIG d   1       6.692  -1.983  -6.866  0.00  0.00    -0.030 C 
ATOM      7  H   LIG d   1       7.335  -1.104  -6.927  0.00  0.00     0.031 H 
ATOM      8  C   LIG d   1       6.597  -2.604  -8.256  0.00  0.00    -0.049 C 
ATOM      9  C   LIG d   1       5.873  -1.671  -9.240  0.00  0.00    -0.046 C 
ATOM     10  C   LIG d   1       4.502  -1.379  -8.661  0.00  0.00    -0.016 C 
ATOM     11  C   LIG d   1       4.725  -0.582  -7.343  0.00  0.00    -0.031 C 
ATOM     12  H   LIG d   1       5.407   0.250  -7.510  0.00  0.00     0.031 H 
ATOM     13  C   LIG d   1       3.307  -0.085  -7.035  0.00  0.00    -0.046 C 
ATOM     14  C   LIG d   1       2.747   0.257  -8.435  0.00  0.00    -0.028 C 
ATOM     15  H   LIG d   1       1.790  -0.262  -8.491  0.00  0.00     0.031 H 
ATOM     16  C   LIG d   1       3.630  -0.408  -9.477  0.00  0.00     0.037 C 
ATOM     17  C   LIG d   1       4.541   0.485 -10.257  0.00  0.00    -0.040 C 
ATOM     18  C   LIG d   1       3.918   1.839 -10.562  0.00  0.00    -0.052 C 
ATOM     19  C   LIG d   1       3.558   2.510  -9.230  0.00  0.00    -0.053 C 
ATOM     20  C   LIG d   1       2.426   1.707  -8.596  0.00  0.00    -0.049 C 
ATOM     21  C   LIG d   1       7.321  -2.966  -5.877  0.00  0.00     0.000 C 
ATOM     22  C   LIG d   1       7.469  -2.310  -4.502  0.00  0.00     0.077 C 
ATOM     23  C   LIG d   1       8.086  -3.312  -3.524  0.00  0.00     0.003 C 
ATOM     24  C   LIG d   1       9.462  -3.743  -4.035  0.00  0.00     0.058 C 
ATOM     25  H   LIG d   1      10.109  -2.870  -4.116  0.00  0.00     0.059 H 
ATOM     26  C   LIG d   1       9.314  -4.397  -5.410  0.00  0.00    -0.026 C 
ATOM     27  C   LIG d   1       8.697  -3.395  -6.388  0.00  0.00    -0.042 C 
ATOM     28  H   LIG d   1       6.111  -0.011  -5.065  0.00  0.00     0.027 H 
ATOM     29  H   LIG d   1       4.487  -0.580  -4.605  0.00  0.00     0.027 H 
ATOM     30  H   LIG d   1       6.049  -3.544  -8.187  0.00  0.00     0.027 H 
ATOM     31  H   LIG d   1       7.602  -2.804  -8.627  0.00  0.00     0.027 H 
ATOM     32  H   LIG d   1       5.771  -2.161 -10.208  0.00  0.00     0.027 H 
ATOM     33  H   LIG d   1       6.433  -0.743  -9.351  0.00  0.00     0.027 H 
ATOM     34  H   LIG d   1       2.716  -0.871  -6.565  0.00  0.00     0.027 H 
ATOM     35  H   LIG d   1       3.338   0.804  -6.405  0.00  0.00     0.027 H 
ATOM     36  H   LIG d   1       4.803  -0.002 -11.196  0.00  0.00     0.028 H 
ATOM     37  H   LIG d   1       5.452   0.640  -9.677  0.00  0.00     0.028 H 
ATOM     38  H   LIG d   1       3.017   1.703 -11.161  0.00  0.00     0.027 H 
ATOM     39  H   LIG d   1       4.630   2.459 -11.105  0.00  0.00     0.027 H 
ATOM     40  H   LIG d   1       3.229   3.534  -9.409  0.00  0.00     0.026 H 
ATOM     41  H   LIG d   1       4.425   2.510  -8.570  0.00  0.00     0.026 H 
ATOM     42  H   LIG d   1       1.538   1.802  -9.222  0.00  0.00     0.027 H 
ATOM     43  H   LIG d   1       2.206   2.129  -7.616  0.00  0.00     0.027 H 
ATOM     44  H   LIG d   1       8.192  -2.845  -2.545  0.00  0.00     0.032 H 
ATOM     45  H   LIG d   1       7.439  -4.185  -3.443  0.00  0.00     0.032 H 
ATOM     46  H   LIG d   1      10.295  -4.704  -5.774  0.00  0.00     0.029 H 
ATOM     47  H   LIG d   1       8.666  -5.270  -5.329  0.00  0.00     0.029 H 
ATOM     48  H   LIG d   1       9.345  -2.521  -6.469  0.00  0.00     0.027 H 
ATOM     49  H   LIG d   1       8.593  -3.860  -7.368  0.00  0.00     0.027 H 
ENDROOT
BRANCH  16  50
ATOM     50  C   LIG d   1       2.775  -1.185 -10.445  0.00  0.00     0.137 C 
ATOM     51  O   LIG d   1       3.278  -1.704 -11.411  0.00  0.00    -0.297 OA
BRANCH  50  52
ATOM     52  C   LIG d   1       1.293  -1.314 -10.205  0.00  0.00    -0.005 C 
ATOM     53  H   LIG d   1       0.806  -1.232 -11.075  0.00  0.00     0.031 H 
ATOM     54  H   LIG d   1       1.081  -2.286  -9.760  0.00  0.00     0.031 H 
ATOM     55  H   LIG d   1       0.963  -0.524  -9.529  0.00  0.00     0.031 H 
ENDBRANCH  50  52
ENDBRANCH  16  50
BRANCH  10  56
ATOM     56  C   LIG d   1       3.754  -2.685  -8.379  0.00  0.00    -0.058 C 
ATOM     57  H   LIG d   1       3.637  -2.811  -7.303  0.00  0.00     0.024 H 
ATOM     58  H   LIG d   1       2.771  -2.648  -8.849  0.00  0.00     0.024 H 
ATOM     59  H   LIG d   1       4.320  -3.523  -8.785  0.00  0.00     0.024 H 
ENDBRANCH  10  56
BRANCH  21  60
ATOM     60  C   LIG d   1       6.415  -4.192  -5.760  0.00  0.00    -0.057 C 
ATOM     61  H   LIG d   1       6.164  -4.361  -4.714  0.00  0.00     0.024 H 
ATOM     62  H   LIG d   1       5.502  -4.024  -6.331  0.00  0.00     0.024 H 
ATOM     63  H   LIG d   1       6.933  -5.066  -6.155  0.00  0.00     0.024 H 
ENDBRANCH  21  60
BRANCH   1  64
ATOM     64  C   LIG d   1       6.248  -1.210  -2.622  0.00  0.00    -0.060 C 
ATOM     65  H   LIG d   1       7.296  -0.954  -2.458  0.00  0.00     0.023 H 
ATOM     66  H   LIG d   1       5.643  -0.304  -2.589  0.00  0.00     0.023 H 
ATOM     67  H   LIG d   1       5.917  -1.897  -1.842  0.00  0.00     0.023 H 
ENDBRANCH   1  64
BRANCH  22  68
ATOM     68  O   LIG d   1       8.319  -1.165  -4.610  0.00  0.00    -0.388 OA
ATOM     69  H   LIG d   1       9.232  -1.327  -4.340  0.00  0.00     0.210 HD
ENDBRANCH  22  68
BRANCH  24  70
ATOM     70  O   LIG d   1      10.038  -4.679  -3.122  0.00  0.00    -0.392 OA
ATOM     71  H   LIG d   1      10.539  -5.387  -3.548  0.00  0.00     0.210 HD
ENDBRANCH  24  70
TORSDOF 7
ENDMDL
MODEL 4
REMARK VINA RESULT:      -5.8      3.628      7.185
REMARK  7 active torsions:
REMARK  status: ('A' for Active; 'I' for Inactive)
REMARK    1  A    between atoms: C_1  and  C_2 
REMARK    2  A    between atoms: C_11  and  C_25 
REMARK    3  A    between atoms: C_17  and  C_22 
REMARK    4  A    between atoms: C_22  and  C_24 
REMARK    5  A    between atoms: C_26  and  C_35 
REMARK    6  A    between atoms: C_27  and  O_34 
REMARK    7  A    between atoms: C_29  and  O_33 
ROOT
ATOM      1  C   LIG d   1       5.572  -1.128  -3.361  0.00  0.00    -0.014 C 
ATOM      2  H   LIG d   1       6.228  -0.258  -3.349  0.00  0.00     0.033 H 
ATOM      3  C   LIG d   1       6.385  -2.384  -3.037  0.00  0.00    -0.044 C 
ATOM      4  C   LIG d   1       7.485  -2.559  -4.085  0.00  0.00    -0.034 C 
ATOM      5  H   LIG d   1       8.146  -1.693  -4.074  0.00  0.00     0.031 H 
ATOM      6  C   LIG d   1       6.856  -2.713  -5.478  0.00  0.00    -0.030 C 
ATOM      7  H   LIG d   1       6.181  -3.569  -5.468  0.00  0.00     0.031 H 
ATOM      8  C   LIG d   1       7.913  -2.950  -6.552  0.00  0.00    -0.049 C 
ATOM      9  C   LIG d   1       8.816  -4.143  -6.199  0.00  0.00    -0.046 C 
ATOM     10  C   LIG d   1       9.443  -3.851  -4.848  0.00  0.00    -0.016 C 
ATOM     11  C   LIG d   1       8.287  -3.818  -3.807  0.00  0.00    -0.031 C 
ATOM     12  H   LIG d   1       7.656  -4.700  -3.908  0.00  0.00     0.031 H 
ATOM     13  C   LIG d   1       9.060  -3.836  -2.483  0.00  0.00    -0.046 C 
ATOM     14  C   LIG d   1      10.234  -4.797  -2.777  0.00  0.00    -0.028 C 
ATOM     15  H   LIG d   1      11.128  -4.252  -2.476  0.00  0.00     0.031 H 
ATOM     16  C   LIG d   1      10.349  -4.960  -4.284  0.00  0.00     0.037 C 
ATOM     17  C   LIG d   1       9.893  -6.264  -4.857  0.00  0.00    -0.040 C 
ATOM     18  C   LIG d   1      10.208  -7.446  -3.952  0.00  0.00    -0.052 C 
ATOM     19  C   LIG d   1       9.520  -7.210  -2.601  0.00  0.00    -0.053 C 
ATOM     20  C   LIG d   1      10.209  -6.027  -1.929  0.00  0.00    -0.049 C 
ATOM     21  C   LIG d   1       6.036  -1.461  -5.795  0.00  0.00     0.000 C 
ATOM     22  C   LIG d   1       4.938  -1.270  -4.745  0.00  0.00     0.077 C 
ATOM     23  C   LIG d   1       4.139  -0.007  -5.071  0.00  0.00     0.003 C 
ATOM     24  C   LIG d   1       3.503  -0.148  -6.455  0.00  0.00     0.058 C 
ATOM     25  H   LIG d   1       2.836  -1.011  -6.462  0.00  0.00     0.059 H 
ATOM     26  C   LIG d   1       4.599  -0.341  -7.504  0.00  0.00    -0.026 C 
ATOM     27  C   LIG d   1       5.399  -1.605  -7.178  0.00  0.00    -0.042 C 
ATOM     28  H   LIG d   1       5.730  -3.255  -3.048  0.00  0.00     0.027 H 
ATOM     29  H   LIG d   1       6.837  -2.281  -2.050  0.00  0.00     0.027 H 
ATOM     30  H   LIG d   1       8.527  -2.055  -6.649  0.00  0.00     0.027 H 
ATOM     31  H   LIG d   1       7.418  -3.147  -7.503  0.00  0.00     0.027 H 
ATOM     32  H   LIG d   1       9.594  -4.256  -6.953  0.00  0.00     0.027 H 
ATOM     33  H   LIG d   1       8.221  -5.055  -6.140  0.00  0.00     0.027 H 
ATOM     34  H   LIG d   1       9.429  -2.840  -2.237  0.00  0.00     0.027 H 
ATOM     35  H   LIG d   1       8.436  -4.225  -1.677  0.00  0.00     0.027 H 
ATOM     36  H   LIG d   1      10.375  -6.420  -5.821  0.00  0.00     0.028 H 
ATOM     37  H   LIG d   1       8.814  -6.215  -5.009  0.00  0.00     0.028 H 
ATOM     38  H   LIG d   1      11.286  -7.522  -3.808  0.00  0.00     0.027 H 
ATOM     39  H   LIG d   1       9.832  -8.364  -4.401  0.00  0.00     0.027 H 
ATOM     40  H   LIG d   1       9.619  -8.098  -1.976  0.00  0.00     0.026 H 
ATOM     41  H   LIG d   1       8.465  -6.984  -2.758  0.00  0.00     0.026 H 
ATOM     42  H   LIG d   1      11.235  -6.309  -1.691  0.00  0.00     0.027 H 
ATOM     43  H   LIG d   1       9.686  -5.801  -1.000  0.00  0.00     0.027 H 
ATOM     44  H   LIG d   1       3.357   0.130  -4.323  0.00  0.00     0.032 H 
ATOM     45  H   LIG d   1       4.805   0.856  -5.064  0.00  0.00     0.032 H 
ATOM     46  H   LIG d   1       4.145  -0.443  -8.489  0.00  0.00     0.029 H 
ATOM     47  H   LIG d   1       5.265   0.521  -7.496  0.00  0.00     0.029 H 
ATOM     48  H   LIG d   1       4.732  -2.468  -7.185  0.00  0.00     0.027 H 
ATOM     49  H   LIG d   1       6.180  -1.744  -7.926  0.00  0.00     0.027 H 
ENDROOT
BRANCH  16  50
ATOM     50  C   LIG d   1      11.773  -4.719  -4.713  0.00  0.00     0.137 C 
ATOM     51  O   LIG d   1      12.109  -4.954  -5.848  0.00  0.00    -0.297 OA
BRANCH  50  52
ATOM     52  C   LIG d   1      12.777  -4.186  -3.724  0.00  0.00    -0.005 C 
ATOM     53  H   LIG d   1      13.220  -4.949  -3.253  0.00  0.00     0.031 H 
ATOM     54  H   LIG d   1      13.530  -3.599  -4.252  0.00  0.00     0.031 H 
ATOM     55  H   LIG d   1      12.270  -3.555  -2.994  0.00  0.00     0.031 H 
ENDBRANCH  50  52
ENDBRANCH  16  50
BRANCH  10  56
ATOM     56  C   LIG d   1      10.175  -2.507  -4.882  0.00  0.00    -0.058 C 
ATOM     57  H   LIG d   1      11.175  -2.629  -4.465  0.00  0.00     0.024 H 
ATOM     58  H   LIG d   1      10.251  -2.161  -5.913  0.00  0.00     0.024 H 
ATOM     59  H   LIG d   1       9.622  -1.777  -4.293  0.00  0.00     0.024 H 
ENDBRANCH  10  56
BRANCH  21  60
ATOM     60  C   LIG d   1       6.967  -0.249  -5.785  0.00  0.00    -0.057 C 
ATOM     61  H   LIG d   1       6.427   0.628  -6.140  0.00  0.00     0.024 H 
ATOM     62  H   LIG d   1       7.322  -0.072  -4.769  0.00  0.00     0.024 H 
ATOM     63  H   LIG d   1       7.819  -0.439  -6.438  0.00  0.00     0.024 H 
ENDBRANCH  21  60
BRANCH   1  64
ATOM     64  C   LIG d   1       4.472  -0.950  -2.313  0.00  0.00    -0.060 C 
ATOM     65  H   LIG d   1       4.169   0.097  -2.278  0.00  0.00     0.023 H 
ATOM     66  H   LIG d   1       3.614  -1.568  -2.578  0.00  0.00     0.023 H 
ATOM     67  H   LIG d   1       4.849  -1.252  -1.335  0.00  0.00     0.023 H 
ENDBRANCH   1  64
BRANCH  22  68
ATOM     68  O   LIG d   1       4.066  -2.402  -4.756  0.00  0.00    -0.388 OA
ATOM     69  H   LIG d   1       3.910  -2.769  -5.636  0.00  0.00     0.210 HD
ENDBRANCH  22  68
BRANCH  24  70
ATOM     70  O   LIG d   1       2.756   1.032  -6.759  0.00  0.00    -0.392 OA
ATOM     71  H   LIG d   1       2.806   1.716  -6.077  0.00  0.00     0.210 HD
ENDBRANCH  24  70
TORSDOF 7
ENDMDL
MODEL 5
REMARK VINA RESULT:      -5.7      2.760      4.159
REMARK  7 active torsions:
REMARK  status: ('A' for Active; 'I' for Inactive)
REMARK    1  A    between atoms: C_1  and  C_2 
REMARK    2  A    between atoms: C_11  and  C_25 
REMARK    3  A    between atoms: C_17  and  C_22 
REMARK    4  A    between atoms: C_22  and  C_24 
REMARK    5  A    between atoms: C_26  and  C_35 
REMARK    6  A    between atoms: C_27  and  O_34 
REMARK    7  A    between atoms: C_29  and  O_33 
ROOT
ATOM      1  C   LIG d   1       9.525  -4.417  -4.370  0.00  0.00    -0.014 C 
ATOM      2  H   LIG d   1       9.129  -4.917  -5.253  0.00  0.00     0.033 H 
ATOM      3  C   LIG d   1       8.406  -3.631  -3.683  0.00  0.00    -0.044 C 
ATOM      4  C   LIG d   1       7.848  -2.589  -4.655  0.00  0.00    -0.034 C 
ATOM      5  H   LIG d   1       7.447  -3.086  -5.537  0.00  0.00     0.031 H 
ATOM      6  C   LIG d   1       8.963  -1.617  -5.070  0.00  0.00    -0.030 C 
ATOM      7  H   LIG d   1       9.371  -1.145  -4.176  0.00  0.00     0.031 H 
ATOM      8  C   LIG d   1       8.442  -0.522  -5.995  0.00  0.00    -0.049 C 
ATOM      9  C   LIG d   1       7.244   0.215  -5.374  0.00  0.00    -0.046 C 
ATOM     10  C   LIG d   1       6.178  -0.824  -5.077  0.00  0.00    -0.016 C 
ATOM     11  C   LIG d   1       6.758  -1.772  -3.988  0.00  0.00    -0.031 C 
ATOM     12  H   LIG d   1       7.168  -1.196  -3.159  0.00  0.00     0.031 H 
ATOM     13  C   LIG d   1       5.510  -2.552  -3.557  0.00  0.00    -0.046 C 
ATOM     14  C   LIG d   1       4.399  -1.477  -3.589  0.00  0.00    -0.028 C 
ATOM     15  H   LIG d   1       3.600  -1.914  -4.188  0.00  0.00     0.031 H 
ATOM     16  C   LIG d   1       4.906  -0.293  -4.394  0.00  0.00     0.037 C 
ATOM     17  C   LIG d   1       5.274   0.936  -3.625  0.00  0.00    -0.040 C 
ATOM     18  C   LIG d   1       4.360   1.180  -2.433  0.00  0.00    -0.052 C 
ATOM     19  C   LIG d   1       4.439  -0.045  -1.513  0.00  0.00    -0.053 C 
ATOM     20  C   LIG d   1       3.798  -1.219  -2.246  0.00  0.00    -0.049 C 
ATOM     21  C   LIG d   1      10.086  -2.406  -5.747  0.00  0.00     0.000 C 
ATOM     22  C   LIG d   1      10.643  -3.459  -4.787  0.00  0.00     0.077 C 
ATOM     23  C   LIG d   1      11.754  -4.247  -5.486  0.00  0.00     0.003 C 
ATOM     24  C   LIG d   1      12.873  -3.291  -5.902  0.00  0.00     0.058 C 
ATOM     25  H   LIG d   1      13.279  -2.800  -5.017  0.00  0.00     0.059 H 
ATOM     26  C   LIG d   1      12.315  -2.237  -6.859  0.00  0.00    -0.026 C 
ATOM     27  C   LIG d   1      11.205  -1.450  -6.160  0.00  0.00    -0.042 C 
ATOM     28  H   LIG d   1       8.802  -3.130  -2.800  0.00  0.00     0.027 H 
ATOM     29  H   LIG d   1       7.609  -4.315  -3.388  0.00  0.00     0.027 H 
ATOM     30  H   LIG d   1       8.133  -0.972  -6.938  0.00  0.00     0.027 H 
ATOM     31  H   LIG d   1       9.241   0.194  -6.187  0.00  0.00     0.027 H 
ATOM     32  H   LIG d   1       6.857   0.953  -6.076  0.00  0.00     0.027 H 
ATOM     33  H   LIG d   1       7.549   0.706  -4.450  0.00  0.00     0.027 H 
ATOM     34  H   LIG d   1       5.292  -3.353  -4.265  0.00  0.00     0.027 H 
ATOM     35  H   LIG d   1       5.632  -2.950  -2.550  0.00  0.00     0.027 H 
ATOM     36  H   LIG d   1       5.228   1.801  -4.287  0.00  0.00     0.028 H 
ATOM     37  H   LIG d   1       6.298   0.824  -3.266  0.00  0.00     0.028 H 
ATOM     38  H   LIG d   1       3.335   1.316  -2.778  0.00  0.00     0.027 H 
ATOM     39  H   LIG d   1       4.687   2.068  -1.894  0.00  0.00     0.027 H 
ATOM     40  H   LIG d   1       3.897   0.153  -0.588  0.00  0.00     0.026 H 
ATOM     41  H   LIG d   1       5.481  -0.273  -1.289  0.00  0.00     0.026 H 
ATOM     42  H   LIG d   1       2.734  -1.014  -2.371  0.00  0.00     0.027 H 
ATOM     43  H   LIG d   1       3.909  -2.114  -1.635  0.00  0.00     0.027 H 
ATOM     44  H   LIG d   1      12.151  -4.998  -4.803  0.00  0.00     0.032 H 
ATOM     45  H   LIG d   1      11.348  -4.738  -6.370  0.00  0.00     0.032 H 
ATOM     46  H   LIG d   1      13.113  -1.556  -7.154  0.00  0.00     0.029 H 
ATOM     47  H   LIG d   1      11.910  -2.728  -7.744  0.00  0.00     0.029 H 
ATOM     48  H   LIG d   1      11.610  -0.958  -5.275  0.00  0.00     0.027 H 
ATOM     49  H   LIG d   1      10.808  -0.697  -6.842  0.00  0.00     0.027 H 
ENDROOT
BRANCH  16  50
ATOM     50  C   LIG d   1       3.888   0.083  -5.439  0.00  0.00     0.137 C 
ATOM     51  O   LIG d   1       4.250   0.501  -6.512  0.00  0.00    -0.297 OA
BRANCH  50  52
ATOM     52  C   LIG d   1       2.417  -0.064  -5.146  0.00  0.00    -0.005 C 
ATOM     53  H   LIG d   1       1.888   0.417  -5.845  0.00  0.00     0.031 H 
ATOM     54  H   LIG d   1       2.150  -1.120  -5.150  0.00  0.00     0.031 H 
ATOM     55  H   LIG d   1       2.197   0.363  -4.167  0.00  0.00     0.031 H 
ENDBRANCH  50  52
ENDBRANCH  16  50
BRANCH  10  56
ATOM     56  C   LIG d   1       5.834  -1.610  -6.345  0.00  0.00    -0.058 C 
ATOM     57  H   LIG d   1       6.741  -1.774  -6.927  0.00  0.00     0.024 H 
ATOM     58  H   LIG d   1       5.400  -2.571  -6.069  0.00  0.00     0.024 H 
ATOM     59  H   LIG d   1       5.117  -1.044  -6.940  0.00  0.00     0.024 H 
ENDBRANCH  10  56
BRANCH  21  60
ATOM     60  C   LIG d   1       9.520  -3.097  -6.988  0.00  0.00    -0.057 C 
ATOM     61  H   LIG d   1      10.175  -3.918  -7.278  0.00  0.00     0.024 H 
ATOM     62  H   LIG d   1       8.526  -3.485  -6.767  0.00  0.00     0.024 H 
ATOM     63  H   LIG d   1       9.454  -2.379  -7.806  0.00  0.00     0.024 H 
ENDBRANCH  21  60
BRANCH   1  64
ATOM     64  C   LIG d   1      10.083  -5.460  -3.401  0.00  0.00    -0.060 C 
ATOM     65  H   LIG d   1      10.089  -5.050  -2.390  0.00  0.00     0.023 H 
ATOM     66  H   LIG d   1       9.458  -6.352  -3.427  0.00  0.00     0.023 H 
ATOM     67  H   LIG d   1      11.101  -5.720  -3.692  0.00  0.00     0.023 H 
ENDBRANCH   1  64
BRANCH  22  68
ATOM     68  O   LIG d   1      11.175  -2.814  -3.627  0.00  0.00    -0.388 OA
ATOM     69  H   LIG d   1      11.066  -1.854  -3.628  0.00  0.00     0.210 HD
ENDBRANCH  22  68
BRANCH  24  70
ATOM     70  O   LIG d   1      13.910  -4.027  -6.554  0.00  0.00    -0.392 OA
ATOM     71  H   LIG d   1      14.716  -3.517  -6.709  0.00  0.00     0.210 HD
ENDBRANCH  24  70
TORSDOF 7
ENDMDL
MODEL 6
REMARK VINA RESULT:      -5.7      4.225      7.215
REMARK  7 active torsions:
REMARK  status: ('A' for Active; 'I' for Inactive)
REMARK    1  A    between atoms: C_1  and  C_2 
REMARK    2  A    between atoms: C_11  and  C_25 
REMARK    3  A    between atoms: C_17  and  C_22 
REMARK    4  A    between atoms: C_22  and  C_24 
REMARK    5  A    between atoms: C_26  and  C_35 
REMARK    6  A    between atoms: C_27  and  O_34 
REMARK    7  A    between atoms: C_29  and  O_33 
ROOT
ATOM      1  C   LIG d   1       6.863  -0.555  -5.367  0.00  0.00    -0.014 C 
ATOM      2  H   LIG d   1       6.109  -0.113  -6.016  0.00  0.00     0.033 H 
ATOM      3  C   LIG d   1       7.336  -1.882  -5.964  0.00  0.00    -0.044 C 
ATOM      4  C   LIG d   1       6.145  -2.835  -6.086  0.00  0.00    -0.034 C 
ATOM      5  H   LIG d   1       5.390  -2.398  -6.739  0.00  0.00     0.031 H 
ATOM      6  C   LIG d   1       5.542  -3.095  -4.697  0.00  0.00    -0.030 C 
ATOM      7  H   LIG d   1       6.315  -3.510  -4.050  0.00  0.00     0.031 H 
ATOM      8  C   LIG d   1       4.386  -4.087  -4.759  0.00  0.00    -0.049 C 
ATOM      9  C   LIG d   1       4.804  -5.393  -5.454  0.00  0.00    -0.046 C 
ATOM     10  C   LIG d   1       5.306  -5.029  -6.839  0.00  0.00    -0.016 C 
ATOM     11  C   LIG d   1       6.591  -4.173  -6.646  0.00  0.00    -0.031 C 
ATOM     12  H   LIG d   1       7.277  -4.663  -5.955  0.00  0.00     0.031 H 
ATOM     13  C   LIG d   1       7.162  -4.143  -8.068  0.00  0.00    -0.046 C 
ATOM     14  C   LIG d   1       6.870  -5.568  -8.592  0.00  0.00    -0.028 C 
ATOM     15  H   LIG d   1       6.370  -5.420  -9.549  0.00  0.00     0.031 H 
ATOM     16  C   LIG d   1       5.829  -6.203  -7.685  0.00  0.00     0.037 C 
ATOM     17  C   LIG d   1       6.309  -7.267  -6.751  0.00  0.00    -0.040 C 
ATOM     18  C   LIG d   1       7.398  -8.137  -7.360  0.00  0.00    -0.052 C 
ATOM     19  C   LIG d   1       8.572  -7.229  -7.751  0.00  0.00    -0.053 C 
ATOM     20  C   LIG d   1       8.109  -6.342  -8.902  0.00  0.00    -0.049 C 
ATOM     21  C   LIG d   1       5.081  -1.765  -4.098  0.00  0.00     0.000 C 
ATOM     22  C   LIG d   1       6.263  -0.800  -3.982  0.00  0.00     0.077 C 
ATOM     23  C   LIG d   1       5.779   0.528  -3.394  0.00  0.00     0.003 C 
ATOM     24  C   LIG d   1       5.181   0.285  -2.008  0.00  0.00     0.058 C 
ATOM     25  H   LIG d   1       5.940  -0.146  -1.355  0.00  0.00     0.059 H 
ATOM     26  C   LIG d   1       4.000  -0.681  -2.124  0.00  0.00    -0.026 C 
ATOM     27  C   LIG d   1       4.484  -2.009  -2.711  0.00  0.00    -0.042 C 
ATOM     28  H   LIG d   1       8.091  -2.325  -5.315  0.00  0.00     0.027 H 
ATOM     29  H   LIG d   1       7.762  -1.706  -6.952  0.00  0.00     0.027 H 
ATOM     30  H   LIG d   1       3.562  -3.637  -5.313  0.00  0.00     0.027 H 
ATOM     31  H   LIG d   1       4.053  -4.312  -3.747  0.00  0.00     0.027 H 
ATOM     32  H   LIG d   1       3.946  -6.061  -5.534  0.00  0.00     0.027 H 
ATOM     33  H   LIG d   1       5.599  -5.877  -4.888  0.00  0.00     0.027 H 
ATOM     34  H   LIG d   1       6.649  -3.396  -8.675  0.00  0.00     0.027 H 
ATOM     35  H   LIG d   1       8.236  -3.952  -8.049  0.00  0.00     0.027 H 
ATOM     36  H   LIG d   1       5.469  -7.902  -6.467  0.00  0.00     0.028 H 
ATOM     37  H   LIG d   1       6.703  -6.787  -5.854  0.00  0.00     0.028 H 
ATOM     38  H   LIG d   1       7.013  -8.643  -8.246  0.00  0.00     0.027 H 
ATOM     39  H   LIG d   1       7.731  -8.876  -6.631  0.00  0.00     0.027 H 
ATOM     40  H   LIG d   1       9.418  -7.837  -8.070  0.00  0.00     0.026 H 
ATOM     41  H   LIG d   1       8.860  -6.612  -6.900  0.00  0.00     0.026 H 
ATOM     42  H   LIG d   1       7.921  -6.970  -9.773  0.00  0.00     0.027 H 
ATOM     43  H   LIG d   1       8.908  -5.642  -9.145  0.00  0.00     0.027 H 
ATOM     44  H   LIG d   1       6.621   1.216  -3.312  0.00  0.00     0.032 H 
ATOM     45  H   LIG d   1       5.020   0.958  -4.047  0.00  0.00     0.032 H 
ATOM     46  H   LIG d   1       3.575  -0.855  -1.135  0.00  0.00     0.029 H 
ATOM     47  H   LIG d   1       3.241  -0.251  -2.777  0.00  0.00     0.029 H 
ATOM     48  H   LIG d   1       5.244  -2.440  -2.058  0.00  0.00     0.027 H 
ATOM     49  H   LIG d   1       3.644  -2.698  -2.793  0.00  0.00     0.027 H 
ENDROOT
BRANCH  16  50
ATOM     50  C   LIG d   1       4.707  -6.767  -8.519  0.00  0.00     0.137 C 
ATOM     51  O   LIG d   1       3.833  -7.414  -7.995  0.00  0.00    -0.297 OA
BRANCH  50  52
ATOM     52  C   LIG d   1       4.677  -6.522 -10.005  0.00  0.00    -0.005 C 
ATOM     53  H   LIG d   1       4.372  -5.587 -10.183  0.00  0.00     0.031 H 
ATOM     54  H   LIG d   1       5.676  -6.664 -10.417  0.00  0.00     0.031 H 
ATOM     55  H   LIG d   1       3.987  -7.224 -10.475  0.00  0.00     0.031 H 
ENDBRANCH  50  52
ENDBRANCH  16  50
BRANCH  10  56
ATOM     56  C   LIG d   1       4.241  -4.235  -7.599  0.00  0.00    -0.058 C 
ATOM     57  H   LIG d   1       4.722  -3.612  -8.352  0.00  0.00     0.024 H 
ATOM     58  H   LIG d   1       3.552  -4.925  -8.085  0.00  0.00     0.024 H 
ATOM     59  H   LIG d   1       3.691  -3.604  -6.901  0.00  0.00     0.024 H 
ENDBRANCH  10  56
BRANCH  21  60
ATOM     60  C   LIG d   1       4.016  -1.158  -5.012  0.00  0.00    -0.057 C 
ATOM     61  H   LIG d   1       3.088  -1.033  -4.456  0.00  0.00     0.024 H 
ATOM     62  H   LIG d   1       4.358  -0.188  -5.374  0.00  0.00     0.024 H 
ATOM     63  H   LIG d   1       3.845  -1.820  -5.861  0.00  0.00     0.024 H 
ENDBRANCH  21  60
BRANCH   1  64
ATOM     64  C   LIG d   1       8.053   0.400  -5.245  0.00  0.00    -0.060 C 
ATOM     65  H   LIG d   1       8.941  -0.070  -5.670  0.00  0.00     0.023 H 
ATOM     66  H   LIG d   1       7.836   1.322  -5.785  0.00  0.00     0.023 H 
ATOM     67  H   LIG d   1       8.230   0.627  -4.194  0.00  0.00     0.023 H 
ENDBRANCH   1  64
BRANCH  22  68
ATOM     68  O   LIG d   1       7.258  -1.365  -3.125  0.00  0.00    -0.388 OA
ATOM     69  H   LIG d   1       6.899  -1.920  -2.419  0.00  0.00     0.210 HD
ENDBRANCH  22  68
BRANCH  24  70
ATOM     70  O   LIG d   1       4.729   1.525  -1.460  0.00  0.00    -0.392 OA
ATOM     71  H   LIG d   1       3.785   1.542  -1.251  0.00  0.00     0.210 HD
ENDBRANCH  24  70
TORSDOF 7
ENDMDL
MODEL 7
REMARK VINA RESULT:      -5.6      7.926     10.479
REMARK  7 active torsions:
REMARK  status: ('A' for Active; 'I' for Inactive)
REMARK    1  A    between atoms: C_1  and  C_2 
REMARK    2  A    between atoms: C_11  and  C_25 
REMARK    3  A    between atoms: C_17  and  C_22 
REMARK    4  A    between atoms: C_22  and  C_24 
REMARK    5  A    between atoms: C_26  and  C_35 
REMARK    6  A    between atoms: C_27  and  O_34 
REMARK    7  A    between atoms: C_29  and  O_33 
ROOT
ATOM      1  C   LIG d   1       9.939   9.433  -1.128  0.00  0.00    -0.014 C 
ATOM      2  H   LIG d   1       8.944   8.995  -1.196  0.00  0.00     0.033 H 
ATOM      3  C   LIG d   1      10.307  10.075  -2.468  0.00  0.00    -0.044 C 
ATOM      4  C   LIG d   1      10.293   9.006  -3.562  0.00  0.00    -0.034 C 
ATOM      5  H   LIG d   1       9.298   8.568  -3.636  0.00  0.00     0.031 H 
ATOM      6  C   LIG d   1      11.318   7.910  -3.231  0.00  0.00    -0.030 C 
ATOM      7  H   LIG d   1      12.304   8.366  -3.137  0.00  0.00     0.031 H 
ATOM      8  C   LIG d   1      11.383   6.849  -4.324  0.00  0.00    -0.049 C 
ATOM      9  C   LIG d   1      11.645   7.478  -5.703  0.00  0.00    -0.046 C 
ATOM     10  C   LIG d   1      10.536   8.481  -5.960  0.00  0.00    -0.016 C 
ATOM     11  C   LIG d   1      10.688   9.608  -4.897  0.00  0.00    -0.031 C 
ATOM     12  H   LIG d   1      11.716   9.966  -4.863  0.00  0.00     0.031 H 
ATOM     13  C   LIG d   1       9.743  10.684  -5.447  0.00  0.00    -0.046 C 
ATOM     14  C   LIG d   1       9.959  10.590  -6.975  0.00  0.00    -0.028 C 
ATOM     15  H   LIG d   1       8.959  10.500  -7.397  0.00  0.00     0.031 H 
ATOM     16  C   LIG d   1      10.646   9.268  -7.278  0.00  0.00     0.037 C 
ATOM     17  C   LIG d   1      12.091   9.332  -7.657  0.00  0.00    -0.040 C 
ATOM     18  C   LIG d   1      12.425  10.556  -8.497  0.00  0.00    -0.052 C 
ATOM     19  C   LIG d   1      12.051  11.805  -7.690  0.00  0.00    -0.053 C 
ATOM     20  C   LIG d   1      10.532  11.838  -7.562  0.00  0.00    -0.049 C 
ATOM     21  C   LIG d   1      10.954   7.277  -1.886  0.00  0.00     0.000 C 
ATOM     22  C   LIG d   1      10.954   8.341  -0.786  0.00  0.00     0.077 C 
ATOM     23  C   LIG d   1      10.575   7.693   0.548  0.00  0.00     0.003 C 
ATOM     24  C   LIG d   1      11.590   6.602   0.892  0.00  0.00     0.058 C 
ATOM     25  H   LIG d   1      12.583   7.042   0.973  0.00  0.00     0.059 H 
ATOM     26  C   LIG d   1      11.591   5.540  -0.209  0.00  0.00    -0.026 C 
ATOM     27  C   LIG d   1      11.971   6.188  -1.542  0.00  0.00    -0.042 C 
ATOM     28  H   LIG d   1      11.302  10.513  -2.400  0.00  0.00     0.027 H 
ATOM     29  H   LIG d   1       9.582  10.852  -2.711  0.00  0.00     0.027 H 
ATOM     30  H   LIG d   1      10.436   6.310  -4.353  0.00  0.00     0.027 H 
ATOM     31  H   LIG d   1      12.185   6.147  -4.094  0.00  0.00     0.027 H 
ATOM     32  H   LIG d   1      11.632   6.705  -6.472  0.00  0.00     0.027 H 
ATOM     33  H   LIG d   1      12.610   7.985  -5.702  0.00  0.00     0.027 H 
ATOM     34  H   LIG d   1       8.708  10.458  -5.189  0.00  0.00     0.027 H 
ATOM     35  H   LIG d   1      10.026  11.670  -5.079  0.00  0.00     0.027 H 
ATOM     36  H   LIG d   1      12.354   8.436  -8.220  0.00  0.00     0.028 H 
ATOM     37  H   LIG d   1      12.687   9.359  -6.744  0.00  0.00     0.028 H 
ATOM     38  H   LIG d   1      11.853  10.532  -9.425  0.00  0.00     0.027 H 
ATOM     39  H   LIG d   1      13.491  10.568  -8.723  0.00  0.00     0.027 H 
ATOM     40  H   LIG d   1      12.397  12.699  -8.210  0.00  0.00     0.026 H 
ATOM     41  H   LIG d   1      12.504  11.755  -6.700  0.00  0.00     0.026 H 
ATOM     42  H   LIG d   1      10.101  11.989  -8.553  0.00  0.00     0.027 H 
ATOM     43  H   LIG d   1      10.253  12.682  -6.931  0.00  0.00     0.027 H 
ATOM     44  H   LIG d   1      10.574   8.450   1.332  0.00  0.00     0.032 H 
ATOM     45  H   LIG d   1       9.581   7.252   0.467  0.00  0.00     0.032 H 
ATOM     46  H   LIG d   1      12.316   4.763   0.036  0.00  0.00     0.029 H 
ATOM     47  H   LIG d   1      10.598   5.099  -0.290  0.00  0.00     0.029 H 
ATOM     48  H   LIG d   1      12.965   6.629  -1.461  0.00  0.00     0.027 H 
ATOM     49  H   LIG d   1      11.973   5.431  -2.327  0.00  0.00     0.027 H 
ENDROOT
BRANCH  16  50
ATOM     50  C   LIG d   1       9.895   8.544  -8.365  0.00  0.00     0.137 C 
ATOM     51  O   LIG d   1       8.793   8.915  -8.687  0.00  0.00    -0.297 OA
BRANCH  50  52
ATOM     52  C   LIG d   1      10.522   7.358  -9.051  0.00  0.00    -0.005 C 
ATOM     53  H   LIG d   1       9.824   6.661  -9.216  0.00  0.00     0.031 H 
ATOM     54  H   LIG d   1      10.951   7.673 -10.002  0.00  0.00     0.031 H 
ATOM     55  H   LIG d   1      11.306   6.943  -8.417  0.00  0.00     0.031 H 
ENDBRANCH  50  52
ENDBRANCH  16  50
BRANCH  10  56
ATOM     56  C   LIG d   1       9.168   7.806  -5.835  0.00  0.00    -0.058 C 
ATOM     57  H   LIG d   1       9.293   6.724  -5.871  0.00  0.00     0.024 H 
ATOM     58  H   LIG d   1       8.710   8.087  -4.887  0.00  0.00     0.024 H 
ATOM     59  H   LIG d   1       8.529   8.126  -6.657  0.00  0.00     0.024 H 
ENDBRANCH  10  56
BRANCH  21  60
ATOM     60  C   LIG d   1       9.560   6.658  -1.996  0.00  0.00    -0.057 C 
ATOM     61  H   LIG d   1       9.648   5.617  -2.305  0.00  0.00     0.024 H 
ATOM     62  H   LIG d   1       9.062   6.711  -1.028  0.00  0.00     0.024 H 
ATOM     63  H   LIG d   1       8.976   7.208  -2.734  0.00  0.00     0.024 H 
ENDBRANCH  21  60
BRANCH   1  64
ATOM     64  C   LIG d   1       9.952  10.501  -0.032  0.00  0.00    -0.060 C 
ATOM     65  H   LIG d   1       9.001  11.035  -0.034  0.00  0.00     0.023 H 
ATOM     66  H   LIG d   1      10.099  10.025   0.937  0.00  0.00     0.023 H 
ATOM     67  H   LIG d   1      10.763  11.204  -0.220  0.00  0.00     0.023 H 
ENDBRANCH   1  64
BRANCH  22  68
ATOM     68  O   LIG d   1      12.258   8.918  -0.680  0.00  0.00    -0.388 OA
ATOM     69  H   LIG d   1      12.420   9.638  -1.305  0.00  0.00     0.210 HD
ENDBRANCH  22  68
BRANCH  24  70
ATOM     70  O   LIG d   1      11.235   5.996   2.137  0.00  0.00    -0.392 OA
ATOM     71  H   LIG d   1      11.891   5.371   2.471  0.00  0.00     0.210 HD
ENDBRANCH  24  70
TORSDOF 7
ENDMDL
MODEL 8
REMARK VINA RESULT:      -5.5      5.796      9.498
REMARK  7 active torsions:
REMARK  status: ('A' for Active; 'I' for Inactive)
REMARK    1  A    between atoms: C_1  and  C_2 
REMARK    2  A    between atoms: C_11  and  C_25 
REMARK    3  A    between atoms: C_17  and  C_22 
REMARK    4  A    between atoms: C_22  and  C_24 
REMARK    5  A    between atoms: C_26  and  C_35 
REMARK    6  A    between atoms: C_27  and  O_34 
REMARK    7  A    between atoms: C_29  and  O_33 
ROOT
ATOM      1  C   LIG d   1      10.522   9.848  -1.227  0.00  0.00    -0.014 C 
ATOM      2  H   LIG d   1      11.574  10.084  -1.382  0.00  0.00     0.033 H 
ATOM      3  C   LIG d   1      10.281   8.369  -1.537  0.00  0.00    -0.044 C 
ATOM      4  C   LIG d   1      10.658   8.089  -2.993  0.00  0.00    -0.034 C 
ATOM      5  H   LIG d   1      11.711   8.320  -3.151  0.00  0.00     0.031 H 
ATOM      6  C   LIG d   1       9.793   8.947  -3.929  0.00  0.00    -0.030 C 
ATOM      7  H   LIG d   1       8.743   8.722  -3.743  0.00  0.00     0.031 H 
ATOM      8  C   LIG d   1      10.092   8.660  -5.396  0.00  0.00    -0.049 C 
ATOM      9  C   LIG d   1       9.963   7.161  -5.713  0.00  0.00    -0.046 C 
ATOM     10  C   LIG d   1      10.913   6.420  -4.791  0.00  0.00    -0.016 C 
ATOM     11  C   LIG d   1      10.397   6.634  -3.339  0.00  0.00    -0.031 C 
ATOM     12  H   LIG d   1       9.332   6.415  -3.274  0.00  0.00     0.031 H 
ATOM     13  C   LIG d   1      11.224   5.606  -2.558  0.00  0.00    -0.046 C 
ATOM     14  C   LIG d   1      11.286   4.402  -3.526  0.00  0.00    -0.028 C 
ATOM     15  H   LIG d   1      12.343   4.149  -3.596  0.00  0.00     0.031 H 
ATOM     16  C   LIG d   1      10.893   4.885  -4.912  0.00  0.00     0.037 C 
ATOM     17  C   LIG d   1       9.543   4.480  -5.410  0.00  0.00    -0.040 C 
ATOM     18  C   LIG d   1       9.151   3.076  -4.970  0.00  0.00    -0.052 C 
ATOM     19  C   LIG d   1       9.168   3.034  -3.437  0.00  0.00    -0.053 C 
ATOM     20  C   LIG d   1      10.616   3.182  -2.984  0.00  0.00    -0.049 C 
ATOM     21  C   LIG d   1      10.028  10.425  -3.609  0.00  0.00     0.000 C 
ATOM     22  C   LIG d   1       9.664  10.713  -2.151  0.00  0.00     0.077 C 
ATOM     23  C   LIG d   1       9.919  12.191  -1.847  0.00  0.00     0.003 C 
ATOM     24  C   LIG d   1       9.060  13.058  -2.769  0.00  0.00     0.058 C 
ATOM     25  H   LIG d   1       8.007  12.831  -2.605  0.00  0.00     0.059 H 
ATOM     26  C   LIG d   1       9.423  12.768  -4.227  0.00  0.00    -0.026 C 
ATOM     27  C   LIG d   1       9.168  11.290  -4.531  0.00  0.00    -0.042 C 
ATOM     28  H   LIG d   1       9.228   8.131  -1.382  0.00  0.00     0.027 H 
ATOM     29  H   LIG d   1      10.894   7.753  -0.878  0.00  0.00     0.027 H 
ATOM     30  H   LIG d   1      11.109   8.984  -5.621  0.00  0.00     0.027 H 
ATOM     31  H   LIG d   1       9.394   9.218  -6.020  0.00  0.00     0.027 H 
ATOM     32  H   LIG d   1      10.235   6.976  -6.752  0.00  0.00     0.027 H 
ATOM     33  H   LIG d   1       8.940   6.830  -5.533  0.00  0.00     0.027 H 
ATOM     34  H   LIG d   1      12.224   5.989  -2.354  0.00  0.00     0.027 H 
ATOM     35  H   LIG d   1      10.721   5.329  -1.631  0.00  0.00     0.027 H 
ATOM     36  H   LIG d   1       9.534   4.523  -6.499  0.00  0.00     0.028 H 
ATOM     37  H   LIG d   1       8.807   5.186  -5.025  0.00  0.00     0.028 H 
ATOM     38  H   LIG d   1       9.866   2.354  -5.367  0.00  0.00     0.027 H 
ATOM     39  H   LIG d   1       8.152   2.841  -5.335  0.00  0.00     0.027 H 
ATOM     40  H   LIG d   1       8.767   2.081  -3.090  0.00  0.00     0.026 H 
ATOM     41  H   LIG d   1       8.570   3.853  -3.038  0.00  0.00     0.026 H 
ATOM     42  H   LIG d   1      11.175   2.302  -3.308  0.00  0.00     0.027 H 
ATOM     43  H   LIG d   1      10.638   3.225  -1.895  0.00  0.00     0.027 H 
ATOM     44  H   LIG d   1       9.660  12.398  -0.808  0.00  0.00     0.032 H 
ATOM     45  H   LIG d   1      10.972  12.419  -2.011  0.00  0.00     0.032 H 
ATOM     46  H   LIG d   1       8.810  13.385  -4.884  0.00  0.00     0.029 H 
ATOM     47  H   LIG d   1      10.476  12.995  -4.391  0.00  0.00     0.029 H 
ATOM     48  H   LIG d   1       8.114  11.062  -4.366  0.00  0.00     0.027 H 
ATOM     49  H   LIG d   1       9.425  11.083  -5.570  0.00  0.00     0.027 H 
ENDROOT
BRANCH  16  50
ATOM     50  C   LIG d   1      11.927   4.443  -5.915  0.00  0.00     0.137 C 
ATOM     51  O   LIG d   1      12.988   4.010  -5.537  0.00  0.00    -0.297 OA
BRANCH  50  52
ATOM     52  C   LIG d   1      11.635   4.540  -7.390  0.00  0.00    -0.005 C 
ATOM     53  H   LIG d   1      10.719   4.916  -7.525  0.00  0.00     0.031 H 
ATOM     54  H   LIG d   1      12.369   5.192  -7.863  0.00  0.00     0.031 H 
ATOM     55  H   LIG d   1      11.689   3.547  -7.838  0.00  0.00     0.031 H 
ENDBRANCH  50  52
ENDBRANCH  16  50
BRANCH  10  56
ATOM     56  C   LIG d   1      12.335   6.965  -4.942  0.00  0.00    -0.058 C 
ATOM     57  H   LIG d   1      13.028   6.136  -5.082  0.00  0.00     0.024 H 
ATOM     58  H   LIG d   1      12.380   7.626  -5.808  0.00  0.00     0.024 H 
ATOM     59  H   LIG d   1      12.608   7.521  -4.046  0.00  0.00     0.024 H 
ENDBRANCH  10  56
BRANCH  21  60
ATOM     60  C   LIG d   1      11.506  10.747  -3.838  0.00  0.00    -0.057 C 
ATOM     61  H   LIG d   1      11.592  11.684  -4.387  0.00  0.00     0.024 H 
ATOM     62  H   LIG d   1      12.011  10.839  -2.877  0.00  0.00     0.024 H 
ATOM     63  H   LIG d   1      11.968   9.945  -4.414  0.00  0.00     0.024 H 
ENDBRANCH  21  60
BRANCH   1  64
ATOM     64  C   LIG d   1      10.146  10.130   0.229  0.00  0.00    -0.060 C 
ATOM     65  H   LIG d   1      11.028  10.470   0.773  0.00  0.00     0.023 H 
ATOM     66  H   LIG d   1       9.377  10.903   0.263  0.00  0.00     0.023 H 
ATOM     67  H   LIG d   1       9.765   9.218   0.689  0.00  0.00     0.023 H 
ENDBRANCH   1  64
BRANCH  22  68
ATOM     68  O   LIG d   1       8.283  10.415  -1.937  0.00  0.00    -0.388 OA
ATOM     69  H   LIG d   1       8.129   9.596  -1.448  0.00  0.00     0.210 HD
ENDBRANCH  22  68
BRANCH  24  70
ATOM     70  O   LIG d   1       9.299  14.438  -2.485  0.00  0.00    -0.392 OA
ATOM     71  H   LIG d   1       9.028  15.038  -3.193  0.00  0.00     0.210 HD
ENDBRANCH  24  70
TORSDOF 7
ENDMDL
MODEL 9
REMARK VINA RESULT:      -5.5      1.635      6.880
REMARK  7 active torsions:
REMARK  status: ('A' for Active; 'I' for Inactive)
REMARK    1  A    between atoms: C_1  and  C_2 
REMARK    2  A    between atoms: C_11  and  C_25 
REMARK    3  A    between atoms: C_17  and  C_22 
REMARK    4  A    between atoms: C_22  and  C_24 
REMARK    5  A    between atoms: C_26  and  C_35 
REMARK    6  A    between atoms: C_27  and  O_34 
REMARK    7  A    between atoms: C_29  and  O_33 
ROOT
ATOM      1  C   LIG d   1       5.229  -0.373  -3.777  0.00  0.00    -0.014 C 
ATOM      2  H   LIG d   1       4.681   0.016  -4.634  0.00  0.00     0.033 H 
ATOM      3  C   LIG d   1       6.382   0.574  -3.436  0.00  0.00    -0.044 C 
ATOM      4  C   LIG d   1       7.322   0.680  -4.639  0.00  0.00    -0.034 C 
ATOM      5  H   LIG d   1       6.778   1.073  -5.497  0.00  0.00     0.031 H 
ATOM      6  C   LIG d   1       7.892  -0.706  -4.977  0.00  0.00    -0.030 C 
ATOM      7  H   LIG d   1       8.413  -1.096  -4.102  0.00  0.00     0.031 H 
ATOM      8  C   LIG d   1       8.883  -0.642  -6.134  0.00  0.00    -0.049 C 
ATOM      9  C   LIG d   1       9.996   0.383  -5.866  0.00  0.00    -0.046 C 
ATOM     10  C   LIG d   1       9.328   1.724  -5.624  0.00  0.00    -0.016 C 
ATOM     11  C   LIG d   1       8.495   1.588  -4.317  0.00  0.00    -0.031 C 
ATOM     12  H   LIG d   1       9.100   1.157  -3.520  0.00  0.00     0.031 H 
ATOM     13  C   LIG d   1       8.142   3.050  -4.018  0.00  0.00    -0.046 C 
ATOM     14  C   LIG d   1       9.429   3.807  -4.416  0.00  0.00    -0.028 C 
ATOM     15  H   LIG d   1       9.095   4.602  -5.083  0.00  0.00     0.031 H 
ATOM     16  C   LIG d   1      10.276   2.886  -5.278  0.00  0.00     0.037 C 
ATOM     17  C   LIG d   1      11.501   2.308  -4.645  0.00  0.00    -0.040 C 
ATOM     18  C   LIG d   1      12.186   3.279  -3.695  0.00  0.00    -0.052 C 
ATOM     19  C   LIG d   1      11.180   3.671  -2.605  0.00  0.00    -0.053 C 
ATOM     20  C   LIG d   1      10.081   4.498  -3.263  0.00  0.00    -0.049 C 
ATOM     21  C   LIG d   1       6.737  -1.653  -5.306  0.00  0.00     0.000 C 
ATOM     22  C   LIG d   1       5.784  -1.758  -4.113  0.00  0.00     0.077 C 
ATOM     23  C   LIG d   1       4.629  -2.698  -4.467  0.00  0.00     0.003 C 
ATOM     24  C   LIG d   1       5.183  -4.084  -4.802  0.00  0.00     0.058 C 
ATOM     25  H   LIG d   1       5.720  -4.478  -3.940  0.00  0.00     0.059 H 
ATOM     26  C   LIG d   1       6.136  -3.978  -5.993  0.00  0.00    -0.026 C 
ATOM     27  C   LIG d   1       7.292  -3.039  -5.639  0.00  0.00    -0.042 C 
ATOM     28  H   LIG d   1       6.931   0.185  -2.579  0.00  0.00     0.027 H 
ATOM     29  H   LIG d   1       5.985   1.561  -3.198  0.00  0.00     0.027 H 
ATOM     30  H   LIG d   1       8.350  -0.359  -7.042  0.00  0.00     0.027 H 
ATOM     31  H   LIG d   1       9.331  -1.625  -6.277  0.00  0.00     0.027 H 
ATOM     32  H   LIG d   1      10.657   0.449  -6.730  0.00  0.00     0.027 H 
ATOM     33  H   LIG d   1      10.566   0.090  -4.984  0.00  0.00     0.027 H 
ATOM     34  H   LIG d   1       7.298   3.376  -4.627  0.00  0.00     0.027 H 
ATOM     35  H   LIG d   1       7.928   3.186  -2.958  0.00  0.00     0.027 H 
ATOM     36  H   LIG d   1      12.207   2.020  -5.424  0.00  0.00     0.028 H 
ATOM     37  H   LIG d   1      11.213   1.416  -4.087  0.00  0.00     0.028 H 
ATOM     38  H   LIG d   1      12.501   4.168  -4.243  0.00  0.00     0.027 H 
ATOM     39  H   LIG d   1      13.053   2.801  -3.241  0.00  0.00     0.027 H 
ATOM     40  H   LIG d   1      11.679   4.264  -1.838  0.00  0.00     0.026 H 
ATOM     41  H   LIG d   1      10.751   2.775  -2.158  0.00  0.00     0.026 H 
ATOM     42  H   LIG d   1      10.513   5.436  -3.615  0.00  0.00     0.027 H 
ATOM     43  H   LIG d   1       9.321   4.725  -2.516  0.00  0.00     0.027 H 
ATOM     44  H   LIG d   1       3.949  -2.772  -3.618  0.00  0.00     0.032 H 
ATOM     45  H   LIG d   1       4.092  -2.303  -5.329  0.00  0.00     0.032 H 
ATOM     46  H   LIG d   1       6.532  -4.966  -6.230  0.00  0.00     0.029 H 
ATOM     47  H   LIG d   1       5.599  -3.584  -6.855  0.00  0.00     0.029 H 
ATOM     48  H   LIG d   1       7.830  -3.434  -4.776  0.00  0.00     0.027 H 
ATOM     49  H   LIG d   1       7.973  -2.965  -6.487  0.00  0.00     0.027 H 
ENDROOT
BRANCH  16  50
ATOM     50  C   LIG d   1      10.682   3.602  -6.540  0.00  0.00     0.137 C 
ATOM     51  O   LIG d   1      11.496   3.107  -7.280  0.00  0.00    -0.297 OA
BRANCH  50  52
ATOM     52  C   LIG d   1      10.069   4.937  -6.878  0.00  0.00    -0.005 C 
ATOM     53  H   LIG d   1      10.705   5.462  -7.444  0.00  0.00     0.031 H 
ATOM     54  H   LIG d   1       9.139   4.782  -7.426  0.00  0.00     0.031 H 
ATOM     55  H   LIG d   1       9.863   5.486  -5.960  0.00  0.00     0.031 H 
ENDBRANCH  50  52
ENDBRANCH  16  50
BRANCH  10  56
ATOM     56  C   LIG d   1       8.421   2.087  -6.803  0.00  0.00    -0.058 C 
ATOM     57  H   LIG d   1       7.931   3.039  -6.604  0.00  0.00     0.024 H 
ATOM     58  H   LIG d   1       9.021   2.170  -7.710  0.00  0.00     0.024 H 
ATOM     59  H   LIG d   1       7.669   1.310  -6.936  0.00  0.00     0.024 H 
ENDBRANCH  10  56
BRANCH  21  60
ATOM     60  C   LIG d   1       5.980  -1.102  -6.516  0.00  0.00    -0.057 C 
ATOM     61  H   LIG d   1       6.209  -1.705  -7.393  0.00  0.00     0.024 H 
ATOM     62  H   LIG d   1       4.909  -1.136  -6.320  0.00  0.00     0.024 H 
ATOM     63  H   LIG d   1       6.283  -0.071  -6.695  0.00  0.00     0.024 H 
ENDBRANCH  21  60
BRANCH   1  64
ATOM     64  C   LIG d   1       4.287  -0.480  -2.576  0.00  0.00    -0.060 C 
ATOM     65  H   LIG d   1       4.623  -1.285  -1.921  0.00  0.00     0.023 H 
ATOM     66  H   LIG d   1       4.291   0.461  -2.026  0.00  0.00     0.023 H 
ATOM     67  H   LIG d   1       3.276  -0.694  -2.924  0.00  0.00     0.023 H 
ENDBRANCH   1  64
BRANCH  22  68
ATOM     68  O   LIG d   1       6.490  -2.276  -2.983  0.00  0.00    -0.388 OA
ATOM     69  H   LIG d   1       5.985  -2.253  -2.160  0.00  0.00     0.210 HD
ENDBRANCH  22  68
BRANCH  24  70
ATOM     70  O   LIG d   1       4.103  -4.961  -5.132  0.00  0.00    -0.392 OA
ATOM     71  H   LIG d   1       4.382  -5.787  -5.549  0.00  0.00     0.210 HD
ENDBRANCH  24  70
TORSDOF 7
ENDMDL
MODEL 10
REMARK VINA RESULT:      -5.5      6.833      8.795
REMARK  7 active torsions:
REMARK  status: ('A' for Active; 'I' for Inactive)
REMARK    1  A    between atoms: C_1  and  C_2 
REMARK    2  A    between atoms: C_11  and  C_25 
REMARK    3  A    between atoms: C_17  and  C_22 
REMARK    4  A    between atoms: C_22  and  C_24 
REMARK    5  A    between atoms: C_26  and  C_35 
REMARK    6  A    between atoms: C_27  and  O_34 
REMARK    7  A    between atoms: C_29  and  O_33 
ROOT
ATOM      1  C   LIG d   1      11.452   9.095  -8.329  0.00  0.00    -0.014 C 
ATOM      2  H   LIG d   1      12.407   8.584  -8.450  0.00  0.00     0.033 H 
ATOM      3  C   LIG d   1      11.152   9.269  -6.839  0.00  0.00    -0.044 C 
ATOM      4  C   LIG d   1      11.084   7.894  -6.172  0.00  0.00    -0.034 C 
ATOM      5  H   LIG d   1      12.039   7.381  -6.287  0.00  0.00     0.031 H 
ATOM      6  C   LIG d   1       9.967   7.058  -6.816  0.00  0.00    -0.030 C 
ATOM      7  H   LIG d   1       9.023   7.594  -6.714  0.00  0.00     0.031 H 
ATOM      8  C   LIG d   1       9.820   5.697  -6.145  0.00  0.00    -0.049 C 
ATOM      9  C   LIG d   1       9.626   5.837  -4.626  0.00  0.00    -0.046 C 
ATOM     10  C   LIG d   1      10.818   6.605  -4.086  0.00  0.00    -0.016 C 
ATOM     11  C   LIG d   1      10.754   8.034  -4.698  0.00  0.00    -0.031 C 
ATOM     12  H   LIG d   1       9.760   8.461  -4.571  0.00  0.00     0.031 H 
ATOM     13  C   LIG d   1      11.791   8.782  -3.852  0.00  0.00    -0.046 C 
ATOM     14  C   LIG d   1      11.581   8.191  -2.439  0.00  0.00    -0.028 C 
ATOM     15  H   LIG d   1      12.574   7.885  -2.110  0.00  0.00     0.031 H 
ATOM     16  C   LIG d   1      10.787   6.902  -2.576  0.00  0.00     0.037 C 
ATOM     17  C   LIG d   1       9.356   6.944  -2.144  0.00  0.00    -0.040 C 
ATOM     18  C   LIG d   1       9.135   7.831  -0.928  0.00  0.00    -0.052 C 
ATOM     19  C   LIG d   1       9.607   9.248  -1.278  0.00  0.00    -0.053 C 
ATOM     20  C   LIG d   1      11.123   9.205  -1.444  0.00  0.00    -0.049 C 
ATOM     21  C   LIG d   1      10.264   6.895  -8.308  0.00  0.00     0.000 C 
ATOM     22  C   LIG d   1      10.345   8.266  -8.983  0.00  0.00     0.077 C 
ATOM     23  C   LIG d   1      10.656   8.083 -10.470  0.00  0.00     0.003 C 
ATOM     24  C   LIG d   1       9.548   7.256 -11.125  0.00  0.00     0.058 C 
ATOM     25  H   LIG d   1       8.596   7.774 -11.015  0.00  0.00     0.059 H 
ATOM     26  C   LIG d   1       9.466   5.887 -10.449  0.00  0.00    -0.026 C 
ATOM     27  C   LIG d   1       9.155   6.070  -8.962  0.00  0.00    -0.042 C 
ATOM     28  H   LIG d   1      10.197   9.780  -6.717  0.00  0.00     0.027 H 
ATOM     29  H   LIG d   1      11.943   9.858  -6.374  0.00  0.00     0.027 H 
ATOM     30  H   LIG d   1      10.719   5.109  -6.335  0.00  0.00     0.027 H 
ATOM     31  H   LIG d   1       8.960   5.180  -6.568  0.00  0.00     0.027 H 
ATOM     32  H   LIG d   1       9.579   4.851  -4.165  0.00  0.00     0.027 H 
ATOM     33  H   LIG d   1       8.708   6.387  -4.419  0.00  0.00     0.027 H 
ATOM     34  H   LIG d   1      12.801   8.578  -4.209  0.00  0.00     0.027 H 
ATOM     35  H   LIG d   1      11.591   9.854  -3.854  0.00  0.00     0.027 H 
ATOM     36  H   LIG d   1       9.023   5.933  -1.908  0.00  0.00     0.028 H 
ATOM     37  H   LIG d   1       8.757   7.326  -2.971  0.00  0.00     0.028 H 
ATOM     38  H   LIG d   1       9.711   7.449  -0.084  0.00  0.00     0.027 H 
ATOM     39  H   LIG d   1       8.076   7.849  -0.672  0.00  0.00     0.027 H 
ATOM     40  H   LIG d   1       9.343   9.935  -0.473  0.00  0.00     0.026 H 
ATOM     41  H   LIG d   1       9.143   9.573  -2.209  0.00  0.00     0.026 H 
ATOM     42  H   LIG d   1      11.573   8.976  -0.477  0.00  0.00     0.027 H 
ATOM     43  H   LIG d   1      11.467  10.189  -1.762  0.00  0.00     0.027 H 
ATOM     44  H   LIG d   1      10.715   9.060 -10.951  0.00  0.00     0.032 H 
ATOM     45  H   LIG d   1      11.609   7.566 -10.580  0.00  0.00     0.032 H 
ATOM     46  H   LIG d   1       8.676   5.298 -10.916  0.00  0.00     0.029 H 
ATOM     47  H   LIG d   1      10.419   5.369 -10.559  0.00  0.00     0.029 H 
ATOM     48  H   LIG d   1       8.201   6.588  -8.852  0.00  0.00     0.027 H 
ATOM     49  H   LIG d   1       9.094   5.094  -8.480  0.00  0.00     0.027 H 
ENDROOT
BRANCH  16  50
ATOM     50  C   LIG d   1      11.483   5.796  -1.827  0.00  0.00     0.137 C 
ATOM     51  O   LIG d   1      10.945   4.722  -1.701  0.00  0.00    -0.297 OA
BRANCH  50  52
ATOM     52  C   LIG d   1      12.849   6.029  -1.235  0.00  0.00    -0.005 C 
ATOM     53  H   LIG d   1      13.359   5.170  -1.226  0.00  0.00     0.031 H 
ATOM     54  H   LIG d   1      13.384   6.763  -1.838  0.00  0.00     0.031 H 
ATOM     55  H   LIG d   1      12.745   6.401  -0.216  0.00  0.00     0.031 H 
ENDBRANCH  50  52
ENDBRANCH  16  50
BRANCH  10  56
ATOM     56  C   LIG d   1      12.122   5.909  -4.482  0.00  0.00    -0.058 C 
ATOM     57  H   LIG d   1      12.402   6.210  -5.491  0.00  0.00     0.024 H 
ATOM     58  H   LIG d   1      12.912   6.193  -3.786  0.00  0.00     0.024 H 
ATOM     59  H   LIG d   1      11.982   4.829  -4.451  0.00  0.00     0.024 H 
ENDBRANCH  10  56
BRANCH  21  60
ATOM     60  C   LIG d   1      11.601   6.170  -8.466  0.00  0.00    -0.057 C 
ATOM     61  H   LIG d   1      12.233   6.721  -9.162  0.00  0.00     0.024 H 
ATOM     62  H   LIG d   1      12.095   6.105  -7.497  0.00  0.00     0.024 H 
ATOM     63  H   LIG d   1      11.426   5.166  -8.851  0.00  0.00     0.024 H 
ENDBRANCH  21  60
BRANCH   1  64
ATOM     64  C   LIG d   1      11.521  10.469  -8.998  0.00  0.00    -0.060 C 
ATOM     65  H   LIG d   1      12.328  10.477  -9.731  0.00  0.00     0.023 H 
ATOM     66  H   LIG d   1      10.575  10.679  -9.496  0.00  0.00     0.023 H 
ATOM     67  H   LIG d   1      11.711  11.232  -8.242  0.00  0.00     0.023 H 
ENDBRANCH   1  64
BRANCH  22  68
ATOM     68  O   LIG d   1       9.094   8.944  -8.838  0.00  0.00    -0.388 OA
ATOM     69  H   LIG d   1       9.176   9.900  -8.726  0.00  0.00     0.210 HD
ENDBRANCH  22  68
BRANCH  24  70
ATOM     70  O   LIG d   1       9.840   7.086 -12.514  0.00  0.00    -0.392 OA
ATOM     71  H   LIG d   1       9.087   7.254 -13.097  0.00  0.00     0.210 HD
ENDBRANCH  24  70
TORSDOF 7
ENDMDL
