MODEL 1
REMARK VINA RESULT:      -4.5      0.000      0.000
REMARK  10 active torsions:
REMARK  status: ('A' for Active; 'I' for Inactive)
REMARK    1  A    between atoms: C_1  and  C_2 
REMARK    2  A    between atoms: C_2  and  C_3 
REMARK    3  A    between atoms: C_3  and  C_5 
REMARK    4  A    between atoms: C_3  and  N_37 
REMARK    5  A    between atoms: C_5  and  C_6 
REMARK    6  A    between atoms: C_8  and  O_15 
REMARK    7  A    between atoms: C_9  and  C_14 
REMARK    8  A    between atoms: C_11  and  O_12 
REMARK    9  A    between atoms: O_12  and  C_13 
REMARK   10  A    between atoms: O_15  and  C_16 
ROOT
ATOM      1  C   LIG d   1       4.050  -0.733  -6.169  0.00  0.00     0.003 A 
ATOM      2  C   LIG d   1       3.511   0.032  -5.154  0.00  0.00    -0.013 A 
ATOM      3  C   LIG d   1       3.465  -0.465  -3.860  0.00  0.00     0.123 A 
ATOM      4  C   LIG d   1       3.960  -1.732  -3.587  0.00  0.00    -0.005 A 
ATOM      5  C   LIG d   1       4.499  -2.497  -4.601  0.00  0.00    -0.013 A 
ATOM      6  C   LIG d   1       4.542  -2.001  -5.896  0.00  0.00     0.124 A 
ATOM      7  H   LIG d   1       3.125   1.017  -5.368  0.00  0.00     0.066 H 
ATOM      8  H   LIG d   1       4.885  -3.483  -4.387  0.00  0.00     0.066 H 
ENDROOT
BRANCH   1   9
ATOM      9  C   LIG d   1       4.100  -0.193  -7.575  0.00  0.00     0.019 C 
ATOM     10  H   LIG d   1       4.890  -0.700  -8.132  0.00  0.00     0.037 H 
ATOM     11  H   LIG d   1       4.306   0.877  -7.547  0.00  0.00     0.037 H 
BRANCH   9  12
ATOM     12  C   LIG d   1       2.755  -0.435  -8.263  0.00  0.00    -0.021 C 
ATOM     13  H   LIG d   1       1.973  -0.526  -7.509  0.00  0.00     0.085 H 
BRANCH  12  14
ATOM     14  C   LIG d   1       2.437   0.740  -9.190  0.00  0.00    -0.012 C 
ATOM     15  H   LIG d   1       1.361   0.795  -9.351  0.00  0.00     0.032 H 
ATOM     16  H   LIG d   1       2.940   0.596 -10.145  0.00  0.00     0.032 H 
BRANCH  14  17
ATOM     17  C   LIG d   1       2.924   2.041  -8.548  0.00  0.00    -0.060 C 
ATOM     18  H   LIG d   1       3.502   2.610  -9.276  0.00  0.00     0.023 H 
ATOM     19  H   LIG d   1       2.066   2.629  -8.223  0.00  0.00     0.023 H 
ATOM     20  H   LIG d   1       3.552   1.808  -7.688  0.00  0.00     0.023 H 
ENDBRANCH  14  17
ENDBRANCH  12  14
BRANCH  12  21
ATOM     21  N   LIG d   1       2.831  -1.691  -9.031  0.00  0.00     0.221 N 
ATOM     22  H   LIG d   1       3.441  -1.570  -9.838  0.00  0.00     0.200 HD
ATOM     23  H   LIG d   1       3.192  -2.440  -8.443  0.00  0.00     0.200 HD
ATOM     24  H   LIG d   1       1.891  -1.945  -9.357  0.00  0.00     0.200 HD
ENDBRANCH  12  21
ENDBRANCH   9  12
ENDBRANCH   1   9
BRANCH   6  25
ATOM     25  O   LIG d   1       5.068  -2.758  -6.897  0.00  0.00    -0.495 OA
BRANCH  25  26
ATOM     26  C   LIG d   1       4.631  -4.115  -6.983  0.00  0.00     0.079 C 
ATOM     27  H   LIG d   1       3.726  -4.168  -7.590  0.00  0.00     0.066 H 
ATOM     28  H   LIG d   1       5.413  -4.719  -7.442  0.00  0.00     0.066 H 
ATOM     29  H   LIG d   1       4.420  -4.493  -5.982  0.00  0.00     0.066 H 
ENDBRANCH  25  26
ENDBRANCH   6  25
BRANCH   3  30
ATOM     30  O   LIG d   1       2.934   0.288  -2.861  0.00  0.00    -0.495 OA
BRANCH  30  31
ATOM     31  C   LIG d   1       3.715   1.391  -2.396  0.00  0.00     0.079 C 
ATOM     32  H   LIG d   1       4.386   1.721  -3.189  0.00  0.00     0.066 H 
ATOM     33  H   LIG d   1       3.055   2.211  -2.114  0.00  0.00     0.066 H 
ATOM     34  H   LIG d   1       4.300   1.082  -1.529  0.00  0.00     0.066 H 
ENDBRANCH  30  31
ENDBRANCH   3  30
BRANCH   4  35
ATOM     35  C   LIG d   1       3.910  -2.272  -2.180  0.00  0.00    -0.036 C 
ATOM     36  H   LIG d   1       4.083  -3.347  -2.197  0.00  0.00     0.028 H 
ATOM     37  H   LIG d   1       4.679  -1.789  -1.578  0.00  0.00     0.028 H 
ATOM     38  H   LIG d   1       2.930  -2.069  -1.748  0.00  0.00     0.028 H 
ENDBRANCH   4  35
TORSDOF 10
ENDMDL
MODEL 2
REMARK VINA RESULT:      -4.2      4.008      4.667
REMARK  10 active torsions:
REMARK  status: ('A' for Active; 'I' for Inactive)
REMARK    1  A    between atoms: C_1  and  C_2 
REMARK    2  A    between atoms: C_2  and  C_3 
REMARK    3  A    between atoms: C_3  and  C_5 
REMARK    4  A    between atoms: C_3  and  N_37 
REMARK    5  A    between atoms: C_5  and  C_6 
REMARK    6  A    between atoms: C_8  and  O_15 
REMARK    7  A    between atoms: C_9  and  C_14 
REMARK    8  A    between atoms: C_11  and  O_12 
REMARK    9  A    between atoms: O_12  and  C_13 
REMARK   10  A    between atoms: O_15  and  C_16 
ROOT
ATOM      1  C   LIG d   1       7.261   0.022  -3.756  0.00  0.00     0.003 A 
ATOM      2  C   LIG d   1       6.260   0.700  -3.088  0.00  0.00    -0.013 A 
ATOM      3  C   LIG d   1       5.160   0.010  -2.603  0.00  0.00     0.123 A 
ATOM      4  C   LIG d   1       5.064  -1.361  -2.791  0.00  0.00    -0.005 A 
ATOM      5  C   LIG d   1       6.063  -2.039  -3.459  0.00  0.00    -0.013 A 
ATOM      6  C   LIG d   1       7.163  -1.348  -3.947  0.00  0.00     0.124 A 
ATOM      7  H   LIG d   1       6.335   1.767  -2.943  0.00  0.00     0.066 H 
ATOM      8  H   LIG d   1       5.988  -3.106  -3.605  0.00  0.00     0.066 H 
ENDROOT
BRANCH   1   9
ATOM      9  C   LIG d   1       8.458   0.772  -4.283  0.00  0.00     0.019 C 
ATOM     10  H   LIG d   1       9.010   0.135  -4.976  0.00  0.00     0.037 H 
ATOM     11  H   LIG d   1       9.106   1.052  -3.453  0.00  0.00     0.037 H 
BRANCH   9  12
ATOM     12  C   LIG d   1       7.989   2.033  -5.012  0.00  0.00    -0.021 C 
ATOM     13  H   LIG d   1       7.061   2.388  -4.564  0.00  0.00     0.085 H 
BRANCH  12  14
ATOM     14  C   LIG d   1       9.061   3.118  -4.894  0.00  0.00    -0.012 C 
ATOM     15  H   LIG d   1       8.658   4.067  -5.248  0.00  0.00     0.032 H 
ATOM     16  H   LIG d   1       9.925   2.843  -5.497  0.00  0.00     0.032 H 
BRANCH  14  17
ATOM     17  C   LIG d   1       9.484   3.258  -3.430  0.00  0.00    -0.060 C 
ATOM     18  H   LIG d   1       8.600   3.241  -2.793  0.00  0.00     0.023 H 
ATOM     19  H   LIG d   1      10.143   2.433  -3.162  0.00  0.00     0.023 H 
ATOM     20  H   LIG d   1      10.011   4.203  -3.294  0.00  0.00     0.023 H 
ENDBRANCH  14  17
ENDBRANCH  12  14
BRANCH  12  21
ATOM     21  N   LIG d   1       7.744   1.703  -6.427  0.00  0.00     0.221 N 
ATOM     22  H   LIG d   1       7.691   2.557  -6.980  0.00  0.00     0.200 HD
ATOM     23  H   LIG d   1       8.495   1.115  -6.785  0.00  0.00     0.200 HD
ATOM     24  H   LIG d   1       6.855   1.197  -6.507  0.00  0.00     0.200 HD
ENDBRANCH  12  21
ENDBRANCH   9  12
ENDBRANCH   1   9
BRANCH   6  25
ATOM     25  O   LIG d   1       8.145  -2.015  -4.611  0.00  0.00    -0.495 OA
BRANCH  25  26
ATOM     26  C   LIG d   1       8.499  -3.308  -4.118  0.00  0.00     0.079 C 
ATOM     27  H   LIG d   1       7.824  -3.586  -3.307  0.00  0.00     0.066 H 
ATOM     28  H   LIG d   1       8.418  -4.038  -4.922  0.00  0.00     0.066 H 
ATOM     29  H   LIG d   1       9.524  -3.288  -3.747  0.00  0.00     0.066 H 
ENDBRANCH  25  26
ENDBRANCH   6  25
BRANCH   3  30
ATOM     30  O   LIG d   1       4.175   0.677  -1.945  0.00  0.00    -0.495 OA
BRANCH  30  31
ATOM     31  C   LIG d   1       3.408   1.614  -2.704  0.00  0.00     0.079 C 
ATOM     32  H   LIG d   1       2.854   1.086  -3.481  0.00  0.00     0.066 H 
ATOM     33  H   LIG d   1       2.709   2.130  -2.045  0.00  0.00     0.066 H 
ATOM     34  H   LIG d   1       4.076   2.342  -3.165  0.00  0.00     0.066 H 
ENDBRANCH  30  31
ENDBRANCH   3  30
BRANCH   4  35
ATOM     35  C   LIG d   1       3.866  -2.111  -2.264  0.00  0.00    -0.036 C 
ATOM     36  H   LIG d   1       3.244  -1.437  -1.677  0.00  0.00     0.028 H 
ATOM     37  H   LIG d   1       3.287  -2.504  -3.101  0.00  0.00     0.028 H 
ATOM     38  H   LIG d   1       4.202  -2.936  -1.636  0.00  0.00     0.028 H 
ENDBRANCH   4  35
TORSDOF 10
ENDMDL
MODEL 3
REMARK VINA RESULT:      -4.1      2.206      5.368
REMARK  10 active torsions:
REMARK  status: ('A' for Active; 'I' for Inactive)
REMARK    1  A    between atoms: C_1  and  C_2 
REMARK    2  A    between atoms: C_2  and  C_3 
REMARK    3  A    between atoms: C_3  and  C_5 
REMARK    4  A    between atoms: C_3  and  N_37 
REMARK    5  A    between atoms: C_5  and  C_6 
REMARK    6  A    between atoms: C_8  and  O_15 
REMARK    7  A    between atoms: C_9  and  C_14 
REMARK    8  A    between atoms: C_11  and  O_12 
REMARK    9  A    between atoms: O_12  and  C_13 
REMARK   10  A    between atoms: O_15  and  C_16 
ROOT
ATOM      1  C   LIG d   1       4.398  -1.072  -6.195  0.00  0.00     0.003 A 
ATOM      2  C   LIG d   1       4.685  -2.417  -6.316  0.00  0.00    -0.013 A 
ATOM      3  C   LIG d   1       4.283  -3.113  -7.446  0.00  0.00     0.123 A 
ATOM      4  C   LIG d   1       3.590  -2.459  -8.454  0.00  0.00    -0.005 A 
ATOM      5  C   LIG d   1       3.303  -1.114  -8.333  0.00  0.00    -0.013 A 
ATOM      6  C   LIG d   1       3.702  -0.418  -7.201  0.00  0.00     0.124 A 
ATOM      7  H   LIG d   1       5.224  -2.927  -5.531  0.00  0.00     0.066 H 
ATOM      8  H   LIG d   1       2.764  -0.604  -9.118  0.00  0.00     0.066 H 
ENDROOT
BRANCH   1   9
ATOM      9  C   LIG d   1       4.835  -0.315  -4.967  0.00  0.00     0.019 C 
ATOM     10  H   LIG d   1       5.171   0.682  -5.256  0.00  0.00     0.037 H 
ATOM     11  H   LIG d   1       5.654  -0.848  -4.485  0.00  0.00     0.037 H 
BRANCH   9  12
ATOM     12  C   LIG d   1       3.660  -0.197  -3.995  0.00  0.00    -0.021 C 
ATOM     13  H   LIG d   1       2.849  -0.847  -4.325  0.00  0.00     0.085 H 
BRANCH  12  14
ATOM     14  C   LIG d   1       4.112  -0.616  -2.595  0.00  0.00    -0.012 C 
ATOM     15  H   LIG d   1       3.555  -0.051  -1.848  0.00  0.00     0.032 H 
ATOM     16  H   LIG d   1       5.177  -0.415  -2.482  0.00  0.00     0.032 H 
BRANCH  14  17
ATOM     17  C   LIG d   1       3.853  -2.112  -2.402  0.00  0.00    -0.060 C 
ATOM     18  H   LIG d   1       3.511  -2.293  -1.383  0.00  0.00     0.023 H 
ATOM     19  H   LIG d   1       3.089  -2.442  -3.106  0.00  0.00     0.023 H 
ATOM     20  H   LIG d   1       4.774  -2.666  -2.580  0.00  0.00     0.023 H 
ENDBRANCH  14  17
ENDBRANCH  12  14
BRANCH  12  21
ATOM     21  N   LIG d   1       3.185   1.198  -3.987  0.00  0.00     0.221 N 
ATOM     22  H   LIG d   1       2.299   1.262  -3.488  0.00  0.00     0.200 HD
ATOM     23  H   LIG d   1       3.872   1.799  -3.533  0.00  0.00     0.200 HD
ATOM     24  H   LIG d   1       3.049   1.514  -4.953  0.00  0.00     0.200 HD
ENDBRANCH  12  21
ENDBRANCH   9  12
ENDBRANCH   1   9
BRANCH   6  25
ATOM     25  O   LIG d   1       3.413   0.906  -7.080  0.00  0.00    -0.495 OA
BRANCH  25  26
ATOM     26  C   LIG d   1       3.011   1.594  -8.265  0.00  0.00     0.079 C 
ATOM     27  H   LIG d   1       2.447   2.487  -7.994  0.00  0.00     0.066 H 
ATOM     28  H   LIG d   1       3.894   1.882  -8.835  0.00  0.00     0.066 H 
ATOM     29  H   LIG d   1       2.386   0.938  -8.871  0.00  0.00     0.066 H 
ENDBRANCH  25  26
ENDBRANCH   6  25
BRANCH   3  30
ATOM     30  O   LIG d   1       4.566  -4.438  -7.566  0.00  0.00    -0.495 OA
BRANCH  30  31
ATOM     31  C   LIG d   1       3.981  -5.315  -6.601  0.00  0.00     0.079 C 
ATOM     32  H   LIG d   1       4.126  -4.905  -5.601  0.00  0.00     0.066 H 
ATOM     33  H   LIG d   1       2.915  -5.418  -6.802  0.00  0.00     0.066 H 
ATOM     34  H   LIG d   1       4.457  -6.294  -6.665  0.00  0.00     0.066 H 
ENDBRANCH  30  31
ENDBRANCH   3  30
BRANCH   4  35
ATOM     35  C   LIG d   1       3.152  -3.216  -9.682  0.00  0.00    -0.036 C 
ATOM     36  H   LIG d   1       2.491  -2.589 -10.278  0.00  0.00     0.028 H 
ATOM     37  H   LIG d   1       4.028  -3.486 -10.272  0.00  0.00     0.028 H 
ATOM     38  H   LIG d   1       2.623  -4.120  -9.381  0.00  0.00     0.028 H 
ENDBRANCH   4  35
TORSDOF 10
ENDMDL
MODEL 4
REMARK VINA RESULT:      -4.1      3.067      5.214
REMARK  10 active torsions:
REMARK  status: ('A' for Active; 'I' for Inactive)
REMARK    1  A    between atoms: C_1  and  C_2 
REMARK    2  A    between atoms: C_2  and  C_3 
REMARK    3  A    between atoms: C_3  and  C_5 
REMARK    4  A    between atoms: C_3  and  N_37 
REMARK    5  A    between atoms: C_5  and  C_6 
REMARK    6  A    between atoms: C_8  and  O_15 
REMARK    7  A    between atoms: C_9  and  C_14 
REMARK    8  A    between atoms: C_11  and  O_12 
REMARK    9  A    between atoms: O_12  and  C_13 
REMARK   10  A    between atoms: O_15  and  C_16 
ROOT
ATOM      1  C   LIG d   1       5.569  -1.763  -4.538  0.00  0.00     0.003 A 
ATOM      2  C   LIG d   1       5.306  -2.999  -5.096  0.00  0.00    -0.013 A 
ATOM      3  C   LIG d   1       6.279  -3.987  -5.082  0.00  0.00     0.123 A 
ATOM      4  C   LIG d   1       7.517  -3.733  -4.510  0.00  0.00    -0.005 A 
ATOM      5  C   LIG d   1       7.780  -2.498  -3.952  0.00  0.00    -0.013 A 
ATOM      6  C   LIG d   1       6.808  -1.508  -3.969  0.00  0.00     0.124 A 
ATOM      7  H   LIG d   1       4.343  -3.195  -5.542  0.00  0.00     0.066 H 
ATOM      8  H   LIG d   1       8.744  -2.301  -3.506  0.00  0.00     0.066 H 
ENDROOT
BRANCH   1   9
ATOM      9  C   LIG d   1       4.512  -0.689  -4.552  0.00  0.00     0.019 C 
ATOM     10  H   LIG d   1       4.091  -0.607  -5.556  0.00  0.00     0.037 H 
ATOM     11  H   LIG d   1       4.957   0.264  -4.267  0.00  0.00     0.037 H 
BRANCH   9  12
ATOM     12  C   LIG d   1       3.403  -1.052  -3.562  0.00  0.00    -0.021 C 
ATOM     13  H   LIG d   1       3.322  -2.136  -3.490  0.00  0.00     0.085 H 
BRANCH  12  14
ATOM     14  C   LIG d   1       3.739  -0.472  -2.187  0.00  0.00    -0.012 C 
ATOM     15  H   LIG d   1       4.683  -0.889  -1.836  0.00  0.00     0.032 H 
ATOM     16  H   LIG d   1       2.947  -0.725  -1.483  0.00  0.00     0.032 H 
BRANCH  14  17
ATOM     17  C   LIG d   1       3.860   1.050  -2.291  0.00  0.00    -0.060 C 
ATOM     18  H   LIG d   1       3.897   1.340  -3.341  0.00  0.00     0.023 H 
ATOM     19  H   LIG d   1       2.999   1.517  -1.814  0.00  0.00     0.023 H 
ATOM     20  H   LIG d   1       4.774   1.376  -1.793  0.00  0.00     0.023 H 
ENDBRANCH  14  17
ENDBRANCH  12  14
BRANCH  12  21
ATOM     21  N   LIG d   1       2.126  -0.505  -4.054  0.00  0.00     0.221 N 
ATOM     22  H   LIG d   1       2.298   0.309  -4.642  0.00  0.00     0.200 HD
ATOM     23  H   LIG d   1       1.627  -1.211  -4.593  0.00  0.00     0.200 HD
ATOM     24  H   LIG d   1       1.548  -0.224  -3.254  0.00  0.00     0.200 HD
ENDBRANCH  12  21
ENDBRANCH   9  12
ENDBRANCH   1   9
BRANCH   6  25
ATOM     25  O   LIG d   1       7.070  -0.289  -3.425  0.00  0.00    -0.495 OA
BRANCH  25  26
ATOM     26  C   LIG d   1       7.904   0.592  -4.178  0.00  0.00     0.079 C 
ATOM     27  H   LIG d   1       7.794   1.609  -3.800  0.00  0.00     0.066 H 
ATOM     28  H   LIG d   1       8.943   0.279  -4.083  0.00  0.00     0.066 H 
ATOM     29  H   LIG d   1       7.610   0.562  -5.228  0.00  0.00     0.066 H 
ENDBRANCH  25  26
ENDBRANCH   6  25
BRANCH   3  30
ATOM     30  O   LIG d   1       6.020  -5.204  -5.631  0.00  0.00    -0.495 OA
BRANCH  30  31
ATOM     31  C   LIG d   1       4.678  -5.685  -5.536  0.00  0.00     0.079 C 
ATOM     32  H   LIG d   1       4.621  -6.689  -5.957  0.00  0.00     0.066 H 
ATOM     33  H   LIG d   1       4.374  -5.712  -4.489  0.00  0.00     0.066 H 
ATOM     34  H   LIG d   1       4.013  -5.020  -6.089  0.00  0.00     0.066 H 
ENDBRANCH  30  31
ENDBRANCH   3  30
BRANCH   4  35
ATOM     35  C   LIG d   1       8.574  -4.808  -4.496  0.00  0.00    -0.036 C 
ATOM     36  H   LIG d   1       8.713  -5.194  -5.505  0.00  0.00     0.028 H 
ATOM     37  H   LIG d   1       9.513  -4.388  -4.135  0.00  0.00     0.028 H 
ATOM     38  H   LIG d   1       8.261  -5.617  -3.836  0.00  0.00     0.028 H 
ENDBRANCH   4  35
TORSDOF 10
ENDMDL
MODEL 5
REMARK VINA RESULT:      -4.1      2.156      4.782
REMARK  10 active torsions:
REMARK  status: ('A' for Active; 'I' for Inactive)
REMARK    1  A    between atoms: C_1  and  C_2 
REMARK    2  A    between atoms: C_2  and  C_3 
REMARK    3  A    between atoms: C_3  and  C_5 
REMARK    4  A    between atoms: C_3  and  N_37 
REMARK    5  A    between atoms: C_5  and  C_6 
REMARK    6  A    between atoms: C_8  and  O_15 
REMARK    7  A    between atoms: C_9  and  C_14 
REMARK    8  A    between atoms: C_11  and  O_12 
REMARK    9  A    between atoms: O_12  and  C_13 
REMARK   10  A    between atoms: O_15  and  C_16 
ROOT
ATOM      1  C   LIG d   1       4.227  -0.882  -5.825  0.00  0.00     0.003 A 
ATOM      2  C   LIG d   1       3.449  -0.049  -6.605  0.00  0.00    -0.013 A 
ATOM      3  C   LIG d   1       3.102  -0.430  -7.893  0.00  0.00     0.123 A 
ATOM      4  C   LIG d   1       3.537  -1.646  -8.397  0.00  0.00    -0.005 A 
ATOM      5  C   LIG d   1       4.315  -2.479  -7.617  0.00  0.00    -0.013 A 
ATOM      6  C   LIG d   1       4.665  -2.096  -6.330  0.00  0.00     0.124 A 
ATOM      7  H   LIG d   1       3.110   0.898  -6.213  0.00  0.00     0.066 H 
ATOM      8  H   LIG d   1       4.653  -3.426  -8.010  0.00  0.00     0.066 H 
ENDROOT
BRANCH   1   9
ATOM      9  C   LIG d   1       4.603  -0.468  -4.425  0.00  0.00     0.019 C 
ATOM     10  H   LIG d   1       4.432   0.603  -4.305  0.00  0.00     0.037 H 
ATOM     11  H   LIG d   1       5.656  -0.688  -4.252  0.00  0.00     0.037 H 
BRANCH   9  12
ATOM     12  C   LIG d   1       3.748  -1.239  -3.418  0.00  0.00    -0.021 C 
ATOM     13  H   LIG d   1       3.789  -2.304  -3.646  0.00  0.00     0.085 H 
BRANCH  12  14
ATOM     14  C   LIG d   1       4.284  -0.999  -2.005  0.00  0.00    -0.012 C 
ATOM     15  H   LIG d   1       5.231  -1.523  -1.881  0.00  0.00     0.032 H 
ATOM     16  H   LIG d   1       3.565  -1.371  -1.276  0.00  0.00     0.032 H 
BRANCH  14  17
ATOM     17  C   LIG d   1       4.498   0.501  -1.790  0.00  0.00    -0.060 C 
ATOM     18  H   LIG d   1       5.534   0.681  -1.499  0.00  0.00     0.023 H 
ATOM     19  H   LIG d   1       4.281   1.036  -2.714  0.00  0.00     0.023 H 
ATOM     20  H   LIG d   1       3.834   0.853  -1.001  0.00  0.00     0.023 H 
ENDBRANCH  14  17
ENDBRANCH  12  14
BRANCH  12  21
ATOM     21  N   LIG d   1       2.352  -0.778  -3.525  0.00  0.00     0.221 N 
ATOM     22  H   LIG d   1       2.249   0.131  -3.074  0.00  0.00     0.200 HD
ATOM     23  H   LIG d   1       2.083  -0.701  -4.504  0.00  0.00     0.200 HD
ATOM     24  H   LIG d   1       1.736  -1.454  -3.059  0.00  0.00     0.200 HD
ENDBRANCH  12  21
ENDBRANCH   9  12
ENDBRANCH   1   9
BRANCH   6  25
ATOM     25  O   LIG d   1       5.436  -2.914  -5.564  0.00  0.00    -0.495 OA
BRANCH  25  26
ATOM     26  C   LIG d   1       4.956  -4.242  -5.346  0.00  0.00     0.079 C 
ATOM     27  H   LIG d   1       3.948  -4.201  -4.932  0.00  0.00     0.066 H 
ATOM     28  H   LIG d   1       4.939  -4.782  -6.292  0.00  0.00     0.066 H 
ATOM     29  H   LIG d   1       5.616  -4.756  -4.646  0.00  0.00     0.066 H 
ENDBRANCH  25  26
ENDBRANCH   6  25
BRANCH   3  30
ATOM     30  O   LIG d   1       2.336   0.390  -8.661  0.00  0.00    -0.495 OA
BRANCH  30  31
ATOM     31  C   LIG d   1       2.764   1.747  -8.787  0.00  0.00     0.079 C 
ATOM     32  H   LIG d   1       1.952   2.348  -9.199  0.00  0.00     0.066 H 
ATOM     33  H   LIG d   1       3.040   2.134  -7.806  0.00  0.00     0.066 H 
ATOM     34  H   LIG d   1       3.627   1.796  -9.451  0.00  0.00     0.066 H 
ENDBRANCH  30  31
ENDBRANCH   3  30
BRANCH   4  35
ATOM     35  C   LIG d   1       3.161  -2.060  -9.797  0.00  0.00    -0.036 C 
ATOM     36  H   LIG d   1       2.090  -2.255  -9.843  0.00  0.00     0.028 H 
ATOM     37  H   LIG d   1       3.414  -1.259 -10.492  0.00  0.00     0.028 H 
ATOM     38  H   LIG d   1       3.707  -2.963 -10.068  0.00  0.00     0.028 H 
ENDBRANCH   4  35
TORSDOF 10
ENDMDL
MODEL 6
REMARK VINA RESULT:      -4.0      1.477      1.713
REMARK  10 active torsions:
REMARK  status: ('A' for Active; 'I' for Inactive)
REMARK    1  A    between atoms: C_1  and  C_2 
REMARK    2  A    between atoms: C_2  and  C_3 
REMARK    3  A    between atoms: C_3  and  C_5 
REMARK    4  A    between atoms: C_3  and  N_37 
REMARK    5  A    between atoms: C_5  and  C_6 
REMARK    6  A    between atoms: C_8  and  O_15 
REMARK    7  A    between atoms: C_9  and  C_14 
REMARK    8  A    between atoms: C_11  and  O_12 
REMARK    9  A    between atoms: O_12  and  C_13 
REMARK   10  A    between atoms: O_15  and  C_16 
ROOT
ATOM      1  C   LIG d   1       3.281  -0.377  -6.705  0.00  0.00     0.003 A 
ATOM      2  C   LIG d   1       2.902   0.201  -5.509  0.00  0.00    -0.013 A 
ATOM      3  C   LIG d   1       3.418  -0.277  -4.314  0.00  0.00     0.123 A 
ATOM      4  C   LIG d   1       4.312  -1.337  -4.320  0.00  0.00    -0.005 A 
ATOM      5  C   LIG d   1       4.691  -1.915  -5.515  0.00  0.00    -0.013 A 
ATOM      6  C   LIG d   1       4.172  -1.439  -6.711  0.00  0.00     0.124 A 
ATOM      7  H   LIG d   1       2.205   1.026  -5.505  0.00  0.00     0.066 H 
ATOM      8  H   LIG d   1       5.388  -2.740  -5.520  0.00  0.00     0.066 H 
ENDROOT
BRANCH   1   9
ATOM      9  C   LIG d   1       2.721   0.143  -8.004  0.00  0.00     0.019 C 
ATOM     10  H   LIG d   1       1.723   0.549  -7.833  0.00  0.00     0.037 H 
ATOM     11  H   LIG d   1       2.663  -0.670  -8.727  0.00  0.00     0.037 H 
BRANCH   9  12
ATOM     12  C   LIG d   1       3.633   1.245  -8.548  0.00  0.00    -0.021 C 
ATOM     13  H   LIG d   1       4.602   1.192  -8.052  0.00  0.00     0.085 H 
BRANCH  12  14
ATOM     14  C   LIG d   1       3.819   1.056 -10.055  0.00  0.00    -0.012 C 
ATOM     15  H   LIG d   1       4.855   0.789 -10.263  0.00  0.00     0.032 H 
ATOM     16  H   LIG d   1       3.572   1.983 -10.571  0.00  0.00     0.032 H 
BRANCH  14  17
ATOM     17  C   LIG d   1       2.896  -0.062 -10.545  0.00  0.00    -0.060 C 
ATOM     18  H   LIG d   1       2.839  -0.034 -11.634  0.00  0.00     0.023 H 
ATOM     19  H   LIG d   1       3.291  -1.026 -10.226  0.00  0.00     0.023 H 
ATOM     20  H   LIG d   1       1.900   0.080 -10.126  0.00  0.00     0.023 H 
ENDBRANCH  14  17
ENDBRANCH  12  14
BRANCH  12  21
ATOM     21  N   LIG d   1       3.020   2.555  -8.265  0.00  0.00     0.221 N 
ATOM     22  H   LIG d   1       2.324   2.775  -8.975  0.00  0.00     0.200 HD
ATOM     23  H   LIG d   1       2.576   2.543  -7.348  0.00  0.00     0.200 HD
ATOM     24  H   LIG d   1       3.748   3.278  -8.275  0.00  0.00     0.200 HD
ENDBRANCH  12  21
ENDBRANCH   9  12
ENDBRANCH   1   9
BRANCH   6  25
ATOM     25  O   LIG d   1       4.541  -2.012  -7.888  0.00  0.00    -0.495 OA
BRANCH  25  26
ATOM     26  C   LIG d   1       4.011  -3.308  -8.173  0.00  0.00     0.079 C 
ATOM     27  H   LIG d   1       3.167  -3.212  -8.857  0.00  0.00     0.066 H 
ATOM     28  H   LIG d   1       4.783  -3.923  -8.634  0.00  0.00     0.066 H 
ATOM     29  H   LIG d   1       3.677  -3.776  -7.247  0.00  0.00     0.066 H 
ENDBRANCH  25  26
ENDBRANCH   6  25
BRANCH   3  30
ATOM     30  O   LIG d   1       3.045   0.291  -3.137  0.00  0.00    -0.495 OA
BRANCH  30  31
ATOM     31  C   LIG d   1       3.657   1.537  -2.797  0.00  0.00     0.079 C 
ATOM     32  H   LIG d   1       4.646   1.594  -3.254  0.00  0.00     0.066 H 
ATOM     33  H   LIG d   1       3.040   2.358  -3.164  0.00  0.00     0.066 H 
ATOM     34  H   LIG d   1       3.752   1.612  -1.713  0.00  0.00     0.066 H 
ENDBRANCH  30  31
ENDBRANCH   3  30
BRANCH   4  35
ATOM     35  C   LIG d   1       4.872  -1.858  -3.020  0.00  0.00    -0.036 C 
ATOM     36  H   LIG d   1       5.233  -2.875  -3.162  0.00  0.00     0.028 H 
ATOM     37  H   LIG d   1       5.697  -1.221  -2.700  0.00  0.00     0.028 H 
ATOM     38  H   LIG d   1       4.091  -1.851  -2.260  0.00  0.00     0.028 H 
ENDBRANCH   4  35
TORSDOF 10
ENDMDL
MODEL 7
REMARK VINA RESULT:      -3.9      1.703      3.824
REMARK  10 active torsions:
REMARK  status: ('A' for Active; 'I' for Inactive)
REMARK    1  A    between atoms: C_1  and  C_2 
REMARK    2  A    between atoms: C_2  and  C_3 
REMARK    3  A    between atoms: C_3  and  C_5 
REMARK    4  A    between atoms: C_3  and  N_37 
REMARK    5  A    between atoms: C_5  and  C_6 
REMARK    6  A    between atoms: C_8  and  O_15 
REMARK    7  A    between atoms: C_9  and  C_14 
REMARK    8  A    between atoms: C_11  and  O_12 
REMARK    9  A    between atoms: O_12  and  C_13 
REMARK   10  A    between atoms: O_15  and  C_16 
ROOT
ATOM      1  C   LIG d   1       3.994  -0.448  -5.420  0.00  0.00     0.003 A 
ATOM      2  C   LIG d   1       4.590  -1.572  -5.958  0.00  0.00    -0.013 A 
ATOM      3  C   LIG d   1       5.659  -2.168  -5.307  0.00  0.00     0.123 A 
ATOM      4  C   LIG d   1       6.131  -1.635  -4.117  0.00  0.00    -0.005 A 
ATOM      5  C   LIG d   1       5.536  -0.511  -3.579  0.00  0.00    -0.013 A 
ATOM      6  C   LIG d   1       4.468   0.088  -4.233  0.00  0.00     0.124 A 
ATOM      7  H   LIG d   1       4.223  -1.987  -6.885  0.00  0.00     0.066 H 
ATOM      8  H   LIG d   1       5.903  -0.097  -2.652  0.00  0.00     0.066 H 
ENDROOT
BRANCH   1   9
ATOM      9  C   LIG d   1       2.832   0.200  -6.128  0.00  0.00     0.019 C 
ATOM     10  H   LIG d   1       2.590   1.146  -5.640  0.00  0.00     0.037 H 
ATOM     11  H   LIG d   1       1.966  -0.461  -6.086  0.00  0.00     0.037 H 
BRANCH   9  12
ATOM     12  C   LIG d   1       3.204   0.460  -7.589  0.00  0.00    -0.021 C 
ATOM     13  H   LIG d   1       4.243   0.175  -7.755  0.00  0.00     0.085 H 
BRANCH  12  14
ATOM     14  C   LIG d   1       2.296  -0.366  -8.502  0.00  0.00    -0.012 C 
ATOM     15  H   LIG d   1       1.255  -0.201  -8.225  0.00  0.00     0.032 H 
ATOM     16  H   LIG d   1       2.537  -1.422  -8.394  0.00  0.00     0.032 H 
BRANCH  14  17
ATOM     17  C   LIG d   1       2.511   0.061  -9.955  0.00  0.00    -0.060 C 
ATOM     18  H   LIG d   1       2.815   1.108  -9.985  0.00  0.00     0.023 H 
ATOM     19  H   LIG d   1       3.287  -0.557 -10.405  0.00  0.00     0.023 H 
ATOM     20  H   LIG d   1       1.581  -0.062 -10.511  0.00  0.00     0.023 H 
ENDBRANCH  14  17
ENDBRANCH  12  14
BRANCH  12  21
ATOM     21  N   LIG d   1       3.050   1.898  -7.872  0.00  0.00     0.221 N 
ATOM     22  H   LIG d   1       3.118   2.434  -7.008  0.00  0.00     0.200 HD
ATOM     23  H   LIG d   1       3.773   2.207  -8.519  0.00  0.00     0.200 HD
ATOM     24  H   LIG d   1       2.130   2.062  -8.296  0.00  0.00     0.200 HD
ENDBRANCH  12  21
ENDBRANCH   9  12
ENDBRANCH   1   9
BRANCH   6  25
ATOM     25  O   LIG d   1       3.885   1.198  -3.706  0.00  0.00    -0.495 OA
BRANCH  25  26
ATOM     26  C   LIG d   1       3.730   1.238  -2.286  0.00  0.00     0.079 C 
ATOM     27  H   LIG d   1       3.734   2.275  -1.949  0.00  0.00     0.066 H 
ATOM     28  H   LIG d   1       2.785   0.771  -2.011  0.00  0.00     0.066 H 
ATOM     29  H   LIG d   1       4.552   0.699  -1.815  0.00  0.00     0.066 H 
ENDBRANCH  25  26
ENDBRANCH   6  25
BRANCH   3  30
ATOM     30  O   LIG d   1       6.246  -3.275  -5.836  0.00  0.00    -0.495 OA
BRANCH  30  31
ATOM     31  C   LIG d   1       5.478  -4.480  -5.831  0.00  0.00     0.079 C 
ATOM     32  H   LIG d   1       5.866  -5.155  -5.067  0.00  0.00     0.066 H 
ATOM     33  H   LIG d   1       4.436  -4.247  -5.615  0.00  0.00     0.066 H 
ATOM     34  H   LIG d   1       5.548  -4.959  -6.808  0.00  0.00     0.066 H 
ENDBRANCH  30  31
ENDBRANCH   3  30
BRANCH   4  35
ATOM     35  C   LIG d   1       7.294  -2.283  -3.410  0.00  0.00    -0.036 C 
ATOM     36  H   LIG d   1       7.714  -3.064  -4.042  0.00  0.00     0.028 H 
ATOM     37  H   LIG d   1       8.058  -1.533  -3.204  0.00  0.00     0.028 H 
ATOM     38  H   LIG d   1       6.951  -2.719  -2.471  0.00  0.00     0.028 H 
ENDBRANCH   4  35
TORSDOF 10
ENDMDL
MODEL 8
REMARK VINA RESULT:      -3.9     10.821     12.652
REMARK  10 active torsions:
REMARK  status: ('A' for Active; 'I' for Inactive)
REMARK    1  A    between atoms: C_1  and  C_2 
REMARK    2  A    between atoms: C_2  and  C_3 
REMARK    3  A    between atoms: C_3  and  C_5 
REMARK    4  A    between atoms: C_3  and  N_37 
REMARK    5  A    between atoms: C_5  and  C_6 
REMARK    6  A    between atoms: C_8  and  O_15 
REMARK    7  A    between atoms: C_9  and  C_14 
REMARK    8  A    between atoms: C_11  and  O_12 
REMARK    9  A    between atoms: O_12  and  C_13 
REMARK   10  A    between atoms: O_15  and  C_16 
ROOT
ATOM      1  C   LIG d   1      10.547   8.612  -1.402  0.00  0.00     0.003 A 
ATOM      2  C   LIG d   1      11.139   8.966  -0.205  0.00  0.00    -0.013 A 
ATOM      3  C   LIG d   1      11.304   8.019   0.794  0.00  0.00     0.123 A 
ATOM      4  C   LIG d   1      10.874   6.716   0.592  0.00  0.00    -0.005 A 
ATOM      5  C   LIG d   1      10.282   6.361  -0.604  0.00  0.00    -0.013 A 
ATOM      6  C   LIG d   1      10.114   7.310  -1.603  0.00  0.00     0.124 A 
ATOM      7  H   LIG d   1      11.473   9.981  -0.047  0.00  0.00     0.066 H 
ATOM      8  H   LIG d   1       9.948   5.347  -0.762  0.00  0.00     0.066 H 
ENDROOT
BRANCH   1   9
ATOM      9  C   LIG d   1      10.368   9.641  -2.488  0.00  0.00     0.019 C 
ATOM     10  H   LIG d   1       9.821   9.199  -3.321  0.00  0.00     0.037 H 
ATOM     11  H   LIG d   1      11.345   9.979  -2.833  0.00  0.00     0.037 H 
BRANCH   9  12
ATOM     12  C   LIG d   1       9.582  10.833  -1.936  0.00  0.00    -0.021 C 
ATOM     13  H   LIG d   1      10.074  11.209  -1.039  0.00  0.00     0.085 H 
BRANCH  12  14
ATOM     14  C   LIG d   1       9.529  11.940  -2.990  0.00  0.00    -0.012 C 
ATOM     15  H   LIG d   1      10.519  12.380  -3.106  0.00  0.00     0.032 H 
ATOM     16  H   LIG d   1       8.825  12.709  -2.675  0.00  0.00     0.032 H 
BRANCH  14  17
ATOM     17  C   LIG d   1       9.073  11.350  -4.327  0.00  0.00    -0.060 C 
ATOM     18  H   LIG d   1       8.290  10.613  -4.150  0.00  0.00     0.023 H 
ATOM     19  H   LIG d   1       8.687  12.146  -4.963  0.00  0.00     0.023 H 
ATOM     20  H   LIG d   1       9.919  10.869  -4.818  0.00  0.00     0.023 H 
ENDBRANCH  14  17
ENDBRANCH  12  14
BRANCH  12  21
ATOM     21  N   LIG d   1       8.222  10.387  -1.588  0.00  0.00     0.221 N 
ATOM     22  H   LIG d   1       7.653  11.186  -1.310  0.00  0.00     0.200 HD
ATOM     23  H   LIG d   1       7.789   9.926  -2.386  0.00  0.00     0.200 HD
ATOM     24  H   LIG d   1       8.273   9.725  -0.806  0.00  0.00     0.200 HD
ENDBRANCH  12  21
ENDBRANCH   9  12
ENDBRANCH   1   9
BRANCH   6  25
ATOM     25  O   LIG d   1       9.526   6.962  -2.779  0.00  0.00    -0.495 OA
BRANCH  25  26
ATOM     26  C   LIG d   1       9.878   5.692  -3.330  0.00  0.00     0.079 C 
ATOM     27  H   LIG d   1       9.174   4.936  -2.981  0.00  0.00     0.066 H 
ATOM     28  H   LIG d   1       9.844   5.746  -4.418  0.00  0.00     0.066 H 
ATOM     29  H   LIG d   1      10.886   5.425  -3.012  0.00  0.00     0.066 H 
ENDBRANCH  25  26
ENDBRANCH   6  25
BRANCH   3  30
ATOM     30  O   LIG d   1      11.886   8.367   1.972  0.00  0.00    -0.495 OA
BRANCH  30  31
ATOM     31  C   LIG d   1      12.150   9.756   2.179  0.00  0.00     0.079 C 
ATOM     32  H   LIG d   1      13.212   9.899   2.382  0.00  0.00     0.066 H 
ATOM     33  H   LIG d   1      11.871  10.316   1.287  0.00  0.00     0.066 H 
ATOM     34  H   LIG d   1      11.566  10.114   3.028  0.00  0.00     0.066 H 
ENDBRANCH  30  31
ENDBRANCH   3  30
BRANCH   4  35
ATOM     35  C   LIG d   1      11.053   5.686   1.678  0.00  0.00    -0.036 C 
ATOM     36  H   LIG d   1      11.562   4.813   1.272  0.00  0.00     0.028 H 
ATOM     37  H   LIG d   1      11.648   6.111   2.486  0.00  0.00     0.028 H 
ATOM     38  H   LIG d   1      10.076   5.390   2.063  0.00  0.00     0.028 H 
ENDBRANCH   4  35
TORSDOF 10
ENDMDL
MODEL 9
REMARK VINA RESULT:      -3.8      9.070     11.087
REMARK  10 active torsions:
REMARK  status: ('A' for Active; 'I' for Inactive)
REMARK    1  A    between atoms: C_1  and  C_2 
REMARK    2  A    between atoms: C_2  and  C_3 
REMARK    3  A    between atoms: C_3  and  C_5 
REMARK    4  A    between atoms: C_3  and  N_37 
REMARK    5  A    between atoms: C_5  and  C_6 
REMARK    6  A    between atoms: C_8  and  O_15 
REMARK    7  A    between atoms: C_9  and  C_14 
REMARK    8  A    between atoms: C_11  and  O_12 
REMARK    9  A    between atoms: O_12  and  C_13 
REMARK   10  A    between atoms: O_15  and  C_16 
ROOT
ATOM      1  C   LIG d   1       9.893   6.230  -2.826  0.00  0.00     0.003 A 
ATOM      2  C   LIG d   1      10.089   7.395  -3.541  0.00  0.00    -0.013 A 
ATOM      3  C   LIG d   1      10.085   7.368  -4.927  0.00  0.00     0.123 A 
ATOM      4  C   LIG d   1       9.885   6.169  -5.596  0.00  0.00    -0.005 A 
ATOM      5  C   LIG d   1       9.690   5.004  -4.882  0.00  0.00    -0.013 A 
ATOM      6  C   LIG d   1       9.698   5.031  -3.494  0.00  0.00     0.124 A 
ATOM      7  H   LIG d   1      10.245   8.328  -3.020  0.00  0.00     0.066 H 
ATOM      8  H   LIG d   1       9.534   4.071  -5.403  0.00  0.00     0.066 H 
ENDROOT
BRANCH   1   9
ATOM      9  C   LIG d   1       9.898   6.260  -1.319  0.00  0.00     0.019 C 
ATOM     10  H   LIG d   1       9.237   5.480  -0.938  0.00  0.00     0.037 H 
ATOM     11  H   LIG d   1       9.547   7.232  -0.974  0.00  0.00     0.037 H 
BRANCH   9  12
ATOM     12  C   LIG d   1      11.320   6.020  -0.808  0.00  0.00    -0.021 C 
ATOM     13  H   LIG d   1      12.037   6.398  -1.537  0.00  0.00     0.085 H 
BRANCH  12  14
ATOM     14  C   LIG d   1      11.513   6.748   0.523  0.00  0.00    -0.012 C 
ATOM     15  H   LIG d   1      10.951   7.682   0.512  0.00  0.00     0.032 H 
ATOM     16  H   LIG d   1      12.571   6.964   0.669  0.00  0.00     0.032 H 
BRANCH  14  17
ATOM     17  C   LIG d   1      11.012   5.863   1.666  0.00  0.00    -0.060 C 
ATOM     18  H   LIG d   1      11.503   4.891   1.615  0.00  0.00     0.023 H 
ATOM     19  H   LIG d   1      11.240   6.337   2.620  0.00  0.00     0.023 H 
ATOM     20  H   LIG d   1       9.934   5.730   1.575  0.00  0.00     0.023 H 
ENDBRANCH  14  17
ENDBRANCH  12  14
BRANCH  12  21
ATOM     21  N   LIG d   1      11.528   4.571  -0.637  0.00  0.00     0.221 N 
ATOM     22  H   LIG d   1      10.975   4.229   0.148  0.00  0.00     0.200 HD
ATOM     23  H   LIG d   1      11.253   4.075  -1.484  0.00  0.00     0.200 HD
ATOM     24  H   LIG d   1      12.520   4.391  -0.451  0.00  0.00     0.200 HD
ENDBRANCH  12  21
ENDBRANCH   9  12
ENDBRANCH   1   9
BRANCH   6  25
ATOM     25  O   LIG d   1       9.511   3.882  -2.791  0.00  0.00    -0.495 OA
BRANCH  25  26
ATOM     26  C   LIG d   1       9.509   2.660  -3.532  0.00  0.00     0.079 C 
ATOM     27  H   LIG d   1       8.670   2.660  -4.230  0.00  0.00     0.066 H 
ATOM     28  H   LIG d   1      10.442   2.570  -4.086  0.00  0.00     0.066 H 
ATOM     29  H   LIG d   1       9.411   1.819  -2.845  0.00  0.00     0.066 H 
ENDBRANCH  25  26
ENDBRANCH   6  25
BRANCH   3  30
ATOM     30  O   LIG d   1      10.277   8.515  -5.631  0.00  0.00    -0.495 OA
BRANCH  30  31
ATOM     31  C   LIG d   1       9.532   9.662  -5.217  0.00  0.00     0.079 C 
ATOM     32  H   LIG d   1      10.127  10.560  -5.379  0.00  0.00     0.066 H 
ATOM     33  H   LIG d   1       8.611   9.726  -5.798  0.00  0.00     0.066 H 
ATOM     34  H   LIG d   1       9.286   9.573  -4.158  0.00  0.00     0.066 H 
ENDBRANCH  30  31
ENDBRANCH   3  30
BRANCH   4  35
ATOM     35  C   LIG d   1       9.881   6.139  -7.103  0.00  0.00    -0.036 C 
ATOM     36  H   LIG d   1       8.956   6.579  -7.473  0.00  0.00     0.028 H 
ATOM     37  H   LIG d   1      10.731   6.709  -7.480  0.00  0.00     0.028 H 
ATOM     38  H   LIG d   1       9.956   5.107  -7.446  0.00  0.00     0.028 H 
ENDBRANCH   4  35
TORSDOF 10
ENDMDL
MODEL 10
REMARK VINA RESULT:      -3.7      8.747     10.022
REMARK  10 active torsions:
REMARK  status: ('A' for Active; 'I' for Inactive)
REMARK    1  A    between atoms: C_1  and  C_2 
REMARK    2  A    between atoms: C_2  and  C_3 
REMARK    3  A    between atoms: C_3  and  C_5 
REMARK    4  A    between atoms: C_3  and  N_37 
REMARK    5  A    between atoms: C_5  and  C_6 
REMARK    6  A    between atoms: C_8  and  O_15 
REMARK    7  A    between atoms: C_9  and  C_14 
REMARK    8  A    between atoms: C_11  and  O_12 
REMARK    9  A    between atoms: O_12  and  C_13 
REMARK   10  A    between atoms: O_15  and  C_16 
ROOT
ATOM      1  C   LIG d   1       9.689   6.000  -3.213  0.00  0.00     0.003 A 
ATOM      2  C   LIG d   1       9.426   7.053  -2.358  0.00  0.00    -0.013 A 
ATOM      3  C   LIG d   1       9.918   7.033  -1.062  0.00  0.00     0.123 A 
ATOM      4  C   LIG d   1      10.674   5.955  -0.624  0.00  0.00    -0.005 A 
ATOM      5  C   LIG d   1      10.936   4.903  -1.478  0.00  0.00    -0.013 A 
ATOM      6  C   LIG d   1      10.441   4.921  -2.774  0.00  0.00     0.124 A 
ATOM      7  H   LIG d   1       8.837   7.891  -2.699  0.00  0.00     0.066 H 
ATOM      8  H   LIG d   1      11.525   4.064  -1.137  0.00  0.00     0.066 H 
ENDROOT
BRANCH   1   9
ATOM      9  C   LIG d   1       9.154   6.022  -4.621  0.00  0.00     0.019 C 
ATOM     10  H   LIG d   1       8.086   6.246  -4.601  0.00  0.00     0.037 H 
ATOM     11  H   LIG d   1       9.312   5.050  -5.086  0.00  0.00     0.037 H 
BRANCH   9  12
ATOM     12  C   LIG d   1       9.884   7.098  -5.428  0.00  0.00    -0.021 C 
ATOM     13  H   LIG d   1      10.759   7.436  -4.873  0.00  0.00     0.085 H 
BRANCH  12  14
ATOM     14  C   LIG d   1      10.326   6.516  -6.772  0.00  0.00    -0.012 C 
ATOM     15  H   LIG d   1      11.411   6.574  -6.855  0.00  0.00     0.032 H 
ATOM     16  H   LIG d   1       9.869   7.083  -7.582  0.00  0.00     0.032 H 
BRANCH  14  17
ATOM     17  C   LIG d   1       9.885   5.053  -6.863  0.00  0.00    -0.060 C 
ATOM     18  H   LIG d   1       9.538   4.717  -5.885  0.00  0.00     0.023 H 
ATOM     19  H   LIG d   1       9.077   4.961  -7.588  0.00  0.00     0.023 H 
ATOM     20  H   LIG d   1      10.729   4.439  -7.178  0.00  0.00     0.023 H 
ENDBRANCH  14  17
ENDBRANCH  12  14
BRANCH  12  21
ATOM     21  N   LIG d   1       8.976   8.240  -5.635  0.00  0.00     0.221 N 
ATOM     22  H   LIG d   1       8.663   8.266  -6.604  0.00  0.00     0.200 HD
ATOM     23  H   LIG d   1       8.167   8.159  -5.021  0.00  0.00     0.200 HD
ATOM     24  H   LIG d   1       9.473   9.111  -5.420  0.00  0.00     0.200 HD
ENDBRANCH  12  21
ENDBRANCH   9  12
ENDBRANCH   1   9
BRANCH   6  25
ATOM     25  O   LIG d   1      10.695   3.882  -3.613  0.00  0.00    -0.495 OA
BRANCH  25  26
ATOM     26  C   LIG d   1      10.497   2.566  -3.096  0.00  0.00     0.079 C 
ATOM     27  H   LIG d   1       9.552   2.527  -2.551  0.00  0.00     0.066 H 
ATOM     28  H   LIG d   1      10.471   1.852  -3.918  0.00  0.00     0.066 H 
ATOM     29  H   LIG d   1      11.315   2.313  -2.421  0.00  0.00     0.066 H 
ENDBRANCH  25  26
ENDBRANCH   6  25
BRANCH   3  30
ATOM     30  O   LIG d   1       9.660   8.069  -0.220  0.00  0.00    -0.495 OA
BRANCH  30  31
ATOM     31  C   LIG d   1       8.962   9.190  -0.767  0.00  0.00     0.079 C 
ATOM     32  H   LIG d   1       7.907   8.941  -0.881  0.00  0.00     0.066 H 
ATOM     33  H   LIG d   1       9.065  10.044  -0.097  0.00  0.00     0.066 H 
ATOM     34  H   LIG d   1       9.385   9.440  -1.740  0.00  0.00     0.066 H 
ENDBRANCH  30  31
ENDBRANCH   3  30
BRANCH   4  35
ATOM     35  C   LIG d   1      11.209   5.933   0.786  0.00  0.00    -0.036 C 
ATOM     36  H   LIG d   1      10.703   6.695   1.378  0.00  0.00     0.028 H 
ATOM     37  H   LIG d   1      11.030   4.953   1.227  0.00  0.00     0.028 H 
ATOM     38  H   LIG d   1      12.279   6.135   0.771  0.00  0.00     0.028 H 
ENDBRANCH   4  35
TORSDOF 10
ENDMDL
