MODEL 1
REMARK VINA RESULT:      -4.8      0.000      0.000
REMARK  3 active torsions:
REMARK  status: ('A' for Active; 'I' for Inactive)
REMARK    1  A    between atoms: C_3  and  O_10 
REMARK    2  A    between atoms: C_6  and  C_7 
REMARK    3  A    between atoms: C_7  and  O_8 
ROOT
ATOM      1  C   LIG d   1       4.086  -2.160  -2.752  0.00  0.00    -0.053 A 
ATOM      2  C   LIG d   1       4.076  -0.986  -2.025  0.00  0.00    -0.019 A 
ATOM      3  C   LIG d   1       4.998   0.012  -2.307  0.00  0.00     0.131 A 
ATOM      4  C   LIG d   1       5.923  -0.171  -3.326  0.00  0.00     0.060 A 
ATOM      5  C   LIG d   1       5.924  -1.344  -4.055  0.00  0.00    -0.039 A 
ATOM      6  C   LIG d   1       5.005  -2.337  -3.770  0.00  0.00    -0.021 A 
ATOM      7 BR   LIG d   1       7.181   1.186  -3.715  0.00  0.00    -0.046 Br
ATOM      8  H   LIG d   1       3.371  -2.939  -2.530  0.00  0.00     0.062 H 
ATOM      9  H   LIG d   1       3.355  -0.847  -1.232  0.00  0.00     0.065 H 
ATOM     10  H   LIG d   1       6.644  -1.486  -4.847  0.00  0.00     0.063 H 
ENDROOT
BRANCH   6  11
ATOM     11  C   LIG d   1       5.008  -3.617  -4.566  0.00  0.00     0.069 C 
ATOM     12  H   LIG d   1       5.963  -3.723  -5.080  0.00  0.00     0.061 H 
ATOM     13  H   LIG d   1       4.862  -4.463  -3.893  0.00  0.00     0.061 H 
BRANCH  11  14
ATOM     14  O   LIG d   1       3.950  -3.583  -5.526  0.00  0.00    -0.390 OA
ATOM     15  H   LIG d   1       3.645  -4.458  -5.805  0.00  0.00     0.210 HD
ENDBRANCH  11  14
ENDBRANCH   6  11
BRANCH   3  16
ATOM     16  O   LIG d   1       4.994   1.165  -1.588  0.00  0.00    -0.506 OA
ATOM     17  H   LIG d   1       5.414   1.910  -2.039  0.00  0.00     0.292 HD
ENDBRANCH   3  16
TORSDOF 3
ENDMDL
MODEL 2
REMARK VINA RESULT:      -4.6      2.084      3.984
REMARK  3 active torsions:
REMARK  status: ('A' for Active; 'I' for Inactive)
REMARK    1  A    between atoms: C_3  and  O_10 
REMARK    2  A    between atoms: C_6  and  C_7 
REMARK    3  A    between atoms: C_7  and  O_8 
ROOT
ATOM      1  C   LIG d   1       3.930  -1.066  -2.098  0.00  0.00    -0.053 A 
ATOM      2  C   LIG d   1       4.119  -2.335  -2.608  0.00  0.00    -0.019 A 
ATOM      3  C   LIG d   1       4.330  -2.511  -3.968  0.00  0.00     0.131 A 
ATOM      4  C   LIG d   1       4.357  -1.409  -4.811  0.00  0.00     0.060 A 
ATOM      5  C   LIG d   1       4.174  -0.141  -4.295  0.00  0.00    -0.039 A 
ATOM      6  C   LIG d   1       3.963   0.031  -2.939  0.00  0.00    -0.021 A 
ATOM      7 BR   LIG d   1       4.644  -1.643  -6.666  0.00  0.00    -0.046 Br
ATOM      8  H   LIG d   1       3.762  -0.930  -1.040  0.00  0.00     0.062 H 
ATOM      9  H   LIG d   1       4.098  -3.192  -1.950  0.00  0.00     0.065 H 
ATOM     10  H   LIG d   1       4.194   0.717  -4.950  0.00  0.00     0.063 H 
ENDROOT
BRANCH   6  11
ATOM     11  C   LIG d   1       3.762   1.415  -2.377  0.00  0.00     0.069 C 
ATOM     12  H   LIG d   1       2.886   1.421  -1.730  0.00  0.00     0.061 H 
ATOM     13  H   LIG d   1       4.642   1.704  -1.801  0.00  0.00     0.061 H 
BRANCH  11  14
ATOM     14  O   LIG d   1       3.570   2.340  -3.449  0.00  0.00    -0.390 OA
ATOM     15  H   LIG d   1       3.628   1.941  -4.328  0.00  0.00     0.210 HD
ENDBRANCH  11  14
ENDBRANCH   6  11
BRANCH   3  16
ATOM     16  O   LIG d   1       4.511  -3.760  -4.474  0.00  0.00    -0.506 OA
ATOM     17  H   LIG d   1       4.232  -3.855  -5.394  0.00  0.00     0.292 HD
ENDBRANCH   3  16
TORSDOF 3
ENDMDL
MODEL 3
REMARK VINA RESULT:      -4.3      2.716      3.201
REMARK  3 active torsions:
REMARK  status: ('A' for Active; 'I' for Inactive)
REMARK    1  A    between atoms: C_3  and  O_10 
REMARK    2  A    between atoms: C_6  and  C_7 
REMARK    3  A    between atoms: C_7  and  O_8 
ROOT
ATOM      1  C   LIG d   1       4.494  -1.565  -2.514  0.00  0.00    -0.053 A 
ATOM      2  C   LIG d   1       3.185  -1.218  -2.788  0.00  0.00    -0.019 A 
ATOM      3  C   LIG d   1       2.844  -0.737  -4.043  0.00  0.00     0.131 A 
ATOM      4  C   LIG d   1       3.819  -0.612  -5.024  0.00  0.00     0.060 A 
ATOM      5  C   LIG d   1       5.125  -0.966  -4.747  0.00  0.00    -0.039 A 
ATOM      6  C   LIG d   1       5.462  -1.444  -3.494  0.00  0.00    -0.021 A 
ATOM      7 BR   LIG d   1       3.358   0.043  -6.737  0.00  0.00    -0.046 Br
ATOM      8  H   LIG d   1       4.761  -1.935  -1.535  0.00  0.00     0.062 H 
ATOM      9  H   LIG d   1       2.429  -1.317  -2.023  0.00  0.00     0.065 H 
ATOM     10  H   LIG d   1       5.884  -0.868  -5.509  0.00  0.00     0.063 H 
ENDROOT
BRANCH   6  11
ATOM     11  C   LIG d   1       6.888  -1.829  -3.193  0.00  0.00     0.069 C 
ATOM     12  H   LIG d   1       6.969  -2.138  -2.152  0.00  0.00     0.061 H 
ATOM     13  H   LIG d   1       7.185  -2.654  -3.842  0.00  0.00     0.061 H 
BRANCH  11  14
ATOM     14  O   LIG d   1       7.743  -0.708  -3.426  0.00  0.00    -0.390 OA
ATOM     15  H   LIG d   1       7.305   0.149  -3.323  0.00  0.00     0.210 HD
ENDBRANCH  11  14
ENDBRANCH   6  11
BRANCH   3  16
ATOM     16  O   LIG d   1       1.557  -0.390  -4.313  0.00  0.00    -0.506 OA
ATOM     17  H   LIG d   1       0.969  -0.440  -3.547  0.00  0.00     0.292 HD
ENDBRANCH   3  16
TORSDOF 3
ENDMDL
MODEL 4
REMARK VINA RESULT:      -4.2      2.604      3.238
REMARK  3 active torsions:
REMARK  status: ('A' for Active; 'I' for Inactive)
REMARK    1  A    between atoms: C_3  and  O_10 
REMARK    2  A    between atoms: C_6  and  C_7 
REMARK    3  A    between atoms: C_7  and  O_8 
ROOT
ATOM      1  C   LIG d   1       5.963  -3.304  -4.696  0.00  0.00    -0.053 A 
ATOM      2  C   LIG d   1       4.628  -2.951  -4.658  0.00  0.00    -0.019 A 
ATOM      3  C   LIG d   1       4.209  -1.908  -3.844  0.00  0.00     0.131 A 
ATOM      4  C   LIG d   1       5.136  -1.218  -3.075  0.00  0.00     0.060 A 
ATOM      5  C   LIG d   1       6.471  -1.571  -3.121  0.00  0.00    -0.039 A 
ATOM      6  C   LIG d   1       6.884  -2.612  -3.933  0.00  0.00    -0.021 A 
ATOM      7 BR   LIG d   1       4.571   0.205  -1.964  0.00  0.00    -0.046 Br
ATOM      8  H   LIG d   1       6.288  -4.119  -5.326  0.00  0.00     0.062 H 
ATOM      9  H   LIG d   1       3.909  -3.490  -5.258  0.00  0.00     0.065 H 
ATOM     10  H   LIG d   1       7.192  -1.034  -2.522  0.00  0.00     0.063 H 
ENDROOT
BRANCH   6  11
ATOM     11  C   LIG d   1       8.341  -2.996  -3.981  0.00  0.00     0.069 C 
ATOM     12  H   LIG d   1       8.449  -3.946  -4.503  0.00  0.00     0.061 H 
ATOM     13  H   LIG d   1       8.902  -2.224  -4.510  0.00  0.00     0.061 H 
BRANCH  11  14
ATOM     14  O   LIG d   1       8.844  -3.122  -2.650  0.00  0.00    -0.390 OA
ATOM     15  H   LIG d   1       8.744  -4.008  -2.274  0.00  0.00     0.210 HD
ENDBRANCH  11  14
ENDBRANCH   6  11
BRANCH   3  16
ATOM     16  O   LIG d   1       2.895  -1.563  -3.801  0.00  0.00    -0.506 OA
ATOM     17  H   LIG d   1       2.323  -2.129  -4.338  0.00  0.00     0.292 HD
ENDBRANCH   3  16
TORSDOF 3
ENDMDL
MODEL 5
REMARK VINA RESULT:      -4.2      2.377      2.997
REMARK  3 active torsions:
REMARK  status: ('A' for Active; 'I' for Inactive)
REMARK    1  A    between atoms: C_3  and  O_10 
REMARK    2  A    between atoms: C_6  and  C_7 
REMARK    3  A    between atoms: C_7  and  O_8 
ROOT
ATOM      1  C   LIG d   1       4.617   0.802  -2.947  0.00  0.00    -0.053 A 
ATOM      2  C   LIG d   1       5.949   1.113  -3.140  0.00  0.00    -0.019 A 
ATOM      3  C   LIG d   1       6.862   0.106  -3.420  0.00  0.00     0.131 A 
ATOM      4  C   LIG d   1       6.432  -1.210  -3.511  0.00  0.00     0.060 A 
ATOM      5  C   LIG d   1       5.098  -1.515  -3.322  0.00  0.00    -0.039 A 
ATOM      6  C   LIG d   1       4.191  -0.510  -3.043  0.00  0.00    -0.021 A 
ATOM      7 BR   LIG d   1       7.673  -2.586  -3.891  0.00  0.00    -0.046 Br
ATOM      8  H   LIG d   1       3.907   1.585  -2.725  0.00  0.00     0.062 H 
ATOM      9  H   LIG d   1       6.281   2.138  -3.069  0.00  0.00     0.065 H 
ATOM     10  H   LIG d   1       4.764  -2.540  -3.393  0.00  0.00     0.063 H 
ENDROOT
BRANCH   6  11
ATOM     11  C   LIG d   1       2.736  -0.844  -2.837  0.00  0.00     0.069 C 
ATOM     12  H   LIG d   1       2.642  -1.888  -2.538  0.00  0.00     0.061 H 
ATOM     13  H   LIG d   1       2.323  -0.204  -2.056  0.00  0.00     0.061 H 
BRANCH  11  14
ATOM     14  O   LIG d   1       2.021  -0.630  -4.055  0.00  0.00    -0.390 OA
ATOM     15  H   LIG d   1       1.088  -0.883  -4.014  0.00  0.00     0.210 HD
ENDBRANCH  11  14
ENDBRANCH   6  11
BRANCH   3  16
ATOM     16  O   LIG d   1       8.174   0.409  -3.604  0.00  0.00    -0.506 OA
ATOM     17  H   LIG d   1       8.473   0.316  -4.519  0.00  0.00     0.292 HD
ENDBRANCH   3  16
TORSDOF 3
ENDMDL
MODEL 6
REMARK VINA RESULT:      -4.1      2.347      3.223
REMARK  3 active torsions:
REMARK  status: ('A' for Active; 'I' for Inactive)
REMARK    1  A    between atoms: C_3  and  O_10 
REMARK    2  A    between atoms: C_6  and  C_7 
REMARK    3  A    between atoms: C_7  and  O_8 
ROOT
ATOM      1  C   LIG d   1       6.628  -3.996  -5.411  0.00  0.00    -0.053 A 
ATOM      2  C   LIG d   1       7.264  -2.991  -4.710  0.00  0.00    -0.019 A 
ATOM      3  C   LIG d   1       6.548  -2.211  -3.813  0.00  0.00     0.131 A 
ATOM      4  C   LIG d   1       5.194  -2.449  -3.619  0.00  0.00     0.060 A 
ATOM      5  C   LIG d   1       4.564  -3.460  -4.319  0.00  0.00    -0.039 A 
ATOM      6  C   LIG d   1       5.281  -4.234  -5.213  0.00  0.00    -0.021 A 
ATOM      7 BR   LIG d   1       4.213  -1.389  -2.397  0.00  0.00    -0.046 Br
ATOM      8  H   LIG d   1       7.184  -4.600  -6.113  0.00  0.00     0.062 H 
ATOM      9  H   LIG d   1       8.318  -2.808  -4.862  0.00  0.00     0.065 H 
ATOM     10  H   LIG d   1       3.510  -3.645  -4.168  0.00  0.00     0.063 H 
ENDROOT
BRANCH   6  11
ATOM     11  C   LIG d   1       4.591  -5.336  -5.976  0.00  0.00     0.069 C 
ATOM     12  H   LIG d   1       5.059  -5.448  -6.953  0.00  0.00     0.061 H 
ATOM     13  H   LIG d   1       4.678  -6.271  -5.421  0.00  0.00     0.061 H 
BRANCH  11  14
ATOM     14  O   LIG d   1       3.210  -5.007  -6.142  0.00  0.00    -0.390 OA
ATOM     15  H   LIG d   1       2.960  -4.811  -7.056  0.00  0.00     0.210 HD
ENDBRANCH  11  14
ENDBRANCH   6  11
BRANCH   3  16
ATOM     16  O   LIG d   1       7.171  -1.218  -3.125  0.00  0.00    -0.506 OA
ATOM     17  H   LIG d   1       6.717  -0.960  -2.312  0.00  0.00     0.292 HD
ENDBRANCH   3  16
TORSDOF 3
ENDMDL
MODEL 7
REMARK VINA RESULT:      -4.1      8.301      9.584
REMARK  3 active torsions:
REMARK  status: ('A' for Active; 'I' for Inactive)
REMARK    1  A    between atoms: C_3  and  O_10 
REMARK    2  A    between atoms: C_6  and  C_7 
REMARK    3  A    between atoms: C_7  and  O_8 
ROOT
ATOM      1  C   LIG d   1      10.663   6.393  -0.478  0.00  0.00    -0.053 A 
ATOM      2  C   LIG d   1      11.210   5.166  -0.802  0.00  0.00    -0.019 A 
ATOM      3  C   LIG d   1      10.891   4.562  -2.009  0.00  0.00     0.131 A 
ATOM      4  C   LIG d   1      10.027   5.196  -2.892  0.00  0.00     0.060 A 
ATOM      5  C   LIG d   1       9.488   6.426  -2.566  0.00  0.00    -0.039 A 
ATOM      6  C   LIG d   1       9.808   7.025  -1.361  0.00  0.00    -0.021 A 
ATOM      7 BR   LIG d   1       9.588   4.377  -4.539  0.00  0.00    -0.046 Br
ATOM      8  H   LIG d   1      10.909   6.861   0.464  0.00  0.00     0.062 H 
ATOM      9  H   LIG d   1      11.882   4.675  -0.113  0.00  0.00     0.065 H 
ATOM     10  H   LIG d   1       8.816   6.919  -3.252  0.00  0.00     0.063 H 
ENDROOT
BRANCH   6  11
ATOM     11  C   LIG d   1       9.218   8.366  -1.007  0.00  0.00     0.069 C 
ATOM     12  H   LIG d   1       9.630   8.704  -0.057  0.00  0.00     0.061 H 
ATOM     13  H   LIG d   1       9.464   9.087  -1.787  0.00  0.00     0.061 H 
BRANCH  11  14
ATOM     14  O   LIG d   1       7.799   8.248  -0.898  0.00  0.00    -0.390 OA
ATOM     15  H   LIG d   1       7.507   7.653  -0.193  0.00  0.00     0.210 HD
ENDBRANCH  11  14
ENDBRANCH   6  11
BRANCH   3  16
ATOM     16  O   LIG d   1      11.423   3.352  -2.327  0.00  0.00    -0.506 OA
ATOM     17  H   LIG d   1      11.036   2.949  -3.116  0.00  0.00     0.292 HD
ENDBRANCH   3  16
TORSDOF 3
ENDMDL
MODEL 8
REMARK VINA RESULT:      -4.1      9.365     10.813
REMARK  3 active torsions:
REMARK  status: ('A' for Active; 'I' for Inactive)
REMARK    1  A    between atoms: C_3  and  O_10 
REMARK    2  A    between atoms: C_6  and  C_7 
REMARK    3  A    between atoms: C_7  and  O_8 
ROOT
ATOM      1  C   LIG d   1      10.681   8.130   0.390  0.00  0.00    -0.053 A 
ATOM      2  C   LIG d   1      11.158   6.848   0.585  0.00  0.00    -0.019 A 
ATOM      3  C   LIG d   1      10.946   5.875  -0.381  0.00  0.00     0.131 A 
ATOM      4  C   LIG d   1      10.260   6.195  -1.545  0.00  0.00     0.060 A 
ATOM      5  C   LIG d   1       9.791   7.480  -1.738  0.00  0.00    -0.039 A 
ATOM      6  C   LIG d   1      10.003   8.447  -0.772  0.00  0.00    -0.021 A 
ATOM      7 BR   LIG d   1       9.968   4.872  -2.865  0.00  0.00    -0.046 Br
ATOM      8  H   LIG d   1      10.843   8.886   1.144  0.00  0.00     0.062 H 
ATOM      9  H   LIG d   1      11.691   6.601   1.492  0.00  0.00     0.065 H 
ATOM     10  H   LIG d   1       9.258   7.729  -2.643  0.00  0.00     0.063 H 
ENDROOT
BRANCH   6  11
ATOM     11  C   LIG d   1       9.490   9.848  -0.985  0.00  0.00     0.069 C 
ATOM     12  H   LIG d   1       9.753  10.465  -0.126  0.00  0.00     0.061 H 
ATOM     13  H   LIG d   1       9.941  10.267  -1.885  0.00  0.00     0.061 H 
BRANCH  11  14
ATOM     14  O   LIG d   1       8.070   9.817  -1.133  0.00  0.00    -0.390 OA
ATOM     15  H   LIG d   1       7.735   9.011  -1.551  0.00  0.00     0.210 HD
ENDBRANCH  11  14
ENDBRANCH   6  11
BRANCH   3  16
ATOM     16  O   LIG d   1      11.408   4.611  -0.188  0.00  0.00    -0.506 OA
ATOM     17  H   LIG d   1      10.902   3.933  -0.655  0.00  0.00     0.292 HD
ENDBRANCH   3  16
TORSDOF 3
ENDMDL
MODEL 9
REMARK VINA RESULT:      -4.0      9.334     10.756
REMARK  3 active torsions:
REMARK  status: ('A' for Active; 'I' for Inactive)
REMARK    1  A    between atoms: C_3  and  O_10 
REMARK    2  A    between atoms: C_6  and  C_7 
REMARK    3  A    between atoms: C_7  and  O_8 
ROOT
ATOM      1  C   LIG d   1       9.911   7.512  -2.664  0.00  0.00    -0.053 A 
ATOM      2  C   LIG d   1      10.276   6.187  -2.528  0.00  0.00    -0.019 A 
ATOM      3  C   LIG d   1      10.629   5.690  -1.282  0.00  0.00     0.131 A 
ATOM      4  C   LIG d   1      10.607   6.525  -0.173  0.00  0.00     0.060 A 
ATOM      5  C   LIG d   1      10.235   7.848  -0.314  0.00  0.00    -0.039 A 
ATOM      6  C   LIG d   1       9.885   8.341  -1.558  0.00  0.00    -0.021 A 
ATOM      7 BR   LIG d   1      11.088   5.853   1.528  0.00  0.00    -0.046 Br
ATOM      8  H   LIG d   1       9.640   7.900  -3.635  0.00  0.00     0.062 H 
ATOM      9  H   LIG d   1      10.292   5.539  -3.392  0.00  0.00     0.065 H 
ATOM     10  H   LIG d   1      10.218   8.499   0.549  0.00  0.00     0.063 H 
ENDROOT
BRANCH   6  11
ATOM     11  C   LIG d   1       9.479   9.784  -1.709  0.00  0.00     0.069 C 
ATOM     12  H   LIG d   1      10.139  10.412  -1.110  0.00  0.00     0.061 H 
ATOM     13  H   LIG d   1       9.554  10.074  -2.757  0.00  0.00     0.061 H 
BRANCH  11  14
ATOM     14  O   LIG d   1       8.131   9.949  -1.264  0.00  0.00    -0.390 OA
ATOM     15  H   LIG d   1       8.053  10.309  -0.370  0.00  0.00     0.210 HD
ENDBRANCH  11  14
ENDBRANCH   6  11
BRANCH   3  16
ATOM     16  O   LIG d   1      10.996   4.388  -1.147  0.00  0.00    -0.506 OA
ATOM     17  H   LIG d   1      10.626   3.804  -1.823  0.00  0.00     0.292 HD
ENDBRANCH   3  16
TORSDOF 3
ENDMDL
MODEL 10
REMARK VINA RESULT:      -3.9      2.187      3.080
REMARK  3 active torsions:
REMARK  status: ('A' for Active; 'I' for Inactive)
REMARK    1  A    between atoms: C_3  and  O_10 
REMARK    2  A    between atoms: C_6  and  C_7 
REMARK    3  A    between atoms: C_7  and  O_8 
ROOT
ATOM      1  C   LIG d   1       5.098  -1.526  -3.063  0.00  0.00    -0.053 A 
ATOM      2  C   LIG d   1       6.370  -1.861  -3.484  0.00  0.00    -0.019 A 
ATOM      3  C   LIG d   1       7.297  -0.864  -3.752  0.00  0.00     0.131 A 
ATOM      4  C   LIG d   1       6.944   0.468  -3.591  0.00  0.00     0.060 A 
ATOM      5  C   LIG d   1       5.672   0.798  -3.164  0.00  0.00    -0.039 A 
ATOM      6  C   LIG d   1       4.750  -0.198  -2.898  0.00  0.00    -0.021 A 
ATOM      7 BR   LIG d   1       8.203   1.832  -3.956  0.00  0.00    -0.046 Br
ATOM      8  H   LIG d   1       4.375  -2.302  -2.858  0.00  0.00     0.062 H 
ATOM      9  H   LIG d   1       6.642  -2.899  -3.608  0.00  0.00     0.065 H 
ATOM     10  H   LIG d   1       5.397   1.835  -3.039  0.00  0.00     0.063 H 
ENDROOT
BRANCH   6  11
ATOM     11  C   LIG d   1       3.363   0.164  -2.433  0.00  0.00     0.069 C 
ATOM     12  H   LIG d   1       3.317   0.104  -1.346  0.00  0.00     0.061 H 
ATOM     13  H   LIG d   1       3.128   1.180  -2.751  0.00  0.00     0.061 H 
BRANCH  11  14
ATOM     14  O   LIG d   1       2.418  -0.744  -3.003  0.00  0.00    -0.390 OA
ATOM     15  H   LIG d   1       2.223  -1.509  -2.444  0.00  0.00     0.210 HD
ENDBRANCH  11  14
ENDBRANCH   6  11
BRANCH   3  16
ATOM     16  O   LIG d   1       8.547  -1.192  -4.172  0.00  0.00    -0.506 OA
ATOM     17  H   LIG d   1       8.711  -2.144  -4.209  0.00  0.00     0.292 HD
ENDBRANCH   3  16
TORSDOF 3
ENDMDL
