MODEL 1
REMARK VINA RESULT:      -6.5      0.000      0.000
REMARK  8 active torsions:
REMARK  status: ('A' for Active; 'I' for Inactive)
REMARK    1  A    between atoms: C_1  and  C_2 
REMARK    2  A    between atoms: C_2  and  O_3 
REMARK    3  A    between atoms: O_3  and  C_4 
REMARK    4  A    between atoms: C_4  and  C_6 
REMARK    5  A    between atoms: C_12  and  C_13 
REMARK    6  A    between atoms: C_12  and  N_61 
REMARK    7  A    between atoms: C_19  and  C_31 
REMARK    8  A    between atoms: C_23  and  C_30 
ROOT
ATOM      1  C   LIG d   1       5.689  -2.604  -6.422  0.00  0.00     0.106 C 
ATOM      2  H   LIG d   1       5.225  -1.652  -6.685  0.00  0.00     0.047 H 
ATOM      3  C   LIG d   1       6.249  -2.555  -4.989  0.00  0.00     0.033 C 
ATOM      4  H   LIG d   1       7.137  -3.180  -4.907  0.00  0.00     0.039 H 
ATOM      5  C   LIG d   1       6.554  -1.178  -4.524  0.00  0.00    -0.072 C 
ATOM      6  C   LIG d   1       5.699  -0.425  -3.869  0.00  0.00    -0.042 C 
ATOM      7  C   LIG d   1       6.131   0.870  -3.295  0.00  0.00    -0.051 C 
ATOM      8  C   LIG d   1       5.418   1.415  -2.321  0.00  0.00    -0.081 C 
ATOM      9  C   LIG d   1       4.166   0.820  -1.753  0.00  0.00    -0.033 C 
ATOM     10  C   LIG d   1       4.028  -0.665  -2.094  0.00  0.00    -0.040 C 
ATOM     11  C   LIG d   1       4.288  -0.845  -3.588  0.00  0.00    -0.003 C 
ATOM     12  C   LIG d   1       3.919  -2.203  -4.106  0.00  0.00    -0.006 C 
ATOM     13  C   LIG d   1       5.085  -3.186  -4.187  0.00  0.00     0.111 C 
ATOM     14  H   LIG d   1       5.394  -3.556  -3.210  0.00  0.00     0.074 H 
ATOM     15  O   LIG d   1       4.653  -4.248  -5.122  0.00  0.00    -0.460 OA
ATOM     16  C   LIG d   1       4.646  -3.708  -6.360  0.00  0.00     0.316 C 
ATOM     17  O   LIG d   1       3.928  -4.048  -7.271  0.00  0.00    -0.250 OA
ATOM     18  H   LIG d   1       7.533  -0.774  -4.735  0.00  0.00     0.058 H 
ATOM     19  H   LIG d   1       5.762   2.352  -1.910  0.00  0.00     0.058 H 
ATOM     20  H   LIG d   1       4.180   0.935  -0.670  0.00  0.00     0.031 H 
ATOM     21  H   LIG d   1       3.306   1.357  -2.155  0.00  0.00     0.031 H 
ATOM     22  H   LIG d   1       3.019  -1.003  -1.855  0.00  0.00     0.028 H 
ATOM     23  H   LIG d   1       4.756  -1.241  -1.523  0.00  0.00     0.028 H 
ATOM     24  H   LIG d   1       3.155  -2.625  -3.452  0.00  0.00     0.031 H 
ATOM     25  H   LIG d   1       3.492  -2.089  -5.102  0.00  0.00     0.031 H 
ENDROOT
BRANCH   1  26
ATOM     26  C   LIG d   1       6.792  -2.960  -7.419  0.00  0.00    -0.018 C 
ATOM     27  H   LIG d   1       7.672  -3.311  -6.878  0.00  0.00     0.082 H 
ATOM     28  H   LIG d   1       6.440  -3.746  -8.087  0.00  0.00     0.082 H 
BRANCH  26  29
ATOM     29  N   LIG d   1       7.148  -1.748  -8.186  0.00  0.00     0.236 N 
ATOM     30  C   LIG d   1       8.440  -1.210  -7.708  0.00  0.00    -0.032 C 
ATOM     31  C   LIG d   1       8.845  -0.030  -8.593  0.00  0.00    -0.012 C 
ATOM     32  H   LIG d   1       8.357  -0.876  -6.674  0.00  0.00     0.081 H 
ATOM     33  H   LIG d   1       9.197  -1.992  -7.777  0.00  0.00     0.081 H 
ATOM     34  C   LIG d   1       7.770   1.057  -8.509  0.00  0.00    -0.030 C 
ATOM     35  H   LIG d   1       8.942  -0.365  -9.626  0.00  0.00     0.032 H 
ATOM     36  H   LIG d   1       9.797   0.374  -8.251  0.00  0.00     0.032 H 
ATOM     37  C   LIG d   1       6.423   0.467  -8.936  0.00  0.00     0.096 C 
ATOM     38  H   LIG d   1       8.032   1.882  -9.171  0.00  0.00     0.028 H 
ATOM     39  H   LIG d   1       7.699   1.421  -7.483  0.00  0.00     0.028 H 
ATOM     40  H   LIG d   1       6.482   0.139  -9.973  0.00  0.00     0.047 H 
ATOM     41  C   LIG d   1       6.088  -0.728  -8.040  0.00  0.00    -0.019 C 
ATOM     42  H   LIG d   1       5.137  -1.159  -8.351  0.00  0.00     0.082 H 
ATOM     43  H   LIG d   1       6.017  -0.397  -7.004  0.00  0.00     0.082 H 
ATOM     44  H   LIG d   1       7.238  -1.996  -9.178  0.00  0.00     0.203 HD
BRANCH  37  45
ATOM     45  C   LIG d   1       5.348   1.515  -8.799  0.00  0.00     0.315 C 
ATOM     46  O   LIG d   1       5.419   2.540  -9.437  0.00  0.00    -0.250 OA
BRANCH  45  47
ATOM     47  O   LIG d   1       4.314   1.311  -7.970  0.00  0.00    -0.465 OA
BRANCH  47  48
ATOM     48  C   LIG d   1       2.995   1.213  -8.571  0.00  0.00     0.090 C 
ATOM     49  H   LIG d   1       2.339   1.964  -8.133  0.00  0.00     0.069 H 
ATOM     50  H   LIG d   1       3.074   1.380  -9.645  0.00  0.00     0.069 H 
BRANCH  48  51
ATOM     51  C   LIG d   1       2.419  -0.180  -8.312  0.00  0.00    -0.031 C 
ATOM     52  H   LIG d   1       1.536  -0.096  -7.677  0.00  0.00     0.026 H 
ATOM     53  H   LIG d   1       2.141  -0.641  -9.261  0.00  0.00     0.026 H 
ATOM     54  H   LIG d   1       3.167  -0.796  -7.814  0.00  0.00     0.026 H 
ENDBRANCH  48  51
ENDBRANCH  47  48
ENDBRANCH  45  47
ENDBRANCH  37  45
ENDBRANCH  26  29
ENDBRANCH   1  26
BRANCH  11  55
ATOM     55  C   LIG d   1       3.381   0.151  -4.314  0.00  0.00    -0.055 C 
ATOM     56  H   LIG d   1       3.964   1.023  -4.610  0.00  0.00     0.024 H 
ATOM     57  H   LIG d   1       2.956  -0.321  -5.199  0.00  0.00     0.024 H 
ATOM     58  H   LIG d   1       2.576   0.462  -3.646  0.00  0.00     0.024 H 
ENDBRANCH  11  55
BRANCH   7  59
ATOM     59  C   LIG d   1       7.367   1.559  -3.812  0.00  0.00    -0.040 C 
ATOM     60  H   LIG d   1       7.427   2.563  -3.390  0.00  0.00     0.028 H 
ATOM     61  H   LIG d   1       8.250   0.990  -3.521  0.00  0.00     0.028 H 
ATOM     62  H   LIG d   1       7.318   1.624  -4.899  0.00  0.00     0.028 H 
ENDBRANCH   7  59
TORSDOF 8
ENDMDL
MODEL 2
REMARK VINA RESULT:      -6.5      3.376      6.262
REMARK  8 active torsions:
REMARK  status: ('A' for Active; 'I' for Inactive)
REMARK    1  A    between atoms: C_1  and  C_2 
REMARK    2  A    between atoms: C_2  and  O_3 
REMARK    3  A    between atoms: O_3  and  C_4 
REMARK    4  A    between atoms: C_4  and  C_6 
REMARK    5  A    between atoms: C_12  and  C_13 
REMARK    6  A    between atoms: C_12  and  N_61 
REMARK    7  A    between atoms: C_19  and  C_31 
REMARK    8  A    between atoms: C_23  and  C_30 
ROOT
ATOM      1  C   LIG d   1       5.891  -3.332  -5.483  0.00  0.00     0.106 C 
ATOM      2  H   LIG d   1       5.125  -3.582  -4.749  0.00  0.00     0.047 H 
ATOM      3  C   LIG d   1       5.953  -1.811  -5.706  0.00  0.00     0.033 C 
ATOM      4  H   LIG d   1       6.237  -1.589  -6.734  0.00  0.00     0.039 H 
ATOM      5  C   LIG d   1       4.684  -1.116  -5.371  0.00  0.00    -0.072 C 
ATOM      6  C   LIG d   1       4.425  -0.605  -4.187  0.00  0.00    -0.042 C 
ATOM      7  C   LIG d   1       3.211   0.215  -3.977  0.00  0.00    -0.051 C 
ATOM      8  C   LIG d   1       3.160   1.041  -2.943  0.00  0.00    -0.081 C 
ATOM      9  C   LIG d   1       4.253   1.200  -1.932  0.00  0.00    -0.033 C 
ATOM     10  C   LIG d   1       5.590   0.652  -2.437  0.00  0.00    -0.040 C 
ATOM     11  C   LIG d   1       5.354  -0.741  -3.019  0.00  0.00    -0.003 C 
ATOM     12  C   LIG d   1       6.615  -1.500  -3.299  0.00  0.00    -0.006 C 
ATOM     13  C   LIG d   1       7.098  -1.410  -4.745  0.00  0.00     0.111 C 
ATOM     14  H   LIG d   1       7.535  -0.441  -4.986  0.00  0.00     0.074 H 
ATOM     15  O   LIG d   1       8.024  -2.548  -4.933  0.00  0.00    -0.460 OA
ATOM     16  C   LIG d   1       7.274  -3.671  -4.949  0.00  0.00     0.316 C 
ATOM     17  O   LIG d   1       7.642  -4.767  -4.598  0.00  0.00    -0.250 OA
ATOM     18  H   LIG d   1       3.934  -1.024  -6.142  0.00  0.00     0.058 H 
ATOM     19  H   LIG d   1       2.270   1.639  -2.820  0.00  0.00     0.058 H 
ATOM     20  H   LIG d   1       4.369   2.258  -1.700  0.00  0.00     0.031 H 
ATOM     21  H   LIG d   1       3.974   0.667  -1.022  0.00  0.00     0.031 H 
ATOM     22  H   LIG d   1       6.296   0.588  -1.609  0.00  0.00     0.028 H 
ATOM     23  H   LIG d   1       5.986   1.310  -3.210  0.00  0.00     0.028 H 
ATOM     24  H   LIG d   1       7.401  -1.115  -2.647  0.00  0.00     0.031 H 
ATOM     25  H   LIG d   1       6.450  -2.548  -3.053  0.00  0.00     0.031 H 
ENDROOT
BRANCH   1  26
ATOM     26  C   LIG d   1       5.630  -4.059  -6.803  0.00  0.00    -0.018 C 
ATOM     27  H   LIG d   1       4.555  -4.128  -6.974  0.00  0.00     0.082 H 
ATOM     28  H   LIG d   1       6.092  -3.507  -7.621  0.00  0.00     0.082 H 
BRANCH  26  29
ATOM     29  N   LIG d   1       6.194  -5.422  -6.714  0.00  0.00     0.236 N 
ATOM     30  C   LIG d   1       6.820  -5.794  -8.000  0.00  0.00    -0.032 C 
ATOM     31  C   LIG d   1       7.500  -7.156  -7.847  0.00  0.00    -0.012 C 
ATOM     32  H   LIG d   1       6.071  -5.849  -8.790  0.00  0.00     0.081 H 
ATOM     33  H   LIG d   1       7.567  -5.044  -8.261  0.00  0.00     0.081 H 
ATOM     34  C   LIG d   1       6.451  -8.203  -7.461  0.00  0.00    -0.030 C 
ATOM     35  H   LIG d   1       8.260  -7.099  -7.067  0.00  0.00     0.032 H 
ATOM     36  H   LIG d   1       7.967  -7.440  -8.789  0.00  0.00     0.032 H 
ATOM     37  C   LIG d   1       5.759  -7.769  -6.167  0.00  0.00     0.096 C 
ATOM     38  H   LIG d   1       6.937  -9.167  -7.308  0.00  0.00     0.028 H 
ATOM     39  H   LIG d   1       5.712  -8.289  -8.258  0.00  0.00     0.028 H 
ATOM     40  H   LIG d   1       6.491  -7.721  -5.361  0.00  0.00     0.047 H 
ATOM     41  C   LIG d   1       5.130  -6.389  -6.370  0.00  0.00    -0.019 C 
ATOM     42  H   LIG d   1       4.648  -6.070  -5.445  0.00  0.00     0.082 H 
ATOM     43  H   LIG d   1       4.388  -6.441  -7.167  0.00  0.00     0.082 H 
ATOM     44  H   LIG d   1       6.910  -5.439  -5.979  0.00  0.00     0.203 HD
BRANCH  37  45
ATOM     45  C   LIG d   1       4.684  -8.764  -5.812  0.00  0.00     0.315 C 
ATOM     46  O   LIG d   1       4.273  -9.534  -6.650  0.00  0.00    -0.250 OA
BRANCH  45  47
ATOM     47  O   LIG d   1       4.184  -8.797  -4.568  0.00  0.00    -0.465 OA
BRANCH  47  48
ATOM     48  C   LIG d   1       4.512  -9.956  -3.755  0.00  0.00     0.090 C 
ATOM     49  H   LIG d   1       5.187 -10.608  -4.308  0.00  0.00     0.069 H 
ATOM     50  H   LIG d   1       4.995  -9.628  -2.835  0.00  0.00     0.069 H 
BRANCH  48  51
ATOM     51  C   LIG d   1       3.231 -10.719  -3.415  0.00  0.00    -0.031 C 
ATOM     52  H   LIG d   1       2.816 -11.157  -4.323  0.00  0.00     0.026 H 
ATOM     53  H   LIG d   1       3.458 -11.511  -2.701  0.00  0.00     0.026 H 
ATOM     54  H   LIG d   1       2.505 -10.033  -2.979  0.00  0.00     0.026 H 
ENDBRANCH  48  51
ENDBRANCH  47  48
ENDBRANCH  45  47
ENDBRANCH  37  45
ENDBRANCH  26  29
ENDBRANCH   1  26
BRANCH  11  55
ATOM     55  C   LIG d   1       4.602  -1.539  -1.951  0.00  0.00    -0.055 C 
ATOM     56  H   LIG d   1       5.158  -2.446  -1.716  0.00  0.00     0.024 H 
ATOM     57  H   LIG d   1       4.496  -0.933  -1.051  0.00  0.00     0.024 H 
ATOM     58  H   LIG d   1       3.613  -1.806  -2.326  0.00  0.00     0.024 H 
ENDBRANCH  11  55
BRANCH   7  59
ATOM     59  C   LIG d   1       2.047   0.113  -4.929  0.00  0.00    -0.040 C 
ATOM     60  H   LIG d   1       1.115   0.241  -4.377  0.00  0.00     0.028 H 
ATOM     61  H   LIG d   1       2.129   0.891  -5.688  0.00  0.00     0.028 H 
ATOM     62  H   LIG d   1       2.055  -0.866  -5.407  0.00  0.00     0.028 H 
ENDBRANCH   7  59
TORSDOF 8
ENDMDL
MODEL 3
REMARK VINA RESULT:      -6.3      2.256      3.525
REMARK  8 active torsions:
REMARK  status: ('A' for Active; 'I' for Inactive)
REMARK    1  A    between atoms: C_1  and  C_2 
REMARK    2  A    between atoms: C_2  and  O_3 
REMARK    3  A    between atoms: O_3  and  C_4 
REMARK    4  A    between atoms: C_4  and  C_6 
REMARK    5  A    between atoms: C_12  and  C_13 
REMARK    6  A    between atoms: C_12  and  N_61 
REMARK    7  A    between atoms: C_19  and  C_31 
REMARK    8  A    between atoms: C_23  and  C_30 
ROOT
ATOM      1  C   LIG d   1       5.990  -3.092  -6.130  0.00  0.00     0.106 C 
ATOM      2  H   LIG d   1       5.064  -3.401  -5.643  0.00  0.00     0.047 H 
ATOM      3  C   LIG d   1       6.229  -1.585  -5.931  0.00  0.00     0.033 C 
ATOM      4  H   LIG d   1       6.747  -1.167  -6.794  0.00  0.00     0.039 H 
ATOM      5  C   LIG d   1       4.983  -0.822  -5.669  0.00  0.00    -0.072 C 
ATOM      6  C   LIG d   1       4.519  -0.577  -4.464  0.00  0.00    -0.042 C 
ATOM      7  C   LIG d   1       3.364   0.330  -4.277  0.00  0.00    -0.051 C 
ATOM      8  C   LIG d   1       3.162   0.884  -3.093  0.00  0.00    -0.081 C 
ATOM      9  C   LIG d   1       4.020   0.646  -1.888  0.00  0.00    -0.033 C 
ATOM     10  C   LIG d   1       5.382   0.055  -2.260  0.00  0.00    -0.040 C 
ATOM     11  C   LIG d   1       5.158  -1.113  -3.219  0.00  0.00    -0.003 C 
ATOM     12  C   LIG d   1       6.380  -1.951  -3.446  0.00  0.00    -0.006 C 
ATOM     13  C   LIG d   1       7.170  -1.587  -4.702  0.00  0.00     0.111 C 
ATOM     14  H   LIG d   1       7.730  -0.658  -4.595  0.00  0.00     0.074 H 
ATOM     15  O   LIG d   1       8.013  -2.764  -5.004  0.00  0.00    -0.460 OA
ATOM     16  C   LIG d   1       7.190  -3.737  -5.454  0.00  0.00     0.316 C 
ATOM     17  O   LIG d   1       7.378  -4.924  -5.339  0.00  0.00    -0.250 OA
ATOM     18  H   LIG d   1       4.427  -0.446  -6.516  0.00  0.00     0.058 H 
ATOM     19  H   LIG d   1       2.321   1.553  -2.987  0.00  0.00     0.058 H 
ATOM     20  H   LIG d   1       4.174   1.592  -1.371  0.00  0.00     0.031 H 
ATOM     21  H   LIG d   1       3.506  -0.045  -1.219  0.00  0.00     0.031 H 
ATOM     22  H   LIG d   1       5.884  -0.302  -1.360  0.00  0.00     0.028 H 
ATOM     23  H   LIG d   1       5.991   0.816  -2.746  0.00  0.00     0.028 H 
ATOM     24  H   LIG d   1       7.037  -1.845  -2.582  0.00  0.00     0.031 H 
ATOM     25  H   LIG d   1       6.076  -2.994  -3.519  0.00  0.00     0.031 H 
ENDROOT
BRANCH   1  26
ATOM     26  C   LIG d   1       5.958  -3.441  -7.618  0.00  0.00    -0.018 C 
ATOM     27  H   LIG d   1       6.517  -2.691  -8.179  0.00  0.00     0.082 H 
ATOM     28  H   LIG d   1       6.411  -4.421  -7.773  0.00  0.00     0.082 H 
BRANCH  26  29
ATOM     29  N   LIG d   1       4.553  -3.441  -8.076  0.00  0.00     0.236 N 
ATOM     30  C   LIG d   1       4.310  -4.605  -8.955  0.00  0.00    -0.032 C 
ATOM     31  C   LIG d   1       2.824  -4.651  -9.319  0.00  0.00    -0.012 C 
ATOM     32  H   LIG d   1       4.904  -4.527  -9.866  0.00  0.00     0.081 H 
ATOM     33  H   LIG d   1       4.581  -5.516  -8.422  0.00  0.00     0.081 H 
ATOM     34  C   LIG d   1       2.443  -3.361 -10.051  0.00  0.00    -0.030 C 
ATOM     35  H   LIG d   1       2.229  -4.742  -8.410  0.00  0.00     0.032 H 
ATOM     36  H   LIG d   1       2.633  -5.506  -9.966  0.00  0.00     0.032 H 
ATOM     37  C   LIG d   1       2.769  -2.161  -9.158  0.00  0.00     0.096 C 
ATOM     38  H   LIG d   1       1.376  -3.369 -10.274  0.00  0.00     0.028 H 
ATOM     39  H   LIG d   1       3.010  -3.288 -10.980  0.00  0.00     0.028 H 
ATOM     40  H   LIG d   1       2.174  -2.212  -8.247  0.00  0.00     0.047 H 
ATOM     41  C   LIG d   1       4.257  -2.187  -8.800  0.00  0.00    -0.019 C 
ATOM     42  H   LIG d   1       4.489  -1.342  -8.152  0.00  0.00     0.082 H 
ATOM     43  H   LIG d   1       4.852  -2.121  -9.711  0.00  0.00     0.082 H 
ATOM     44  H   LIG d   1       3.937  -3.509  -7.258  0.00  0.00     0.203 HD
BRANCH  37  45
ATOM     45  C   LIG d   1       2.452  -0.884  -9.895  0.00  0.00     0.315 C 
ATOM     46  O   LIG d   1       1.465  -0.818 -10.591  0.00  0.00    -0.250 OA
BRANCH  45  47
ATOM     47  O   LIG d   1       3.264   0.177  -9.778  0.00  0.00    -0.465 OA
BRANCH  47  48
ATOM     48  C   LIG d   1       2.736   1.337  -9.080  0.00  0.00     0.090 C 
ATOM     49  H   LIG d   1       1.810   1.658  -9.556  0.00  0.00     0.069 H 
ATOM     50  H   LIG d   1       2.540   1.077  -8.041  0.00  0.00     0.069 H 
BRANCH  48  51
ATOM     51  C   LIG d   1       3.758   2.474  -9.137  0.00  0.00    -0.031 C 
ATOM     52  H   LIG d   1       3.484   3.246  -8.418  0.00  0.00     0.026 H 
ATOM     53  H   LIG d   1       4.748   2.086  -8.892  0.00  0.00     0.026 H 
ATOM     54  H   LIG d   1       3.772   2.900 -10.140  0.00  0.00     0.026 H 
ENDBRANCH  48  51
ENDBRANCH  47  48
ENDBRANCH  45  47
ENDBRANCH  37  45
ENDBRANCH  26  29
ENDBRANCH   1  26
BRANCH  11  55
ATOM     55  C   LIG d   1       4.127  -2.031  -2.557  0.00  0.00    -0.055 C 
ATOM     56  H   LIG d   1       4.491  -2.340  -1.578  0.00  0.00     0.024 H 
ATOM     57  H   LIG d   1       3.184  -1.495  -2.443  0.00  0.00     0.024 H 
ATOM     58  H   LIG d   1       3.971  -2.911  -3.181  0.00  0.00     0.024 H 
ENDBRANCH  11  55
BRANCH   7  59
ATOM     59  C   LIG d   1       2.428   0.619  -5.424  0.00  0.00    -0.040 C 
ATOM     60  H   LIG d   1       1.594  -0.083  -5.396  0.00  0.00     0.028 H 
ATOM     61  H   LIG d   1       2.049   1.637  -5.335  0.00  0.00     0.028 H 
ATOM     62  H   LIG d   1       2.965   0.510  -6.366  0.00  0.00     0.028 H 
ENDBRANCH   7  59
TORSDOF 8
ENDMDL
MODEL 4
REMARK VINA RESULT:      -6.1      1.566      2.064
REMARK  8 active torsions:
REMARK  status: ('A' for Active; 'I' for Inactive)
REMARK    1  A    between atoms: C_1  and  C_2 
REMARK    2  A    between atoms: C_2  and  O_3 
REMARK    3  A    between atoms: O_3  and  C_4 
REMARK    4  A    between atoms: C_4  and  C_6 
REMARK    5  A    between atoms: C_12  and  C_13 
REMARK    6  A    between atoms: C_12  and  N_61 
REMARK    7  A    between atoms: C_19  and  C_31 
REMARK    8  A    between atoms: C_23  and  C_30 
ROOT
ATOM      1  C   LIG d   1       5.451  -2.792  -6.516  0.00  0.00     0.106 C 
ATOM      2  H   LIG d   1       4.889  -1.877  -6.705  0.00  0.00     0.047 H 
ATOM      3  C   LIG d   1       6.214  -2.694  -5.183  0.00  0.00     0.033 C 
ATOM      4  H   LIG d   1       7.145  -3.257  -5.237  0.00  0.00     0.039 H 
ATOM      5  C   LIG d   1       6.490  -1.296  -4.766  0.00  0.00    -0.072 C 
ATOM      6  C   LIG d   1       5.693  -0.598  -3.988  0.00  0.00    -0.042 C 
ATOM      7  C   LIG d   1       6.115   0.728  -3.482  0.00  0.00    -0.051 C 
ATOM      8  C   LIG d   1       5.521   1.230  -2.411  0.00  0.00    -0.081 C 
ATOM      9  C   LIG d   1       4.412   0.556  -1.663  0.00  0.00    -0.033 C 
ATOM     10  C   LIG d   1       4.326  -0.938  -1.983  0.00  0.00    -0.040 C 
ATOM     11  C   LIG d   1       4.372  -1.112  -3.501  0.00  0.00    -0.003 C 
ATOM     12  C   LIG d   1       4.023  -2.495  -3.960  0.00  0.00    -0.006 C 
ATOM     13  C   LIG d   1       5.229  -3.397  -4.218  0.00  0.00     0.111 C 
ATOM     14  H   LIG d   1       5.705  -3.738  -3.299  0.00  0.00     0.074 H 
ATOM     15  O   LIG d   1       4.736  -4.493  -5.080  0.00  0.00    -0.460 OA
ATOM     16  C   LIG d   1       4.507  -3.965  -6.301  0.00  0.00     0.316 C 
ATOM     17  O   LIG d   1       3.686  -4.360  -7.095  0.00  0.00    -0.250 OA
ATOM     18  H   LIG d   1       7.396  -0.828  -5.120  0.00  0.00     0.058 H 
ATOM     19  H   LIG d   1       5.857   2.192  -2.054  0.00  0.00     0.058 H 
ATOM     20  H   LIG d   1       4.579   0.681  -0.594  0.00  0.00     0.031 H 
ATOM     21  H   LIG d   1       3.466   1.030  -1.930  0.00  0.00     0.031 H 
ATOM     22  H   LIG d   1       3.390  -1.342  -1.597  0.00  0.00     0.028 H 
ATOM     23  H   LIG d   1       5.169  -1.458  -1.530  0.00  0.00     0.028 H 
ATOM     24  H   LIG d   1       3.396  -2.963  -3.201  0.00  0.00     0.031 H 
ATOM     25  H   LIG d   1       3.446  -2.418  -4.881  0.00  0.00     0.031 H 
ENDROOT
BRANCH   1  26
ATOM     26  C   LIG d   1       6.414  -3.080  -7.668  0.00  0.00    -0.018 C 
ATOM     27  H   LIG d   1       7.293  -2.440  -7.576  0.00  0.00     0.082 H 
ATOM     28  H   LIG d   1       6.722  -4.125  -7.633  0.00  0.00     0.082 H 
BRANCH  26  29
ATOM     29  N   LIG d   1       5.731  -2.783  -8.944  0.00  0.00     0.236 N 
ATOM     30  C   LIG d   1       6.728  -2.612 -10.022  0.00  0.00    -0.032 C 
ATOM     31  C   LIG d   1       5.995  -2.424 -11.352  0.00  0.00    -0.012 C 
ATOM     32  H   LIG d   1       7.356  -1.742  -9.828  0.00  0.00     0.081 H 
ATOM     33  H   LIG d   1       7.352  -3.504 -10.074  0.00  0.00     0.081 H 
ATOM     34  C   LIG d   1       5.106  -1.180 -11.268  0.00  0.00    -0.030 C 
ATOM     35  H   LIG d   1       5.378  -3.299 -11.554  0.00  0.00     0.032 H 
ATOM     36  H   LIG d   1       6.721  -2.298 -12.154  0.00  0.00     0.032 H 
ATOM     37  C   LIG d   1       4.128  -1.339 -10.101  0.00  0.00     0.096 C 
ATOM     38  H   LIG d   1       4.549  -1.067 -12.197  0.00  0.00     0.028 H 
ATOM     39  H   LIG d   1       5.727  -0.299 -11.104  0.00  0.00     0.028 H 
ATOM     40  H   LIG d   1       3.480  -2.197 -10.283  0.00  0.00     0.047 H 
ATOM     41  C   LIG d   1       4.915  -1.558  -8.807  0.00  0.00    -0.019 C 
ATOM     42  H   LIG d   1       4.221  -1.686  -7.977  0.00  0.00     0.082 H 
ATOM     43  H   LIG d   1       5.552  -0.693  -8.619  0.00  0.00     0.082 H 
ATOM     44  H   LIG d   1       5.116  -3.569  -9.183  0.00  0.00     0.203 HD
BRANCH  37  45
ATOM     45  C   LIG d   1       3.288  -0.094  -9.975  0.00  0.00     0.315 C 
ATOM     46  O   LIG d   1       2.329  -0.084  -9.238  0.00  0.00    -0.250 OA
BRANCH  45  47
ATOM     47  O   LIG d   1       3.605   1.003 -10.678  0.00  0.00    -0.465 OA
BRANCH  47  48
ATOM     48  C   LIG d   1       3.766   2.241  -9.935  0.00  0.00     0.090 C 
ATOM     49  H   LIG d   1       3.757   3.083 -10.625  0.00  0.00     0.069 H 
ATOM     50  H   LIG d   1       2.947   2.345  -9.223  0.00  0.00     0.069 H 
BRANCH  48  51
ATOM     51  C   LIG d   1       5.097   2.213  -9.181  0.00  0.00    -0.031 C 
ATOM     52  H   LIG d   1       5.204   1.258  -8.667  0.00  0.00     0.026 H 
ATOM     53  H   LIG d   1       5.918   2.339  -9.888  0.00  0.00     0.026 H 
ATOM     54  H   LIG d   1       5.118   3.023  -8.452  0.00  0.00     0.026 H 
ENDBRANCH  48  51
ENDBRANCH  47  48
ENDBRANCH  45  47
ENDBRANCH  37  45
ENDBRANCH  26  29
ENDBRANCH   1  26
BRANCH  11  55
ATOM     55  C   LIG d   1       3.300  -0.185  -4.079  0.00  0.00    -0.055 C 
ATOM     56  H   LIG d   1       3.773   0.713  -4.476  0.00  0.00     0.024 H 
ATOM     57  H   LIG d   1       2.767  -0.699  -4.879  0.00  0.00     0.024 H 
ATOM     58  H   LIG d   1       2.597   0.092  -3.294  0.00  0.00     0.024 H 
ENDBRANCH  11  55
BRANCH   7  59
ATOM     59  C   LIG d   1       7.210   1.496  -4.177  0.00  0.00    -0.040 C 
ATOM     60  H   LIG d   1       7.287   2.492  -3.741  0.00  0.00     0.028 H 
ATOM     61  H   LIG d   1       8.158   0.971  -4.052  0.00  0.00     0.028 H 
ATOM     62  H   LIG d   1       6.977   1.580  -5.238  0.00  0.00     0.028 H 
ENDBRANCH   7  59
TORSDOF 8
ENDMDL
MODEL 5
REMARK VINA RESULT:      -6.1      2.211      4.148
REMARK  8 active torsions:
REMARK  status: ('A' for Active; 'I' for Inactive)
REMARK    1  A    between atoms: C_1  and  C_2 
REMARK    2  A    between atoms: C_2  and  O_3 
REMARK    3  A    between atoms: O_3  and  C_4 
REMARK    4  A    between atoms: C_4  and  C_6 
REMARK    5  A    between atoms: C_12  and  C_13 
REMARK    6  A    between atoms: C_12  and  N_61 
REMARK    7  A    between atoms: C_19  and  C_31 
REMARK    8  A    between atoms: C_23  and  C_30 
ROOT
ATOM      1  C   LIG d   1       4.867   0.495  -7.931  0.00  0.00     0.106 C 
ATOM      2  H   LIG d   1       5.418   0.936  -7.100  0.00  0.00     0.047 H 
ATOM      3  C   LIG d   1       4.150  -0.791  -7.485  0.00  0.00     0.033 C 
ATOM      4  H   LIG d   1       4.096  -1.501  -8.309  0.00  0.00     0.039 H 
ATOM      5  C   LIG d   1       4.779  -1.434  -6.303  0.00  0.00    -0.072 C 
ATOM      6  C   LIG d   1       4.419  -1.189  -5.063  0.00  0.00    -0.042 C 
ATOM      7  C   LIG d   1       4.977  -1.990  -3.950  0.00  0.00    -0.051 C 
ATOM      8  C   LIG d   1       4.335  -2.026  -2.794  0.00  0.00    -0.081 C 
ATOM      9  C   LIG d   1       3.065  -1.284  -2.506  0.00  0.00    -0.033 C 
ATOM     10  C   LIG d   1       2.357  -0.838  -3.787  0.00  0.00    -0.040 C 
ATOM     11  C   LIG d   1       3.383  -0.169  -4.700  0.00  0.00    -0.003 C 
ATOM     12  C   LIG d   1       2.775   0.555  -5.863  0.00  0.00    -0.006 C 
ATOM     13  C   LIG d   1       2.736  -0.253  -7.159  0.00  0.00     0.111 C 
ATOM     14  H   LIG d   1       1.976  -1.034  -7.147  0.00  0.00     0.074 H 
ATOM     15  O   LIG d   1       2.562   0.736  -8.246  0.00  0.00    -0.460 OA
ATOM     16  C   LIG d   1       3.729   1.407  -8.361  0.00  0.00     0.316 C 
ATOM     17  O   LIG d   1       3.848   2.547  -8.744  0.00  0.00    -0.250 OA
ATOM     18  H   LIG d   1       5.576  -2.144  -6.473  0.00  0.00     0.058 H 
ATOM     19  H   LIG d   1       4.755  -2.629  -2.003  0.00  0.00     0.058 H 
ATOM     20  H   LIG d   1       2.398  -1.932  -1.940  0.00  0.00     0.031 H 
ATOM     21  H   LIG d   1       3.298  -0.404  -1.906  0.00  0.00     0.031 H 
ATOM     22  H   LIG d   1       1.568  -0.127  -3.541  0.00  0.00     0.028 H 
ATOM     23  H   LIG d   1       1.930  -1.705  -4.291  0.00  0.00     0.028 H 
ATOM     24  H   LIG d   1       1.754   0.836  -5.600  0.00  0.00     0.031 H 
ATOM     25  H   LIG d   1       3.345   1.466  -6.040  0.00  0.00     0.031 H 
ENDROOT
BRANCH   1  26
ATOM     26  C   LIG d   1       5.802   0.210  -9.107  0.00  0.00    -0.018 C 
ATOM     27  H   LIG d   1       6.175  -0.813  -9.035  0.00  0.00     0.082 H 
ATOM     28  H   LIG d   1       5.258   0.332 -10.043  0.00  0.00     0.082 H 
BRANCH  26  29
ATOM     29  N   LIG d   1       6.943   1.147  -9.044  0.00  0.00     0.236 N 
ATOM     30  C   LIG d   1       8.034   0.672  -9.921  0.00  0.00    -0.032 C 
ATOM     31  C   LIG d   1       9.154   1.715  -9.932  0.00  0.00    -0.012 C 
ATOM     32  H   LIG d   1       8.429  -0.279  -9.561  0.00  0.00     0.081 H 
ATOM     33  H   LIG d   1       7.647   0.544 -10.932  0.00  0.00     0.081 H 
ATOM     34  C   LIG d   1       9.681   1.905  -8.507  0.00  0.00    -0.030 C 
ATOM     35  H   LIG d   1       8.764   2.662 -10.304  0.00  0.00     0.032 H 
ATOM     36  H   LIG d   1       9.963   1.375 -10.577  0.00  0.00     0.032 H 
ATOM     37  C   LIG d   1       8.526   2.325  -7.595  0.00  0.00     0.096 C 
ATOM     38  H   LIG d   1      10.449   2.679  -8.502  0.00  0.00     0.028 H 
ATOM     39  H   LIG d   1      10.106   0.967  -8.148  0.00  0.00     0.028 H 
ATOM     40  H   LIG d   1       8.127   3.282  -7.930  0.00  0.00     0.047 H 
ATOM     41  C   LIG d   1       7.426   1.263  -7.651  0.00  0.00    -0.019 C 
ATOM     42  H   LIG d   1       6.595   1.567  -7.014  0.00  0.00     0.082 H 
ATOM     43  H   LIG d   1       7.822   0.309  -7.303  0.00  0.00     0.082 H 
ATOM     44  H   LIG d   1       6.635   2.070  -9.369  0.00  0.00     0.203 HD
BRANCH  37  45
ATOM     45  C   LIG d   1       9.025   2.457  -6.179  0.00  0.00     0.315 C 
ATOM     46  O   LIG d   1      10.201   2.307  -5.936  0.00  0.00    -0.250 OA
BRANCH  45  47
ATOM     47  O   LIG d   1       8.167   2.740  -5.188  0.00  0.00    -0.465 OA
BRANCH  47  48
ATOM     48  C   LIG d   1       8.371   2.057  -3.922  0.00  0.00     0.090 C 
ATOM     49  H   LIG d   1       9.436   1.891  -3.766  0.00  0.00     0.069 H 
ATOM     50  H   LIG d   1       7.976   2.670  -3.112  0.00  0.00     0.069 H 
BRANCH  48  51
ATOM     51  C   LIG d   1       7.642   0.712  -3.946  0.00  0.00    -0.031 C 
ATOM     52  H   LIG d   1       6.841   0.719  -3.206  0.00  0.00     0.026 H 
ATOM     53  H   LIG d   1       7.219   0.545  -4.937  0.00  0.00     0.026 H 
ATOM     54  H   LIG d   1       8.347  -0.086  -3.711  0.00  0.00     0.026 H 
ENDBRANCH  48  51
ENDBRANCH  47  48
ENDBRANCH  45  47
ENDBRANCH  37  45
ENDBRANCH  26  29
ENDBRANCH   1  26
BRANCH  11  55
ATOM     55  C   LIG d   1       4.091   0.894  -3.857  0.00  0.00    -0.055 C 
ATOM     56  H   LIG d   1       3.382   1.676  -3.588  0.00  0.00     0.024 H 
ATOM     57  H   LIG d   1       4.488   0.435  -2.951  0.00  0.00     0.024 H 
ATOM     58  H   LIG d   1       4.910   1.328  -4.432  0.00  0.00     0.024 H 
ENDBRANCH  11  55
BRANCH   7  59
ATOM     59  C   LIG d   1       6.262  -2.757  -4.133  0.00  0.00    -0.040 C 
ATOM     60  H   LIG d   1       6.629  -2.613  -5.149  0.00  0.00     0.028 H 
ATOM     61  H   LIG d   1       7.006  -2.394  -3.424  0.00  0.00     0.028 H 
ATOM     62  H   LIG d   1       6.080  -3.817  -3.958  0.00  0.00     0.028 H 
ENDBRANCH   7  59
TORSDOF 8
ENDMDL
MODEL 6
REMARK VINA RESULT:      -5.9      2.624      5.386
REMARK  8 active torsions:
REMARK  status: ('A' for Active; 'I' for Inactive)
REMARK    1  A    between atoms: C_1  and  C_2 
REMARK    2  A    between atoms: C_2  and  O_3 
REMARK    3  A    between atoms: O_3  and  C_4 
REMARK    4  A    between atoms: C_4  and  C_6 
REMARK    5  A    between atoms: C_12  and  C_13 
REMARK    6  A    between atoms: C_12  and  N_61 
REMARK    7  A    between atoms: C_19  and  C_31 
REMARK    8  A    between atoms: C_23  and  C_30 
ROOT
ATOM      1  C   LIG d   1       7.079  -2.079  -6.123  0.00  0.00     0.106 C 
ATOM      2  H   LIG d   1       6.317  -2.670  -5.615  0.00  0.00     0.047 H 
ATOM      3  C   LIG d   1       6.785  -0.575  -5.978  0.00  0.00     0.033 C 
ATOM      4  H   LIG d   1       7.127  -0.034  -6.860  0.00  0.00     0.039 H 
ATOM      5  C   LIG d   1       5.352  -0.278  -5.726  0.00  0.00    -0.072 C 
ATOM      6  C   LIG d   1       4.833  -0.166  -4.524  0.00  0.00    -0.042 C 
ATOM      7  C   LIG d   1       3.436   0.294  -4.353  0.00  0.00    -0.051 C 
ATOM      8  C   LIG d   1       3.056   0.787  -3.185  0.00  0.00    -0.081 C 
ATOM      9  C   LIG d   1       3.944   0.901  -1.984  0.00  0.00    -0.033 C 
ATOM     10  C   LIG d   1       5.426   0.802  -2.353  0.00  0.00    -0.040 C 
ATOM     11  C   LIG d   1       5.617  -0.405  -3.270  0.00  0.00    -0.003 C 
ATOM     12  C   LIG d   1       7.053  -0.778  -3.484  0.00  0.00    -0.006 C 
ATOM     13  C   LIG d   1       7.669  -0.210  -4.761  0.00  0.00     0.111 C 
ATOM     14  H   LIG d   1       7.875   0.858  -4.691  0.00  0.00     0.074 H 
ATOM     15  O   LIG d   1       8.866  -1.035  -5.034  0.00  0.00    -0.460 OA
ATOM     16  C   LIG d   1       8.428  -2.246  -5.441  0.00  0.00     0.316 C 
ATOM     17  O   LIG d   1       9.013  -3.292  -5.290  0.00  0.00    -0.250 OA
ATOM     18  H   LIG d   1       4.701  -0.146  -6.578  0.00  0.00     0.058 H 
ATOM     19  H   LIG d   1       2.036   1.129  -3.091  0.00  0.00     0.058 H 
ATOM     20  H   LIG d   1       3.763   1.859  -1.500  0.00  0.00     0.031 H 
ATOM     21  H   LIG d   1       3.699   0.100  -1.286  0.00  0.00     0.031 H 
ATOM     22  H   LIG d   1       6.020   0.671  -1.448  0.00  0.00     0.028 H 
ATOM     23  H   LIG d   1       5.736   1.709  -2.871  0.00  0.00     0.028 H 
ATOM     24  H   LIG d   1       7.633  -0.423  -2.632  0.00  0.00     0.031 H 
ATOM     25  H   LIG d   1       7.127  -1.865  -3.519  0.00  0.00     0.031 H 
ENDROOT
BRANCH   1  26
ATOM     26  C   LIG d   1       7.170  -2.469  -7.599  0.00  0.00    -0.018 C 
ATOM     27  H   LIG d   1       6.950  -1.599  -8.220  0.00  0.00     0.082 H 
ATOM     28  H   LIG d   1       8.175  -2.827  -7.821  0.00  0.00     0.082 H 
BRANCH  26  29
ATOM     29  N   LIG d   1       6.172  -3.524  -7.873  0.00  0.00     0.236 N 
ATOM     30  C   LIG d   1       4.889  -2.911  -8.278  0.00  0.00    -0.032 C 
ATOM     31  C   LIG d   1       3.910  -4.020  -8.671  0.00  0.00    -0.012 C 
ATOM     32  H   LIG d   1       4.467  -2.328  -7.460  0.00  0.00     0.081 H 
ATOM     33  H   LIG d   1       5.062  -2.260  -9.136  0.00  0.00     0.081 H 
ATOM     34  C   LIG d   1       3.685  -4.943  -7.470  0.00  0.00    -0.030 C 
ATOM     35  H   LIG d   1       4.325  -4.595  -9.499  0.00  0.00     0.032 H 
ATOM     36  H   LIG d   1       2.961  -3.579  -8.973  0.00  0.00     0.032 H 
ATOM     37  C   LIG d   1       5.031  -5.513  -7.015  0.00  0.00     0.096 C 
ATOM     38  H   LIG d   1       3.022  -5.760  -7.757  0.00  0.00     0.028 H 
ATOM     39  H   LIG d   1       3.235  -4.377  -6.654  0.00  0.00     0.028 H 
ATOM     40  H   LIG d   1       5.463  -6.112  -7.816  0.00  0.00     0.047 H 
ATOM     41  C   LIG d   1       5.977  -4.360  -6.670  0.00  0.00    -0.019 C 
ATOM     42  H   LIG d   1       6.941  -4.762  -6.359  0.00  0.00     0.082 H 
ATOM     43  H   LIG d   1       5.550  -3.770  -5.859  0.00  0.00     0.082 H 
ATOM     44  H   LIG d   1       6.514  -4.115  -8.639  0.00  0.00     0.203 HD
BRANCH  37  45
ATOM     45  C   LIG d   1       4.825  -6.376  -5.796  0.00  0.00     0.315 C 
ATOM     46  O   LIG d   1       3.995  -6.070  -4.972  0.00  0.00    -0.250 OA
BRANCH  45  47
ATOM     47  O   LIG d   1       5.563  -7.484  -5.627  0.00  0.00    -0.465 OA
BRANCH  47  48
ATOM     48  C   LIG d   1       4.906  -8.627  -5.015  0.00  0.00     0.090 C 
ATOM     49  H   LIG d   1       5.540  -9.030  -4.227  0.00  0.00     0.069 H 
ATOM     50  H   LIG d   1       3.952  -8.313  -4.591  0.00  0.00     0.069 H 
BRANCH  48  51
ATOM     51  C   LIG d   1       4.664  -9.703  -6.076  0.00  0.00    -0.031 C 
ATOM     52  H   LIG d   1       5.451 -10.455  -6.017  0.00  0.00     0.026 H 
ATOM     53  H   LIG d   1       3.697 -10.175  -5.900  0.00  0.00     0.026 H 
ATOM     54  H   LIG d   1       4.671  -9.245  -7.065  0.00  0.00     0.026 H 
ENDBRANCH  48  51
ENDBRANCH  47  48
ENDBRANCH  45  47
ENDBRANCH  37  45
ENDBRANCH  26  29
ENDBRANCH   1  26
BRANCH  11  55
ATOM     55  C   LIG d   1       4.965  -1.597  -2.566  0.00  0.00    -0.055 C 
ATOM     56  H   LIG d   1       5.564  -1.880  -1.700  0.00  0.00     0.024 H 
ATOM     57  H   LIG d   1       3.962  -1.323  -2.241  0.00  0.00     0.024 H 
ATOM     58  H   LIG d   1       4.906  -2.439  -3.256  0.00  0.00     0.024 H 
ENDBRANCH  11  55
BRANCH   7  59
ATOM     59  C   LIG d   1       2.458   0.203  -5.497  0.00  0.00    -0.040 C 
ATOM     60  H   LIG d   1       1.801  -0.654  -5.344  0.00  0.00     0.028 H 
ATOM     61  H   LIG d   1       1.862   1.115  -5.539  0.00  0.00     0.028 H 
ATOM     62  H   LIG d   1       3.004   0.082  -6.432  0.00  0.00     0.028 H 
ENDBRANCH   7  59
TORSDOF 8
ENDMDL
MODEL 7
REMARK VINA RESULT:      -5.9      2.648      3.670
REMARK  8 active torsions:
REMARK  status: ('A' for Active; 'I' for Inactive)
REMARK    1  A    between atoms: C_1  and  C_2 
REMARK    2  A    between atoms: C_2  and  O_3 
REMARK    3  A    between atoms: O_3  and  C_4 
REMARK    4  A    between atoms: C_4  and  C_6 
REMARK    5  A    between atoms: C_12  and  C_13 
REMARK    6  A    between atoms: C_12  and  N_61 
REMARK    7  A    between atoms: C_19  and  C_31 
REMARK    8  A    between atoms: C_23  and  C_30 
ROOT
ATOM      1  C   LIG d   1       4.646  -3.122  -6.623  0.00  0.00     0.106 C 
ATOM      2  H   LIG d   1       3.809  -3.296  -5.946  0.00  0.00     0.047 H 
ATOM      3  C   LIG d   1       5.251  -1.726  -6.390  0.00  0.00     0.033 C 
ATOM      4  H   LIG d   1       5.641  -1.321  -7.323  0.00  0.00     0.039 H 
ATOM      5  C   LIG d   1       4.295  -0.767  -5.781  0.00  0.00    -0.072 C 
ATOM      6  C   LIG d   1       4.180  -0.577  -4.485  0.00  0.00    -0.042 C 
ATOM      7  C   LIG d   1       3.325   0.513  -3.962  0.00  0.00    -0.051 C 
ATOM      8  C   LIG d   1       3.522   0.954  -2.730  0.00  0.00    -0.081 C 
ATOM      9  C   LIG d   1       4.555   0.411  -1.791  0.00  0.00    -0.033 C 
ATOM     10  C   LIG d   1       5.633  -0.391  -2.522  0.00  0.00    -0.040 C 
ATOM     11  C   LIG d   1       4.948  -1.371  -3.473  0.00  0.00    -0.003 C 
ATOM     12  C   LIG d   1       5.872  -2.402  -4.047  0.00  0.00    -0.006 C 
ATOM     13  C   LIG d   1       6.419  -2.058  -5.431  0.00  0.00     0.111 C 
ATOM     14  H   LIG d   1       7.180  -1.278  -5.403  0.00  0.00     0.074 H 
ATOM     15  O   LIG d   1       6.892  -3.336  -6.007  0.00  0.00    -0.460 OA
ATOM     16  C   LIG d   1       5.796  -4.066  -6.306  0.00  0.00     0.316 C 
ATOM     17  O   LIG d   1       5.738  -5.273  -6.319  0.00  0.00    -0.250 OA
ATOM     18  H   LIG d   1       3.660  -0.192  -6.439  0.00  0.00     0.058 H 
ATOM     19  H   LIG d   1       2.895   1.759  -2.378  0.00  0.00     0.058 H 
ATOM     20  H   LIG d   1       5.025   1.240  -1.265  0.00  0.00     0.031 H 
ATOM     21  H   LIG d   1       4.065  -0.238  -1.063  0.00  0.00     0.031 H 
ATOM     22  H   LIG d   1       6.234  -0.943  -1.798  0.00  0.00     0.028 H 
ATOM     23  H   LIG d   1       6.270   0.285  -3.091  0.00  0.00     0.028 H 
ATOM     24  H   LIG d   1       6.713  -2.531  -3.364  0.00  0.00     0.031 H 
ATOM     25  H   LIG d   1       5.337  -3.349  -4.112  0.00  0.00     0.031 H 
ENDROOT
BRANCH   1  26
ATOM     26  C   LIG d   1       4.205  -3.281  -8.079  0.00  0.00    -0.018 C 
ATOM     27  H   LIG d   1       4.967  -3.832  -8.632  0.00  0.00     0.082 H 
ATOM     28  H   LIG d   1       3.264  -3.829  -8.116  0.00  0.00     0.082 H 
BRANCH  26  29
ATOM     29  N   LIG d   1       4.049  -1.939  -8.677  0.00  0.00     0.236 N 
ATOM     30  C   LIG d   1       2.616  -1.580  -8.742  0.00  0.00    -0.032 C 
ATOM     31  C   LIG d   1       2.486  -0.143  -9.251  0.00  0.00    -0.012 C 
ATOM     32  H   LIG d   1       2.083  -2.253  -9.414  0.00  0.00     0.081 H 
ATOM     33  H   LIG d   1       2.186  -1.651  -7.742  0.00  0.00     0.081 H 
ATOM     34  C   LIG d   1       3.107  -0.045 -10.647  0.00  0.00    -0.030 C 
ATOM     35  H   LIG d   1       3.007   0.532  -8.573  0.00  0.00     0.032 H 
ATOM     36  H   LIG d   1       1.433   0.132  -9.302  0.00  0.00     0.032 H 
ATOM     37  C   LIG d   1       4.570  -0.489 -10.579  0.00  0.00     0.096 C 
ATOM     38  H   LIG d   1       3.056   0.987 -10.997  0.00  0.00     0.028 H 
ATOM     39  H   LIG d   1       2.562  -0.691 -11.336  0.00  0.00     0.028 H 
ATOM     40  H   LIG d   1       5.125   0.181  -9.922  0.00  0.00     0.047 H 
ATOM     41  C   LIG d   1       4.640  -1.916 -10.032  0.00  0.00    -0.019 C 
ATOM     42  H   LIG d   1       5.681  -2.231  -9.968  0.00  0.00     0.082 H 
ATOM     43  H   LIG d   1       4.097  -2.588 -10.697  0.00  0.00     0.082 H 
ATOM     44  H   LIG d   1       4.536  -1.254  -8.088  0.00  0.00     0.203 HD
BRANCH  37  45
ATOM     45  C   LIG d   1       5.173  -0.451 -11.960  0.00  0.00     0.315 C 
ATOM     46  O   LIG d   1       6.342  -0.716 -12.117  0.00  0.00    -0.250 OA
BRANCH  45  47
ATOM     47  O   LIG d   1       4.412  -0.123 -13.016  0.00  0.00    -0.465 OA
BRANCH  47  48
ATOM     48  C   LIG d   1       4.363  -1.073 -14.114  0.00  0.00     0.090 C 
ATOM     49  H   LIG d   1       5.175  -1.792 -14.009  0.00  0.00     0.069 H 
ATOM     50  H   LIG d   1       3.408  -1.597 -14.097  0.00  0.00     0.069 H 
BRANCH  48  51
ATOM     51  C   LIG d   1       4.513  -0.326 -15.440  0.00  0.00    -0.031 C 
ATOM     52  H   LIG d   1       4.138  -0.950 -16.253  0.00  0.00     0.026 H 
ATOM     53  H   LIG d   1       3.941   0.601 -15.402  0.00  0.00     0.026 H 
ATOM     54  H   LIG d   1       5.564  -0.098 -15.612  0.00  0.00     0.026 H 
ENDBRANCH  48  51
ENDBRANCH  47  48
ENDBRANCH  45  47
ENDBRANCH  37  45
ENDBRANCH  26  29
ENDBRANCH   1  26
BRANCH  11  55
ATOM     55  C   LIG d   1       3.915  -2.137  -2.642  0.00  0.00    -0.055 C 
ATOM     56  H   LIG d   1       3.961  -3.196  -2.891  0.00  0.00     0.024 H 
ATOM     57  H   LIG d   1       4.131  -2.003  -1.581  0.00  0.00     0.024 H 
ATOM     58  H   LIG d   1       2.918  -1.755  -2.860  0.00  0.00     0.024 H 
ENDBRANCH  11  55
BRANCH   7  59
ATOM     59  C   LIG d   1       2.243   1.113  -4.823  0.00  0.00    -0.040 C 
ATOM     60  H   LIG d   1       1.403   1.411  -4.195  0.00  0.00     0.028 H 
ATOM     61  H   LIG d   1       2.636   1.988  -5.342  0.00  0.00     0.028 H 
ATOM     62  H   LIG d   1       1.909   0.376  -5.553  0.00  0.00     0.028 H 
ENDBRANCH   7  59
TORSDOF 8
ENDMDL
MODEL 8
REMARK VINA RESULT:      -5.8      1.784      2.372
REMARK  8 active torsions:
REMARK  status: ('A' for Active; 'I' for Inactive)
REMARK    1  A    between atoms: C_1  and  C_2 
REMARK    2  A    between atoms: C_2  and  O_3 
REMARK    3  A    between atoms: O_3  and  C_4 
REMARK    4  A    between atoms: C_4  and  C_6 
REMARK    5  A    between atoms: C_12  and  C_13 
REMARK    6  A    between atoms: C_12  and  N_61 
REMARK    7  A    between atoms: C_19  and  C_31 
REMARK    8  A    between atoms: C_23  and  C_30 
ROOT
ATOM      1  C   LIG d   1       8.242  -1.636  -5.881  0.00  0.00     0.106 C 
ATOM      2  H   LIG d   1       7.416  -1.085  -6.332  0.00  0.00     0.047 H 
ATOM      3  C   LIG d   1       8.023  -1.798  -4.366  0.00  0.00     0.033 C 
ATOM      4  H   LIG d   1       8.979  -1.805  -3.843  0.00  0.00     0.039 H 
ATOM      5  C   LIG d   1       7.136  -0.758  -3.787  0.00  0.00    -0.072 C 
ATOM      6  C   LIG d   1       5.835  -0.898  -3.662  0.00  0.00    -0.042 C 
ATOM      7  C   LIG d   1       5.042   0.112  -2.925  0.00  0.00    -0.051 C 
ATOM      8  C   LIG d   1       3.849  -0.219  -2.457  0.00  0.00    -0.081 C 
ATOM      9  C   LIG d   1       3.211  -1.563  -2.637  0.00  0.00    -0.033 C 
ATOM     10  C   LIG d   1       4.230  -2.636  -3.025  0.00  0.00    -0.040 C 
ATOM     11  C   LIG d   1       5.091  -2.097  -4.167  0.00  0.00    -0.003 C 
ATOM     12  C   LIG d   1       5.944  -3.139  -4.824  0.00  0.00    -0.006 C 
ATOM     13  C   LIG d   1       7.378  -3.203  -4.301  0.00  0.00     0.111 C 
ATOM     14  H   LIG d   1       7.447  -3.657  -3.313  0.00  0.00     0.074 H 
ATOM     15  O   LIG d   1       8.156  -3.910  -5.342  0.00  0.00    -0.460 OA
ATOM     16  C   LIG d   1       8.270  -3.068  -6.392  0.00  0.00     0.316 C 
ATOM     17  O   LIG d   1       8.378  -3.399  -7.549  0.00  0.00    -0.250 OA
ATOM     18  H   LIG d   1       7.585   0.165  -3.448  0.00  0.00     0.058 H 
ATOM     19  H   LIG d   1       3.297   0.530  -1.911  0.00  0.00     0.058 H 
ATOM     20  H   LIG d   1       2.729  -1.853  -1.704  0.00  0.00     0.031 H 
ATOM     21  H   LIG d   1       2.455  -1.494  -3.419  0.00  0.00     0.031 H 
ATOM     22  H   LIG d   1       3.708  -3.535  -3.354  0.00  0.00     0.028 H 
ATOM     23  H   LIG d   1       4.863  -2.868  -2.169  0.00  0.00     0.028 H 
ATOM     24  H   LIG d   1       5.477  -4.113  -4.673  0.00  0.00     0.031 H 
ATOM     25  H   LIG d   1       5.974  -2.936  -5.894  0.00  0.00     0.031 H 
ENDROOT
BRANCH   1  26
ATOM     26  C   LIG d   1       9.574  -0.938  -6.161  0.00  0.00    -0.018 C 
ATOM     27  H   LIG d   1       9.900  -0.405  -5.267  0.00  0.00     0.082 H 
ATOM     28  H   LIG d   1      10.324  -1.680  -6.434  0.00  0.00     0.082 H 
BRANCH  26  29
ATOM     29  N   LIG d   1       9.379   0.032  -7.259  0.00  0.00     0.236 N 
ATOM     30  C   LIG d   1      10.228   1.221  -7.037  0.00  0.00    -0.032 C 
ATOM     31  C   LIG d   1      10.101   2.155  -8.242  0.00  0.00    -0.012 C 
ATOM     32  H   LIG d   1       9.919   1.749  -6.135  0.00  0.00     0.081 H 
ATOM     33  H   LIG d   1      11.266   0.903  -6.933  0.00  0.00     0.081 H 
ATOM     34  C   LIG d   1       8.639   2.585  -8.396  0.00  0.00    -0.030 C 
ATOM     35  H   LIG d   1      10.422   1.633  -9.143  0.00  0.00     0.032 H 
ATOM     36  H   LIG d   1      10.724   3.035  -8.090  0.00  0.00     0.032 H 
ATOM     37  C   LIG d   1       7.762   1.340  -8.551  0.00  0.00     0.096 C 
ATOM     38  H   LIG d   1       8.535   3.216  -9.279  0.00  0.00     0.028 H 
ATOM     39  H   LIG d   1       8.328   3.141  -7.511  0.00  0.00     0.028 H 
ATOM     40  H   LIG d   1       8.047   0.804  -9.457  0.00  0.00     0.047 H 
ATOM     41  C   LIG d   1       7.957   0.430  -7.336  0.00  0.00    -0.019 C 
ATOM     42  H   LIG d   1       7.346  -0.465  -7.450  0.00  0.00     0.082 H 
ATOM     43  H   LIG d   1       7.660   0.962  -6.432  0.00  0.00     0.082 H 
ATOM     44  H   LIG d   1       9.651  -0.409  -8.145  0.00  0.00     0.203 HD
BRANCH  37  45
ATOM     45  C   LIG d   1       6.315   1.751  -8.644  0.00  0.00     0.315 C 
ATOM     46  O   LIG d   1       5.996   2.683  -9.346  0.00  0.00    -0.250 OA
BRANCH  45  47
ATOM     47  O   LIG d   1       5.382   1.085  -7.948  0.00  0.00    -0.465 OA
BRANCH  47  48
ATOM     48  C   LIG d   1       4.214   0.628  -8.680  0.00  0.00     0.090 C 
ATOM     49  H   LIG d   1       4.353   0.821  -9.743  0.00  0.00     0.069 H 
ATOM     50  H   LIG d   1       4.081  -0.442  -8.520  0.00  0.00     0.069 H 
BRANCH  48  51
ATOM     51  C   LIG d   1       2.976   1.376  -8.183  0.00  0.00    -0.031 C 
ATOM     52  H   LIG d   1       3.012   1.459  -7.097  0.00  0.00     0.026 H 
ATOM     53  H   LIG d   1       2.954   2.374  -8.622  0.00  0.00     0.026 H 
ATOM     54  H   LIG d   1       2.079   0.830  -8.476  0.00  0.00     0.026 H 
ENDBRANCH  48  51
ENDBRANCH  47  48
ENDBRANCH  45  47
ENDBRANCH  37  45
ENDBRANCH  26  29
ENDBRANCH   1  26
BRANCH  11  55
ATOM     55  C   LIG d   1       4.125  -1.592  -5.242  0.00  0.00    -0.055 C 
ATOM     56  H   LIG d   1       4.437  -1.969  -6.215  0.00  0.00     0.024 H 
ATOM     57  H   LIG d   1       3.118  -1.945  -5.020  0.00  0.00     0.024 H 
ATOM     58  H   LIG d   1       4.133  -0.502  -5.255  0.00  0.00     0.024 H 
ENDBRANCH  11  55
BRANCH   7  59
ATOM     59  C   LIG d   1       5.587   1.500  -2.708  0.00  0.00    -0.040 C 
ATOM     60  H   LIG d   1       5.234   1.883  -1.750  0.00  0.00     0.028 H 
ATOM     61  H   LIG d   1       6.677   1.467  -2.707  0.00  0.00     0.028 H 
ATOM     62  H   LIG d   1       5.244   2.154  -3.510  0.00  0.00     0.028 H 
ENDBRANCH   7  59
TORSDOF 8
ENDMDL
MODEL 9
REMARK VINA RESULT:      -5.8      5.940      8.625
REMARK  8 active torsions:
REMARK  status: ('A' for Active; 'I' for Inactive)
REMARK    1  A    between atoms: C_1  and  C_2 
REMARK    2  A    between atoms: C_2  and  O_3 
REMARK    3  A    between atoms: O_3  and  C_4 
REMARK    4  A    between atoms: C_4  and  C_6 
REMARK    5  A    between atoms: C_12  and  C_13 
REMARK    6  A    between atoms: C_12  and  N_61 
REMARK    7  A    between atoms: C_19  and  C_31 
REMARK    8  A    between atoms: C_23  and  C_30 
ROOT
ATOM      1  C   LIG d   1      10.305   4.363  -3.300  0.00  0.00     0.106 C 
ATOM      2  H   LIG d   1       9.796   4.249  -2.343  0.00  0.00     0.047 H 
ATOM      3  C   LIG d   1      10.909   5.773  -3.429  0.00  0.00     0.033 C 
ATOM      4  H   LIG d   1      10.900   6.096  -4.469  0.00  0.00     0.039 H 
ATOM      5  C   LIG d   1      10.228   6.783  -2.579  0.00  0.00    -0.072 C 
ATOM      6  C   LIG d   1      10.611   7.083  -1.358  0.00  0.00    -0.042 C 
ATOM      7  C   LIG d   1       9.987   8.215  -0.636  0.00  0.00    -0.051 C 
ATOM      8  C   LIG d   1      10.626   8.760   0.387  0.00  0.00    -0.081 C 
ATOM      9  C   LIG d   1      11.955   8.298   0.899  0.00  0.00    -0.033 C 
ATOM     10  C   LIG d   1      12.697   7.434  -0.123  0.00  0.00    -0.040 C 
ATOM     11  C   LIG d   1      11.732   6.377  -0.657  0.00  0.00    -0.003 C 
ATOM     12  C   LIG d   1      12.398   5.299  -1.457  0.00  0.00    -0.006 C 
ATOM     13  C   LIG d   1      12.365   5.523  -2.967  0.00  0.00     0.111 C 
ATOM     14  H   LIG d   1      13.054   6.301  -3.295  0.00  0.00     0.074 H 
ATOM     15  O   LIG d   1      12.621   4.199  -3.577  0.00  0.00    -0.460 OA
ATOM     16  C   LIG d   1      11.518   3.448  -3.373  0.00  0.00     0.316 C 
ATOM     17  O   LIG d   1      11.496   2.245  -3.266  0.00  0.00    -0.250 OA
ATOM     18  H   LIG d   1       9.373   7.300  -2.988  0.00  0.00     0.058 H 
ATOM     19  H   LIG d   1      10.156   9.594   0.887  0.00  0.00     0.058 H 
ATOM     20  H   LIG d   1      12.565   9.168   1.137  0.00  0.00     0.031 H 
ATOM     21  H   LIG d   1      11.801   7.715   1.809  0.00  0.00     0.031 H 
ATOM     22  H   LIG d   1      13.546   6.945   0.357  0.00  0.00     0.028 H 
ATOM     23  H   LIG d   1      13.047   8.059  -0.945  0.00  0.00     0.028 H 
ATOM     24  H   LIG d   1      13.440   5.229  -1.140  0.00  0.00     0.031 H 
ATOM     25  H   LIG d   1      11.909   4.352  -1.236  0.00  0.00     0.031 H 
ENDROOT
BRANCH   1  26
ATOM     26  C   LIG d   1       9.347   4.080  -4.458  0.00  0.00    -0.018 C 
ATOM     27  H   LIG d   1       8.430   4.655  -4.320  0.00  0.00     0.082 H 
ATOM     28  H   LIG d   1       9.817   4.368  -5.398  0.00  0.00     0.082 H 
BRANCH  26  29
ATOM     29  N   LIG d   1       9.019   2.639  -4.461  0.00  0.00     0.236 N 
ATOM     30  C   LIG d   1       8.996   2.131  -5.849  0.00  0.00    -0.032 C 
ATOM     31  C   LIG d   1       8.774   0.617  -5.820  0.00  0.00    -0.012 C 
ATOM     32  H   LIG d   1       8.196   2.604  -6.418  0.00  0.00     0.081 H 
ATOM     33  H   LIG d   1       9.955   2.347  -6.321  0.00  0.00     0.081 H 
ATOM     34  C   LIG d   1       7.436   0.317  -5.138  0.00  0.00    -0.030 C 
ATOM     35  H   LIG d   1       9.580   0.141  -5.263  0.00  0.00     0.032 H 
ATOM     36  H   LIG d   1       8.757   0.231  -6.838  0.00  0.00     0.032 H 
ATOM     37  C   LIG d   1       7.445   0.913  -3.728  0.00  0.00     0.096 C 
ATOM     38  H   LIG d   1       7.292  -0.762  -5.075  0.00  0.00     0.028 H 
ATOM     39  H   LIG d   1       6.624   0.760  -5.716  0.00  0.00     0.028 H 
ATOM     40  H   LIG d   1       8.230   0.442  -3.138  0.00  0.00     0.047 H 
ATOM     41  C   LIG d   1       7.706   2.418  -3.818  0.00  0.00    -0.019 C 
ATOM     42  H   LIG d   1       7.727   2.844  -2.815  0.00  0.00     0.082 H 
ATOM     43  H   LIG d   1       6.912   2.891  -4.397  0.00  0.00     0.082 H 
ATOM     44  H   LIG d   1       9.738   2.133  -3.933  0.00  0.00     0.203 HD
BRANCH  37  45
ATOM     45  C   LIG d   1       6.109   0.673  -3.071  0.00  0.00     0.315 C 
ATOM     46  O   LIG d   1       5.367   1.603  -2.853  0.00  0.00    -0.250 OA
BRANCH  45  47
ATOM     47  O   LIG d   1       5.744  -0.572  -2.729  0.00  0.00    -0.465 OA
BRANCH  47  48
ATOM     48  C   LIG d   1       4.484  -0.718  -2.021  0.00  0.00     0.090 C 
ATOM     49  H   LIG d   1       4.668  -0.710  -0.947  0.00  0.00     0.069 H 
ATOM     50  H   LIG d   1       3.823   0.107  -2.283  0.00  0.00     0.069 H 
BRANCH  48  51
ATOM     51  C   LIG d   1       3.829  -2.043  -2.415  0.00  0.00    -0.031 C 
ATOM     52  H   LIG d   1       3.387  -2.507  -1.533  0.00  0.00     0.026 H 
ATOM     53  H   LIG d   1       3.051  -1.858  -3.156  0.00  0.00     0.026 H 
ATOM     54  H   LIG d   1       4.582  -2.709  -2.836  0.00  0.00     0.026 H 
ENDBRANCH  48  51
ENDBRANCH  47  48
ENDBRANCH  45  47
ENDBRANCH  37  45
ENDBRANCH  26  29
ENDBRANCH   1  26
BRANCH  11  55
ATOM     55  C   LIG d   1      11.120   5.688   0.565  0.00  0.00    -0.055 C 
ATOM     56  H   LIG d   1      10.276   5.074   0.251  0.00  0.00     0.024 H 
ATOM     57  H   LIG d   1      11.871   5.059   1.042  0.00  0.00     0.024 H 
ATOM     58  H   LIG d   1      10.776   6.442   1.274  0.00  0.00     0.024 H 
ENDBRANCH  11  55
BRANCH   7  59
ATOM     59  C   LIG d   1       8.640   8.742  -1.062  0.00  0.00    -0.040 C 
ATOM     60  H   LIG d   1       8.614   8.835  -2.148  0.00  0.00     0.028 H 
ATOM     61  H   LIG d   1       7.861   8.051  -0.738  0.00  0.00     0.028 H 
ATOM     62  H   LIG d   1       8.472   9.718  -0.609  0.00  0.00     0.028 H 
ENDBRANCH   7  59
TORSDOF 8
ENDMDL
MODEL 10
REMARK VINA RESULT:      -5.4      3.714      7.261
REMARK  8 active torsions:
REMARK  status: ('A' for Active; 'I' for Inactive)
REMARK    1  A    between atoms: C_1  and  C_2 
REMARK    2  A    between atoms: C_2  and  O_3 
REMARK    3  A    between atoms: O_3  and  C_4 
REMARK    4  A    between atoms: C_4  and  C_6 
REMARK    5  A    between atoms: C_12  and  C_13 
REMARK    6  A    between atoms: C_12  and  N_61 
REMARK    7  A    between atoms: C_19  and  C_31 
REMARK    8  A    between atoms: C_23  and  C_30 
ROOT
ATOM      1  C   LIG d   1       3.731  -3.564  -9.658  0.00  0.00     0.106 C 
ATOM      2  H   LIG d   1       4.549  -3.123  -9.087  0.00  0.00     0.047 H 
ATOM      3  C   LIG d   1       2.615  -2.530  -9.892  0.00  0.00     0.033 C 
ATOM      4  H   LIG d   1       1.643  -3.022  -9.922  0.00  0.00     0.039 H 
ATOM      5  C   LIG d   1       2.601  -1.442  -8.882  0.00  0.00    -0.072 C 
ATOM      6  C   LIG d   1       3.241  -0.303  -9.031  0.00  0.00    -0.042 C 
ATOM      7  C   LIG d   1       3.046   0.797  -8.060  0.00  0.00    -0.051 C 
ATOM      8  C   LIG d   1       3.351   2.034  -8.415  0.00  0.00    -0.081 C 
ATOM      9  C   LIG d   1       3.911   2.419  -9.750  0.00  0.00    -0.033 C 
ATOM     10  C   LIG d   1       3.693   1.329 -10.801  0.00  0.00    -0.040 C 
ATOM     11  C   LIG d   1       4.124  -0.011 -10.206  0.00  0.00    -0.003 C 
ATOM     12  C   LIG d   1       4.221  -1.115 -11.214  0.00  0.00    -0.006 C 
ATOM     13  C   LIG d   1       2.980  -2.002 -11.300  0.00  0.00     0.111 C 
ATOM     14  H   LIG d   1       2.145  -1.513 -11.800  0.00  0.00     0.074 H 
ATOM     15  O   LIG d   1       3.423  -3.253 -11.955  0.00  0.00    -0.460 OA
ATOM     16  C   LIG d   1       4.190  -3.918 -11.064  0.00  0.00     0.316 C 
ATOM     17  O   LIG d   1       5.093  -4.671 -11.339  0.00  0.00    -0.250 OA
ATOM     18  H   LIG d   1       2.033  -1.593  -7.976  0.00  0.00     0.058 H 
ATOM     19  H   LIG d   1       3.185   2.820  -7.693  0.00  0.00     0.058 H 
ATOM     20  H   LIG d   1       3.428   3.336 -10.085  0.00  0.00     0.031 H 
ATOM     21  H   LIG d   1       4.981   2.601  -9.646  0.00  0.00     0.031 H 
ATOM     22  H   LIG d   1       4.294   1.547 -11.685  0.00  0.00     0.028 H 
ATOM     23  H   LIG d   1       2.639   1.287 -11.073  0.00  0.00     0.028 H 
ATOM     24  H   LIG d   1       4.399  -0.673 -12.196  0.00  0.00     0.031 H 
ATOM     25  H   LIG d   1       5.077  -1.741 -10.961  0.00  0.00     0.031 H 
ENDROOT
BRANCH   1  26
ATOM     26  C   LIG d   1       3.180  -4.799  -8.945  0.00  0.00    -0.018 C 
ATOM     27  H   LIG d   1       2.090  -4.751  -8.924  0.00  0.00     0.082 H 
ATOM     28  H   LIG d   1       3.492  -5.697  -9.477  0.00  0.00     0.082 H 
BRANCH  26  29
ATOM     29  N   LIG d   1       3.691  -4.814  -7.558  0.00  0.00     0.236 N 
ATOM     30  C   LIG d   1       4.780  -3.825  -7.412  0.00  0.00    -0.032 C 
ATOM     31  C   LIG d   1       5.211  -3.773  -5.945  0.00  0.00    -0.012 C 
ATOM     32  H   LIG d   1       5.634  -4.101  -8.032  0.00  0.00     0.081 H 
ATOM     33  H   LIG d   1       4.413  -2.845  -7.718  0.00  0.00     0.081 H 
ATOM     34  C   LIG d   1       5.708  -5.156  -5.515  0.00  0.00    -0.030 C 
ATOM     35  H   LIG d   1       4.362  -3.483  -5.326  0.00  0.00     0.032 H 
ATOM     36  H   LIG d   1       6.013  -3.045  -5.826  0.00  0.00     0.032 H 
ATOM     37  C   LIG d   1       4.594  -6.182  -5.741  0.00  0.00     0.096 C 
ATOM     38  H   LIG d   1       5.975  -5.136  -4.458  0.00  0.00     0.028 H 
ATOM     39  H   LIG d   1       6.581  -5.430  -6.108  0.00  0.00     0.028 H 
ATOM     40  H   LIG d   1       3.735  -5.931  -5.119  0.00  0.00     0.047 H 
ATOM     41  C   LIG d   1       4.182  -6.165  -7.214  0.00  0.00    -0.019 C 
ATOM     42  H   LIG d   1       3.380  -6.884  -7.375  0.00  0.00     0.082 H 
ATOM     43  H   LIG d   1       5.038  -6.430  -7.835  0.00  0.00     0.082 H 
ATOM     44  H   LIG d   1       2.928  -4.563  -6.920  0.00  0.00     0.203 HD
BRANCH  37  45
ATOM     45  C   LIG d   1       5.095  -7.556  -5.375  0.00  0.00     0.315 C 
ATOM     46  O   LIG d   1       6.278  -7.801  -5.425  0.00  0.00    -0.250 OA
BRANCH  45  47
ATOM     47  O   LIG d   1       4.229  -8.507  -4.994  0.00  0.00    -0.465 OA
BRANCH  47  48
ATOM     48  C   LIG d   1       4.763  -9.614  -4.219  0.00  0.00     0.090 C 
ATOM     49  H   LIG d   1       5.056 -10.419  -4.891  0.00  0.00     0.069 H 
ATOM     50  H   LIG d   1       5.632  -9.276  -3.655  0.00  0.00     0.069 H 
BRANCH  48  51
ATOM     51  C   LIG d   1       3.692 -10.122  -3.251  0.00  0.00    -0.031 C 
ATOM     52  H   LIG d   1       2.862 -10.544  -3.817  0.00  0.00     0.026 H 
ATOM     53  H   LIG d   1       4.120 -10.890  -2.607  0.00  0.00     0.026 H 
ATOM     54  H   LIG d   1       3.333  -9.294  -2.641  0.00  0.00     0.026 H 
ENDBRANCH  48  51
ENDBRANCH  47  48
ENDBRANCH  45  47
ENDBRANCH  37  45
ENDBRANCH  26  29
ENDBRANCH   1  26
BRANCH  11  55
ATOM     55  C   LIG d   1       5.537   0.191  -9.654  0.00  0.00    -0.055 C 
ATOM     56  H   LIG d   1       6.215  -0.524 -10.120  0.00  0.00     0.024 H 
ATOM     57  H   LIG d   1       5.872   1.205  -9.871  0.00  0.00     0.024 H 
ATOM     58  H   LIG d   1       5.531   0.034  -8.574  0.00  0.00     0.024 H 
ENDBRANCH  11  55
BRANCH   7  59
ATOM     59  C   LIG d   1       2.506   0.510  -6.682  0.00  0.00    -0.040 C 
ATOM     60  H   LIG d   1       2.338   1.450  -6.155  0.00  0.00     0.028 H 
ATOM     61  H   LIG d   1       1.564  -0.032  -6.766  0.00  0.00     0.028 H 
ATOM     62  H   LIG d   1       3.225  -0.094  -6.129  0.00  0.00     0.028 H 
ENDBRANCH   7  59
TORSDOF 8
ENDMDL
