MODEL 1
REMARK VINA RESULT:      -6.2      0.000      0.000
REMARK  10 active torsions:
REMARK  status: ('A' for Active; 'I' for Inactive)
REMARK    1  A    between atoms: C_1  and  C_2 
REMARK    2  A    between atoms: C_4  and  O_25 
REMARK    3  A    between atoms: C_11  and  C_12 
REMARK    4  A    between atoms: C_14  and  O_22 
REMARK    5  A    between atoms: C_15  and  O_20 
REMARK    6  A    between atoms: C_16  and  O_18 
REMARK    7  A    between atoms: O_18  and  C_19 
REMARK    8  A    between atoms: O_20  and  C_21 
REMARK    9  A    between atoms: O_22  and  C_23 
REMARK   10  A    between atoms: O_25  and  C_26 
ROOT
ATOM      1  C   LIG d   1       2.705  -0.833  -3.275  0.00  0.00     0.175 C 
ATOM      2  C   LIG d   1       2.589   0.259  -4.255  0.00  0.00     0.104 C 
ATOM      3  N   LIG d   1       2.500   1.102  -5.012  0.00  0.00    -0.193 NA
ATOM      4  H   LIG d   1       2.860  -1.777  -3.799  0.00  0.00     0.086 H 
ATOM      5  H   LIG d   1       1.791  -0.891  -2.686  0.00  0.00     0.086 H 
ENDROOT
BRANCH   1   6
ATOM      6  O   LIG d   1       3.814  -0.581  -2.410  0.00  0.00    -0.477 OA
BRANCH   6   7
ATOM      7  C   LIG d   1       5.030  -0.429  -2.994  0.00  0.00     0.126 A 
ATOM      8  C   LIG d   1       5.580  -1.478  -3.725  0.00  0.00    -0.016 A 
ATOM      9  C   LIG d   1       6.806  -1.337  -4.312  0.00  0.00    -0.033 A 
ATOM     10  H   LIG d   1       5.039  -2.408  -3.825  0.00  0.00     0.066 H 
ATOM     11  C   LIG d   1       7.502  -0.135  -4.187  0.00  0.00     0.071 A 
ATOM     12  C   LIG d   1       6.957   0.930  -3.452  0.00  0.00     0.143 A 
ATOM     13  C   LIG d   1       8.808   0.331  -4.689  0.00  0.00     0.232 A 
ATOM     14  C   LIG d   1       5.713   0.768  -2.857  0.00  0.00     0.023 A 
ATOM     15  O   LIG d   1       7.810   1.978  -3.468  0.00  0.00    -0.451 OA
ATOM     16  H   LIG d   1       5.278   1.576  -2.287  0.00  0.00     0.069 H 
ATOM     17  C   LIG d   1       8.930   1.704  -4.179  0.00  0.00     0.176 A 
ATOM     18  C   LIG d   1       9.976   2.546  -4.383  0.00  0.00    -0.008 C 
ATOM     19  H   LIG d   1      10.859   2.195  -4.897  0.00  0.00     0.066 H 
ATOM     20  O   LIG d   1       9.608  -0.285  -5.372  0.00  0.00    -0.283 OA
BRANCH   9  21
ATOM     21  C   LIG d   1       7.402  -2.477  -5.098  0.00  0.00    -0.039 C 
ATOM     22  H   LIG d   1       6.656  -3.261  -5.225  0.00  0.00     0.028 H 
ATOM     23  H   LIG d   1       7.720  -2.116  -6.077  0.00  0.00     0.028 H 
ATOM     24  H   LIG d   1       8.262  -2.877  -4.561  0.00  0.00     0.028 H 
ENDBRANCH   9  21
BRANCH  18  25
ATOM     25  C   LIG d   1       9.906   3.932  -3.907  0.00  0.00    -0.014 A 
ATOM     26  C   LIG d   1      10.220   4.234  -2.575  0.00  0.00    -0.009 A 
ATOM     27  C   LIG d   1      10.154   5.540  -2.132  0.00  0.00     0.166 A 
ATOM     28  H   LIG d   1      10.512   3.446  -1.898  0.00  0.00     0.066 H 
ATOM     29  C   LIG d   1       9.777   6.557  -3.006  0.00  0.00     0.203 A 
ATOM     30  C   LIG d   1       9.464   6.262  -4.330  0.00  0.00     0.166 A 
ATOM     31  C   LIG d   1       9.532   4.958  -4.784  0.00  0.00    -0.009 A 
ATOM     32  H   LIG d   1       9.295   4.731  -5.813  0.00  0.00     0.066 H 
BRANCH  27  33
ATOM     33  O   LIG d   1      10.458   5.833  -0.839  0.00  0.00    -0.491 OA
BRANCH  33  34
ATOM     34  C   LIG d   1      11.752   5.449  -0.373  0.00  0.00     0.079 C 
ATOM     35  H   LIG d   1      11.955   4.420  -0.669  0.00  0.00     0.066 H 
ATOM     36  H   LIG d   1      12.506   6.106  -0.808  0.00  0.00     0.066 H 
ATOM     37  H   LIG d   1      11.786   5.528   0.714  0.00  0.00     0.066 H 
ENDBRANCH  33  34
ENDBRANCH  27  33
BRANCH  29  38
ATOM     38  O   LIG d   1       9.714   7.841  -2.564  0.00  0.00    -0.488 OA
BRANCH  38  39
ATOM     39  C   LIG d   1      10.907   8.620  -2.663  0.00  0.00     0.079 C 
ATOM     40  H   LIG d   1      11.421   8.382  -3.595  0.00  0.00     0.066 H 
ATOM     41  H   LIG d   1      10.653   9.679  -2.647  0.00  0.00     0.066 H 
ATOM     42  H   LIG d   1      11.561   8.392  -1.820  0.00  0.00     0.066 H 
ENDBRANCH  38  39
ENDBRANCH  29  38
BRANCH  30  43
ATOM     43  O   LIG d   1       9.097   7.258  -5.180  0.00  0.00    -0.491 OA
BRANCH  43  44
ATOM     44  C   LIG d   1       9.988   7.553  -6.257  0.00  0.00     0.079 C 
ATOM     45  H   LIG d   1       9.415   7.696  -7.173  0.00  0.00     0.066 H 
ATOM     46  H   LIG d   1      10.544   8.463  -6.031  0.00  0.00     0.066 H 
ATOM     47  H   LIG d   1      10.685   6.725  -6.390  0.00  0.00     0.066 H 
ENDBRANCH  43  44
ENDBRANCH  30  43
ENDBRANCH  18  25
ENDBRANCH   6   7
ENDBRANCH   1   6
TORSDOF 10
ENDMDL
MODEL 2
REMARK VINA RESULT:      -5.4      6.278      9.761
REMARK  10 active torsions:
REMARK  status: ('A' for Active; 'I' for Inactive)
REMARK    1  A    between atoms: C_1  and  C_2 
REMARK    2  A    between atoms: C_4  and  O_25 
REMARK    3  A    between atoms: C_11  and  C_12 
REMARK    4  A    between atoms: C_14  and  O_22 
REMARK    5  A    between atoms: C_15  and  O_20 
REMARK    6  A    between atoms: C_16  and  O_18 
REMARK    7  A    between atoms: O_18  and  C_19 
REMARK    8  A    between atoms: O_20  and  C_21 
REMARK    9  A    between atoms: O_22  and  C_23 
REMARK   10  A    between atoms: O_25  and  C_26 
ROOT
ATOM      1  C   LIG d   1       8.124  -3.079  -3.986  0.00  0.00     0.175 C 
ATOM      2  C   LIG d   1       9.152  -3.851  -3.269  0.00  0.00     0.104 C 
ATOM      3  N   LIG d   1       9.945  -4.447  -2.715  0.00  0.00    -0.193 NA
ATOM      4  H   LIG d   1       7.513  -3.756  -4.584  0.00  0.00     0.086 H 
ATOM      5  H   LIG d   1       8.606  -2.352  -4.639  0.00  0.00     0.086 H 
ENDROOT
BRANCH   1   6
ATOM      6  O   LIG d   1       7.296  -2.397  -3.043  0.00  0.00    -0.477 OA
BRANCH   6   7
ATOM      7  C   LIG d   1       6.271  -1.658  -3.542  0.00  0.00     0.126 A 
ATOM      8  C   LIG d   1       5.615  -0.746  -2.722  0.00  0.00    -0.016 A 
ATOM      9  C   LIG d   1       4.579  -0.003  -3.213  0.00  0.00    -0.033 A 
ATOM     10  H   LIG d   1       5.921  -0.628  -1.693  0.00  0.00     0.066 H 
ATOM     11  C   LIG d   1       4.187  -0.151  -4.544  0.00  0.00     0.071 A 
ATOM     12  C   LIG d   1       4.842  -1.068  -5.381  0.00  0.00     0.143 A 
ATOM     13  C   LIG d   1       3.140   0.485  -5.364  0.00  0.00     0.232 A 
ATOM     14  C   LIG d   1       5.889  -1.820  -4.864  0.00  0.00     0.023 A 
ATOM     15  O   LIG d   1       4.287  -1.039  -6.612  0.00  0.00    -0.451 OA
ATOM     16  H   LIG d   1       6.405  -2.532  -5.492  0.00  0.00     0.069 H 
ATOM     17  C   LIG d   1       3.272  -0.145  -6.685  0.00  0.00     0.176 A 
ATOM     18  C   LIG d   1       2.515   0.121  -7.780  0.00  0.00    -0.008 C 
ATOM     19  H   LIG d   1       1.673   0.794  -7.704  0.00  0.00     0.066 H 
ATOM     20  O   LIG d   1       2.342   1.342  -5.022  0.00  0.00    -0.283 OA
BRANCH   9  21
ATOM     21  C   LIG d   1       3.866   0.981  -2.321  0.00  0.00    -0.039 C 
ATOM     22  H   LIG d   1       4.460   1.156  -1.425  0.00  0.00     0.028 H 
ATOM     23  H   LIG d   1       3.727   1.921  -2.855  0.00  0.00     0.028 H 
ATOM     24  H   LIG d   1       2.894   0.576  -2.040  0.00  0.00     0.028 H 
ENDBRANCH   9  21
BRANCH  18  25
ATOM     25  C   LIG d   1       2.838  -0.506  -9.066  0.00  0.00    -0.014 A 
ATOM     26  C   LIG d   1       3.938  -0.057  -9.809  0.00  0.00    -0.009 A 
ATOM     27  C   LIG d   1       4.240  -0.650 -11.019  0.00  0.00     0.166 A 
ATOM     28  H   LIG d   1       4.548   0.752  -9.436  0.00  0.00     0.066 H 
ATOM     29  C   LIG d   1       3.454  -1.694 -11.501  0.00  0.00     0.203 A 
ATOM     30  C   LIG d   1       2.359  -2.143 -10.767  0.00  0.00     0.166 A 
ATOM     31  C   LIG d   1       2.053  -1.558  -9.553  0.00  0.00    -0.009 A 
ATOM     32  H   LIG d   1       1.207  -1.912  -8.981  0.00  0.00     0.066 H 
BRANCH  27  33
ATOM     33  O   LIG d   1       5.308  -0.215 -11.741  0.00  0.00    -0.491 OA
BRANCH  33  34
ATOM     34  C   LIG d   1       6.603  -0.610 -11.288  0.00  0.00     0.079 C 
ATOM     35  H   LIG d   1       6.860  -0.052 -10.387  0.00  0.00     0.066 H 
ATOM     36  H   LIG d   1       6.600  -1.678 -11.063  0.00  0.00     0.066 H 
ATOM     37  H   LIG d   1       7.339  -0.405 -12.066  0.00  0.00     0.066 H 
ENDBRANCH  33  34
ENDBRANCH  27  33
BRANCH  29  38
ATOM     38  O   LIG d   1       3.755  -2.275 -12.693  0.00  0.00    -0.488 OA
BRANCH  38  39
ATOM     39  C   LIG d   1       3.170  -1.698 -13.861  0.00  0.00     0.079 C 
ATOM     40  H   LIG d   1       2.364  -1.023 -13.570  0.00  0.00     0.066 H 
ATOM     41  H   LIG d   1       3.929  -1.141 -14.411  0.00  0.00     0.066 H 
ATOM     42  H   LIG d   1       2.769  -2.489 -14.497  0.00  0.00     0.066 H 
ENDBRANCH  38  39
ENDBRANCH  29  38
BRANCH  30  43
ATOM     43  O   LIG d   1       1.594  -3.162 -11.242  0.00  0.00    -0.491 OA
BRANCH  43  44
ATOM     44  C   LIG d   1       1.759  -4.440 -10.623  0.00  0.00     0.079 C 
ATOM     45  H   LIG d   1       2.750  -4.500 -10.174  0.00  0.00     0.066 H 
ATOM     46  H   LIG d   1       1.002  -4.571  -9.850  0.00  0.00     0.066 H 
ATOM     47  H   LIG d   1       1.652  -5.224 -11.373  0.00  0.00     0.066 H 
ENDBRANCH  43  44
ENDBRANCH  30  43
ENDBRANCH  18  25
ENDBRANCH   6   7
ENDBRANCH   1   6
TORSDOF 10
ENDMDL
MODEL 3
REMARK VINA RESULT:      -5.4      6.326      9.725
REMARK  10 active torsions:
REMARK  status: ('A' for Active; 'I' for Inactive)
REMARK    1  A    between atoms: C_1  and  C_2 
REMARK    2  A    between atoms: C_4  and  O_25 
REMARK    3  A    between atoms: C_11  and  C_12 
REMARK    4  A    between atoms: C_14  and  O_22 
REMARK    5  A    between atoms: C_15  and  O_20 
REMARK    6  A    between atoms: C_16  and  O_18 
REMARK    7  A    between atoms: O_18  and  C_19 
REMARK    8  A    between atoms: O_20  and  C_21 
REMARK    9  A    between atoms: O_22  and  C_23 
REMARK   10  A    between atoms: O_25  and  C_26 
ROOT
ATOM      1  C   LIG d   1       8.078  -3.097  -4.104  0.00  0.00     0.175 C 
ATOM      2  C   LIG d   1       9.155  -3.817  -3.407  0.00  0.00     0.104 C 
ATOM      3  N   LIG d   1       9.987  -4.373  -2.869  0.00  0.00    -0.193 NA
ATOM      4  H   LIG d   1       7.595  -3.766  -4.816  0.00  0.00     0.086 H 
ATOM      5  H   LIG d   1       8.496  -2.242  -4.634  0.00  0.00     0.086 H 
ENDROOT
BRANCH   1   6
ATOM      6  O   LIG d   1       7.115  -2.642  -3.151  0.00  0.00    -0.477 OA
BRANCH   6   7
ATOM      7  C   LIG d   1       6.135  -1.821  -3.608  0.00  0.00     0.126 A 
ATOM      8  C   LIG d   1       5.552  -0.895  -2.746  0.00  0.00    -0.016 A 
ATOM      9  C   LIG d   1       4.561  -0.069  -3.196  0.00  0.00    -0.033 A 
ATOM     10  H   LIG d   1       5.880  -0.834  -1.719  0.00  0.00     0.066 H 
ATOM     11  C   LIG d   1       4.141  -0.145  -4.524  0.00  0.00     0.071 A 
ATOM     12  C   LIG d   1       4.722  -1.074  -5.402  0.00  0.00     0.143 A 
ATOM     13  C   LIG d   1       3.127   0.586  -5.304  0.00  0.00     0.232 A 
ATOM     14  C   LIG d   1       5.724  -1.911  -4.927  0.00  0.00     0.023 A 
ATOM     15  O   LIG d   1       4.152  -0.965  -6.622  0.00  0.00    -0.451 OA
ATOM     16  H   LIG d   1       6.182  -2.632  -5.588  0.00  0.00     0.069 H 
ATOM     17  C   LIG d   1       3.198  -0.005  -6.648  0.00  0.00     0.176 A 
ATOM     18  C   LIG d   1       2.444   0.348  -7.721  0.00  0.00    -0.008 C 
ATOM     19  H   LIG d   1       1.650   1.072  -7.608  0.00  0.00     0.066 H 
ATOM     20  O   LIG d   1       2.392   1.481  -4.921  0.00  0.00    -0.283 OA
BRANCH   9  21
ATOM     21  C   LIG d   1       3.927   0.927  -2.259  0.00  0.00    -0.039 C 
ATOM     22  H   LIG d   1       3.109   1.435  -2.769  0.00  0.00     0.028 H 
ATOM     23  H   LIG d   1       3.541   0.407  -1.382  0.00  0.00     0.028 H 
ATOM     24  H   LIG d   1       4.673   1.659  -1.950  0.00  0.00     0.028 H 
ENDBRANCH   9  21
BRANCH  18  25
ATOM     25  C   LIG d   1       2.708  -0.254  -9.033  0.00  0.00    -0.014 A 
ATOM     26  C   LIG d   1       1.776  -1.132  -9.603  0.00  0.00    -0.009 A 
ATOM     27  C   LIG d   1       2.028  -1.696 -10.838  0.00  0.00     0.166 A 
ATOM     28  H   LIG d   1       0.864  -1.367  -9.075  0.00  0.00     0.066 H 
ATOM     29  C   LIG d   1       3.205  -1.392 -11.518  0.00  0.00     0.203 A 
ATOM     30  C   LIG d   1       4.134  -0.520 -10.956  0.00  0.00     0.166 A 
ATOM     31  C   LIG d   1       3.888   0.052  -9.722  0.00  0.00    -0.009 A 
ATOM     32  H   LIG d   1       4.606   0.733  -9.289  0.00  0.00     0.066 H 
BRANCH  27  33
ATOM     33  O   LIG d   1       1.124  -2.548 -11.391  0.00  0.00    -0.491 OA
BRANCH  33  34
ATOM     34  C   LIG d   1       0.816  -3.734 -10.657  0.00  0.00     0.079 C 
ATOM     35  H   LIG d   1       1.339  -4.582 -11.098  0.00  0.00     0.066 H 
ATOM     36  H   LIG d   1       1.133  -3.612  -9.620  0.00  0.00     0.066 H 
ATOM     37  H   LIG d   1      -0.259  -3.913 -10.689  0.00  0.00     0.066 H 
ENDBRANCH  33  34
ENDBRANCH  27  33
BRANCH  29  38
ATOM     38  O   LIG d   1       3.448  -1.949 -12.734  0.00  0.00    -0.488 OA
BRANCH  38  39
ATOM     39  C   LIG d   1       4.138  -3.199 -12.748  0.00  0.00     0.079 C 
ATOM     40  H   LIG d   1       3.460  -3.986 -13.080  0.00  0.00     0.066 H 
ATOM     41  H   LIG d   1       4.987  -3.139 -13.428  0.00  0.00     0.066 H 
ATOM     42  H   LIG d   1       4.495  -3.429 -11.743  0.00  0.00     0.066 H 
ENDBRANCH  38  39
ENDBRANCH  29  38
BRANCH  30  43
ATOM     43  O   LIG d   1       5.281  -0.227 -11.624  0.00  0.00    -0.491 OA
BRANCH  43  44
ATOM     44  C   LIG d   1       6.512  -0.505 -10.953  0.00  0.00     0.079 C 
ATOM     45  H   LIG d   1       6.457  -1.489 -10.489  0.00  0.00     0.066 H 
ATOM     46  H   LIG d   1       7.331  -0.487 -11.672  0.00  0.00     0.066 H 
ATOM     47  H   LIG d   1       6.686   0.249 -10.185  0.00  0.00     0.066 H 
ENDBRANCH  43  44
ENDBRANCH  30  43
ENDBRANCH  18  25
ENDBRANCH   6   7
ENDBRANCH   1   6
TORSDOF 10
ENDMDL
MODEL 4
REMARK VINA RESULT:      -5.4      1.817      3.406
REMARK  10 active torsions:
REMARK  status: ('A' for Active; 'I' for Inactive)
REMARK    1  A    between atoms: C_1  and  C_2 
REMARK    2  A    between atoms: C_4  and  O_25 
REMARK    3  A    between atoms: C_11  and  C_12 
REMARK    4  A    between atoms: C_14  and  O_22 
REMARK    5  A    between atoms: C_15  and  O_20 
REMARK    6  A    between atoms: C_16  and  O_18 
REMARK    7  A    between atoms: O_18  and  C_19 
REMARK    8  A    between atoms: O_20  and  C_21 
REMARK    9  A    between atoms: O_22  and  C_23 
REMARK   10  A    between atoms: O_25  and  C_26 
ROOT
ATOM      1  C   LIG d   1       5.135  -1.084  -4.737  0.00  0.00     0.175 C 
ATOM      2  C   LIG d   1       4.234  -1.658  -3.725  0.00  0.00     0.104 C 
ATOM      3  N   LIG d   1       3.539  -2.101  -2.944  0.00  0.00    -0.193 NA
ATOM      4  H   LIG d   1       4.631  -1.064  -5.704  0.00  0.00     0.086 H 
ATOM      5  H   LIG d   1       6.036  -1.693  -4.809  0.00  0.00     0.086 H 
ENDROOT
BRANCH   1   6
ATOM      6  O   LIG d   1       5.490   0.247  -4.359  0.00  0.00    -0.477 OA
BRANCH   6   7
ATOM      7  C   LIG d   1       6.812   0.558  -4.364  0.00  0.00     0.126 A 
ATOM      8  C   LIG d   1       7.725  -0.317  -4.946  0.00  0.00    -0.016 A 
ATOM      9  C   LIG d   1       9.057  -0.016  -4.951  0.00  0.00    -0.033 A 
ATOM     10  H   LIG d   1       7.379  -1.239  -5.390  0.00  0.00     0.066 H 
ATOM     11  C   LIG d   1       9.502   1.177  -4.382  0.00  0.00     0.071 A 
ATOM     12  C   LIG d   1       8.591   2.068  -3.792  0.00  0.00     0.143 A 
ATOM     13  C   LIG d   1      10.836   1.787  -4.231  0.00  0.00     0.232 A 
ATOM     14  C   LIG d   1       7.241   1.744  -3.790  0.00  0.00     0.023 A 
ATOM     15  O   LIG d   1       9.253   3.142  -3.307  0.00  0.00    -0.451 OA
ATOM     16  H   LIG d   1       6.525   2.416  -3.341  0.00  0.00     0.069 H 
ATOM     17  C   LIG d   1      10.586   3.052  -3.526  0.00  0.00     0.176 A 
ATOM     18  C   LIG d   1      11.522   3.965  -3.162  0.00  0.00    -0.008 C 
ATOM     19  H   LIG d   1      12.571   3.754  -3.311  0.00  0.00     0.066 H 
ATOM     20  O   LIG d   1      11.908   1.340  -4.606  0.00  0.00    -0.283 OA
BRANCH   9  21
ATOM     21  C   LIG d   1      10.044  -0.969  -5.576  0.00  0.00    -0.039 C 
ATOM     22  H   LIG d   1       9.604  -1.964  -5.631  0.00  0.00     0.028 H 
ATOM     23  H   LIG d   1      10.294  -0.625  -6.581  0.00  0.00     0.028 H 
ATOM     24  H   LIG d   1      10.948  -1.004  -4.969  0.00  0.00     0.028 H 
ENDBRANCH   9  21
BRANCH  18  25
ATOM     25  C   LIG d   1      11.109   5.241  -2.564  0.00  0.00    -0.014 A 
ATOM     26  C   LIG d   1      10.840   6.345  -3.383  0.00  0.00    -0.009 A 
ATOM     27  C   LIG d   1      10.451   7.544  -2.817  0.00  0.00     0.166 A 
ATOM     28  H   LIG d   1      10.937   6.259  -4.455  0.00  0.00     0.066 H 
ATOM     29  C   LIG d   1      10.325   7.655  -1.434  0.00  0.00     0.203 A 
ATOM     30  C   LIG d   1      10.593   6.560  -0.616  0.00  0.00     0.166 A 
ATOM     31  C   LIG d   1      10.977   5.356  -1.175  0.00  0.00    -0.009 A 
ATOM     32  H   LIG d   1      11.179   4.505  -0.540  0.00  0.00     0.066 H 
BRANCH  27  33
ATOM     33  O   LIG d   1      10.190   8.616  -3.611  0.00  0.00    -0.491 OA
BRANCH  33  34
ATOM     34  C   LIG d   1      10.074   8.372  -5.014  0.00  0.00     0.079 C 
ATOM     35  H   LIG d   1      10.136   9.317  -5.554  0.00  0.00     0.066 H 
ATOM     36  H   LIG d   1      10.884   7.717  -5.338  0.00  0.00     0.066 H 
ATOM     37  H   LIG d   1       9.116   7.896  -5.222  0.00  0.00     0.066 H 
ENDBRANCH  33  34
ENDBRANCH  27  33
BRANCH  29  38
ATOM     38  O   LIG d   1       9.942   8.836  -0.881  0.00  0.00    -0.488 OA
BRANCH  38  39
ATOM     39  C   LIG d   1       8.538   9.070  -0.762  0.00  0.00     0.079 C 
ATOM     40  H   LIG d   1       8.062   8.203  -0.303  0.00  0.00     0.066 H 
ATOM     41  H   LIG d   1       8.368   9.950  -0.141  0.00  0.00     0.066 H 
ATOM     42  H   LIG d   1       8.111   9.237  -1.752  0.00  0.00     0.066 H 
ENDBRANCH  38  39
ENDBRANCH  29  38
BRANCH  30  43
ATOM     43  O   LIG d   1      10.469   6.673   0.733  0.00  0.00    -0.491 OA
BRANCH  43  44
ATOM     44  C   LIG d   1      11.043   5.633   1.528  0.00  0.00     0.079 C 
ATOM     45  H   LIG d   1      11.593   6.074   2.358  0.00  0.00     0.066 H 
ATOM     46  H   LIG d   1      10.251   4.992   1.915  0.00  0.00     0.066 H 
ATOM     47  H   LIG d   1      11.722   5.041   0.915  0.00  0.00     0.066 H 
ENDBRANCH  43  44
ENDBRANCH  30  43
ENDBRANCH  18  25
ENDBRANCH   6   7
ENDBRANCH   1   6
TORSDOF 10
ENDMDL
MODEL 5
REMARK VINA RESULT:      -5.4      3.461      5.090
REMARK  10 active torsions:
REMARK  status: ('A' for Active; 'I' for Inactive)
REMARK    1  A    between atoms: C_1  and  C_2 
REMARK    2  A    between atoms: C_4  and  O_25 
REMARK    3  A    between atoms: C_11  and  C_12 
REMARK    4  A    between atoms: C_14  and  O_22 
REMARK    5  A    between atoms: C_15  and  O_20 
REMARK    6  A    between atoms: C_16  and  O_18 
REMARK    7  A    between atoms: O_18  and  C_19 
REMARK    8  A    between atoms: O_20  and  C_21 
REMARK    9  A    between atoms: O_22  and  C_23 
REMARK   10  A    between atoms: O_25  and  C_26 
ROOT
ATOM      1  C   LIG d   1       4.661  -5.310  -5.341  0.00  0.00     0.175 C 
ATOM      2  C   LIG d   1       3.984  -5.345  -6.647  0.00  0.00     0.104 C 
ATOM      3  N   LIG d   1       3.462  -5.372  -7.656  0.00  0.00    -0.193 NA
ATOM      4  H   LIG d   1       4.910  -6.325  -5.033  0.00  0.00     0.086 H 
ATOM      5  H   LIG d   1       4.001  -4.857  -4.602  0.00  0.00     0.086 H 
ENDROOT
BRANCH   1   6
ATOM      6  O   LIG d   1       5.859  -4.537  -5.445  0.00  0.00    -0.477 OA
BRANCH   6   7
ATOM      7  C   LIG d   1       5.863  -3.321  -4.842  0.00  0.00     0.126 A 
ATOM      8  C   LIG d   1       4.872  -3.007  -3.916  0.00  0.00    -0.016 A 
ATOM      9  C   LIG d   1       4.864  -1.783  -3.308  0.00  0.00    -0.033 A 
ATOM     10  H   LIG d   1       4.105  -3.730  -3.681  0.00  0.00     0.066 H 
ATOM     11  C   LIG d   1       5.858  -0.852  -3.608  0.00  0.00     0.071 A 
ATOM     12  C   LIG d   1       6.863  -1.157  -4.540  0.00  0.00     0.143 A 
ATOM     13  C   LIG d   1       6.132   0.518  -3.137  0.00  0.00     0.232 A 
ATOM     14  C   LIG d   1       6.852  -2.403  -5.154  0.00  0.00     0.023 A 
ATOM     15  O   LIG d   1       7.701  -0.105  -4.668  0.00  0.00    -0.451 OA
ATOM     16  H   LIG d   1       7.616  -2.656  -5.874  0.00  0.00     0.069 H 
ATOM     17  C   LIG d   1       7.337   0.927  -3.871  0.00  0.00     0.176 A 
ATOM     18  C   LIG d   1       7.972   2.123  -3.769  0.00  0.00    -0.008 C 
ATOM     19  H   LIG d   1       7.547   2.910  -3.163  0.00  0.00     0.066 H 
ATOM     20  O   LIG d   1       5.498   1.167  -2.321  0.00  0.00    -0.283 OA
BRANCH   9  21
ATOM     21  C   LIG d   1       3.787  -1.443  -2.309  0.00  0.00    -0.039 C 
ATOM     22  H   LIG d   1       4.167  -0.707  -1.602  0.00  0.00     0.028 H 
ATOM     23  H   LIG d   1       2.924  -1.032  -2.833  0.00  0.00     0.028 H 
ATOM     24  H   LIG d   1       3.492  -2.345  -1.774  0.00  0.00     0.028 H 
ENDBRANCH   9  21
BRANCH  18  25
ATOM     25  C   LIG d   1       9.235   2.347  -4.481  0.00  0.00    -0.014 A 
ATOM     26  C   LIG d   1       9.228   2.909  -5.764  0.00  0.00    -0.009 A 
ATOM     27  C   LIG d   1      10.419   3.119  -6.431  0.00  0.00     0.166 A 
ATOM     28  H   LIG d   1       8.292   3.176  -6.231  0.00  0.00     0.066 H 
ATOM     29  C   LIG d   1      11.627   2.774  -5.829  0.00  0.00     0.203 A 
ATOM     30  C   LIG d   1      11.639   2.214  -4.554  0.00  0.00     0.166 A 
ATOM     31  C   LIG d   1      10.452   2.006  -3.877  0.00  0.00    -0.009 A 
ATOM     32  H   LIG d   1      10.463   1.577  -2.885  0.00  0.00     0.066 H 
BRANCH  27  33
ATOM     33  O   LIG d   1      10.412   3.664  -7.677  0.00  0.00    -0.491 OA
BRANCH  33  34
ATOM     34  C   LIG d   1       9.906   2.852  -8.738  0.00  0.00     0.079 C 
ATOM     35  H   LIG d   1       9.903   3.425  -9.665  0.00  0.00     0.066 H 
ATOM     36  H   LIG d   1      10.540   1.973  -8.858  0.00  0.00     0.066 H 
ATOM     37  H   LIG d   1       8.890   2.537  -8.501  0.00  0.00     0.066 H 
ENDBRANCH  33  34
ENDBRANCH  27  33
BRANCH  29  38
ATOM     38  O   LIG d   1      12.797   2.982  -6.489  0.00  0.00    -0.488 OA
BRANCH  38  39
ATOM     39  C   LIG d   1      13.283   1.912  -7.299  0.00  0.00     0.079 C 
ATOM     40  H   LIG d   1      14.289   2.148  -7.649  0.00  0.00     0.066 H 
ATOM     41  H   LIG d   1      13.309   0.993  -6.713  0.00  0.00     0.066 H 
ATOM     42  H   LIG d   1      12.623   1.775  -8.157  0.00  0.00     0.066 H 
ENDBRANCH  38  39
ENDBRANCH  29  38
BRANCH  30  43
ATOM     43  O   LIG d   1      12.821   1.879  -3.970  0.00  0.00    -0.491 OA
BRANCH  43  44
ATOM     44  C   LIG d   1      13.081   0.487  -3.782  0.00  0.00     0.079 C 
ATOM     45  H   LIG d   1      13.309   0.028  -4.744  0.00  0.00     0.066 H 
ATOM     46  H   LIG d   1      13.929   0.362  -3.110  0.00  0.00     0.066 H 
ATOM     47  H   LIG d   1      12.201   0.008  -3.351  0.00  0.00     0.066 H 
ENDBRANCH  43  44
ENDBRANCH  30  43
ENDBRANCH  18  25
ENDBRANCH   6   7
ENDBRANCH   1   6
TORSDOF 10
ENDMDL
MODEL 6
REMARK VINA RESULT:      -5.4      2.304      3.759
REMARK  10 active torsions:
REMARK  status: ('A' for Active; 'I' for Inactive)
REMARK    1  A    between atoms: C_1  and  C_2 
REMARK    2  A    between atoms: C_4  and  O_25 
REMARK    3  A    between atoms: C_11  and  C_12 
REMARK    4  A    between atoms: C_14  and  O_22 
REMARK    5  A    between atoms: C_15  and  O_20 
REMARK    6  A    between atoms: C_16  and  O_18 
REMARK    7  A    between atoms: O_18  and  C_19 
REMARK    8  A    between atoms: O_20  and  C_21 
REMARK    9  A    between atoms: O_22  and  C_23 
REMARK   10  A    between atoms: O_25  and  C_26 
ROOT
ATOM      1  C   LIG d   1       6.402  -2.012  -4.614  0.00  0.00     0.175 C 
ATOM      2  C   LIG d   1       5.206  -2.800  -4.273  0.00  0.00     0.104 C 
ATOM      3  N   LIG d   1       4.283  -3.407  -4.011  0.00  0.00    -0.193 NA
ATOM      4  H   LIG d   1       6.482  -1.923  -5.697  0.00  0.00     0.086 H 
ATOM      5  H   LIG d   1       7.288  -2.511  -4.223  0.00  0.00     0.086 H 
ENDROOT
BRANCH   1   6
ATOM      6  O   LIG d   1       6.295  -0.710  -4.035  0.00  0.00    -0.477 OA
BRANCH   6   7
ATOM      7  C   LIG d   1       7.031   0.279  -4.603  0.00  0.00     0.126 A 
ATOM      8  C   LIG d   1       7.118   0.366  -5.990  0.00  0.00    -0.016 A 
ATOM      9  C   LIG d   1       7.861   1.354  -6.571  0.00  0.00    -0.033 A 
ATOM     10  H   LIG d   1       6.601  -0.354  -6.608  0.00  0.00     0.066 H 
ATOM     11  C   LIG d   1       8.524   2.286  -5.772  0.00  0.00     0.071 A 
ATOM     12  C   LIG d   1       8.444   2.209  -4.372  0.00  0.00     0.143 A 
ATOM     13  C   LIG d   1       9.381   3.447  -6.076  0.00  0.00     0.232 A 
ATOM     14  C   LIG d   1       7.689   1.194  -3.798  0.00  0.00     0.023 A 
ATOM     15  O   LIG d   1       9.168   3.207  -3.820  0.00  0.00    -0.451 OA
ATOM     16  H   LIG d   1       7.616   1.119  -2.723  0.00  0.00     0.069 H 
ATOM     17  C   LIG d   1       9.754   3.984  -4.761  0.00  0.00     0.176 A 
ATOM     18  C   LIG d   1      10.544   5.064  -4.530  0.00  0.00    -0.008 C 
ATOM     19  H   LIG d   1      11.031   5.564  -5.355  0.00  0.00     0.066 H 
ATOM     20  O   LIG d   1       9.707   3.866  -7.174  0.00  0.00    -0.283 OA
BRANCH   9  21
ATOM     21  C   LIG d   1       7.958   1.442  -8.073  0.00  0.00    -0.039 C 
ATOM     22  H   LIG d   1       7.773   0.460  -8.507  0.00  0.00     0.028 H 
ATOM     23  H   LIG d   1       7.216   2.149  -8.444  0.00  0.00     0.028 H 
ATOM     24  H   LIG d   1       8.956   1.781  -8.352  0.00  0.00     0.028 H 
ENDBRANCH   9  21
BRANCH  18  25
ATOM     25  C   LIG d   1      10.736   5.554  -3.160  0.00  0.00    -0.014 A 
ATOM     26  C   LIG d   1       9.752   6.345  -2.552  0.00  0.00    -0.009 A 
ATOM     27  C   LIG d   1       9.936   6.803  -1.262  0.00  0.00     0.166 A 
ATOM     28  H   LIG d   1       8.851   6.596  -3.092  0.00  0.00     0.066 H 
ATOM     29  C   LIG d   1      11.098   6.480  -0.565  0.00  0.00     0.203 A 
ATOM     30  C   LIG d   1      12.079   5.695  -1.166  0.00  0.00     0.166 A 
ATOM     31  C   LIG d   1      11.900   5.228  -2.454  0.00  0.00    -0.009 A 
ATOM     32  H   LIG d   1      12.660   4.613  -2.917  0.00  0.00     0.066 H 
BRANCH  27  33
ATOM     33  O   LIG d   1       8.982   7.571  -0.672  0.00  0.00    -0.491 OA
BRANCH  33  34
ATOM     34  C   LIG d   1       9.006   8.970  -0.958  0.00  0.00     0.079 C 
ATOM     35  H   LIG d   1       8.042   9.411  -0.703  0.00  0.00     0.066 H 
ATOM     36  H   LIG d   1       9.790   9.449  -0.369  0.00  0.00     0.066 H 
ATOM     37  H   LIG d   1       9.205   9.122  -2.019  0.00  0.00     0.066 H 
ENDBRANCH  33  34
ENDBRANCH  27  33
BRANCH  29  38
ATOM     38  O   LIG d   1      11.275   6.933   0.704  0.00  0.00    -0.488 OA
BRANCH  38  39
ATOM     39  C   LIG d   1      10.987   6.020   1.764  0.00  0.00     0.079 C 
ATOM     40  H   LIG d   1      10.140   5.393   1.484  0.00  0.00     0.066 H 
ATOM     41  H   LIG d   1      11.858   5.393   1.951  0.00  0.00     0.066 H 
ATOM     42  H   LIG d   1      10.742   6.578   2.668  0.00  0.00     0.066 H 
ENDBRANCH  38  39
ENDBRANCH  29  38
BRANCH  30  43
ATOM     43  O   LIG d   1      13.212   5.381  -0.481  0.00  0.00    -0.491 OA
BRANCH  43  44
ATOM     44  C   LIG d   1      14.454   5.790  -1.059  0.00  0.00     0.079 C 
ATOM     45  H   LIG d   1      15.208   5.025  -0.876  0.00  0.00     0.066 H 
ATOM     46  H   LIG d   1      14.328   5.927  -2.133  0.00  0.00     0.066 H 
ATOM     47  H   LIG d   1      14.772   6.730  -0.608  0.00  0.00     0.066 H 
ENDBRANCH  43  44
ENDBRANCH  30  43
ENDBRANCH  18  25
ENDBRANCH   6   7
ENDBRANCH   1   6
TORSDOF 10
ENDMDL
MODEL 7
REMARK VINA RESULT:      -5.3      5.716      8.106
REMARK  10 active torsions:
REMARK  status: ('A' for Active; 'I' for Inactive)
REMARK    1  A    between atoms: C_1  and  C_2 
REMARK    2  A    between atoms: C_4  and  O_25 
REMARK    3  A    between atoms: C_11  and  C_12 
REMARK    4  A    between atoms: C_14  and  O_22 
REMARK    5  A    between atoms: C_15  and  O_20 
REMARK    6  A    between atoms: C_16  and  O_18 
REMARK    7  A    between atoms: O_18  and  C_19 
REMARK    8  A    between atoms: O_20  and  C_21 
REMARK    9  A    between atoms: O_22  and  C_23 
REMARK   10  A    between atoms: O_25  and  C_26 
ROOT
ATOM      1  C   LIG d   1      11.031  11.354  -8.041  0.00  0.00     0.175 C 
ATOM      2  C   LIG d   1      10.047  12.447  -7.995  0.00  0.00     0.104 C 
ATOM      3  N   LIG d   1       9.286  13.291  -7.959  0.00  0.00    -0.193 NA
ATOM      4  H   LIG d   1      11.186  10.962  -7.035  0.00  0.00     0.086 H 
ATOM      5  H   LIG d   1      11.974  11.732  -8.433  0.00  0.00     0.086 H 
ENDROOT
BRANCH   1   6
ATOM      6  O   LIG d   1      10.546  10.312  -8.888  0.00  0.00    -0.477 OA
BRANCH   6   7
ATOM      7  C   LIG d   1      10.358   9.092  -8.321  0.00  0.00     0.126 A 
ATOM      8  C   LIG d   1      10.107   7.986  -9.128  0.00  0.00    -0.016 A 
ATOM      9  C   LIG d   1       9.911   6.757  -8.566  0.00  0.00    -0.033 A 
ATOM     10  H   LIG d   1      10.063   8.102 -10.201  0.00  0.00     0.066 H 
ATOM     11  C   LIG d   1       9.974   6.608  -7.180  0.00  0.00     0.071 A 
ATOM     12  C   LIG d   1      10.226   7.716  -6.356  0.00  0.00     0.143 A 
ATOM     13  C   LIG d   1       9.817   5.449  -6.283  0.00  0.00     0.232 A 
ATOM     14  C   LIG d   1      10.417   8.960  -6.943  0.00  0.00     0.023 A 
ATOM     15  O   LIG d   1      10.233   7.328  -5.062  0.00  0.00    -0.451 OA
ATOM     16  H   LIG d   1      10.612   9.824  -6.325  0.00  0.00     0.069 H 
ATOM     17  C   LIG d   1       9.999   6.001  -4.933  0.00  0.00     0.176 A 
ATOM     18  C   LIG d   1       9.942   5.306  -3.768  0.00  0.00    -0.008 C 
ATOM     19  H   LIG d   1       9.664   4.262  -3.774  0.00  0.00     0.066 H 
ATOM     20  O   LIG d   1       9.588   4.292  -6.591  0.00  0.00    -0.283 OA
BRANCH   9  21
ATOM     21  C   LIG d   1       9.634   5.562  -9.442  0.00  0.00    -0.039 C 
ATOM     22  H   LIG d   1       8.663   5.139  -9.184  0.00  0.00     0.028 H 
ATOM     23  H   LIG d   1       9.629   5.871 -10.488  0.00  0.00     0.028 H 
ATOM     24  H   LIG d   1      10.410   4.812  -9.288  0.00  0.00     0.028 H 
ENDBRANCH   9  21
BRANCH  18  25
ATOM     25  C   LIG d   1      10.259   5.973  -2.499  0.00  0.00    -0.014 A 
ATOM     26  C   LIG d   1      11.423   5.632  -1.798  0.00  0.00    -0.009 A 
ATOM     27  C   LIG d   1      11.718   6.263  -0.605  0.00  0.00     0.166 A 
ATOM     28  H   LIG d   1      12.088   4.878  -2.191  0.00  0.00     0.066 H 
ATOM     29  C   LIG d   1      10.860   7.236  -0.099  0.00  0.00     0.203 A 
ATOM     30  C   LIG d   1       9.701   7.578  -0.792  0.00  0.00     0.166 A 
ATOM     31  C   LIG d   1       9.402   6.956  -1.989  0.00  0.00    -0.009 A 
ATOM     32  H   LIG d   1       8.505   7.226  -2.529  0.00  0.00     0.066 H 
BRANCH  27  33
ATOM     33  O   LIG d   1      12.847   5.932   0.076  0.00  0.00    -0.491 OA
BRANCH  33  34
ATOM     34  C   LIG d   1      14.094   6.160  -0.584  0.00  0.00     0.079 C 
ATOM     35  H   LIG d   1      13.931   6.218  -1.660  0.00  0.00     0.066 H 
ATOM     36  H   LIG d   1      14.526   7.097  -0.232  0.00  0.00     0.066 H 
ATOM     37  H   LIG d   1      14.777   5.340  -0.363  0.00  0.00     0.066 H 
ENDBRANCH  33  34
ENDBRANCH  27  33
BRANCH  29  38
ATOM     38  O   LIG d   1      11.154   7.854   1.076  0.00  0.00    -0.488 OA
BRANCH  38  39
ATOM     39  C   LIG d   1      11.953   9.036   1.004  0.00  0.00     0.079 C 
ATOM     40  H   LIG d   1      12.462   9.074   0.040  0.00  0.00     0.066 H 
ATOM     41  H   LIG d   1      11.315   9.913   1.113  0.00  0.00     0.066 H 
ATOM     42  H   LIG d   1      12.693   9.025   1.805  0.00  0.00     0.066 H 
ENDBRANCH  38  39
ENDBRANCH  29  38
BRANCH  30  43
ATOM     43  O   LIG d   1       8.867   8.529  -0.294  0.00  0.00    -0.491 OA
BRANCH  43  44
ATOM     44  C   LIG d   1       8.849   9.792  -0.963  0.00  0.00     0.079 C 
ATOM     45  H   LIG d   1       8.793  10.592  -0.226  0.00  0.00     0.066 H 
ATOM     46  H   LIG d   1       9.759   9.904  -1.552  0.00  0.00     0.066 H 
ATOM     47  H   LIG d   1       7.982   9.842  -1.621  0.00  0.00     0.066 H 
ENDBRANCH  43  44
ENDBRANCH  30  43
ENDBRANCH  18  25
ENDBRANCH   6   7
ENDBRANCH   1   6
TORSDOF 10
ENDMDL
MODEL 8
REMARK VINA RESULT:      -5.3      3.353      4.345
REMARK  10 active torsions:
REMARK  status: ('A' for Active; 'I' for Inactive)
REMARK    1  A    between atoms: C_1  and  C_2 
REMARK    2  A    between atoms: C_4  and  O_25 
REMARK    3  A    between atoms: C_11  and  C_12 
REMARK    4  A    between atoms: C_14  and  O_22 
REMARK    5  A    between atoms: C_15  and  O_20 
REMARK    6  A    between atoms: C_16  and  O_18 
REMARK    7  A    between atoms: O_18  and  C_19 
REMARK    8  A    between atoms: O_20  and  C_21 
REMARK    9  A    between atoms: O_22  and  C_23 
REMARK   10  A    between atoms: O_25  and  C_26 
ROOT
ATOM      1  C   LIG d   1       5.766  -4.565  -6.696  0.00  0.00     0.175 C 
ATOM      2  C   LIG d   1       4.439  -5.083  -7.062  0.00  0.00     0.104 C 
ATOM      3  N   LIG d   1       3.414  -5.483  -7.345  0.00  0.00    -0.193 NA
ATOM      4  H   LIG d   1       5.896  -3.567  -7.116  0.00  0.00     0.086 H 
ATOM      5  H   LIG d   1       6.536  -5.228  -7.088  0.00  0.00     0.086 H 
ENDROOT
BRANCH   1   6
ATOM      6  O   LIG d   1       5.876  -4.499  -5.273  0.00  0.00    -0.477 OA
BRANCH   6   7
ATOM      7  C   LIG d   1       5.867  -3.263  -4.710  0.00  0.00     0.126 A 
ATOM      8  C   LIG d   1       4.855  -2.918  -3.818  0.00  0.00    -0.016 A 
ATOM      9  C   LIG d   1       4.835  -1.675  -3.252  0.00  0.00    -0.033 A 
ATOM     10  H   LIG d   1       4.082  -3.632  -3.578  0.00  0.00     0.066 H 
ATOM     11  C   LIG d   1       5.837  -0.755  -3.558  0.00  0.00     0.071 A 
ATOM     12  C   LIG d   1       6.863  -1.092  -4.456  0.00  0.00     0.143 A 
ATOM     13  C   LIG d   1       6.101   0.630  -3.126  0.00  0.00     0.232 A 
ATOM     14  C   LIG d   1       6.865  -2.357  -5.028  0.00  0.00     0.023 A 
ATOM     15  O   LIG d   1       7.706  -0.045  -4.598  0.00  0.00    -0.451 OA
ATOM     16  H   LIG d   1       7.646  -2.635  -5.721  0.00  0.00     0.069 H 
ATOM     17  C   LIG d   1       7.325   1.014  -3.845  0.00  0.00     0.176 A 
ATOM     18  C   LIG d   1       7.959   2.211  -3.767  0.00  0.00    -0.008 C 
ATOM     19  H   LIG d   1       7.520   3.019  -3.198  0.00  0.00     0.066 H 
ATOM     20  O   LIG d   1       5.450   1.306  -2.348  0.00  0.00    -0.283 OA
BRANCH   9  21
ATOM     21  C   LIG d   1       3.735  -1.301  -2.291  0.00  0.00    -0.039 C 
ATOM     22  H   LIG d   1       2.943  -0.783  -2.830  0.00  0.00     0.028 H 
ATOM     23  H   LIG d   1       3.331  -2.204  -1.832  0.00  0.00     0.028 H 
ATOM     24  H   LIG d   1       4.136  -0.648  -1.517  0.00  0.00     0.028 H 
ENDBRANCH   9  21
BRANCH  18  25
ATOM     25  C   LIG d   1       9.239   2.411  -4.456  0.00  0.00    -0.014 A 
ATOM     26  C   LIG d   1      10.441   2.091  -3.810  0.00  0.00    -0.009 A 
ATOM     27  C   LIG d   1      11.644   2.279  -4.462  0.00  0.00     0.166 A 
ATOM     28  H   LIG d   1      10.426   1.699  -2.805  0.00  0.00     0.066 H 
ATOM     29  C   LIG d   1      11.664   2.786  -5.760  0.00  0.00     0.203 A 
ATOM     30  C   LIG d   1      10.472   3.106  -6.405  0.00  0.00     0.166 A 
ATOM     31  C   LIG d   1       9.263   2.915  -5.762  0.00  0.00    -0.009 A 
ATOM     32  H   LIG d   1       8.339   3.158  -6.265  0.00  0.00     0.066 H 
BRANCH  27  33
ATOM     33  O   LIG d   1      12.811   1.970  -3.836  0.00  0.00    -0.491 OA
BRANCH  33  34
ATOM     34  C   LIG d   1      13.160   0.587  -3.761  0.00  0.00     0.079 C 
ATOM     35  H   LIG d   1      14.216   0.464  -4.002  0.00  0.00     0.066 H 
ATOM     36  H   LIG d   1      12.974   0.219  -2.751  0.00  0.00     0.066 H 
ATOM     37  H   LIG d   1      12.557   0.020  -4.470  0.00  0.00     0.066 H 
ENDBRANCH  33  34
ENDBRANCH  27  33
BRANCH  29  38
ATOM     38  O   LIG d   1      12.850   2.969  -6.398  0.00  0.00    -0.488 OA
BRANCH  38  39
ATOM     39  C   LIG d   1      13.484   4.239  -6.234  0.00  0.00     0.079 C 
ATOM     40  H   LIG d   1      12.732   4.994  -5.999  0.00  0.00     0.066 H 
ATOM     41  H   LIG d   1      14.208   4.182  -5.422  0.00  0.00     0.066 H 
ATOM     42  H   LIG d   1      13.996   4.512  -7.157  0.00  0.00     0.066 H 
ENDBRANCH  38  39
ENDBRANCH  29  38
BRANCH  30  43
ATOM     43  O   LIG d   1      10.496   3.600  -7.672  0.00  0.00    -0.491 OA
BRANCH  43  44
ATOM     44  C   LIG d   1       9.962   4.911  -7.868  0.00  0.00     0.079 C 
ATOM     45  H   LIG d   1       9.376   5.197  -6.995  0.00  0.00     0.066 H 
ATOM     46  H   LIG d   1      10.778   5.619  -8.006  0.00  0.00     0.066 H 
ATOM     47  H   LIG d   1       9.323   4.914  -8.751  0.00  0.00     0.066 H 
ENDBRANCH  43  44
ENDBRANCH  30  43
ENDBRANCH  18  25
ENDBRANCH   6   7
ENDBRANCH   1   6
TORSDOF 10
ENDMDL
MODEL 9
REMARK VINA RESULT:      -5.3      5.785      8.314
REMARK  10 active torsions:
REMARK  status: ('A' for Active; 'I' for Inactive)
REMARK    1  A    between atoms: C_1  and  C_2 
REMARK    2  A    between atoms: C_4  and  O_25 
REMARK    3  A    between atoms: C_11  and  C_12 
REMARK    4  A    between atoms: C_14  and  O_22 
REMARK    5  A    between atoms: C_15  and  O_20 
REMARK    6  A    between atoms: C_16  and  O_18 
REMARK    7  A    between atoms: O_18  and  C_19 
REMARK    8  A    between atoms: O_20  and  C_21 
REMARK    9  A    between atoms: O_22  and  C_23 
REMARK   10  A    between atoms: O_25  and  C_26 
ROOT
ATOM      1  C   LIG d   1      10.963  11.508  -7.823  0.00  0.00     0.175 C 
ATOM      2  C   LIG d   1       9.928  12.549  -7.928  0.00  0.00     0.104 C 
ATOM      3  N   LIG d   1       9.129  13.353  -8.008  0.00  0.00    -0.193 NA
ATOM      4  H   LIG d   1      11.003  11.136  -6.800  0.00  0.00     0.086 H 
ATOM      5  H   LIG d   1      11.931  11.930  -8.095  0.00  0.00     0.086 H 
ENDROOT
BRANCH   1   6
ATOM      6  O   LIG d   1      10.648  10.432  -8.709  0.00  0.00    -0.477 OA
BRANCH   6   7
ATOM      7  C   LIG d   1      10.426   9.216  -8.147  0.00  0.00     0.126 A 
ATOM      8  C   LIG d   1      10.078   8.136  -8.954  0.00  0.00    -0.016 A 
ATOM      9  C   LIG d   1       9.846   6.910  -8.398  0.00  0.00    -0.033 A 
ATOM     10  H   LIG d   1       9.985   8.270 -10.022  0.00  0.00     0.066 H 
ATOM     11  C   LIG d   1       9.972   6.738  -7.019  0.00  0.00     0.071 A 
ATOM     12  C   LIG d   1      10.322   7.820  -6.195  0.00  0.00     0.143 A 
ATOM     13  C   LIG d   1       9.801   5.576  -6.128  0.00  0.00     0.232 A 
ATOM     14  C   LIG d   1      10.548   9.061  -6.776  0.00  0.00     0.023 A 
ATOM     15  O   LIG d   1      10.375   7.413  -4.908  0.00  0.00    -0.451 OA
ATOM     16  H   LIG d   1      10.818   9.905  -6.159  0.00  0.00     0.069 H 
ATOM     17  C   LIG d   1      10.079   6.097  -4.783  0.00  0.00     0.176 A 
ATOM     18  C   LIG d   1      10.045   5.390  -3.625  0.00  0.00    -0.008 C 
ATOM     19  H   LIG d   1       9.713   4.361  -3.630  0.00  0.00     0.066 H 
ATOM     20  O   LIG d   1       9.496   4.436  -6.439  0.00  0.00    -0.283 OA
BRANCH   9  21
ATOM     21  C   LIG d   1       9.463   5.744  -9.273  0.00  0.00    -0.039 C 
ATOM     22  H   LIG d   1       9.810   5.924 -10.290  0.00  0.00     0.028 H 
ATOM     23  H   LIG d   1       9.924   4.834  -8.887  0.00  0.00     0.028 H 
ATOM     24  H   LIG d   1       8.379   5.632  -9.273  0.00  0.00     0.028 H 
ENDBRANCH   9  21
BRANCH  18  25
ATOM     25  C   LIG d   1      10.460   6.020  -2.367  0.00  0.00    -0.014 A 
ATOM     26  C   LIG d   1       9.644   6.987  -1.764  0.00  0.00    -0.009 A 
ATOM     27  C   LIG d   1      10.038   7.578  -0.579  0.00  0.00     0.166 A 
ATOM     28  H   LIG d   1       8.710   7.270  -2.225  0.00  0.00     0.066 H 
ATOM     29  C   LIG d   1      11.243   7.213   0.017  0.00  0.00     0.203 A 
ATOM     30  C   LIG d   1      12.057   6.253  -0.579  0.00  0.00     0.166 A 
ATOM     31  C   LIG d   1      11.668   5.654  -1.762  0.00  0.00    -0.009 A 
ATOM     32  H   LIG d   1      12.298   4.904  -2.220  0.00  0.00     0.066 H 
BRANCH  27  33
ATOM     33  O   LIG d   1       9.247   8.517   0.007  0.00  0.00    -0.491 OA
BRANCH  33  34
ATOM     34  C   LIG d   1       8.940   9.679  -0.764  0.00  0.00     0.079 C 
ATOM     35  H   LIG d   1       8.184   9.432  -1.511  0.00  0.00     0.066 H 
ATOM     36  H   LIG d   1       8.557  10.461  -0.107  0.00  0.00     0.066 H 
ATOM     37  H   LIG d   1       9.842  10.033  -1.264  0.00  0.00     0.066 H 
ENDBRANCH  33  34
ENDBRANCH  27  33
BRANCH  29  38
ATOM     38  O   LIG d   1      11.626   7.797   1.183  0.00  0.00    -0.488 OA
BRANCH  38  39
ATOM     39  C   LIG d   1      12.356   9.021   1.086  0.00  0.00     0.079 C 
ATOM     40  H   LIG d   1      13.224   8.877   0.442  0.00  0.00     0.066 H 
ATOM     41  H   LIG d   1      11.715   9.795   0.664  0.00  0.00     0.066 H 
ATOM     42  H   LIG d   1      12.688   9.327   2.079  0.00  0.00     0.066 H 
ENDBRANCH  38  39
ENDBRANCH  29  38
BRANCH  30  43
ATOM     43  O   LIG d   1      13.232   5.900   0.007  0.00  0.00    -0.491 OA
BRANCH  43  44
ATOM     44  C   LIG d   1      14.430   6.178  -0.722  0.00  0.00     0.079 C 
ATOM     45  H   LIG d   1      14.827   7.144  -0.412  0.00  0.00     0.066 H 
ATOM     46  H   LIG d   1      15.167   5.401  -0.521  0.00  0.00     0.066 H 
ATOM     47  H   LIG d   1      14.208   6.201  -1.789  0.00  0.00     0.066 H 
ENDBRANCH  43  44
ENDBRANCH  30  43
ENDBRANCH  18  25
ENDBRANCH   6   7
ENDBRANCH   1   6
TORSDOF 10
ENDMDL
MODEL 10
REMARK VINA RESULT:      -5.2      2.107      3.211
REMARK  10 active torsions:
REMARK  status: ('A' for Active; 'I' for Inactive)
REMARK    1  A    between atoms: C_1  and  C_2 
REMARK    2  A    between atoms: C_4  and  O_25 
REMARK    3  A    between atoms: C_11  and  C_12 
REMARK    4  A    between atoms: C_14  and  O_22 
REMARK    5  A    between atoms: C_15  and  O_20 
REMARK    6  A    between atoms: C_16  and  O_18 
REMARK    7  A    between atoms: O_18  and  C_19 
REMARK    8  A    between atoms: O_20  and  C_21 
REMARK    9  A    between atoms: O_22  and  C_23 
REMARK   10  A    between atoms: O_25  and  C_26 
ROOT
ATOM      1  C   LIG d   1       5.662  -0.282  -3.496  0.00  0.00     0.175 C 
ATOM      2  C   LIG d   1       5.121   0.487  -2.363  0.00  0.00     0.104 C 
ATOM      3  N   LIG d   1       4.704   1.081  -1.489  0.00  0.00    -0.193 NA
ATOM      4  H   LIG d   1       5.301   0.146  -4.431  0.00  0.00     0.086 H 
ATOM      5  H   LIG d   1       5.335  -1.318  -3.420  0.00  0.00     0.086 H 
ENDROOT
BRANCH   1   6
ATOM      6  O   LIG d   1       7.090  -0.230  -3.468  0.00  0.00    -0.477 OA
BRANCH   6   7
ATOM      7  C   LIG d   1       7.690   0.677  -4.281  0.00  0.00     0.126 A 
ATOM      8  C   LIG d   1       7.920   0.361  -5.617  0.00  0.00    -0.016 A 
ATOM      9  C   LIG d   1       8.529   1.264  -6.441  0.00  0.00    -0.033 A 
ATOM     10  H   LIG d   1       7.622  -0.604  -6.001  0.00  0.00     0.066 H 
ATOM     11  C   LIG d   1       8.909   2.512  -5.945  0.00  0.00     0.071 A 
ATOM     12  C   LIG d   1       8.681   2.842  -4.599  0.00  0.00     0.143 A 
ATOM     13  C   LIG d   1       9.564   3.683  -6.556  0.00  0.00     0.232 A 
ATOM     14  C   LIG d   1       8.067   1.909  -3.774  0.00  0.00     0.023 A 
ATOM     15  O   LIG d   1       9.137   4.090  -4.354  0.00  0.00    -0.451 OA
ATOM     16  H   LIG d   1       7.885   2.145  -2.735  0.00  0.00     0.069 H 
ATOM     17  C   LIG d   1       9.675   4.656  -5.460  0.00  0.00     0.176 A 
ATOM     18  C   LIG d   1      10.217   5.898  -5.543  0.00  0.00    -0.008 C 
ATOM     19  H   LIG d   1      10.695   6.219  -6.457  0.00  0.00     0.066 H 
ATOM     20  O   LIG d   1       9.932   3.814  -7.711  0.00  0.00    -0.283 OA
BRANCH   9  21
ATOM     21  C   LIG d   1       8.783   0.917  -7.886  0.00  0.00    -0.039 C 
ATOM     22  H   LIG d   1       8.305  -0.034  -8.120  0.00  0.00     0.028 H 
ATOM     23  H   LIG d   1       8.370   1.698  -8.525  0.00  0.00     0.028 H 
ATOM     24  H   LIG d   1       9.856   0.837  -8.056  0.00  0.00     0.028 H 
ENDBRANCH   9  21
BRANCH  18  25
ATOM     25  C   LIG d   1      10.153   6.805  -4.390  0.00  0.00    -0.014 A 
ATOM     26  C   LIG d   1      10.014   6.287  -3.096  0.00  0.00    -0.009 A 
ATOM     27  C   LIG d   1       9.955   7.144  -2.014  0.00  0.00     0.166 A 
ATOM     28  H   LIG d   1       9.952   5.220  -2.945  0.00  0.00     0.066 H 
ATOM     29  C   LIG d   1      10.035   8.521  -2.208  0.00  0.00     0.203 A 
ATOM     30  C   LIG d   1      10.173   9.040  -3.493  0.00  0.00     0.166 A 
ATOM     31  C   LIG d   1      10.238   8.190  -4.580  0.00  0.00    -0.009 A 
ATOM     32  H   LIG d   1      10.350   8.593  -5.577  0.00  0.00     0.066 H 
BRANCH  27  33
ATOM     33  O   LIG d   1       9.820   6.641  -0.758  0.00  0.00    -0.491 OA
BRANCH  33  34
ATOM     34  C   LIG d   1      10.946   5.958  -0.206  0.00  0.00     0.079 C 
ATOM     35  H   LIG d   1      11.193   6.387   0.765  0.00  0.00     0.066 H 
ATOM     36  H   LIG d   1      10.707   4.901  -0.085  0.00  0.00     0.066 H 
ATOM     37  H   LIG d   1      11.799   6.062  -0.878  0.00  0.00     0.066 H 
ENDBRANCH  33  34
ENDBRANCH  27  33
BRANCH  29  38
ATOM     38  O   LIG d   1       9.977   9.360  -1.141  0.00  0.00    -0.488 OA
BRANCH  38  39
ATOM     39  C   LIG d   1       8.679   9.763  -0.703  0.00  0.00     0.079 C 
ATOM     40  H   LIG d   1       8.770  10.372   0.197  0.00  0.00     0.066 H 
ATOM     41  H   LIG d   1       8.194  10.344  -1.488  0.00  0.00     0.066 H 
ATOM     42  H   LIG d   1       8.078   8.879  -0.483  0.00  0.00     0.066 H 
ENDBRANCH  38  39
ENDBRANCH  29  38
BRANCH  30  43
ATOM     43  O   LIG d   1      10.251  10.385  -3.678  0.00  0.00    -0.491 OA
BRANCH  43  44
ATOM     44  C   LIG d   1       9.132  11.021  -4.300  0.00  0.00     0.079 C 
ATOM     45  H   LIG d   1       9.307  11.092  -5.373  0.00  0.00     0.066 H 
ATOM     46  H   LIG d   1       8.232  10.434  -4.117  0.00  0.00     0.066 H 
ATOM     47  H   LIG d   1       9.005  12.021  -3.885  0.00  0.00     0.066 H 
ENDBRANCH  43  44
ENDBRANCH  30  43
ENDBRANCH  18  25
ENDBRANCH   6   7
ENDBRANCH   1   6
TORSDOF 10
ENDMDL
