MODEL 1
REMARK VINA RESULT:      -5.9      0.000      0.000
REMARK  3 active torsions:
REMARK  status: ('A' for Active; 'I' for Inactive)
REMARK    1  A    between atoms: C_1  and  C_2 
REMARK    2  A    between atoms: C_5  and  C_8 
REMARK    3  A    between atoms: C_12  and  C_17 
ROOT
ATOM      1  C   LIG d   1       7.500   1.614  -4.295  0.00  0.00     0.090 A 
ATOM      2  C   LIG d   1       7.237   0.295  -4.509  0.00  0.00     0.037 A 
ATOM      3  N   LIG d   1       6.206  -0.047  -3.681  0.00  0.00    -0.306 N 
ATOM      4  C   LIG d   1       5.542  -1.224  -3.477  0.00  0.00     0.014 A 
ATOM      5  C   LIG d   1       4.537  -1.299  -2.581  0.00  0.00    -0.034 A 
ATOM      6  C   LIG d   1       4.158  -0.165  -1.842  0.00  0.00    -0.054 A 
ATOM      7  C   LIG d   1       4.811   1.013  -2.036  0.00  0.00    -0.018 A 
ATOM      8  C   LIG d   1       5.859   1.076  -2.976  0.00  0.00     0.138 A 
ATOM      9  N   LIG d   1       6.654   2.066  -3.356  0.00  0.00    -0.228 NA
ATOM     10  H   LIG d   1       7.749  -0.356  -5.202  0.00  0.00     0.084 H 
ATOM     11  H   LIG d   1       5.824  -2.102  -4.039  0.00  0.00     0.082 H 
ATOM     12  H   LIG d   1       3.352  -0.227  -1.126  0.00  0.00     0.062 H 
ATOM     13  H   LIG d   1       4.528   1.891  -1.475  0.00  0.00     0.065 H 
ENDROOT
BRANCH   1  14
ATOM     14  C   LIG d   1       8.547   2.415  -4.979  0.00  0.00     0.002 A 
ATOM     15  C   LIG d   1       9.275   3.366  -4.267  0.00  0.00    -0.052 A 
ATOM     16  C   LIG d   1      10.247   4.108  -4.909  0.00  0.00    -0.058 A 
ATOM     17  H   LIG d   1       9.079   3.525  -3.217  0.00  0.00     0.062 H 
ATOM     18  C   LIG d   1      10.500   3.906  -6.253  0.00  0.00    -0.050 A 
ATOM     19  H   LIG d   1      10.811   4.846  -4.358  0.00  0.00     0.062 H 
ATOM     20  C   LIG d   1       9.776   2.966  -6.965  0.00  0.00    -0.058 A 
ATOM     21  C   LIG d   1       8.805   2.216  -6.333  0.00  0.00    -0.052 A 
ATOM     22  H   LIG d   1       9.975   2.816  -8.015  0.00  0.00     0.062 H 
ATOM     23  H   LIG d   1       8.244   1.479  -6.889  0.00  0.00     0.062 H 
BRANCH  18  24
ATOM     24  C   LIG d   1      11.563   4.719  -6.947  0.00  0.00    -0.040 C 
ATOM     25  H   LIG d   1      12.236   4.053  -7.486  0.00  0.00     0.028 H 
ATOM     26  H   LIG d   1      11.093   5.407  -7.650  0.00  0.00     0.028 H 
ATOM     27  H   LIG d   1      12.127   5.286  -6.206  0.00  0.00     0.028 H 
ENDBRANCH  18  24
ENDBRANCH   1  14
BRANCH   5  28
ATOM     28  C   LIG d   1       3.815  -2.605  -2.370  0.00  0.00    -0.038 C 
ATOM     29  H   LIG d   1       4.027  -3.275  -3.203  0.00  0.00     0.028 H 
ATOM     30  H   LIG d   1       4.155  -3.062  -1.441  0.00  0.00     0.028 H 
ATOM     31  H   LIG d   1       2.743  -2.422  -2.314  0.00  0.00     0.028 H 
ENDBRANCH   5  28
TORSDOF 3
ENDMDL
MODEL 2
REMARK VINA RESULT:      -5.8      5.672      7.714
REMARK  3 active torsions:
REMARK  status: ('A' for Active; 'I' for Inactive)
REMARK    1  A    between atoms: C_1  and  C_2 
REMARK    2  A    between atoms: C_5  and  C_8 
REMARK    3  A    between atoms: C_12  and  C_17 
ROOT
ATOM      1  C   LIG d   1       3.460  -0.285  -7.391  0.00  0.00     0.090 A 
ATOM      2  C   LIG d   1       4.403  -0.375  -8.369  0.00  0.00     0.037 A 
ATOM      3  N   LIG d   1       3.740  -0.544  -9.552  0.00  0.00    -0.306 N 
ATOM      4  C   LIG d   1       4.175  -0.690 -10.838  0.00  0.00     0.014 A 
ATOM      5  C   LIG d   1       3.295  -0.845 -11.848  0.00  0.00    -0.034 A 
ATOM      6  C   LIG d   1       1.914  -0.859 -11.590  0.00  0.00    -0.054 A 
ATOM      7  C   LIG d   1       1.467  -0.714 -10.314  0.00  0.00    -0.018 A 
ATOM      8  C   LIG d   1       2.399  -0.553  -9.269  0.00  0.00     0.138 A 
ATOM      9  N   LIG d   1       2.249  -0.402  -7.960  0.00  0.00    -0.228 NA
ATOM     10  H   LIG d   1       5.473  -0.323  -8.234  0.00  0.00     0.084 H 
ATOM     11  H   LIG d   1       5.235  -0.681 -11.048  0.00  0.00     0.082 H 
ATOM     12  H   LIG d   1       1.211  -0.982 -12.401  0.00  0.00     0.062 H 
ATOM     13  H   LIG d   1       0.407  -0.722 -10.104  0.00  0.00     0.065 H 
ENDROOT
BRANCH   1  14
ATOM     14  C   LIG d   1       3.724  -0.097  -5.943  0.00  0.00     0.002 A 
ATOM     15  C   LIG d   1       2.729   0.414  -5.112  0.00  0.00    -0.052 A 
ATOM     16  C   LIG d   1       2.981   0.588  -3.765  0.00  0.00    -0.058 A 
ATOM     17  H   LIG d   1       1.763   0.676  -5.519  0.00  0.00     0.062 H 
ATOM     18  C   LIG d   1       4.216   0.254  -3.241  0.00  0.00    -0.050 A 
ATOM     19  H   LIG d   1       2.210   0.984  -3.120  0.00  0.00     0.062 H 
ATOM     20  C   LIG d   1       5.209  -0.249  -4.064  0.00  0.00    -0.058 A 
ATOM     21  C   LIG d   1       4.967  -0.431  -5.410  0.00  0.00    -0.052 A 
ATOM     22  H   LIG d   1       6.173  -0.505  -3.650  0.00  0.00     0.062 H 
ATOM     23  H   LIG d   1       5.741  -0.827  -6.050  0.00  0.00     0.062 H 
BRANCH  18  24
ATOM     24  C   LIG d   1       4.484   0.445  -1.770  0.00  0.00    -0.040 C 
ATOM     25  H   LIG d   1       5.478   0.069  -1.530  0.00  0.00     0.028 H 
ATOM     26  H   LIG d   1       4.427   1.506  -1.526  0.00  0.00     0.028 H 
ATOM     27  H   LIG d   1       3.739  -0.102  -1.192  0.00  0.00     0.028 H 
ENDBRANCH  18  24
ENDBRANCH   1  14
BRANCH   5  28
ATOM     28  C   LIG d   1       3.795  -1.003 -13.262  0.00  0.00    -0.038 C 
ATOM     29  H   LIG d   1       4.492  -1.840 -13.308  0.00  0.00     0.028 H 
ATOM     30  H   LIG d   1       2.953  -1.196 -13.926  0.00  0.00     0.028 H 
ATOM     31  H   LIG d   1       4.301  -0.090 -13.572  0.00  0.00     0.028 H 
ENDBRANCH   5  28
TORSDOF 3
ENDMDL
MODEL 3
REMARK VINA RESULT:      -5.7      5.221      6.266
REMARK  3 active torsions:
REMARK  status: ('A' for Active; 'I' for Inactive)
REMARK    1  A    between atoms: C_1  and  C_2 
REMARK    2  A    between atoms: C_5  and  C_8 
REMARK    3  A    between atoms: C_12  and  C_17 
ROOT
ATOM      1  C   LIG d   1       3.802  -0.505  -7.775  0.00  0.00     0.090 A 
ATOM      2  C   LIG d   1       4.516  -1.292  -6.924  0.00  0.00     0.037 A 
ATOM      3  N   LIG d   1       4.094  -1.000  -5.657  0.00  0.00    -0.306 N 
ATOM      4  C   LIG d   1       4.461  -1.479  -4.432  0.00  0.00     0.014 A 
ATOM      5  C   LIG d   1       3.877  -1.013  -3.309  0.00  0.00    -0.034 A 
ATOM      6  C   LIG d   1       2.882  -0.024  -3.385  0.00  0.00    -0.054 A 
ATOM      7  C   LIG d   1       2.507   0.462  -4.599  0.00  0.00    -0.018 A 
ATOM      8  C   LIG d   1       3.126  -0.035  -5.764  0.00  0.00     0.138 A 
ATOM      9  N   LIG d   1       2.967   0.255  -7.047  0.00  0.00    -0.228 NA
ATOM     10  H   LIG d   1       5.273  -2.012  -7.199  0.00  0.00     0.084 H 
ATOM     11  H   LIG d   1       5.225  -2.239  -4.362  0.00  0.00     0.082 H 
ATOM     12  H   LIG d   1       2.415   0.347  -2.484  0.00  0.00     0.062 H 
ATOM     13  H   LIG d   1       1.743   1.222  -4.669  0.00  0.00     0.065 H 
ENDROOT
BRANCH   1  14
ATOM     14  C   LIG d   1       3.928  -0.485  -9.254  0.00  0.00     0.002 A 
ATOM     15  C   LIG d   1       3.896   0.727  -9.941  0.00  0.00    -0.052 A 
ATOM     16  C   LIG d   1       4.013   0.739 -11.317  0.00  0.00    -0.058 A 
ATOM     17  H   LIG d   1       3.778   1.654  -9.401  0.00  0.00     0.062 H 
ATOM     18  C   LIG d   1       4.164  -0.447 -12.012  0.00  0.00    -0.050 A 
ATOM     19  H   LIG d   1       3.988   1.678 -11.851  0.00  0.00     0.062 H 
ATOM     20  C   LIG d   1       4.191  -1.653 -11.333  0.00  0.00    -0.058 A 
ATOM     21  C   LIG d   1       4.079  -1.677  -9.958  0.00  0.00    -0.052 A 
ATOM     22  H   LIG d   1       4.305  -2.577 -11.881  0.00  0.00     0.062 H 
ATOM     23  H   LIG d   1       4.104  -2.619  -9.430  0.00  0.00     0.062 H 
BRANCH  18  24
ATOM     24  C   LIG d   1       4.292  -0.427 -13.513  0.00  0.00    -0.040 C 
ATOM     25  H   LIG d   1       3.725  -1.254 -13.938  0.00  0.00     0.028 H 
ATOM     26  H   LIG d   1       3.903   0.516 -13.898  0.00  0.00     0.028 H 
ATOM     27  H   LIG d   1       5.342  -0.526 -13.789  0.00  0.00     0.028 H 
ENDBRANCH  18  24
ENDBRANCH   1  14
BRANCH   5  28
ATOM     28  C   LIG d   1       4.294  -1.555  -1.966  0.00  0.00    -0.038 C 
ATOM     29  H   LIG d   1       5.118  -2.255  -2.097  0.00  0.00     0.028 H 
ATOM     30  H   LIG d   1       4.614  -0.733  -1.325  0.00  0.00     0.028 H 
ATOM     31  H   LIG d   1       3.451  -2.068  -1.504  0.00  0.00     0.028 H 
ENDBRANCH   5  28
TORSDOF 3
ENDMDL
MODEL 4
REMARK VINA RESULT:      -5.6      1.172      6.788
REMARK  3 active torsions:
REMARK  status: ('A' for Active; 'I' for Inactive)
REMARK    1  A    between atoms: C_1  and  C_2 
REMARK    2  A    between atoms: C_5  and  C_8 
REMARK    3  A    between atoms: C_12  and  C_17 
ROOT
ATOM      1  C   LIG d   1       7.772   1.657  -4.121  0.00  0.00     0.090 A 
ATOM      2  C   LIG d   1       8.124   1.810  -5.428  0.00  0.00     0.037 A 
ATOM      3  N   LIG d   1       9.065   2.798  -5.477  0.00  0.00    -0.306 N 
ATOM      4  C   LIG d   1       9.758   3.359  -6.512  0.00  0.00     0.014 A 
ATOM      5  C   LIG d   1      10.652   4.343  -6.288  0.00  0.00    -0.034 A 
ATOM      6  C   LIG d   1      10.883   4.808  -4.982  0.00  0.00    -0.054 A 
ATOM      7  C   LIG d   1      10.200   4.258  -3.941  0.00  0.00    -0.018 A 
ATOM      8  C   LIG d   1       9.269   3.230  -4.192  0.00  0.00     0.138 A 
ATOM      9  N   LIG d   1       8.476   2.534  -3.389  0.00  0.00    -0.228 NA
ATOM     10  H   LIG d   1       7.731   1.254  -6.267  0.00  0.00     0.084 H 
ATOM     11  H   LIG d   1       9.589   3.010  -7.520  0.00  0.00     0.082 H 
ATOM     12  H   LIG d   1      11.601   5.595  -4.805  0.00  0.00     0.062 H 
ATOM     13  H   LIG d   1      10.370   4.607  -2.933  0.00  0.00     0.065 H 
ENDROOT
BRANCH   1  14
ATOM     14  C   LIG d   1       6.775   0.690  -3.596  0.00  0.00     0.002 A 
ATOM     15  C   LIG d   1       5.649   1.149  -2.915  0.00  0.00    -0.052 A 
ATOM     16  C   LIG d   1       4.725   0.244  -2.428  0.00  0.00    -0.058 A 
ATOM     17  H   LIG d   1       5.500   2.207  -2.765  0.00  0.00     0.062 H 
ATOM     18  C   LIG d   1       4.915  -1.112  -2.618  0.00  0.00    -0.050 A 
ATOM     19  H   LIG d   1       3.853   0.599  -1.899  0.00  0.00     0.062 H 
ATOM     20  C   LIG d   1       6.034  -1.572  -3.290  0.00  0.00    -0.058 A 
ATOM     21  C   LIG d   1       6.962  -0.677  -3.784  0.00  0.00    -0.052 A 
ATOM     22  H   LIG d   1       6.179  -2.632  -3.432  0.00  0.00     0.062 H 
ATOM     23  H   LIG d   1       7.832  -1.037  -4.312  0.00  0.00     0.062 H 
BRANCH  18  24
ATOM     24  C   LIG d   1       3.903  -2.093  -2.085  0.00  0.00    -0.040 C 
ATOM     25  H   LIG d   1       3.175  -1.566  -1.469  0.00  0.00     0.028 H 
ATOM     26  H   LIG d   1       3.393  -2.577  -2.917  0.00  0.00     0.028 H 
ATOM     27  H   LIG d   1       4.411  -2.847  -1.482  0.00  0.00     0.028 H 
ENDBRANCH  18  24
ENDBRANCH   1  14
BRANCH   5  28
ATOM     28  C   LIG d   1      11.408   4.949  -7.443  0.00  0.00    -0.038 C 
ATOM     29  H   LIG d   1      11.051   5.963  -7.618  0.00  0.00     0.028 H 
ATOM     30  H   LIG d   1      12.472   4.974  -7.208  0.00  0.00     0.028 H 
ATOM     31  H   LIG d   1      11.248   4.346  -8.336  0.00  0.00     0.028 H 
ENDBRANCH   5  28
TORSDOF 3
ENDMDL
MODEL 5
REMARK VINA RESULT:      -5.6      5.210      6.967
REMARK  3 active torsions:
REMARK  status: ('A' for Active; 'I' for Inactive)
REMARK    1  A    between atoms: C_1  and  C_2 
REMARK    2  A    between atoms: C_5  and  C_8 
REMARK    3  A    between atoms: C_12  and  C_17 
ROOT
ATOM      1  C   LIG d   1       3.605  -0.956  -7.113  0.00  0.00     0.090 A 
ATOM      2  C   LIG d   1       3.167  -0.006  -6.241  0.00  0.00     0.037 A 
ATOM      3  N   LIG d   1       3.851  -0.188  -5.072  0.00  0.00    -0.306 N 
ATOM      4  C   LIG d   1       3.816   0.467  -3.874  0.00  0.00     0.014 A 
ATOM      5  C   LIG d   1       4.611   0.079  -2.856  0.00  0.00    -0.034 A 
ATOM      6  C   LIG d   1       5.488  -1.007  -3.014  0.00  0.00    -0.054 A 
ATOM      7  C   LIG d   1       5.533  -1.668  -4.202  0.00  0.00    -0.018 A 
ATOM      8  C   LIG d   1       4.696  -1.251  -5.257  0.00  0.00     0.138 A 
ATOM      9  N   LIG d   1       4.529  -1.705  -6.491  0.00  0.00    -0.228 NA
ATOM     10  H   LIG d   1       2.420   0.749  -6.437  0.00  0.00     0.084 H 
ATOM     11  H   LIG d   1       3.146   1.304  -3.741  0.00  0.00     0.082 H 
ATOM     12  H   LIG d   1       6.124  -1.315  -2.197  0.00  0.00     0.062 H 
ATOM     13  H   LIG d   1       6.204  -2.505  -4.335  0.00  0.00     0.065 H 
ENDROOT
BRANCH   1  14
ATOM     14  C   LIG d   1       3.136  -1.137  -8.509  0.00  0.00     0.002 A 
ATOM     15  C   LIG d   1       2.058  -0.394  -8.986  0.00  0.00    -0.052 A 
ATOM     16  C   LIG d   1       1.625  -0.568 -10.287  0.00  0.00    -0.058 A 
ATOM     17  H   LIG d   1       1.561   0.315  -8.342  0.00  0.00     0.062 H 
ATOM     18  C   LIG d   1       2.261  -1.475 -11.114  0.00  0.00    -0.050 A 
ATOM     19  H   LIG d   1       0.790   0.008 -10.657  0.00  0.00     0.062 H 
ATOM     20  C   LIG d   1       3.328  -2.220 -10.643  0.00  0.00    -0.058 A 
ATOM     21  C   LIG d   1       3.771  -2.051  -9.347  0.00  0.00    -0.052 A 
ATOM     22  H   LIG d   1       3.818  -2.930 -11.292  0.00  0.00     0.062 H 
ATOM     23  H   LIG d   1       4.607  -2.629  -8.982  0.00  0.00     0.062 H 
BRANCH  18  24
ATOM     24  C   LIG d   1       1.784  -1.660 -12.532  0.00  0.00    -0.040 C 
ATOM     25  H   LIG d   1       2.139  -2.617 -12.913  0.00  0.00     0.028 H 
ATOM     26  H   LIG d   1       0.695  -1.641 -12.554  0.00  0.00     0.028 H 
ATOM     27  H   LIG d   1       2.175  -0.853 -13.153  0.00  0.00     0.028 H 
ENDBRANCH  18  24
ENDBRANCH   1  14
BRANCH   5  28
ATOM     28  C   LIG d   1       4.560   0.815  -1.542  0.00  0.00    -0.038 C 
ATOM     29  H   LIG d   1       4.000   0.225  -0.817  0.00  0.00     0.028 H 
ATOM     30  H   LIG d   1       5.573   0.975  -1.174  0.00  0.00     0.028 H 
ATOM     31  H   LIG d   1       4.069   1.778  -1.684  0.00  0.00     0.028 H 
ENDBRANCH   5  28
TORSDOF 3
ENDMDL
MODEL 6
REMARK VINA RESULT:      -5.2      4.612      6.966
REMARK  3 active torsions:
REMARK  status: ('A' for Active; 'I' for Inactive)
REMARK    1  A    between atoms: C_1  and  C_2 
REMARK    2  A    between atoms: C_5  and  C_8 
REMARK    3  A    between atoms: C_12  and  C_17 
ROOT
ATOM      1  C   LIG d   1       4.649  -2.790  -6.109  0.00  0.00     0.090 A 
ATOM      2  C   LIG d   1       4.790  -1.447  -5.933  0.00  0.00     0.037 A 
ATOM      3  N   LIG d   1       4.611  -1.195  -4.602  0.00  0.00    -0.306 N 
ATOM      4  C   LIG d   1       4.639  -0.041  -3.871  0.00  0.00     0.014 A 
ATOM      5  C   LIG d   1       4.425  -0.065  -2.540  0.00  0.00    -0.034 A 
ATOM      6  C   LIG d   1       4.168  -1.281  -1.884  0.00  0.00    -0.054 A 
ATOM      7  C   LIG d   1       4.137  -2.438  -2.600  0.00  0.00    -0.018 A 
ATOM      8  C   LIG d   1       4.363  -2.397  -3.991  0.00  0.00     0.138 A 
ATOM      9  N   LIG d   1       4.384  -3.346  -4.916  0.00  0.00    -0.228 NA
ATOM     10  H   LIG d   1       5.003  -0.718  -6.701  0.00  0.00     0.084 H 
ATOM     11  H   LIG d   1       4.836   0.899  -4.365  0.00  0.00     0.082 H 
ATOM     12  H   LIG d   1       3.998  -1.298  -0.818  0.00  0.00     0.062 H 
ATOM     13  H   LIG d   1       3.941  -3.379  -2.106  0.00  0.00     0.065 H 
ENDROOT
BRANCH   1  14
ATOM     14  C   LIG d   1       4.761  -3.515  -7.399  0.00  0.00     0.002 A 
ATOM     15  C   LIG d   1       5.634  -3.056  -8.384  0.00  0.00    -0.052 A 
ATOM     16  C   LIG d   1       5.734  -3.735  -9.583  0.00  0.00    -0.058 A 
ATOM     17  H   LIG d   1       6.230  -2.172  -8.212  0.00  0.00     0.062 H 
ATOM     18  C   LIG d   1       4.972  -4.867  -9.805  0.00  0.00    -0.050 A 
ATOM     19  H   LIG d   1       6.410  -3.380 -10.347  0.00  0.00     0.062 H 
ATOM     20  C   LIG d   1       4.101  -5.323  -8.832  0.00  0.00    -0.058 A 
ATOM     21  C   LIG d   1       3.995  -4.655  -7.629  0.00  0.00    -0.052 A 
ATOM     22  H   LIG d   1       3.505  -6.205  -9.013  0.00  0.00     0.062 H 
ATOM     23  H   LIG d   1       3.318  -5.015  -6.868  0.00  0.00     0.062 H 
BRANCH  18  24
ATOM     24  C   LIG d   1       5.087  -5.603 -11.116  0.00  0.00    -0.040 C 
ATOM     25  H   LIG d   1       4.150  -5.514 -11.665  0.00  0.00     0.028 H 
ATOM     26  H   LIG d   1       5.896  -5.172 -11.705  0.00  0.00     0.028 H 
ATOM     27  H   LIG d   1       5.298  -6.655 -10.923  0.00  0.00     0.028 H 
ENDBRANCH  18  24
ENDBRANCH   1  14
BRANCH   5  28
ATOM     28  C   LIG d   1       4.462   1.218  -1.750  0.00  0.00    -0.038 C 
ATOM     29  H   LIG d   1       5.377   1.761  -1.984  0.00  0.00     0.028 H 
ATOM     30  H   LIG d   1       3.600   1.831  -2.012  0.00  0.00     0.028 H 
ATOM     31  H   LIG d   1       4.436   0.990  -0.685  0.00  0.00     0.028 H 
ENDBRANCH   5  28
TORSDOF 3
ENDMDL
MODEL 7
REMARK VINA RESULT:      -5.2      4.541      7.329
REMARK  3 active torsions:
REMARK  status: ('A' for Active; 'I' for Inactive)
REMARK    1  A    between atoms: C_1  and  C_2 
REMARK    2  A    between atoms: C_5  and  C_8 
REMARK    3  A    between atoms: C_12  and  C_17 
ROOT
ATOM      1  C   LIG d   1       5.622  -3.678  -4.740  0.00  0.00     0.090 A 
ATOM      2  C   LIG d   1       4.697  -4.426  -5.402  0.00  0.00     0.037 A 
ATOM      3  N   LIG d   1       5.371  -5.436  -6.029  0.00  0.00    -0.306 N 
ATOM      4  C   LIG d   1       4.954  -6.466  -6.823  0.00  0.00     0.014 A 
ATOM      5  C   LIG d   1       5.842  -7.347  -7.329  0.00  0.00    -0.034 A 
ATOM      6  C   LIG d   1       7.212  -7.215  -7.045  0.00  0.00    -0.054 A 
ATOM      7  C   LIG d   1       7.641  -6.193  -6.256  0.00  0.00    -0.018 A 
ATOM      8  C   LIG d   1       6.701  -5.281  -5.735  0.00  0.00     0.138 A 
ATOM      9  N   LIG d   1       6.834  -4.213  -4.961  0.00  0.00    -0.228 NA
ATOM     10  H   LIG d   1       3.631  -4.253  -5.426  0.00  0.00     0.084 H 
ATOM     11  H   LIG d   1       3.903  -6.577  -7.048  0.00  0.00     0.082 H 
ATOM     12  H   LIG d   1       7.920  -7.922  -7.451  0.00  0.00     0.062 H 
ATOM     13  H   LIG d   1       8.691  -6.083  -6.031  0.00  0.00     0.065 H 
ENDROOT
BRANCH   1  14
ATOM     14  C   LIG d   1       5.342  -2.473  -3.920  0.00  0.00     0.002 A 
ATOM     15  C   LIG d   1       6.199  -1.376  -3.974  0.00  0.00    -0.052 A 
ATOM     16  C   LIG d   1       5.933  -0.258  -3.208  0.00  0.00    -0.058 A 
ATOM     17  H   LIG d   1       7.071  -1.400  -4.611  0.00  0.00     0.062 H 
ATOM     18  C   LIG d   1       4.818  -0.226  -2.391  0.00  0.00    -0.050 A 
ATOM     19  H   LIG d   1       6.598   0.592  -3.248  0.00  0.00     0.062 H 
ATOM     20  C   LIG d   1       3.966  -1.315  -2.330  0.00  0.00    -0.058 A 
ATOM     21  C   LIG d   1       4.220  -2.436  -3.094  0.00  0.00    -0.052 A 
ATOM     22  H   LIG d   1       3.100  -1.286  -1.687  0.00  0.00     0.062 H 
ATOM     23  H   LIG d   1       3.553  -3.284  -3.050  0.00  0.00     0.062 H 
BRANCH  18  24
ATOM     24  C   LIG d   1       4.533   0.997  -1.557  0.00  0.00    -0.040 C 
ATOM     25  H   LIG d   1       4.338   0.699  -0.528  0.00  0.00     0.028 H 
ATOM     26  H   LIG d   1       5.395   1.665  -1.586  0.00  0.00     0.028 H 
ATOM     27  H   LIG d   1       3.660   1.514  -1.958  0.00  0.00     0.028 H 
ENDBRANCH  18  24
ENDBRANCH   1  14
BRANCH   5  28
ATOM     28  C   LIG d   1       5.363  -8.478  -8.202  0.00  0.00    -0.038 C 
ATOM     29  H   LIG d   1       5.657  -9.428  -7.758  0.00  0.00     0.028 H 
ATOM     30  H   LIG d   1       4.277  -8.438  -8.286  0.00  0.00     0.028 H 
ATOM     31  H   LIG d   1       5.808  -8.386  -9.192  0.00  0.00     0.028 H 
ENDBRANCH   5  28
TORSDOF 3
ENDMDL
MODEL 8
REMARK VINA RESULT:      -5.1      1.159      2.201
REMARK  3 active torsions:
REMARK  status: ('A' for Active; 'I' for Inactive)
REMARK    1  A    between atoms: C_1  and  C_2 
REMARK    2  A    between atoms: C_5  and  C_8 
REMARK    3  A    between atoms: C_12  and  C_17 
ROOT
ATOM      1  C   LIG d   1       8.010   1.465  -4.196  0.00  0.00     0.090 A 
ATOM      2  C   LIG d   1       6.860   1.495  -3.467  0.00  0.00     0.037 A 
ATOM      3  N   LIG d   1       6.374   0.219  -3.431  0.00  0.00    -0.306 N 
ATOM      4  C   LIG d   1       5.265  -0.328  -2.850  0.00  0.00     0.014 A 
ATOM      5  C   LIG d   1       5.007  -1.646  -2.967  0.00  0.00    -0.034 A 
ATOM      6  C   LIG d   1       5.877  -2.478  -3.692  0.00  0.00    -0.054 A 
ATOM      7  C   LIG d   1       6.986  -1.947  -4.276  0.00  0.00    -0.018 A 
ATOM      8  C   LIG d   1       7.242  -0.567  -4.144  0.00  0.00     0.138 A 
ATOM      9  N   LIG d   1       8.219   0.203  -4.602  0.00  0.00    -0.228 NA
ATOM     10  H   LIG d   1       6.417   2.365  -3.003  0.00  0.00     0.084 H 
ATOM     11  H   LIG d   1       4.589   0.302  -2.291  0.00  0.00     0.082 H 
ATOM     12  H   LIG d   1       5.669  -3.534  -3.784  0.00  0.00     0.062 H 
ATOM     13  H   LIG d   1       7.662  -2.577  -4.834  0.00  0.00     0.065 H 
ENDROOT
BRANCH   1  14
ATOM     14  C   LIG d   1       8.879   2.630  -4.497  0.00  0.00     0.002 A 
ATOM     15  C   LIG d   1       9.158   2.971  -5.819  0.00  0.00    -0.052 A 
ATOM     16  C   LIG d   1       9.968   4.055  -6.093  0.00  0.00    -0.058 A 
ATOM     17  H   LIG d   1       8.743   2.389  -6.628  0.00  0.00     0.062 H 
ATOM     18  C   LIG d   1      10.501   4.802  -5.058  0.00  0.00    -0.050 A 
ATOM     19  H   LIG d   1      10.185   4.320  -7.117  0.00  0.00     0.062 H 
ATOM     20  C   LIG d   1      10.231   4.464  -3.744  0.00  0.00    -0.058 A 
ATOM     21  C   LIG d   1       9.420   3.385  -3.459  0.00  0.00    -0.052 A 
ATOM     22  H   LIG d   1      10.653   5.048  -2.940  0.00  0.00     0.062 H 
ATOM     23  H   LIG d   1       9.206   3.125  -2.432  0.00  0.00     0.062 H 
BRANCH  18  24
ATOM     24  C   LIG d   1      11.384   5.984  -5.364  0.00  0.00    -0.040 C 
ATOM     25  H   LIG d   1      11.266   6.265  -6.410  0.00  0.00     0.028 H 
ATOM     26  H   LIG d   1      11.102   6.823  -4.728  0.00  0.00     0.028 H 
ATOM     27  H   LIG d   1      12.425   5.718  -5.174  0.00  0.00     0.028 H 
ENDBRANCH  18  24
ENDBRANCH   1  14
BRANCH   5  28
ATOM     28  C   LIG d   1       3.779  -2.231  -2.318  0.00  0.00    -0.038 C 
ATOM     29  H   LIG d   1       3.224  -1.441  -1.814  0.00  0.00     0.028 H 
ATOM     30  H   LIG d   1       3.148  -2.689  -3.080  0.00  0.00     0.028 H 
ATOM     31  H   LIG d   1       4.077  -2.987  -1.592  0.00  0.00     0.028 H 
ENDBRANCH   5  28
TORSDOF 3
ENDMDL
MODEL 9
REMARK VINA RESULT:      -5.0      4.277      6.970
REMARK  3 active torsions:
REMARK  status: ('A' for Active; 'I' for Inactive)
REMARK    1  A    between atoms: C_1  and  C_2 
REMARK    2  A    between atoms: C_5  and  C_8 
REMARK    3  A    between atoms: C_12  and  C_17 
ROOT
ATOM      1  C   LIG d   1       6.986  -2.965  -4.053  0.00  0.00     0.090 A 
ATOM      2  C   LIG d   1       8.292  -3.208  -3.755  0.00  0.00     0.037 A 
ATOM      3  N   LIG d   1       8.658  -4.333  -4.440  0.00  0.00    -0.306 N 
ATOM      4  C   LIG d   1       9.834  -5.024  -4.513  0.00  0.00     0.014 A 
ATOM      5  C   LIG d   1       9.934  -6.129  -5.279  0.00  0.00    -0.034 A 
ATOM      6  C   LIG d   1       8.827  -6.587  -6.013  0.00  0.00    -0.054 A 
ATOM      7  C   LIG d   1       7.649  -5.909  -5.948  0.00  0.00    -0.018 A 
ATOM      8  C   LIG d   1       7.560  -4.755  -5.144  0.00  0.00     0.138 A 
ATOM      9  N   LIG d   1       6.560  -3.922  -4.894  0.00  0.00    -0.228 NA
ATOM     10  H   LIG d   1       8.921  -2.621  -3.101  0.00  0.00     0.084 H 
ATOM     11  H   LIG d   1      10.692  -4.681  -3.954  0.00  0.00     0.082 H 
ATOM     12  H   LIG d   1       8.911  -7.473  -6.626  0.00  0.00     0.062 H 
ATOM     13  H   LIG d   1       6.792  -6.252  -6.509  0.00  0.00     0.065 H 
ENDROOT
BRANCH   1  14
ATOM     14  C   LIG d   1       6.169  -1.841  -3.532  0.00  0.00     0.002 A 
ATOM     15  C   LIG d   1       4.895  -2.080  -3.022  0.00  0.00    -0.052 A 
ATOM     16  C   LIG d   1       4.140  -1.029  -2.539  0.00  0.00    -0.058 A 
ATOM     17  H   LIG d   1       4.497  -3.084  -3.006  0.00  0.00     0.062 H 
ATOM     18  C   LIG d   1       4.647   0.257  -2.559  0.00  0.00    -0.050 A 
ATOM     19  H   LIG d   1       3.151  -1.214  -2.145  0.00  0.00     0.062 H 
ATOM     20  C   LIG d   1       5.911   0.500  -3.069  0.00  0.00    -0.058 A 
ATOM     21  C   LIG d   1       6.675  -0.543  -3.550  0.00  0.00    -0.052 A 
ATOM     22  H   LIG d   1       6.300   1.507  -3.086  0.00  0.00     0.062 H 
ATOM     23  H   LIG d   1       7.663  -0.353  -3.944  0.00  0.00     0.062 H 
BRANCH  18  24
ATOM     24  C   LIG d   1       3.818   1.399  -2.030  0.00  0.00    -0.040 C 
ATOM     25  H   LIG d   1       3.315   1.897  -2.858  0.00  0.00     0.028 H 
ATOM     26  H   LIG d   1       3.075   1.015  -1.331  0.00  0.00     0.028 H 
ATOM     27  H   LIG d   1       4.466   2.110  -1.518  0.00  0.00     0.028 H 
ENDBRANCH  18  24
ENDBRANCH   1  14
BRANCH   5  28
ATOM     28  C   LIG d   1      11.241  -6.878  -5.349  0.00  0.00    -0.038 C 
ATOM     29  H   LIG d   1      12.023  -6.209  -5.707  0.00  0.00     0.028 H 
ATOM     30  H   LIG d   1      11.503  -7.245  -4.358  0.00  0.00     0.028 H 
ATOM     31  H   LIG d   1      11.141  -7.719  -6.034  0.00  0.00     0.028 H 
ENDBRANCH   5  28
TORSDOF 3
ENDMDL
MODEL 10
REMARK VINA RESULT:      -4.9      6.282      7.358
REMARK  3 active torsions:
REMARK  status: ('A' for Active; 'I' for Inactive)
REMARK    1  A    between atoms: C_1  and  C_2 
REMARK    2  A    between atoms: C_5  and  C_8 
REMARK    3  A    between atoms: C_12  and  C_17 
ROOT
ATOM      1  C   LIG d   1      10.083   7.012  -4.094  0.00  0.00     0.090 A 
ATOM      2  C   LIG d   1      10.218   5.936  -3.270  0.00  0.00     0.037 A 
ATOM      3  N   LIG d   1      10.427   6.419  -2.009  0.00  0.00    -0.306 N 
ATOM      4  C   LIG d   1      10.627   5.800  -0.808  0.00  0.00     0.014 A 
ATOM      5  C   LIG d   1      10.813   6.524   0.315  0.00  0.00    -0.034 A 
ATOM      6  C   LIG d   1      10.807   7.928   0.264  0.00  0.00    -0.054 A 
ATOM      7  C   LIG d   1      10.609   8.557  -0.927  0.00  0.00    -0.018 A 
ATOM      8  C   LIG d   1      10.415   7.787  -2.091  0.00  0.00     0.138 A 
ATOM      9  N   LIG d   1      10.212   8.126  -3.356  0.00  0.00    -0.228 NA
ATOM     10  H   LIG d   1      10.169   4.896  -3.560  0.00  0.00     0.084 H 
ATOM     11  H   LIG d   1      10.634   4.721  -0.757  0.00  0.00     0.082 H 
ATOM     12  H   LIG d   1      10.955   8.505   1.165  0.00  0.00     0.062 H 
ATOM     13  H   LIG d   1      10.601   9.636  -0.977  0.00  0.00     0.065 H 
ENDROOT
BRANCH   1  14
ATOM     14  C   LIG d   1       9.841   6.962  -5.557  0.00  0.00     0.002 A 
ATOM     15  C   LIG d   1       9.392   8.096  -6.230  0.00  0.00    -0.052 A 
ATOM     16  C   LIG d   1       9.168   8.043  -7.592  0.00  0.00    -0.058 A 
ATOM     17  H   LIG d   1       9.218   9.014  -5.689  0.00  0.00     0.062 H 
ATOM     18  C   LIG d   1       9.391   6.868  -8.287  0.00  0.00    -0.050 A 
ATOM     19  H   LIG d   1       8.820   8.922  -8.114  0.00  0.00     0.062 H 
ATOM     20  C   LIG d   1       9.832   5.738  -7.622  0.00  0.00    -0.058 A 
ATOM     21  C   LIG d   1      10.063   5.781  -6.262  0.00  0.00    -0.052 A 
ATOM     22  H   LIG d   1      10.000   4.823  -8.169  0.00  0.00     0.062 H 
ATOM     23  H   LIG d   1      10.412   4.899  -5.745  0.00  0.00     0.062 H 
BRANCH  18  24
ATOM     24  C   LIG d   1       9.145   6.818  -9.773  0.00  0.00    -0.040 C 
ATOM     25  H   LIG d   1       8.872   5.803 -10.062  0.00  0.00     0.028 H 
ATOM     26  H   LIG d   1       8.335   7.499 -10.031  0.00  0.00     0.028 H 
ATOM     27  H   LIG d   1      10.052   7.115 -10.301  0.00  0.00     0.028 H 
ENDBRANCH  18  24
ENDBRANCH   1  14
BRANCH   5  28
ATOM     28  C   LIG d   1      11.030   5.823   1.632  0.00  0.00    -0.038 C 
ATOM     29  H   LIG d   1      10.133   5.265   1.898  0.00  0.00     0.028 H 
ATOM     30  H   LIG d   1      11.872   5.136   1.544  0.00  0.00     0.028 H 
ATOM     31  H   LIG d   1      11.243   6.561   2.405  0.00  0.00     0.028 H 
ENDBRANCH   5  28
TORSDOF 3
ENDMDL
