MODEL 1
REMARK VINA RESULT:      -4.4      0.000      0.000
REMARK  6 active torsions:
REMARK  status: ('A' for Active; 'I' for Inactive)
REMARK    1  A    between atoms: C_1  and  N_2 
REMARK    2  A    between atoms: C_3  and  N_4 
REMARK    3  A    between atoms: N_4  and  C_5 
REMARK    4  A    between atoms: C_5  and  C_6 
REMARK    5  A    between atoms: C_6  and  C_7 
REMARK    6  A    between atoms: C_7  and  C_8 
ROOT
ATOM      1  C   LIG d   1       5.773   1.322  -2.717  0.00  0.00    -0.030 C 
ATOM      2  H   LIG d   1       6.465   1.715  -1.958  0.00  0.00     0.029 H 
ATOM      3  H   LIG d   1       5.594   2.091  -3.483  0.00  0.00     0.029 H 
ENDROOT
BRANCH   1   4
ATOM      4  C   LIG d   1       6.384   0.082  -3.373  0.00  0.00     0.012 C 
ATOM      5  H   LIG d   1       5.704  -0.773  -3.245  0.00  0.00     0.046 H 
ATOM      6  H   LIG d   1       7.350  -0.143  -2.900  0.00  0.00     0.046 H 
BRANCH   4   7
ATOM      7  N   LIG d   1       6.587   0.335  -4.802  0.00  0.00    -0.317 N 
ATOM      8  H   LIG d   1       7.330   1.078  -5.128  0.00  0.00     0.149 HD
BRANCH   7   9
ATOM      9  C   LIG d   1       5.849  -0.356  -5.734  0.00  0.00     0.099 C 
ATOM     10  N   LIG d   1       5.423   0.250  -6.808  0.00  0.00    -0.257 N 
ATOM     11  H   LIG d   1       5.653   1.314  -6.967  0.00  0.00     0.444 HD
ATOM     12  S   LIG d   1       5.481  -2.061  -5.479  0.00  0.00    -0.671 SA
BRANCH  10  13
ATOM     13  C   LIG d   1       4.637  -0.487  -7.802  0.00  0.00     0.133 C 
ATOM     14  H   LIG d   1       4.700   0.028  -8.772  0.00  0.00     0.099 H 
ATOM     15  H   LIG d   1       3.587  -0.533  -7.478  0.00  0.00     0.099 H 
ATOM     16  H   LIG d   1       5.036  -1.508  -7.901  0.00  0.00     0.099 H 
ENDBRANCH  10  13
ENDBRANCH   7   9
ENDBRANCH   4   7
ENDBRANCH   1   4
BRANCH   1  17
ATOM     17  C   LIG d   1       4.446   0.947  -2.054  0.00  0.00     0.014 C 
ATOM     18  H   LIG d   1       4.608   0.112  -1.356  0.00  0.00     0.035 H 
ATOM     19  H   LIG d   1       4.053   1.815  -1.504  0.00  0.00     0.035 H 
BRANCH  17  20
ATOM     20  C   LIG d   1       3.456   0.532  -3.112  0.00  0.00     0.141 A 
ATOM     21  N   LIG d   1       3.138   1.231  -4.211  0.00  0.00    -0.247 N 
ATOM     22  H   LIG d   1       3.616   2.203  -4.403  0.00  0.00     0.310 HD
ATOM     23  C   LIG d   1       2.249   0.568  -4.901  0.00  0.00     0.242 A 
ATOM     24  N   LIG d   1       1.965  -0.580  -4.250  0.00  0.00    -0.250 N 
ATOM     25  H   LIG d   1       1.794   0.779  -5.765  0.00  0.00     0.158 H 
ATOM     26  C   LIG d   1       2.731  -0.603  -3.116  0.00  0.00     0.131 A 
ATOM     27  H   LIG d   1       1.283  -1.415  -4.470  0.00  0.00     0.310 HD
ATOM     28  H   LIG d   1       2.827  -1.260  -2.368  0.00  0.00     0.112 H 
ENDBRANCH  17  20
ENDBRANCH   1  17
TORSDOF 6
ENDMDL
MODEL 2
REMARK VINA RESULT:      -4.4      1.732      3.450
REMARK  6 active torsions:
REMARK  status: ('A' for Active; 'I' for Inactive)
REMARK    1  A    between atoms: C_1  and  N_2 
REMARK    2  A    between atoms: C_3  and  N_4 
REMARK    3  A    between atoms: N_4  and  C_5 
REMARK    4  A    between atoms: C_5  and  C_6 
REMARK    5  A    between atoms: C_6  and  C_7 
REMARK    6  A    between atoms: C_7  and  C_8 
ROOT
ATOM      1  C   LIG d   1       3.535   1.188  -3.063  0.00  0.00    -0.030 C 
ATOM      2  H   LIG d   1       4.204   1.852  -3.632  0.00  0.00     0.029 H 
ATOM      3  H   LIG d   1       2.772   1.791  -2.548  0.00  0.00     0.029 H 
ENDROOT
BRANCH   1   4
ATOM      4  C   LIG d   1       2.852   0.210  -4.021  0.00  0.00     0.012 C 
ATOM      5  H   LIG d   1       1.814   0.044  -3.698  0.00  0.00     0.046 H 
ATOM      6  H   LIG d   1       3.395  -0.746  -4.016  0.00  0.00     0.046 H 
BRANCH   4   7
ATOM      7  N   LIG d   1       2.858   0.769  -5.376  0.00  0.00    -0.317 N 
ATOM      8  H   LIG d   1       2.549   1.811  -5.542  0.00  0.00     0.149 HD
BRANCH   7   9
ATOM      9  C   LIG d   1       3.250  -0.011  -6.440  0.00  0.00     0.099 C 
ATOM     10  N   LIG d   1       2.436  -0.205  -7.440  0.00  0.00    -0.257 N 
ATOM     11  H   LIG d   1       1.436   0.254  -7.433  0.00  0.00     0.444 HD
ATOM     12  S   LIG d   1       4.851  -0.746  -6.451  0.00  0.00    -0.671 SA
BRANCH  10  13
ATOM     13  C   LIG d   1       2.853  -1.035  -8.573  0.00  0.00     0.133 C 
ATOM     14  H   LIG d   1       3.062  -0.392  -9.440  0.00  0.00     0.099 H 
ATOM     15  H   LIG d   1       2.049  -1.742  -8.825  0.00  0.00     0.099 H 
ATOM     16  H   LIG d   1       3.762  -1.594  -8.303  0.00  0.00     0.099 H 
ENDBRANCH  10  13
ENDBRANCH   7   9
ENDBRANCH   4   7
ENDBRANCH   1   4
BRANCH   1  17
ATOM     17  C   LIG d   1       4.348   0.406  -2.030  0.00  0.00     0.014 C 
ATOM     18  H   LIG d   1       4.659   1.081  -1.219  0.00  0.00     0.035 H 
ATOM     19  H   LIG d   1       3.731  -0.406  -1.617  0.00  0.00     0.035 H 
BRANCH  17  20
ATOM     20  C   LIG d   1       5.570  -0.179  -2.691  0.00  0.00     0.141 A 
ATOM     21  N   LIG d   1       5.849  -1.485  -2.818  0.00  0.00    -0.247 N 
ATOM     22  H   LIG d   1       5.153  -2.238  -2.418  0.00  0.00     0.310 HD
ATOM     23  C   LIG d   1       6.985  -1.624  -3.445  0.00  0.00     0.242 A 
ATOM     24  N   LIG d   1       7.474  -0.398  -3.730  0.00  0.00    -0.250 N 
ATOM     25  H   LIG d   1       7.494  -2.441  -3.714  0.00  0.00     0.158 H 
ATOM     26  C   LIG d   1       6.577   0.518  -3.253  0.00  0.00     0.131 A 
ATOM     27  H   LIG d   1       8.390  -0.059  -4.237  0.00  0.00     0.310 HD
ATOM     28  H   LIG d   1       6.552   1.517  -3.254  0.00  0.00     0.112 H 
ENDBRANCH  17  20
ENDBRANCH   1  17
TORSDOF 6
ENDMDL
MODEL 3
REMARK VINA RESULT:      -4.3      2.418      5.240
REMARK  6 active torsions:
REMARK  status: ('A' for Active; 'I' for Inactive)
REMARK    1  A    between atoms: C_1  and  N_2 
REMARK    2  A    between atoms: C_3  and  N_4 
REMARK    3  A    between atoms: N_4  and  C_5 
REMARK    4  A    between atoms: C_5  and  C_6 
REMARK    5  A    between atoms: C_6  and  C_7 
REMARK    6  A    between atoms: C_7  and  C_8 
ROOT
ATOM      1  C   LIG d   1       3.296  -0.027  -6.333  0.00  0.00    -0.030 C 
ATOM      2  H   LIG d   1       4.113   0.702  -6.438  0.00  0.00     0.029 H 
ATOM      3  H   LIG d   1       3.709  -1.000  -6.029  0.00  0.00     0.029 H 
ENDROOT
BRANCH   1   4
ATOM      4  C   LIG d   1       2.310   0.463  -5.270  0.00  0.00     0.012 C 
ATOM      5  H   LIG d   1       1.307   0.552  -5.713  0.00  0.00     0.046 H 
ATOM      6  H   LIG d   1       2.634   1.444  -4.895  0.00  0.00     0.046 H 
BRANCH   4   7
ATOM      7  N   LIG d   1       2.271  -0.495  -4.162  0.00  0.00    -0.317 N 
ATOM      8  H   LIG d   1       1.492  -1.270  -4.133  0.00  0.00     0.149 HD
BRANCH   7   9
ATOM      9  C   LIG d   1       3.208  -0.424  -3.157  0.00  0.00     0.099 C 
ATOM     10  N   LIG d   1       3.580   0.737  -2.694  0.00  0.00    -0.257 N 
ATOM     11  H   LIG d   1       3.145   1.660  -3.106  0.00  0.00     0.444 HD
ATOM     12  S   LIG d   1       3.906  -1.901  -2.497  0.00  0.00    -0.671 SA
BRANCH  10  13
ATOM     13  C   LIG d   1       4.578   0.813  -1.623  0.00  0.00     0.133 C 
ATOM     14  H   LIG d   1       5.545   0.447  -1.998  0.00  0.00     0.099 H 
ATOM     15  H   LIG d   1       4.254   0.191  -0.775  0.00  0.00     0.099 H 
ATOM     16  H   LIG d   1       4.684   1.858  -1.294  0.00  0.00     0.099 H 
ENDBRANCH  10  13
ENDBRANCH   7   9
ENDBRANCH   4   7
ENDBRANCH   1   4
BRANCH   1  17
ATOM     17  C   LIG d   1       2.569  -0.177  -7.671  0.00  0.00     0.014 C 
ATOM     18  H   LIG d   1       2.715  -1.197  -8.056  0.00  0.00     0.035 H 
ATOM     19  H   LIG d   1       1.495   0.011  -7.527  0.00  0.00     0.035 H 
BRANCH  17  20
ATOM     20  C   LIG d   1       3.125   0.817  -8.658  0.00  0.00     0.141 A 
ATOM     21  N   LIG d   1       3.541   2.060  -8.376  0.00  0.00    -0.247 N 
ATOM     22  H   LIG d   1       3.491   2.436  -7.343  0.00  0.00     0.310 HD
ATOM     23  C   LIG d   1       3.961   2.633  -9.471  0.00  0.00     0.242 A 
ATOM     24  N   LIG d   1       3.814   1.766 -10.496  0.00  0.00    -0.250 N 
ATOM     25  H   LIG d   1       4.340   3.543  -9.635  0.00  0.00     0.158 H 
ATOM     26  C   LIG d   1       3.285   0.615  -9.980  0.00  0.00     0.131 A 
ATOM     27  H   LIG d   1       4.034   1.837 -11.571  0.00  0.00     0.310 HD
ATOM     28  H   LIG d   1       3.024  -0.261 -10.386  0.00  0.00     0.112 H 
ENDBRANCH  17  20
ENDBRANCH   1  17
TORSDOF 6
ENDMDL
MODEL 4
REMARK VINA RESULT:      -4.3      2.083      2.712
REMARK  6 active torsions:
REMARK  status: ('A' for Active; 'I' for Inactive)
REMARK    1  A    between atoms: C_1  and  N_2 
REMARK    2  A    between atoms: C_3  and  N_4 
REMARK    3  A    between atoms: N_4  and  C_5 
REMARK    4  A    between atoms: C_5  and  C_6 
REMARK    5  A    between atoms: C_6  and  C_7 
REMARK    6  A    between atoms: C_7  and  C_8 
ROOT
ATOM      1  C   LIG d   1       6.076   1.115  -3.058  0.00  0.00    -0.030 C 
ATOM      2  H   LIG d   1       6.889   1.399  -2.374  0.00  0.00     0.029 H 
ATOM      3  H   LIG d   1       5.784   1.987  -3.664  0.00  0.00     0.029 H 
ENDROOT
BRANCH   1   4
ATOM      4  C   LIG d   1       6.554  -0.009  -3.979  0.00  0.00     0.012 C 
ATOM      5  H   LIG d   1       7.231   0.404  -4.742  0.00  0.00     0.046 H 
ATOM      6  H   LIG d   1       5.687  -0.473  -4.471  0.00  0.00     0.046 H 
BRANCH   4   7
ATOM      7  N   LIG d   1       7.265  -1.018  -3.190  0.00  0.00    -0.317 N 
ATOM      8  H   LIG d   1       7.673  -0.756  -2.203  0.00  0.00     0.149 HD
BRANCH   7   9
ATOM      9  C   LIG d   1       7.424  -2.292  -3.684  0.00  0.00     0.099 C 
ATOM     10  N   LIG d   1       8.520  -2.954  -3.439  0.00  0.00    -0.257 N 
ATOM     11  H   LIG d   1       9.318  -2.494  -2.837  0.00  0.00     0.444 HD
ATOM     12  S   LIG d   1       6.146  -3.028  -4.648  0.00  0.00    -0.671 SA
BRANCH  10  13
ATOM     13  C   LIG d   1       8.689  -4.311  -3.965  0.00  0.00     0.133 C 
ATOM     14  H   LIG d   1       8.681  -5.030  -3.132  0.00  0.00     0.099 H 
ATOM     15  H   LIG d   1       9.648  -4.380  -4.500  0.00  0.00     0.099 H 
ATOM     16  H   LIG d   1       7.865  -4.542  -4.657  0.00  0.00     0.099 H 
ENDBRANCH  10  13
ENDBRANCH   7   9
ENDBRANCH   4   7
ENDBRANCH   1   4
BRANCH   1  17
ATOM     17  C   LIG d   1       4.871   0.633  -2.248  0.00  0.00     0.014 C 
ATOM     18  H   LIG d   1       5.144  -0.275  -1.689  0.00  0.00     0.035 H 
ATOM     19  H   LIG d   1       4.564   1.420  -1.544  0.00  0.00     0.035 H 
BRANCH  17  20
ATOM     20  C   LIG d   1       3.730   0.322  -3.182  0.00  0.00     0.141 A 
ATOM     21  N   LIG d   1       3.290   1.107  -4.178  0.00  0.00    -0.247 N 
ATOM     22  H   LIG d   1       3.774   2.077  -4.369  0.00  0.00     0.310 HD
ATOM     23  C   LIG d   1       2.291   0.521  -4.778  0.00  0.00     0.242 A 
ATOM     24  N   LIG d   1       2.055  -0.662  -4.172  0.00  0.00    -0.250 N 
ATOM     25  H   LIG d   1       1.729   0.806  -5.555  0.00  0.00     0.158 H 
ATOM     26  C   LIG d   1       2.968  -0.788  -3.160  0.00  0.00     0.131 A 
ATOM     27  H   LIG d   1       1.318  -1.459  -4.349  0.00  0.00     0.310 HD
ATOM     28  H   LIG d   1       3.141  -1.499  -2.478  0.00  0.00     0.112 H 
ENDBRANCH  17  20
ENDBRANCH   1  17
TORSDOF 6
ENDMDL
MODEL 5
REMARK VINA RESULT:      -4.2      2.491      3.682
REMARK  6 active torsions:
REMARK  status: ('A' for Active; 'I' for Inactive)
REMARK    1  A    between atoms: C_1  and  N_2 
REMARK    2  A    between atoms: C_3  and  N_4 
REMARK    3  A    between atoms: N_4  and  C_5 
REMARK    4  A    between atoms: C_5  and  C_6 
REMARK    5  A    between atoms: C_6  and  C_7 
REMARK    6  A    between atoms: C_7  and  C_8 
ROOT
ATOM      1  C   LIG d   1       3.171   0.197  -3.428  0.00  0.00    -0.030 C 
ATOM      2  H   LIG d   1       4.173   0.548  -3.717  0.00  0.00     0.029 H 
ATOM      3  H   LIG d   1       2.760   0.859  -2.651  0.00  0.00     0.029 H 
ENDROOT
BRANCH   1   4
ATOM      4  C   LIG d   1       2.253   0.215  -4.651  0.00  0.00     0.012 C 
ATOM      5  H   LIG d   1       1.312   0.726  -4.397  0.00  0.00     0.046 H 
ATOM      6  H   LIG d   1       2.037  -0.817  -4.963  0.00  0.00     0.046 H 
BRANCH   4   7
ATOM      7  N   LIG d   1       2.914   0.927  -5.748  0.00  0.00    -0.317 N 
ATOM      8  H   LIG d   1       3.226   1.974  -5.615  0.00  0.00     0.149 HD
BRANCH   7   9
ATOM      9  C   LIG d   1       3.143   0.288  -6.945  0.00  0.00     0.099 C 
ATOM     10  N   LIG d   1       3.348  -1.000  -6.967  0.00  0.00    -0.257 N 
ATOM     11  H   LIG d   1       3.339  -1.575  -6.029  0.00  0.00     0.444 HD
ATOM     12  S   LIG d   1       3.158   1.209  -8.447  0.00  0.00    -0.671 SA
BRANCH  10  13
ATOM     13  C   LIG d   1       3.592  -1.680  -8.242  0.00  0.00     0.133 C 
ATOM     14  H   LIG d   1       3.919  -0.946  -8.992  0.00  0.00     0.099 H 
ATOM     15  H   LIG d   1       2.664  -2.164  -8.582  0.00  0.00     0.099 H 
ATOM     16  H   LIG d   1       4.375  -2.442  -8.107  0.00  0.00     0.099 H 
ENDBRANCH  10  13
ENDBRANCH   7   9
ENDBRANCH   4   7
ENDBRANCH   1   4
BRANCH   1  17
ATOM     17  C   LIG d   1       3.266  -1.229  -2.883  0.00  0.00     0.014 C 
ATOM     18  H   LIG d   1       3.562  -1.199  -1.824  0.00  0.00     0.035 H 
ATOM     19  H   LIG d   1       2.288  -1.723  -2.977  0.00  0.00     0.035 H 
BRANCH  17  20
ATOM     20  C   LIG d   1       4.295  -1.999  -3.670  0.00  0.00     0.141 A 
ATOM     21  N   LIG d   1       4.086  -3.149  -4.328  0.00  0.00    -0.247 N 
ATOM     22  H   LIG d   1       3.088  -3.613  -4.321  0.00  0.00     0.310 HD
ATOM     23  C   LIG d   1       5.197  -3.528  -4.897  0.00  0.00     0.242 A 
ATOM     24  N   LIG d   1       6.160  -2.627  -4.608  0.00  0.00    -0.250 N 
ATOM     25  H   LIG d   1       5.409  -4.324  -5.464  0.00  0.00     0.158 H 
ATOM     26  C   LIG d   1       5.588  -1.657  -3.831  0.00  0.00     0.131 A 
ATOM     27  H   LIG d   1       7.225  -2.560  -4.876  0.00  0.00     0.310 HD
ATOM     28  H   LIG d   1       5.940  -0.823  -3.407  0.00  0.00     0.112 H 
ENDBRANCH  17  20
ENDBRANCH   1  17
TORSDOF 6
ENDMDL
MODEL 6
REMARK VINA RESULT:      -4.1      1.970      2.402
REMARK  6 active torsions:
REMARK  status: ('A' for Active; 'I' for Inactive)
REMARK    1  A    between atoms: C_1  and  N_2 
REMARK    2  A    between atoms: C_3  and  N_4 
REMARK    3  A    between atoms: N_4  and  C_5 
REMARK    4  A    between atoms: C_5  and  C_6 
REMARK    5  A    between atoms: C_6  and  C_7 
REMARK    6  A    between atoms: C_7  and  C_8 
ROOT
ATOM      1  C   LIG d   1       4.101  -2.410  -2.706  0.00  0.00    -0.030 C 
ATOM      2  H   LIG d   1       3.256  -2.778  -3.307  0.00  0.00     0.029 H 
ATOM      3  H   LIG d   1       4.289  -3.104  -1.874  0.00  0.00     0.029 H 
ENDROOT
BRANCH   1   4
ATOM      4  C   LIG d   1       5.350  -2.319  -3.585  0.00  0.00     0.012 C 
ATOM      5  H   LIG d   1       6.202  -2.778  -3.062  0.00  0.00     0.046 H 
ATOM      6  H   LIG d   1       5.574  -1.263  -3.795  0.00  0.00     0.046 H 
BRANCH   4   7
ATOM      7  N   LIG d   1       5.113  -3.027  -4.846  0.00  0.00    -0.317 N 
ATOM      8  H   LIG d   1       5.061  -4.126  -4.858  0.00  0.00     0.149 HD
BRANCH   7   9
ATOM      9  C   LIG d   1       4.957  -2.319  -6.015  0.00  0.00     0.099 C 
ATOM     10  N   LIG d   1       4.019  -2.651  -6.858  0.00  0.00    -0.257 N 
ATOM     11  H   LIG d   1       3.353  -3.498  -6.635  0.00  0.00     0.444 HD
ATOM     12  S   LIG d   1       6.023  -0.962  -6.372  0.00  0.00    -0.671 SA
BRANCH  10  13
ATOM     13  C   LIG d   1       3.852  -1.896  -8.103  0.00  0.00     0.133 C 
ATOM     14  H   LIG d   1       4.818  -1.832  -8.624  0.00  0.00     0.099 H 
ATOM     15  H   LIG d   1       3.492  -0.883  -7.871  0.00  0.00     0.099 H 
ATOM     16  H   LIG d   1       3.121  -2.408  -8.747  0.00  0.00     0.099 H 
ENDBRANCH  10  13
ENDBRANCH   7   9
ENDBRANCH   4   7
ENDBRANCH   1   4
BRANCH   1  17
ATOM     17  C   LIG d   1       3.768  -1.025  -2.149  0.00  0.00     0.014 C 
ATOM     18  H   LIG d   1       2.997  -1.118  -1.369  0.00  0.00     0.035 H 
ATOM     19  H   LIG d   1       4.675  -0.576  -1.718  0.00  0.00     0.035 H 
BRANCH  17  20
ATOM     20  C   LIG d   1       3.253  -0.147  -3.261  0.00  0.00     0.141 A 
ATOM     21  N   LIG d   1       2.455  -0.536  -4.267  0.00  0.00    -0.247 N 
ATOM     22  H   LIG d   1       2.118  -1.582  -4.330  0.00  0.00     0.310 HD
ATOM     23  C   LIG d   1       2.209   0.486  -5.041  0.00  0.00     0.242 A 
ATOM     24  N   LIG d   1       2.858   1.565  -4.552  0.00  0.00    -0.250 N 
ATOM     25  H   LIG d   1       1.657   0.567  -5.870  0.00  0.00     0.158 H 
ATOM     26  C   LIG d   1       3.519   1.163  -3.423  0.00  0.00     0.131 A 
ATOM     27  H   LIG d   1       2.927   2.610  -4.888  0.00  0.00     0.310 HD
ATOM     28  H   LIG d   1       4.108   1.638  -2.769  0.00  0.00     0.112 H 
ENDBRANCH  17  20
ENDBRANCH   1  17
TORSDOF 6
ENDMDL
MODEL 7
REMARK VINA RESULT:      -4.0      3.316      3.900
REMARK  6 active torsions:
REMARK  status: ('A' for Active; 'I' for Inactive)
REMARK    1  A    between atoms: C_1  and  N_2 
REMARK    2  A    between atoms: C_3  and  N_4 
REMARK    3  A    between atoms: N_4  and  C_5 
REMARK    4  A    between atoms: C_5  and  C_6 
REMARK    5  A    between atoms: C_6  and  C_7 
REMARK    6  A    between atoms: C_7  and  C_8 
ROOT
ATOM      1  C   LIG d   1       5.317  -2.636  -3.767  0.00  0.00    -0.030 C 
ATOM      2  H   LIG d   1       5.735  -3.589  -3.410  0.00  0.00     0.029 H 
ATOM      3  H   LIG d   1       6.051  -1.831  -3.612  0.00  0.00     0.029 H 
ENDROOT
BRANCH   1   4
ATOM      4  C   LIG d   1       4.993  -2.749  -5.258  0.00  0.00     0.012 C 
ATOM      5  H   LIG d   1       5.892  -3.072  -5.806  0.00  0.00     0.046 H 
ATOM      6  H   LIG d   1       4.665  -1.771  -5.638  0.00  0.00     0.046 H 
BRANCH   4   7
ATOM      7  N   LIG d   1       3.924  -3.732  -5.453  0.00  0.00    -0.317 N 
ATOM      8  H   LIG d   1       3.019  -3.691  -4.829  0.00  0.00     0.149 HD
BRANCH   7   9
ATOM      9  C   LIG d   1       4.053  -4.707  -6.415  0.00  0.00     0.099 C 
ATOM     10  N   LIG d   1       3.469  -4.562  -7.572  0.00  0.00    -0.257 N 
ATOM     11  H   LIG d   1       2.874  -3.660  -7.779  0.00  0.00     0.444 HD
ATOM     12  S   LIG d   1       5.006  -6.152  -6.084  0.00  0.00    -0.671 SA
BRANCH  10  13
ATOM     13  C   LIG d   1       3.606  -5.600  -8.597  0.00  0.00     0.133 C 
ATOM     14  H   LIG d   1       4.285  -5.247  -9.387  0.00  0.00     0.099 H 
ATOM     15  H   LIG d   1       2.620  -5.819  -9.031  0.00  0.00     0.099 H 
ATOM     16  H   LIG d   1       4.018  -6.514  -8.141  0.00  0.00     0.099 H 
ENDBRANCH  10  13
ENDBRANCH   7   9
ENDBRANCH   4   7
ENDBRANCH   1   4
BRANCH   1  17
ATOM     17  C   LIG d   1       4.038  -2.315  -2.992  0.00  0.00     0.014 C 
ATOM     18  H   LIG d   1       3.162  -2.604  -3.591  0.00  0.00     0.035 H 
ATOM     19  H   LIG d   1       4.035  -2.874  -2.044  0.00  0.00     0.035 H 
BRANCH  17  20
ATOM     20  C   LIG d   1       3.984  -0.837  -2.703  0.00  0.00     0.141 A 
ATOM     21  N   LIG d   1       4.629  -0.203  -1.712  0.00  0.00    -0.247 N 
ATOM     22  H   LIG d   1       5.268  -0.771  -1.019  0.00  0.00     0.310 HD
ATOM     23  C   LIG d   1       4.352   1.071  -1.765  0.00  0.00     0.242 A 
ATOM     24  N   LIG d   1       3.507   1.288  -2.795  0.00  0.00    -0.250 N 
ATOM     25  H   LIG d   1       4.655   1.836  -1.196  0.00  0.00     0.158 H 
ATOM     26  C   LIG d   1       3.274   0.078  -3.390  0.00  0.00     0.131 A 
ATOM     27  H   LIG d   1       3.027   2.197  -3.189  0.00  0.00     0.310 HD
ATOM     28  H   LIG d   1       2.718  -0.205  -4.171  0.00  0.00     0.112 H 
ENDBRANCH  17  20
ENDBRANCH   1  17
TORSDOF 6
ENDMDL
MODEL 8
REMARK VINA RESULT:      -3.9      9.384     10.918
REMARK  6 active torsions:
REMARK  status: ('A' for Active; 'I' for Inactive)
REMARK    1  A    between atoms: C_1  and  N_2 
REMARK    2  A    between atoms: C_3  and  N_4 
REMARK    3  A    between atoms: N_4  and  C_5 
REMARK    4  A    between atoms: C_5  and  C_6 
REMARK    5  A    between atoms: C_6  and  C_7 
REMARK    6  A    between atoms: C_7  and  C_8 
ROOT
ATOM      1  C   LIG d   1       9.185   8.280  -1.177  0.00  0.00    -0.030 C 
ATOM      2  H   LIG d   1       8.268   7.685  -1.051  0.00  0.00     0.029 H 
ATOM      3  H   LIG d   1       9.447   8.329  -2.245  0.00  0.00     0.029 H 
ENDROOT
BRANCH   1   4
ATOM      4  C   LIG d   1       8.953   9.695  -0.644  0.00  0.00     0.012 C 
ATOM      5  H   LIG d   1       9.920  10.159  -0.401  0.00  0.00     0.046 H 
ATOM      6  H   LIG d   1       8.331   9.648   0.262  0.00  0.00     0.046 H 
BRANCH   4   7
ATOM      7  N   LIG d   1       8.270  10.495  -1.664  0.00  0.00    -0.317 N 
ATOM      8  H   LIG d   1       7.177  10.618  -1.626  0.00  0.00     0.149 HD
BRANCH   7   9
ATOM      9  C   LIG d   1       8.994  11.093  -2.669  0.00  0.00     0.099 C 
ATOM     10  N   LIG d   1       8.624  10.951  -3.912  0.00  0.00    -0.257 N 
ATOM     11  H   LIG d   1       7.733  10.354  -4.156  0.00  0.00     0.444 HD
ATOM     12  S   LIG d   1      10.421  12.050  -2.277  0.00  0.00    -0.671 SA
BRANCH  10  13
ATOM     13  C   LIG d   1       9.396  11.588  -4.983  0.00  0.00     0.133 C 
ATOM     14  H   LIG d   1       8.880  11.441  -5.943  0.00  0.00     0.099 H 
ATOM     15  H   LIG d   1      10.398  11.137  -5.031  0.00  0.00     0.099 H 
ATOM     16  H   LIG d   1       9.488  12.666  -4.777  0.00  0.00     0.099 H 
ENDBRANCH  10  13
ENDBRANCH   7   9
ENDBRANCH   4   7
ENDBRANCH   1   4
BRANCH   1  17
ATOM     17  C   LIG d   1      10.329   7.624  -0.402  0.00  0.00     0.014 C 
ATOM     18  H   LIG d   1      11.238   8.237  -0.500  0.00  0.00     0.035 H 
ATOM     19  H   LIG d   1      10.053   7.544   0.660  0.00  0.00     0.035 H 
BRANCH  17  20
ATOM     20  C   LIG d   1      10.589   6.248  -0.959  0.00  0.00     0.141 A 
ATOM     21  N   LIG d   1      10.028   5.723  -2.058  0.00  0.00    -0.247 N 
ATOM     22  H   LIG d   1       9.304   6.312  -2.641  0.00  0.00     0.310 HD
ATOM     23  C   LIG d   1      10.487   4.515  -2.241  0.00  0.00     0.242 A 
ATOM     24  N   LIG d   1      11.356   4.228  -1.248  0.00  0.00    -0.250 N 
ATOM     25  H   LIG d   1      10.297   3.838  -2.951  0.00  0.00     0.158 H 
ATOM     26  C   LIG d   1      11.421   5.327  -0.436  0.00  0.00     0.131 A 
ATOM     27  H   LIG d   1      11.958   3.337  -1.018  0.00  0.00     0.310 HD
ATOM     28  H   LIG d   1      11.934   5.533   0.398  0.00  0.00     0.112 H 
ENDBRANCH  17  20
ENDBRANCH   1  17
TORSDOF 6
ENDMDL
MODEL 9
REMARK VINA RESULT:      -3.9      2.455      3.561
REMARK  6 active torsions:
REMARK  status: ('A' for Active; 'I' for Inactive)
REMARK    1  A    between atoms: C_1  and  N_2 
REMARK    2  A    between atoms: C_3  and  N_4 
REMARK    3  A    between atoms: N_4  and  C_5 
REMARK    4  A    between atoms: C_5  and  C_6 
REMARK    5  A    between atoms: C_6  and  C_7 
REMARK    6  A    between atoms: C_7  and  C_8 
ROOT
ATOM      1  C   LIG d   1       2.598   0.597  -5.400  0.00  0.00    -0.030 C 
ATOM      2  H   LIG d   1       3.167   1.435  -4.971  0.00  0.00     0.029 H 
ATOM      3  H   LIG d   1       1.779   0.988  -6.021  0.00  0.00     0.029 H 
ENDROOT
BRANCH   1   4
ATOM      4  C   LIG d   1       3.527  -0.260  -6.262  0.00  0.00     0.012 C 
ATOM      5  H   LIG d   1       2.940  -1.037  -6.775  0.00  0.00     0.046 H 
ATOM      6  H   LIG d   1       4.285  -0.736  -5.624  0.00  0.00     0.046 H 
BRANCH   4   7
ATOM      7  N   LIG d   1       4.189   0.587  -7.258  0.00  0.00    -0.317 N 
ATOM      8  H   LIG d   1       5.030   1.231  -6.960  0.00  0.00     0.149 HD
BRANCH   7   9
ATOM      9  C   LIG d   1       3.758   0.579  -8.564  0.00  0.00     0.099 C 
ATOM     10  N   LIG d   1       4.378   1.297  -9.460  0.00  0.00    -0.257 N 
ATOM     11  H   LIG d   1       5.245   1.909  -9.171  0.00  0.00     0.444 HD
ATOM     12  S   LIG d   1       2.369  -0.402  -9.028  0.00  0.00    -0.671 SA
BRANCH  10  13
ATOM     13  C   LIG d   1       3.919   1.288 -10.852  0.00  0.00     0.133 C 
ATOM     14  H   LIG d   1       4.704   1.706 -11.498  0.00  0.00     0.099 H 
ATOM     15  H   LIG d   1       3.007   1.896 -10.941  0.00  0.00     0.099 H 
ATOM     16  H   LIG d   1       3.702   0.253 -11.159  0.00  0.00     0.099 H 
ENDBRANCH  10  13
ENDBRANCH   7   9
ENDBRANCH   4   7
ENDBRANCH   1   4
BRANCH   1  17
ATOM     17  C   LIG d   1       2.018  -0.258  -4.272  0.00  0.00     0.014 C 
ATOM     18  H   LIG d   1       1.133   0.241  -3.850  0.00  0.00     0.035 H 
ATOM     19  H   LIG d   1       1.731  -1.243  -4.669  0.00  0.00     0.035 H 
BRANCH  17  20
ATOM     20  C   LIG d   1       3.055  -0.436  -3.192  0.00  0.00     0.141 A 
ATOM     21  N   LIG d   1       3.522  -1.606  -2.733  0.00  0.00    -0.247 N 
ATOM     22  H   LIG d   1       3.144  -2.552  -3.149  0.00  0.00     0.310 HD
ATOM     23  C   LIG d   1       4.410  -1.380  -1.803  0.00  0.00     0.242 A 
ATOM     24  N   LIG d   1       4.530  -0.046  -1.634  0.00  0.00    -0.250 N 
ATOM     25  H   LIG d   1       4.961  -2.006  -1.251  0.00  0.00     0.158 H 
ATOM     26  C   LIG d   1       3.671   0.553  -2.516  0.00  0.00     0.131 A 
ATOM     27  H   LIG d   1       5.149   0.570  -0.966  0.00  0.00     0.310 HD
ATOM     28  H   LIG d   1       3.450   1.507  -2.716  0.00  0.00     0.112 H 
ENDBRANCH  17  20
ENDBRANCH   1  17
TORSDOF 6
ENDMDL
MODEL 10
REMARK VINA RESULT:      -3.7      1.973      2.796
REMARK  6 active torsions:
REMARK  status: ('A' for Active; 'I' for Inactive)
REMARK    1  A    between atoms: C_1  and  N_2 
REMARK    2  A    between atoms: C_3  and  N_4 
REMARK    3  A    between atoms: N_4  and  C_5 
REMARK    4  A    between atoms: C_5  and  C_6 
REMARK    5  A    between atoms: C_6  and  C_7 
REMARK    6  A    between atoms: C_7  and  C_8 
ROOT
ATOM      1  C   LIG d   1       4.507  -2.564  -3.453  0.00  0.00    -0.030 C 
ATOM      2  H   LIG d   1       3.965  -2.365  -4.390  0.00  0.00     0.029 H 
ATOM      3  H   LIG d   1       4.408  -3.627  -3.190  0.00  0.00     0.029 H 
ENDROOT
BRANCH   1   4
ATOM      4  C   LIG d   1       5.986  -2.219  -3.637  0.00  0.00     0.012 C 
ATOM      5  H   LIG d   1       6.562  -3.143  -3.792  0.00  0.00     0.046 H 
ATOM      6  H   LIG d   1       6.356  -1.703  -2.739  0.00  0.00     0.046 H 
BRANCH   4   7
ATOM      7  N   LIG d   1       6.143  -1.345  -4.802  0.00  0.00    -0.317 N 
ATOM      8  H   LIG d   1       5.472  -1.456  -5.667  0.00  0.00     0.149 HD
BRANCH   7   9
ATOM      9  C   LIG d   1       7.129  -0.386  -4.815  0.00  0.00     0.099 C 
ATOM     10  N   LIG d   1       6.851   0.840  -4.465  0.00  0.00    -0.257 N 
ATOM     11  H   LIG d   1       5.829   1.106  -4.160  0.00  0.00     0.444 HD
ATOM     12  S   LIG d   1       8.767  -0.813  -5.304  0.00  0.00    -0.671 SA
BRANCH  10  13
ATOM     13  C   LIG d   1       7.902   1.861  -4.479  0.00  0.00     0.133 C 
ATOM     14  H   LIG d   1       8.714   1.541  -5.148  0.00  0.00     0.099 H 
ATOM     15  H   LIG d   1       8.296   1.995  -3.461  0.00  0.00     0.099 H 
ATOM     16  H   LIG d   1       7.483   2.813  -4.839  0.00  0.00     0.099 H 
ENDBRANCH  10  13
ENDBRANCH   7   9
ENDBRANCH   4   7
ENDBRANCH   1   4
BRANCH   1  17
ATOM     17  C   LIG d   1       3.919  -1.705  -2.331  0.00  0.00     0.014 C 
ATOM     18  H   LIG d   1       2.978  -2.154  -1.980  0.00  0.00     0.035 H 
ATOM     19  H   LIG d   1       4.635  -1.653  -1.497  0.00  0.00     0.035 H 
BRANCH  17  20
ATOM     20  C   LIG d   1       3.650  -0.316  -2.850  0.00  0.00     0.141 A 
ATOM     21  N   LIG d   1       2.992  -0.010  -3.978  0.00  0.00    -0.247 N 
ATOM     22  H   LIG d   1       2.593  -0.811  -4.618  0.00  0.00     0.310 HD
ATOM     23  C   LIG d   1       2.946   1.288  -4.110  0.00  0.00     0.242 A 
ATOM     24  N   LIG d   1       3.589   1.852  -3.065  0.00  0.00    -0.250 N 
ATOM     25  H   LIG d   1       2.538   1.865  -4.818  0.00  0.00     0.158 H 
ATOM     26  C   LIG d   1       4.035   0.835  -2.266  0.00  0.00     0.131 A 
ATOM     27  H   LIG d   1       3.787   2.898  -2.787  0.00  0.00     0.310 HD
ATOM     28  H   LIG d   1       4.547   0.813  -1.408  0.00  0.00     0.112 H 
ENDBRANCH  17  20
ENDBRANCH   1  17
TORSDOF 6
ENDMDL
