MODEL 1
REMARK VINA RESULT:      -6.1      0.000      0.000
REMARK  18 active torsions:
REMARK  status: ('A' for Active; 'I' for Inactive)
REMARK    1  A    between atoms: C_1  and  C_2 
REMARK    2  A    between atoms: C_3  and  C_4 
REMARK    3  A    between atoms: C_5  and  C_6 
REMARK    4  A    between atoms: C_7  and  C_8 
REMARK    5  A    between atoms: C_8  and  C_10 
REMARK    6  A    between atoms: C_8  and  O_35 
REMARK    7  A    between atoms: C_10  and  C_12 
REMARK    8  A    between atoms: C_10  and  O_18 
REMARK    9  A    between atoms: C_13  and  C_14 
REMARK   10  A    between atoms: C_14  and  C_15 
REMARK   11  A    between atoms: C_15  and  C_16 
REMARK   12  A    between atoms: C_16  and  O_17 
REMARK   13  A    between atoms: O_18  and  C_19 
REMARK   14  A    between atoms: C_21  and  O_34 
REMARK   15  A    between atoms: C_23  and  O_33 
REMARK   16  A    between atoms: C_25  and  O_32 
REMARK   17  A    between atoms: C_27  and  C_30 
REMARK   18  A    between atoms: C_30  and  O_31 
ROOT
ATOM      1  C   LIG d   1      10.004   3.890  -4.094  0.00  0.00     0.117 C 
ATOM      2  H   LIG d   1       9.142   4.397  -4.527  0.00  0.00     0.068 H 
ENDROOT
BRANCH   1   3
ATOM      3  C   LIG d   1       9.859   2.380  -4.288  0.00  0.00     0.146 C 
ATOM      4  H   LIG d   1      10.022   2.131  -5.336  0.00  0.00     0.076 H 
BRANCH   3   5
ATOM      5  C   LIG d   1       8.505   1.962  -3.890  0.00  0.00    -0.054 C 
ATOM      6  C   LIG d   1       7.425   1.629  -3.571  0.00  0.00    -0.012 C 
BRANCH   6   7
ATOM      7  C   LIG d   1       6.158   1.238  -3.199  0.00  0.00    -0.010 C 
ATOM      8  C   LIG d   1       5.078   0.904  -2.880  0.00  0.00    -0.061 C 
BRANCH   8   9
ATOM      9  C   LIG d   1       3.762   0.496  -2.492  0.00  0.00    -0.015 C 
ATOM     10  C   LIG d   1       3.471  -0.800  -2.382  0.00  0.00    -0.079 C 
ATOM     11  H   LIG d   1       2.478  -1.108  -2.090  0.00  0.00     0.058 H 
ATOM     12  H   LIG d   1       3.004   1.238  -2.290  0.00  0.00     0.071 H 
BRANCH  10  13
ATOM     13  C   LIG d   1       4.529  -1.836  -2.664  0.00  0.00    -0.046 C 
ATOM     14  H   LIG d   1       5.351  -1.717  -1.957  0.00  0.00     0.027 H 
ATOM     15  H   LIG d   1       4.099  -2.831  -2.558  0.00  0.00     0.027 H 
ATOM     16  H   LIG d   1       4.902  -1.708  -3.681  0.00  0.00     0.027 H 
ENDBRANCH  10  13
ENDBRANCH   8   9
ENDBRANCH   6   7
ENDBRANCH   3   5
BRANCH   3  17
ATOM     17  O   LIG d   1      10.823   1.701  -3.481  0.00  0.00    -0.376 OA
ATOM     18  H   LIG d   1      10.516   0.853  -3.133  0.00  0.00     0.211 HD
ENDBRANCH   3  17
ENDBRANCH   1   3
BRANCH   1  19
ATOM     19  C   LIG d   1      11.261   4.366  -4.777  0.00  0.00    -0.056 C 
ATOM     20  C   LIG d   1      11.180   5.124  -5.842  0.00  0.00    -0.085 C 
ATOM     21  H   LIG d   1      12.080   5.509  -6.299  0.00  0.00     0.057 H 
ATOM     22  H   LIG d   1      12.227   4.081  -4.388  0.00  0.00     0.060 H 
BRANCH  20  23
ATOM     23  C   LIG d   1       9.834   5.459  -6.429  0.00  0.00    -0.033 C 
ATOM     24  H   LIG d   1       9.711   4.936  -7.377  0.00  0.00     0.031 H 
ATOM     25  H   LIG d   1       9.050   5.150  -5.739  0.00  0.00     0.031 H 
BRANCH  23  26
ATOM     26  C   LIG d   1       9.741   6.969  -6.663  0.00  0.00    -0.026 C 
ATOM     27  H   LIG d   1      10.657   7.320  -7.137  0.00  0.00     0.029 H 
ATOM     28  H   LIG d   1       8.890   7.184  -7.310  0.00  0.00     0.029 H 
BRANCH  26  29
ATOM     29  C   LIG d   1       9.555   7.682  -5.322  0.00  0.00     0.044 C 
ATOM     30  H   LIG d   1      10.484   7.635  -4.753  0.00  0.00     0.056 H 
ATOM     31  H   LIG d   1       9.290   8.724  -5.498  0.00  0.00     0.056 H 
BRANCH  29  32
ATOM     32  O   LIG d   1       8.511   7.043  -4.584  0.00  0.00    -0.395 OA
ATOM     33  H   LIG d   1       7.690   7.553  -4.541  0.00  0.00     0.209 HD
ENDBRANCH  29  32
ENDBRANCH  26  29
ENDBRANCH  23  26
ENDBRANCH  20  23
ENDBRANCH   1  19
BRANCH   1  34
ATOM     34  O   LIG d   1      10.079   4.186  -2.698  0.00  0.00    -0.338 OA
BRANCH  34  35
ATOM     35  C   LIG d   1      10.725   5.426  -2.401  0.00  0.00     0.189 C 
ATOM     36  H   LIG d   1      11.195   5.817  -3.303  0.00  0.00     0.094 H 
ATOM     37  O   LIG d   1       9.757   6.365  -1.924  0.00  0.00    -0.341 OA
ATOM     38  C   LIG d   1      10.296   7.653  -1.618  0.00  0.00     0.113 C 
ATOM     39  C   LIG d   1      11.344   7.518  -0.511  0.00  0.00     0.112 C 
ATOM     40  H   LIG d   1      10.761   8.073  -2.511  0.00  0.00     0.065 H 
ATOM     41  C   LIG d   1      12.436   6.545  -0.968  0.00  0.00     0.114 C 
ATOM     42  H   LIG d   1      11.788   8.492  -0.309  0.00  0.00     0.065 H 
ATOM     43  C   LIG d   1      11.791   5.202  -1.325  0.00  0.00     0.134 C 
ATOM     44  H   LIG d   1      12.942   6.950  -1.844  0.00  0.00     0.065 H 
ATOM     45  H   LIG d   1      12.552   4.521  -1.704  0.00  0.00     0.067 H 
BRANCH  38  46
ATOM     46  C   LIG d   1       9.171   8.577  -1.146  0.00  0.00     0.073 C 
ATOM     47  H   LIG d   1       9.465   9.060  -0.215  0.00  0.00     0.058 H 
ATOM     48  H   LIG d   1       8.983   9.336  -1.906  0.00  0.00     0.058 H 
BRANCH  46  49
ATOM     49  O   LIG d   1       7.983   7.811  -0.932  0.00  0.00    -0.392 OA
ATOM     50  H   LIG d   1       7.861   7.522  -0.018  0.00  0.00     0.209 HD
ENDBRANCH  46  49
ENDBRANCH  38  46
BRANCH  39  51
ATOM     51  O   LIG d   1      10.726   7.018   0.676  0.00  0.00    -0.387 OA
ATOM     52  H   LIG d   1       9.789   7.246   0.756  0.00  0.00     0.210 HD
ENDBRANCH  39  51
BRANCH  41  53
ATOM     53  O   LIG d   1      13.382   6.356   0.085  0.00  0.00    -0.386 OA
ATOM     54  H   LIG d   1      14.253   6.063  -0.216  0.00  0.00     0.210 HD
ENDBRANCH  41  53
BRANCH  43  55
ATOM     55  O   LIG d   1      11.183   4.639  -0.160  0.00  0.00    -0.384 OA
ATOM     56  H   LIG d   1      11.596   3.819   0.141  0.00  0.00     0.210 HD
ENDBRANCH  43  55
ENDBRANCH  34  35
ENDBRANCH   1  34
TORSDOF 18
ENDMDL
MODEL 2
REMARK VINA RESULT:      -5.8      4.864      8.362
REMARK  18 active torsions:
REMARK  status: ('A' for Active; 'I' for Inactive)
REMARK    1  A    between atoms: C_1  and  C_2 
REMARK    2  A    between atoms: C_3  and  C_4 
REMARK    3  A    between atoms: C_5  and  C_6 
REMARK    4  A    between atoms: C_7  and  C_8 
REMARK    5  A    between atoms: C_8  and  C_10 
REMARK    6  A    between atoms: C_8  and  O_35 
REMARK    7  A    between atoms: C_10  and  C_12 
REMARK    8  A    between atoms: C_10  and  O_18 
REMARK    9  A    between atoms: C_13  and  C_14 
REMARK   10  A    between atoms: C_14  and  C_15 
REMARK   11  A    between atoms: C_15  and  C_16 
REMARK   12  A    between atoms: C_16  and  O_17 
REMARK   13  A    between atoms: O_18  and  C_19 
REMARK   14  A    between atoms: C_21  and  O_34 
REMARK   15  A    between atoms: C_23  and  O_33 
REMARK   16  A    between atoms: C_25  and  O_32 
REMARK   17  A    between atoms: C_27  and  C_30 
REMARK   18  A    between atoms: C_30  and  O_31 
ROOT
ATOM      1  C   LIG d   1       4.557   0.108  -3.502  0.00  0.00     0.117 C 
ATOM      2  H   LIG d   1       4.768  -0.739  -4.155  0.00  0.00     0.068 H 
ENDROOT
BRANCH   1   3
ATOM      3  C   LIG d   1       3.246   0.769  -3.930  0.00  0.00     0.146 C 
ATOM      4  H   LIG d   1       2.429   0.384  -3.319  0.00  0.00     0.076 H 
BRANCH   3   5
ATOM      5  C   LIG d   1       2.983   0.466  -5.346  0.00  0.00    -0.054 C 
ATOM      6  C   LIG d   1       2.772   0.225  -6.476  0.00  0.00    -0.012 C 
BRANCH   6   7
ATOM      7  C   LIG d   1       2.526  -0.058  -7.801  0.00  0.00    -0.010 C 
ATOM      8  C   LIG d   1       2.315  -0.300  -8.930  0.00  0.00    -0.061 C 
BRANCH   8   9
ATOM      9  C   LIG d   1       2.058  -0.596 -10.307  0.00  0.00    -0.015 C 
ATOM     10  C   LIG d   1       2.854  -0.102 -11.255  0.00  0.00    -0.079 C 
ATOM     11  H   LIG d   1       2.660  -0.325 -12.294  0.00  0.00     0.058 H 
ATOM     12  H   LIG d   1       1.218  -1.219 -10.578  0.00  0.00     0.071 H 
BRANCH  10  13
ATOM     13  C   LIG d   1       4.026   0.767 -10.877  0.00  0.00    -0.046 C 
ATOM     14  H   LIG d   1       4.836   0.614 -11.592  0.00  0.00     0.027 H 
ATOM     15  H   LIG d   1       3.722   1.813 -10.891  0.00  0.00     0.027 H 
ATOM     16  H   LIG d   1       4.369   0.501  -9.877  0.00  0.00     0.027 H 
ENDBRANCH  10  13
ENDBRANCH   8   9
ENDBRANCH   6   7
ENDBRANCH   3   5
BRANCH   3  17
ATOM     17  O   LIG d   1       3.346   2.183  -3.756  0.00  0.00    -0.376 OA
ATOM     18  H   LIG d   1       4.198   2.476  -3.405  0.00  0.00     0.211 HD
ENDBRANCH   3  17
ENDBRANCH   1   3
BRANCH   1  19
ATOM     19  C   LIG d   1       4.436  -0.374  -2.079  0.00  0.00    -0.056 C 
ATOM     20  C   LIG d   1       4.288  -1.652  -1.830  0.00  0.00    -0.085 C 
ATOM     21  H   LIG d   1       4.256  -2.003  -0.809  0.00  0.00     0.057 H 
ATOM     22  H   LIG d   1       4.471   0.334  -1.264  0.00  0.00     0.060 H 
BRANCH  20  23
ATOM     23  C   LIG d   1       4.163  -2.631  -2.968  0.00  0.00    -0.033 C 
ATOM     24  H   LIG d   1       3.844  -3.599  -2.582  0.00  0.00     0.031 H 
ATOM     25  H   LIG d   1       3.428  -2.265  -3.684  0.00  0.00     0.031 H 
BRANCH  23  26
ATOM     26  C   LIG d   1       5.519  -2.781  -3.663  0.00  0.00    -0.026 C 
ATOM     27  H   LIG d   1       6.063  -1.839  -3.604  0.00  0.00     0.029 H 
ATOM     28  H   LIG d   1       6.094  -3.566  -3.171  0.00  0.00     0.029 H 
BRANCH  26  29
ATOM     29  C   LIG d   1       5.301  -3.154  -5.131  0.00  0.00     0.044 C 
ATOM     30  H   LIG d   1       5.903  -2.503  -5.765  0.00  0.00     0.056 H 
ATOM     31  H   LIG d   1       5.597  -4.190  -5.290  0.00  0.00     0.056 H 
BRANCH  29  32
ATOM     32  O   LIG d   1       3.920  -2.996  -5.462  0.00  0.00    -0.395 OA
ATOM     33  H   LIG d   1       3.389  -3.794  -5.326  0.00  0.00     0.209 HD
ENDBRANCH  29  32
ENDBRANCH  26  29
ENDBRANCH  23  26
ENDBRANCH  20  23
ENDBRANCH   1  19
BRANCH   1  34
ATOM     34  O   LIG d   1       5.621   1.057  -3.594  0.00  0.00    -0.338 OA
BRANCH  34  35
ATOM     35  C   LIG d   1       6.756   0.589  -4.327  0.00  0.00     0.189 C 
ATOM     36  H   LIG d   1       6.944  -0.455  -4.078  0.00  0.00     0.094 H 
ATOM     37  O   LIG d   1       6.498   0.705  -5.729  0.00  0.00    -0.341 OA
ATOM     38  C   LIG d   1       7.565   0.240  -6.558  0.00  0.00     0.113 C 
ATOM     39  C   LIG d   1       8.823   1.067  -6.282  0.00  0.00     0.112 C 
ATOM     40  H   LIG d   1       7.764  -0.810  -6.337  0.00  0.00     0.065 H 
ATOM     41  C   LIG d   1       9.179   0.963  -4.796  0.00  0.00     0.114 C 
ATOM     42  H   LIG d   1       9.649   0.684  -6.881  0.00  0.00     0.065 H 
ATOM     43  C   LIG d   1       7.982   1.431  -3.963  0.00  0.00     0.134 C 
ATOM     44  H   LIG d   1       9.413  -0.072  -4.549  0.00  0.00     0.065 H 
ATOM     45  H   LIG d   1       8.205   1.308  -2.903  0.00  0.00     0.067 H 
BRANCH  38  46
ATOM     46  C   LIG d   1       7.169   0.386  -8.028  0.00  0.00     0.073 C 
ATOM     47  H   LIG d   1       8.051   0.630  -8.619  0.00  0.00     0.058 H 
ATOM     48  H   LIG d   1       6.740  -0.551  -8.383  0.00  0.00     0.058 H 
BRANCH  46  49
ATOM     49  O   LIG d   1       6.203   1.432  -8.160  0.00  0.00    -0.392 OA
ATOM     50  H   LIG d   1       5.390   1.162  -8.608  0.00  0.00     0.209 HD
ENDBRANCH  46  49
ENDBRANCH  38  46
BRANCH  39  51
ATOM     51  O   LIG d   1       8.581   2.434  -6.621  0.00  0.00    -0.387 OA
ATOM     52  H   LIG d   1       9.376   2.922  -6.876  0.00  0.00     0.210 HD
ENDBRANCH  39  51
BRANCH  41  53
ATOM     53  O   LIG d   1      10.309   1.789  -4.514  0.00  0.00    -0.386 OA
ATOM     54  H   LIG d   1      11.158   1.389  -4.750  0.00  0.00     0.210 HD
ENDBRANCH  41  53
BRANCH  43  55
ATOM     55  O   LIG d   1       7.715   2.807  -4.238  0.00  0.00    -0.384 OA
ATOM     56  H   LIG d   1       7.388   2.973  -5.133  0.00  0.00     0.210 HD
ENDBRANCH  43  55
ENDBRANCH  34  35
ENDBRANCH   1  34
TORSDOF 18
ENDMDL
MODEL 3
REMARK VINA RESULT:      -5.7      8.229     13.487
REMARK  18 active torsions:
REMARK  status: ('A' for Active; 'I' for Inactive)
REMARK    1  A    between atoms: C_1  and  C_2 
REMARK    2  A    between atoms: C_3  and  C_4 
REMARK    3  A    between atoms: C_5  and  C_6 
REMARK    4  A    between atoms: C_7  and  C_8 
REMARK    5  A    between atoms: C_8  and  C_10 
REMARK    6  A    between atoms: C_8  and  O_35 
REMARK    7  A    between atoms: C_10  and  C_12 
REMARK    8  A    between atoms: C_10  and  O_18 
REMARK    9  A    between atoms: C_13  and  C_14 
REMARK   10  A    between atoms: C_14  and  C_15 
REMARK   11  A    between atoms: C_15  and  C_16 
REMARK   12  A    between atoms: C_16  and  O_17 
REMARK   13  A    between atoms: O_18  and  C_19 
REMARK   14  A    between atoms: C_21  and  O_34 
REMARK   15  A    between atoms: C_23  and  O_33 
REMARK   16  A    between atoms: C_25  and  O_32 
REMARK   17  A    between atoms: C_27  and  C_30 
REMARK   18  A    between atoms: C_30  and  O_31 
ROOT
ATOM      1  C   LIG d   1       5.375  -6.074  -5.794  0.00  0.00     0.117 C 
ATOM      2  H   LIG d   1       5.679  -5.937  -4.755  0.00  0.00     0.068 H 
ENDROOT
BRANCH   1   3
ATOM      3  C   LIG d   1       4.514  -4.888  -6.234  0.00  0.00     0.146 C 
ATOM      4  H   LIG d   1       4.903  -4.484  -7.169  0.00  0.00     0.076 H 
BRANCH   3   5
ATOM      5  C   LIG d   1       4.549  -3.844  -5.197  0.00  0.00    -0.054 C 
ATOM      6  C   LIG d   1       4.575  -3.012  -4.369  0.00  0.00    -0.012 C 
BRANCH   6   7
ATOM      7  C   LIG d   1       4.607  -2.035  -3.399  0.00  0.00    -0.010 C 
ATOM      8  C   LIG d   1       4.634  -1.202  -2.573  0.00  0.00    -0.061 C 
BRANCH   8   9
ATOM      9  C   LIG d   1       4.668  -0.185  -1.565  0.00  0.00    -0.015 C 
ATOM     10  C   LIG d   1       4.198   1.033  -1.831  0.00  0.00    -0.079 C 
ATOM     11  H   LIG d   1       4.224   1.800  -1.071  0.00  0.00     0.058 H 
ATOM     12  H   LIG d   1       5.077  -0.405  -0.589  0.00  0.00     0.071 H 
BRANCH  10  13
ATOM     13  C   LIG d   1       3.627   1.340  -3.192  0.00  0.00    -0.046 C 
ATOM     14  H   LIG d   1       2.673   0.826  -3.309  0.00  0.00     0.027 H 
ATOM     15  H   LIG d   1       3.477   2.415  -3.288  0.00  0.00     0.027 H 
ATOM     16  H   LIG d   1       4.321   1.000  -3.962  0.00  0.00     0.027 H 
ENDBRANCH  10  13
ENDBRANCH   8   9
ENDBRANCH   6   7
ENDBRANCH   3   5
BRANCH   3  17
ATOM     17  O   LIG d   1       3.167  -5.323  -6.427  0.00  0.00    -0.376 OA
ATOM     18  H   LIG d   1       2.605  -5.217  -5.648  0.00  0.00     0.211 HD
ENDBRANCH   3  17
ENDBRANCH   1   3
BRANCH   1  19
ATOM     19  C   LIG d   1       6.601  -6.157  -6.667  0.00  0.00    -0.056 C 
ATOM     20  C   LIG d   1       7.779  -5.873  -6.170  0.00  0.00    -0.085 C 
ATOM     21  H   LIG d   1       8.663  -5.984  -6.781  0.00  0.00     0.057 H 
ATOM     22  H   LIG d   1       6.507  -6.450  -7.702  0.00  0.00     0.060 H 
BRANCH  20  23
ATOM     23  C   LIG d   1       7.902  -5.390  -4.749  0.00  0.00    -0.033 C 
ATOM     24  H   LIG d   1       6.910  -5.176  -4.351  0.00  0.00     0.031 H 
ATOM     25  H   LIG d   1       8.378  -6.160  -4.143  0.00  0.00     0.031 H 
BRANCH  23  26
ATOM     26  C   LIG d   1       8.751  -4.117  -4.714  0.00  0.00    -0.026 C 
ATOM     27  H   LIG d   1       9.742  -4.352  -4.328  0.00  0.00     0.029 H 
ATOM     28  H   LIG d   1       8.839  -3.711  -5.722  0.00  0.00     0.029 H 
BRANCH  26  29
ATOM     29  C   LIG d   1       8.082  -3.083  -3.806  0.00  0.00     0.044 C 
ATOM     30  H   LIG d   1       6.998  -3.159  -3.904  0.00  0.00     0.056 H 
ATOM     31  H   LIG d   1       8.366  -3.270  -2.771  0.00  0.00     0.056 H 
BRANCH  29  32
ATOM     32  O   LIG d   1       8.504  -1.771  -4.186  0.00  0.00    -0.395 OA
ATOM     33  H   LIG d   1       8.851  -1.716  -5.087  0.00  0.00     0.209 HD
ENDBRANCH  29  32
ENDBRANCH  26  29
ENDBRANCH  23  26
ENDBRANCH  20  23
ENDBRANCH   1  19
BRANCH   1  34
ATOM     34  O   LIG d   1       4.621  -7.282  -5.915  0.00  0.00    -0.338 OA
BRANCH  34  35
ATOM     35  C   LIG d   1       5.118  -8.359  -5.119  0.00  0.00     0.189 C 
ATOM     36  H   LIG d   1       5.773  -7.966  -4.342  0.00  0.00     0.094 H 
ATOM     37  O   LIG d   1       4.022  -9.049  -4.513  0.00  0.00    -0.341 OA
ATOM     38  C   LIG d   1       4.411 -10.137  -3.671  0.00  0.00     0.113 C 
ATOM     39  C   LIG d   1       5.167 -11.178  -4.500  0.00  0.00     0.112 C 
ATOM     40  H   LIG d   1       5.057  -9.766  -2.875  0.00  0.00     0.065 H 
ATOM     41  C   LIG d   1       6.380 -10.513  -5.158  0.00  0.00     0.114 C 
ATOM     42  H   LIG d   1       5.503 -11.986  -3.851  0.00  0.00     0.065 H 
ATOM     43  C   LIG d   1       5.902  -9.330  -6.006  0.00  0.00     0.134 C 
ATOM     44  H   LIG d   1       7.063 -10.156  -4.387  0.00  0.00     0.065 H 
ATOM     45  H   LIG d   1       6.764  -8.816  -6.434  0.00  0.00     0.067 H 
BRANCH  38  46
ATOM     46  C   LIG d   1       3.164 -10.778  -3.059  0.00  0.00     0.073 C 
ATOM     47  H   LIG d   1       2.881 -11.652  -3.645  0.00  0.00     0.058 H 
ATOM     48  H   LIG d   1       3.379 -11.082  -2.034  0.00  0.00     0.058 H 
BRANCH  46  49
ATOM     49  O   LIG d   1       2.091  -9.834  -3.062  0.00  0.00    -0.392 OA
ATOM     50  H   LIG d   1       2.298  -9.003  -2.616  0.00  0.00     0.209 HD
ENDBRANCH  46  49
ENDBRANCH  38  46
BRANCH  39  51
ATOM     51  O   LIG d   1       4.304 -11.703  -5.511  0.00  0.00    -0.387 OA
ATOM     52  H   LIG d   1       4.771 -12.085  -6.267  0.00  0.00     0.210 HD
ENDBRANCH  39  51
BRANCH  41  53
ATOM     53  O   LIG d   1       7.052 -11.458  -5.992  0.00  0.00    -0.386 OA
ATOM     54  H   LIG d   1       8.017 -11.408  -5.946  0.00  0.00     0.210 HD
ENDBRANCH  41  53
BRANCH  43  55
ATOM     55  O   LIG d   1       5.059  -9.804  -7.057  0.00  0.00    -0.384 OA
ATOM     56  H   LIG d   1       4.541 -10.587  -6.823  0.00  0.00     0.210 HD
ENDBRANCH  43  55
ENDBRANCH  34  35
ENDBRANCH   1  34
TORSDOF 18
ENDMDL
MODEL 4
REMARK VINA RESULT:      -5.7      6.539      9.665
REMARK  18 active torsions:
REMARK  status: ('A' for Active; 'I' for Inactive)
REMARK    1  A    between atoms: C_1  and  C_2 
REMARK    2  A    between atoms: C_3  and  C_4 
REMARK    3  A    between atoms: C_5  and  C_6 
REMARK    4  A    between atoms: C_7  and  C_8 
REMARK    5  A    between atoms: C_8  and  C_10 
REMARK    6  A    between atoms: C_8  and  O_35 
REMARK    7  A    between atoms: C_10  and  C_12 
REMARK    8  A    between atoms: C_10  and  O_18 
REMARK    9  A    between atoms: C_13  and  C_14 
REMARK   10  A    between atoms: C_14  and  C_15 
REMARK   11  A    between atoms: C_15  and  C_16 
REMARK   12  A    between atoms: C_16  and  O_17 
REMARK   13  A    between atoms: O_18  and  C_19 
REMARK   14  A    between atoms: C_21  and  O_34 
REMARK   15  A    between atoms: C_23  and  O_33 
REMARK   16  A    between atoms: C_25  and  O_32 
REMARK   17  A    between atoms: C_27  and  C_30 
REMARK   18  A    between atoms: C_30  and  O_31 
ROOT
ATOM      1  C   LIG d   1       5.247  -4.106  -5.651  0.00  0.00     0.117 C 
ATOM      2  H   LIG d   1       6.018  -3.347  -5.787  0.00  0.00     0.068 H 
ENDROOT
BRANCH   1   3
ATOM      3  C   LIG d   1       4.389  -4.193  -6.915  0.00  0.00     0.146 C 
ATOM      4  H   LIG d   1       4.945  -4.710  -7.697  0.00  0.00     0.076 H 
BRANCH   3   5
ATOM      5  C   LIG d   1       4.048  -2.836  -7.372  0.00  0.00    -0.054 C 
ATOM      6  C   LIG d   1       3.777  -1.754  -7.737  0.00  0.00    -0.012 C 
BRANCH   6   7
ATOM      7  C   LIG d   1       3.458  -0.484  -8.164  0.00  0.00    -0.010 C 
ATOM      8  C   LIG d   1       3.187   0.599  -8.528  0.00  0.00    -0.061 C 
BRANCH   8   9
ATOM      9  C   LIG d   1       2.854   1.919  -8.972  0.00  0.00    -0.015 C 
ATOM     10  C   LIG d   1       3.821   2.774  -9.302  0.00  0.00    -0.079 C 
ATOM     11  H   LIG d   1       3.570   3.771  -9.636  0.00  0.00     0.058 H 
ATOM     12  H   LIG d   1       1.820   2.222  -9.037  0.00  0.00     0.071 H 
BRANCH  10  13
ATOM     13  C   LIG d   1       5.265   2.352  -9.212  0.00  0.00    -0.046 C 
ATOM     14  H   LIG d   1       5.854   2.917  -9.935  0.00  0.00     0.027 H 
ATOM     15  H   LIG d   1       5.638   2.546  -8.207  0.00  0.00     0.027 H 
ATOM     16  H   LIG d   1       5.347   1.286  -9.430  0.00  0.00     0.027 H 
ENDBRANCH  10  13
ENDBRANCH   8   9
ENDBRANCH   6   7
ENDBRANCH   3   5
BRANCH   3  17
ATOM     17  O   LIG d   1       3.189  -4.915  -6.628  0.00  0.00    -0.376 OA
ATOM     18  H   LIG d   1       2.487  -4.372  -6.244  0.00  0.00     0.211 HD
ENDBRANCH   3  17
ENDBRANCH   1   3
BRANCH   1  19
ATOM     19  C   LIG d   1       5.897  -5.441  -5.392  0.00  0.00    -0.056 C 
ATOM     20  C   LIG d   1       7.200  -5.557  -5.455  0.00  0.00    -0.085 C 
ATOM     21  H   LIG d   1       7.669  -6.501  -5.216  0.00  0.00     0.057 H 
ATOM     22  H   LIG d   1       5.288  -6.301  -5.156  0.00  0.00     0.060 H 
BRANCH  20  23
ATOM     23  C   LIG d   1       8.044  -4.377  -5.859  0.00  0.00    -0.033 C 
ATOM     24  H   LIG d   1       8.284  -4.448  -6.920  0.00  0.00     0.031 H 
ATOM     25  H   LIG d   1       7.494  -3.455  -5.671  0.00  0.00     0.031 H 
BRANCH  23  26
ATOM     26  C   LIG d   1       9.339  -4.372  -5.043  0.00  0.00    -0.026 C 
ATOM     27  H   LIG d   1       9.984  -5.183  -5.380  0.00  0.00     0.029 H 
ATOM     28  H   LIG d   1       9.851  -3.419  -5.179  0.00  0.00     0.029 H 
BRANCH  26  29
ATOM     29  C   LIG d   1       9.009  -4.566  -3.561  0.00  0.00     0.044 C 
ATOM     30  H   LIG d   1       7.975  -4.896  -3.459  0.00  0.00     0.056 H 
ATOM     31  H   LIG d   1       9.673  -5.317  -3.136  0.00  0.00     0.056 H 
BRANCH  29  32
ATOM     32  O   LIG d   1       9.183  -3.328  -2.869  0.00  0.00    -0.395 OA
ATOM     33  H   LIG d   1       9.383  -2.578  -3.447  0.00  0.00     0.209 HD
ENDBRANCH  29  32
ENDBRANCH  26  29
ENDBRANCH  23  26
ENDBRANCH  20  23
ENDBRANCH   1  19
BRANCH   1  34
ATOM     34  O   LIG d   1       4.422  -3.754  -4.539  0.00  0.00    -0.338 OA
BRANCH  34  35
ATOM     35  C   LIG d   1       4.983  -2.746  -3.695  0.00  0.00     0.189 C 
ATOM     36  H   LIG d   1       5.461  -3.216  -2.836  0.00  0.00     0.094 H 
ATOM     37  O   LIG d   1       5.954  -1.997  -4.429  0.00  0.00    -0.341 OA
ATOM     38  C   LIG d   1       6.597  -0.973  -3.668  0.00  0.00     0.113 C 
ATOM     39  C   LIG d   1       5.552   0.036  -3.185  0.00  0.00     0.112 C 
ATOM     40  H   LIG d   1       7.097  -1.420  -2.808  0.00  0.00     0.065 H 
ATOM     41  C   LIG d   1       4.490  -0.696  -2.359  0.00  0.00     0.114 C 
ATOM     42  H   LIG d   1       6.035   0.793  -2.567  0.00  0.00     0.065 H 
ATOM     43  C   LIG d   1       3.873  -1.808  -3.213  0.00  0.00     0.134 C 
ATOM     44  H   LIG d   1       4.953  -1.131  -1.473  0.00  0.00     0.065 H 
ATOM     45  H   LIG d   1       3.155  -2.371  -2.616  0.00  0.00     0.067 H 
BRANCH  38  46
ATOM     46  C   LIG d   1       7.630  -0.259  -4.544  0.00  0.00     0.073 C 
ATOM     47  H   LIG d   1       7.274  -0.230  -5.573  0.00  0.00     0.058 H 
ATOM     48  H   LIG d   1       7.773   0.758  -4.179  0.00  0.00     0.058 H 
BRANCH  46  49
ATOM     49  O   LIG d   1       8.871  -0.965  -4.488  0.00  0.00    -0.392 OA
ATOM     50  H   LIG d   1       9.406  -0.759  -3.710  0.00  0.00     0.209 HD
ENDBRANCH  46  49
ENDBRANCH  38  46
BRANCH  39  51
ATOM     51  O   LIG d   1       4.934   0.662  -4.311  0.00  0.00    -0.387 OA
ATOM     52  H   LIG d   1       4.009   0.905  -4.167  0.00  0.00     0.210 HD
ENDBRANCH  39  51
BRANCH  41  53
ATOM     53  O   LIG d   1       3.471   0.224  -1.963  0.00  0.00    -0.386 OA
ATOM     54  H   LIG d   1       3.529   0.501  -1.039  0.00  0.00     0.210 HD
ENDBRANCH  41  53
BRANCH  43  55
ATOM     55  O   LIG d   1       3.210  -1.233  -4.341  0.00  0.00    -0.384 OA
ATOM     56  H   LIG d   1       3.606  -1.468  -5.191  0.00  0.00     0.210 HD
ENDBRANCH  43  55
ENDBRANCH  34  35
ENDBRANCH   1  34
TORSDOF 18
ENDMDL
MODEL 5
REMARK VINA RESULT:      -5.6      1.571      2.839
REMARK  18 active torsions:
REMARK  status: ('A' for Active; 'I' for Inactive)
REMARK    1  A    between atoms: C_1  and  C_2 
REMARK    2  A    between atoms: C_3  and  C_4 
REMARK    3  A    between atoms: C_5  and  C_6 
REMARK    4  A    between atoms: C_7  and  C_8 
REMARK    5  A    between atoms: C_8  and  C_10 
REMARK    6  A    between atoms: C_8  and  O_35 
REMARK    7  A    between atoms: C_10  and  C_12 
REMARK    8  A    between atoms: C_10  and  O_18 
REMARK    9  A    between atoms: C_13  and  C_14 
REMARK   10  A    between atoms: C_14  and  C_15 
REMARK   11  A    between atoms: C_15  and  C_16 
REMARK   12  A    between atoms: C_16  and  O_17 
REMARK   13  A    between atoms: O_18  and  C_19 
REMARK   14  A    between atoms: C_21  and  O_34 
REMARK   15  A    between atoms: C_23  and  O_33 
REMARK   16  A    between atoms: C_25  and  O_32 
REMARK   17  A    between atoms: C_27  and  C_30 
REMARK   18  A    between atoms: C_30  and  O_31 
ROOT
ATOM      1  C   LIG d   1      10.500   3.647  -3.892  0.00  0.00     0.117 C 
ATOM      2  H   LIG d   1      11.286   4.258  -4.337  0.00  0.00     0.068 H 
ENDROOT
BRANCH   1   3
ATOM      3  C   LIG d   1       9.400   3.399  -4.926  0.00  0.00     0.146 C 
ATOM      4  H   LIG d   1       8.875   4.333  -5.129  0.00  0.00     0.076 H 
BRANCH   3   5
ATOM      5  C   LIG d   1       8.448   2.406  -4.401  0.00  0.00    -0.054 C 
ATOM      6  C   LIG d   1       7.689   1.614  -3.981  0.00  0.00    -0.012 C 
BRANCH   6   7
ATOM      7  C   LIG d   1       6.799   0.685  -3.491  0.00  0.00    -0.010 C 
ATOM      8  C   LIG d   1       6.040  -0.107  -3.073  0.00  0.00    -0.061 C 
BRANCH   8   9
ATOM      9  C   LIG d   1       5.114  -1.072  -2.563  0.00  0.00    -0.015 C 
ATOM     10  C   LIG d   1       3.874  -0.703  -2.245  0.00  0.00    -0.079 C 
ATOM     11  H   LIG d   1       3.175  -1.430  -1.860  0.00  0.00     0.058 H 
ATOM     12  H   LIG d   1       5.420  -2.100  -2.434  0.00  0.00     0.071 H 
BRANCH  10  13
ATOM     13  C   LIG d   1       3.445   0.731  -2.425  0.00  0.00    -0.046 C 
ATOM     14  H   LIG d   1       3.805   1.325  -1.584  0.00  0.00     0.027 H 
ATOM     15  H   LIG d   1       3.863   1.122  -3.352  0.00  0.00     0.027 H 
ATOM     16  H   LIG d   1       2.357   0.783  -2.467  0.00  0.00     0.027 H 
ENDBRANCH  10  13
ENDBRANCH   8   9
ENDBRANCH   6   7
ENDBRANCH   3   5
BRANCH   3  17
ATOM     17  O   LIG d   1       9.983   2.907  -6.134  0.00  0.00    -0.376 OA
ATOM     18  H   LIG d   1       9.520   3.186  -6.935  0.00  0.00     0.211 HD
ENDBRANCH   3  17
ENDBRANCH   1   3
BRANCH   1  19
ATOM     19  C   LIG d   1      11.080   2.329  -3.449  0.00  0.00    -0.056 C 
ATOM     20  C   LIG d   1      12.365   2.103  -3.575  0.00  0.00    -0.085 C 
ATOM     21  H   LIG d   1      12.789   1.180  -3.208  0.00  0.00     0.057 H 
ATOM     22  H   LIG d   1      10.437   1.570  -3.028  0.00  0.00     0.060 H 
BRANCH  20  23
ATOM     23  C   LIG d   1      13.249   3.131  -4.231  0.00  0.00    -0.033 C 
ATOM     24  H   LIG d   1      13.319   2.922  -5.298  0.00  0.00     0.031 H 
ATOM     25  H   LIG d   1      12.826   4.123  -4.082  0.00  0.00     0.031 H 
BRANCH  23  26
ATOM     26  C   LIG d   1      14.647   3.073  -3.609  0.00  0.00    -0.026 C 
ATOM     27  H   LIG d   1      14.723   2.195  -2.968  0.00  0.00     0.029 H 
ATOM     28  H   LIG d   1      15.395   3.013  -4.400  0.00  0.00     0.029 H 
BRANCH  26  29
ATOM     29  C   LIG d   1      14.886   4.334  -2.776  0.00  0.00     0.044 C 
ATOM     30  H   LIG d   1      15.848   4.771  -3.046  0.00  0.00     0.056 H 
ATOM     31  H   LIG d   1      14.092   5.054  -2.971  0.00  0.00     0.056 H 
BRANCH  29  32
ATOM     32  O   LIG d   1      14.890   3.994  -1.388  0.00  0.00    -0.395 OA
ATOM     33  H   LIG d   1      15.169   4.715  -0.807  0.00  0.00     0.209 HD
ENDBRANCH  29  32
ENDBRANCH  26  29
ENDBRANCH  23  26
ENDBRANCH  20  23
ENDBRANCH   1  19
BRANCH   1  34
ATOM     34  O   LIG d   1       9.948   4.328  -2.763  0.00  0.00    -0.338 OA
BRANCH  34  35
ATOM     35  C   LIG d   1      10.623   5.544  -2.432  0.00  0.00     0.189 C 
ATOM     36  H   LIG d   1      11.076   5.965  -3.329  0.00  0.00     0.094 H 
ATOM     37  O   LIG d   1       9.685   6.477  -1.889  0.00  0.00    -0.341 OA
ATOM     38  C   LIG d   1      10.254   7.741  -1.544  0.00  0.00     0.113 C 
ATOM     39  C   LIG d   1      11.329   7.542  -0.473  0.00  0.00     0.112 C 
ATOM     40  H   LIG d   1      10.702   8.191  -2.430  0.00  0.00     0.065 H 
ATOM     41  C   LIG d   1      12.391   6.572  -1.000  0.00  0.00     0.114 C 
ATOM     42  H   LIG d   1      11.794   8.500  -0.241  0.00  0.00     0.065 H 
ATOM     43  C   LIG d   1      11.713   5.257  -1.395  0.00  0.00     0.134 C 
ATOM     44  H   LIG d   1      12.880   7.006  -1.872  0.00  0.00     0.065 H 
ATOM     45  H   LIG d   1      12.452   4.580  -1.824  0.00  0.00     0.067 H 
BRANCH  38  46
ATOM     46  C   LIG d   1       9.158   8.662  -1.003  0.00  0.00     0.073 C 
ATOM     47  H   LIG d   1       9.457   9.049  -0.030  0.00  0.00     0.058 H 
ATOM     48  H   LIG d   1       9.008   9.492  -1.694  0.00  0.00     0.058 H 
BRANCH  46  49
ATOM     49  O   LIG d   1       7.940   7.927  -0.869  0.00  0.00    -0.392 OA
ATOM     50  H   LIG d   1       7.351   8.000  -1.632  0.00  0.00     0.209 HD
ENDBRANCH  46  49
ENDBRANCH  38  46
BRANCH  39  51
ATOM     51  O   LIG d   1      10.733   7.002   0.708  0.00  0.00    -0.387 OA
ATOM     52  H   LIG d   1      10.234   6.187   0.559  0.00  0.00     0.210 HD
ENDBRANCH  39  51
BRANCH  41  53
ATOM     53  O   LIG d   1      13.361   6.322   0.018  0.00  0.00    -0.386 OA
ATOM     54  H   LIG d   1      14.246   6.651  -0.192  0.00  0.00     0.210 HD
ENDBRANCH  41  53
BRANCH  43  55
ATOM     55  O   LIG d   1      11.127   4.654  -0.240  0.00  0.00    -0.384 OA
ATOM     56  H   LIG d   1      10.220   4.941  -0.064  0.00  0.00     0.210 HD
ENDBRANCH  43  55
ENDBRANCH  34  35
ENDBRANCH   1  34
TORSDOF 18
ENDMDL
MODEL 6
REMARK VINA RESULT:      -5.6      6.525     10.388
REMARK  18 active torsions:
REMARK  status: ('A' for Active; 'I' for Inactive)
REMARK    1  A    between atoms: C_1  and  C_2 
REMARK    2  A    between atoms: C_3  and  C_4 
REMARK    3  A    between atoms: C_5  and  C_6 
REMARK    4  A    between atoms: C_7  and  C_8 
REMARK    5  A    between atoms: C_8  and  C_10 
REMARK    6  A    between atoms: C_8  and  O_35 
REMARK    7  A    between atoms: C_10  and  C_12 
REMARK    8  A    between atoms: C_10  and  O_18 
REMARK    9  A    between atoms: C_13  and  C_14 
REMARK   10  A    between atoms: C_14  and  C_15 
REMARK   11  A    between atoms: C_15  and  C_16 
REMARK   12  A    between atoms: C_16  and  O_17 
REMARK   13  A    between atoms: O_18  and  C_19 
REMARK   14  A    between atoms: C_21  and  O_34 
REMARK   15  A    between atoms: C_23  and  O_33 
REMARK   16  A    between atoms: C_25  and  O_32 
REMARK   17  A    between atoms: C_27  and  C_30 
REMARK   18  A    between atoms: C_30  and  O_31 
ROOT
ATOM      1  C   LIG d   1       5.191  -1.661  -4.409  0.00  0.00     0.117 C 
ATOM      2  H   LIG d   1       4.830  -0.633  -4.366  0.00  0.00     0.068 H 
ENDROOT
BRANCH   1   3
ATOM      3  C   LIG d   1       6.711  -1.660  -4.582  0.00  0.00     0.146 C 
ATOM      4  H   LIG d   1       6.972  -1.136  -5.502  0.00  0.00     0.076 H 
BRANCH   3   5
ATOM      5  C   LIG d   1       7.197  -3.048  -4.653  0.00  0.00    -0.054 C 
ATOM      6  C   LIG d   1       7.585  -4.154  -4.711  0.00  0.00    -0.012 C 
BRANCH   6   7
ATOM      7  C   LIG d   1       8.040  -5.452  -4.777  0.00  0.00    -0.010 C 
ATOM      8  C   LIG d   1       8.427  -6.559  -4.834  0.00  0.00    -0.061 C 
BRANCH   8   9
ATOM      9  C   LIG d   1       8.899  -7.909  -4.902  0.00  0.00    -0.015 C 
ATOM     10  C   LIG d   1       8.041  -8.922  -4.788  0.00  0.00    -0.079 C 
ATOM     11  H   LIG d   1       8.397  -9.941  -4.839  0.00  0.00     0.058 H 
ATOM     12  H   LIG d   1       9.952  -8.107  -5.044  0.00  0.00     0.071 H 
BRANCH  10  13
ATOM     13  C   LIG d   1       6.572  -8.647  -4.591  0.00  0.00    -0.046 C 
ATOM     14  H   LIG d   1       5.993  -9.502  -4.941  0.00  0.00     0.027 H 
ATOM     15  H   LIG d   1       6.374  -8.481  -3.533  0.00  0.00     0.027 H 
ATOM     16  H   LIG d   1       6.289  -7.759  -5.157  0.00  0.00     0.027 H 
ENDBRANCH  10  13
ENDBRANCH   8   9
ENDBRANCH   6   7
ENDBRANCH   3   5
BRANCH   3  17
ATOM     17  O   LIG d   1       7.317  -0.999  -3.470  0.00  0.00    -0.376 OA
ATOM     18  H   LIG d   1       8.087  -1.461  -3.111  0.00  0.00     0.211 HD
ENDBRANCH   3  17
ENDBRANCH   1   3
BRANCH   1  19
ATOM     19  C   LIG d   1       4.830  -2.373  -3.131  0.00  0.00    -0.056 C 
ATOM     20  C   LIG d   1       3.964  -1.839  -2.306  0.00  0.00    -0.085 C 
ATOM     21  H   LIG d   1       3.666  -2.374  -1.416  0.00  0.00     0.057 H 
ATOM     22  H   LIG d   1       5.287  -3.322  -2.895  0.00  0.00     0.060 H 
BRANCH  20  23
ATOM     23  C   LIG d   1       3.385  -0.479  -2.597  0.00  0.00    -0.033 C 
ATOM     24  H   LIG d   1       3.423  -0.290  -3.669  0.00  0.00     0.031 H 
ATOM     25  H   LIG d   1       2.350  -0.444  -2.258  0.00  0.00     0.031 H 
BRANCH  23  26
ATOM     26  C   LIG d   1       4.199   0.590  -1.862  0.00  0.00    -0.026 C 
ATOM     27  H   LIG d   1       3.584   1.043  -1.085  0.00  0.00     0.029 H 
ATOM     28  H   LIG d   1       5.078   0.129  -1.410  0.00  0.00     0.029 H 
BRANCH  26  29
ATOM     29  C   LIG d   1       4.641   1.666  -2.855  0.00  0.00     0.044 C 
ATOM     30  H   LIG d   1       4.116   1.527  -3.801  0.00  0.00     0.056 H 
ATOM     31  H   LIG d   1       4.407   2.650  -2.452  0.00  0.00     0.056 H 
BRANCH  29  32
ATOM     32  O   LIG d   1       6.049   1.563  -3.073  0.00  0.00    -0.395 OA
ATOM     33  H   LIG d   1       6.526   1.114  -2.360  0.00  0.00     0.209 HD
ENDBRANCH  29  32
ENDBRANCH  26  29
ENDBRANCH  23  26
ENDBRANCH  20  23
ENDBRANCH   1  19
BRANCH   1  34
ATOM     34  O   LIG d   1       4.585  -2.333  -5.516  0.00  0.00    -0.338 OA
BRANCH  34  35
ATOM     35  C   LIG d   1       4.666  -1.613  -6.748  0.00  0.00     0.189 C 
ATOM     36  H   LIG d   1       5.712  -1.466  -7.016  0.00  0.00     0.094 H 
ATOM     37  O   LIG d   1       4.010  -2.356  -7.778  0.00  0.00    -0.341 OA
ATOM     38  C   LIG d   1       4.053  -1.733  -9.064  0.00  0.00     0.113 C 
ATOM     39  C   LIG d   1       3.346  -0.377  -8.997  0.00  0.00     0.112 C 
ATOM     40  H   LIG d   1       5.092  -1.588  -9.362  0.00  0.00     0.065 H 
ATOM     41  C   LIG d   1       4.020   0.490  -7.929  0.00  0.00     0.114 C 
ATOM     42  H   LIG d   1       3.417   0.118  -9.965  0.00  0.00     0.065 H 
ATOM     43  C   LIG d   1       3.983  -0.251  -6.589  0.00  0.00     0.134 C 
ATOM     44  H   LIG d   1       5.055   0.679  -8.213  0.00  0.00     0.065 H 
ATOM     45  H   LIG d   1       4.510   0.333  -5.834  0.00  0.00     0.067 H 
BRANCH  38  46
ATOM     46  C   LIG d   1       3.348  -2.627 -10.086  0.00  0.00     0.073 C 
ATOM     47  H   LIG d   1       2.885  -2.006 -10.852  0.00  0.00     0.058 H 
ATOM     48  H   LIG d   1       4.077  -3.293 -10.549  0.00  0.00     0.058 H 
BRANCH  46  49
ATOM     49  O   LIG d   1       2.344  -3.403  -9.430  0.00  0.00    -0.392 OA
ATOM     50  H   LIG d   1       1.449  -3.051  -9.527  0.00  0.00     0.209 HD
ENDBRANCH  46  49
ENDBRANCH  38  46
BRANCH  39  51
ATOM     51  O   LIG d   1       1.972  -0.570  -8.658  0.00  0.00    -0.387 OA
ATOM     52  H   LIG d   1       1.367   0.033  -9.112  0.00  0.00     0.210 HD
ENDBRANCH  39  51
BRANCH  41  53
ATOM     53  O   LIG d   1       3.323   1.731  -7.808  0.00  0.00    -0.386 OA
ATOM     54  H   LIG d   1       3.790   2.395  -7.282  0.00  0.00     0.210 HD
ENDBRANCH  41  53
BRANCH  43  55
ATOM     55  O   LIG d   1       2.626  -0.442  -6.184  0.00  0.00    -0.384 OA
ATOM     56  H   LIG d   1       2.150   0.381  -6.006  0.00  0.00     0.210 HD
ENDBRANCH  43  55
ENDBRANCH  34  35
ENDBRANCH   1  34
TORSDOF 18
ENDMDL
MODEL 7
REMARK VINA RESULT:      -5.5      4.804      9.327
REMARK  18 active torsions:
REMARK  status: ('A' for Active; 'I' for Inactive)
REMARK    1  A    between atoms: C_1  and  C_2 
REMARK    2  A    between atoms: C_3  and  C_4 
REMARK    3  A    between atoms: C_5  and  C_6 
REMARK    4  A    between atoms: C_7  and  C_8 
REMARK    5  A    between atoms: C_8  and  C_10 
REMARK    6  A    between atoms: C_8  and  O_35 
REMARK    7  A    between atoms: C_10  and  C_12 
REMARK    8  A    between atoms: C_10  and  O_18 
REMARK    9  A    between atoms: C_13  and  C_14 
REMARK   10  A    between atoms: C_14  and  C_15 
REMARK   11  A    between atoms: C_15  and  C_16 
REMARK   12  A    between atoms: C_16  and  O_17 
REMARK   13  A    between atoms: O_18  and  C_19 
REMARK   14  A    between atoms: C_21  and  O_34 
REMARK   15  A    between atoms: C_23  and  O_33 
REMARK   16  A    between atoms: C_25  and  O_32 
REMARK   17  A    between atoms: C_27  and  C_30 
REMARK   18  A    between atoms: C_30  and  O_31 
ROOT
ATOM      1  C   LIG d   1       5.374  -1.937  -4.027  0.00  0.00     0.117 C 
ATOM      2  H   LIG d   1       4.977  -0.968  -4.331  0.00  0.00     0.068 H 
ENDROOT
BRANCH   1   3
ATOM      3  C   LIG d   1       6.736  -1.744  -3.359  0.00  0.00     0.146 C 
ATOM      4  H   LIG d   1       6.624  -1.814  -2.277  0.00  0.00     0.076 H 
BRANCH   3   5
ATOM      5  C   LIG d   1       7.272  -0.419  -3.711  0.00  0.00    -0.054 C 
ATOM      6  C   LIG d   1       7.699   0.639  -3.991  0.00  0.00    -0.012 C 
BRANCH   6   7
ATOM      7  C   LIG d   1       8.200   1.878  -4.320  0.00  0.00    -0.010 C 
ATOM      8  C   LIG d   1       8.628   2.935  -4.601  0.00  0.00    -0.061 C 
BRANCH   8   9
ATOM      9  C   LIG d   1       9.149   4.224  -4.942  0.00  0.00    -0.015 C 
ATOM     10  C   LIG d   1       9.832   4.927  -4.039  0.00  0.00    -0.079 C 
ATOM     11  H   LIG d   1      10.225   5.900  -4.296  0.00  0.00     0.058 H 
ATOM     12  H   LIG d   1       8.987   4.628  -5.931  0.00  0.00     0.071 H 
BRANCH  10  13
ATOM     13  C   LIG d   1      10.058   4.364  -2.659  0.00  0.00    -0.046 C 
ATOM     14  H   LIG d   1       9.601   3.376  -2.592  0.00  0.00     0.027 H 
ATOM     15  H   LIG d   1      11.128   4.285  -2.470  0.00  0.00     0.027 H 
ATOM     16  H   LIG d   1       9.606   5.025  -1.919  0.00  0.00     0.027 H 
ENDBRANCH  10  13
ENDBRANCH   8   9
ENDBRANCH   6   7
ENDBRANCH   3   5
BRANCH   3  17
ATOM     17  O   LIG d   1       7.637  -2.757  -3.811  0.00  0.00    -0.376 OA
ATOM     18  H   LIG d   1       8.564  -2.580  -3.601  0.00  0.00     0.211 HD
ENDBRANCH   3  17
ENDBRANCH   1   3
BRANCH   1  19
ATOM     19  C   LIG d   1       4.424  -2.584  -3.053  0.00  0.00    -0.056 C 
ATOM     20  C   LIG d   1       3.419  -1.900  -2.565  0.00  0.00    -0.085 C 
ATOM     21  H   LIG d   1       2.708  -2.379  -1.909  0.00  0.00     0.057 H 
ATOM     22  H   LIG d   1       4.571  -3.612  -2.757  0.00  0.00     0.060 H 
BRANCH  20  23
ATOM     23  C   LIG d   1       3.257  -0.444  -2.918  0.00  0.00    -0.033 C 
ATOM     24  H   LIG d   1       3.656  -0.266  -3.916  0.00  0.00     0.031 H 
ATOM     25  H   LIG d   1       2.200  -0.180  -2.896  0.00  0.00     0.031 H 
BRANCH  23  26
ATOM     26  C   LIG d   1       4.017   0.414  -1.903  0.00  0.00    -0.026 C 
ATOM     27  H   LIG d   1       3.343   0.711  -1.101  0.00  0.00     0.029 H 
ATOM     28  H   LIG d   1       4.845  -0.162  -1.489  0.00  0.00     0.029 H 
BRANCH  26  29
ATOM     29  C   LIG d   1       4.563   1.663  -2.600  0.00  0.00     0.044 C 
ATOM     30  H   LIG d   1       4.852   2.400  -1.851  0.00  0.00     0.056 H 
ATOM     31  H   LIG d   1       5.433   1.394  -3.198  0.00  0.00     0.056 H 
BRANCH  29  32
ATOM     32  O   LIG d   1       3.554   2.214  -3.448  0.00  0.00    -0.395 OA
ATOM     33  H   LIG d   1       3.606   1.917  -4.367  0.00  0.00     0.209 HD
ENDBRANCH  29  32
ENDBRANCH  26  29
ENDBRANCH  23  26
ENDBRANCH  20  23
ENDBRANCH   1  19
BRANCH   1  34
ATOM     34  O   LIG d   1       5.521  -2.774  -5.177  0.00  0.00    -0.338 OA
BRANCH  34  35
ATOM     35  C   LIG d   1       4.880  -2.268  -6.349  0.00  0.00     0.189 C 
ATOM     36  H   LIG d   1       4.132  -2.983  -6.692  0.00  0.00     0.094 H 
ATOM     37  O   LIG d   1       4.246  -1.023  -6.047  0.00  0.00    -0.341 OA
ATOM     38  C   LIG d   1       3.551  -0.439  -7.151  0.00  0.00     0.113 C 
ATOM     39  C   LIG d   1       4.541  -0.152  -8.282  0.00  0.00     0.112 C 
ATOM     40  H   LIG d   1       2.785  -1.130  -7.504  0.00  0.00     0.065 H 
ATOM     41  C   LIG d   1       5.240  -1.456  -8.682  0.00  0.00     0.114 C 
ATOM     42  H   LIG d   1       4.005   0.252  -9.141  0.00  0.00     0.065 H 
ATOM     43  C   LIG d   1       5.924  -2.054  -7.449  0.00  0.00     0.134 C 
ATOM     44  H   LIG d   1       4.503  -2.160  -9.069  0.00  0.00     0.065 H 
ATOM     45  H   LIG d   1       6.377  -3.010  -7.712  0.00  0.00     0.067 H 
BRANCH  38  46
ATOM     46  C   LIG d   1       2.892   0.868  -6.704  0.00  0.00     0.073 C 
ATOM     47  H   LIG d   1       1.837   0.691  -6.499  0.00  0.00     0.058 H 
ATOM     48  H   LIG d   1       3.383   1.231  -5.801  0.00  0.00     0.058 H 
BRANCH  46  49
ATOM     49  O   LIG d   1       3.019   1.844  -7.741  0.00  0.00    -0.392 OA
ATOM     50  H   LIG d   1       3.880   2.281  -7.766  0.00  0.00     0.209 HD
ENDBRANCH  46  49
ENDBRANCH  38  46
BRANCH  39  51
ATOM     51  O   LIG d   1       5.515   0.794  -7.838  0.00  0.00    -0.387 OA
ATOM     52  H   LIG d   1       6.002   0.516  -7.050  0.00  0.00     0.210 HD
ENDBRANCH  39  51
BRANCH  41  53
ATOM     53  O   LIG d   1       6.218  -1.187  -9.688  0.00  0.00    -0.386 OA
ATOM     54  H   LIG d   1       5.963  -1.480 -10.574  0.00  0.00     0.210 HD
ENDBRANCH  41  53
BRANCH  43  55
ATOM     55  O   LIG d   1       6.935  -1.159  -6.981  0.00  0.00    -0.384 OA
ATOM     56  H   LIG d   1       6.928  -1.025  -6.024  0.00  0.00     0.210 HD
ENDBRANCH  43  55
ENDBRANCH  34  35
ENDBRANCH   1  34
TORSDOF 18
ENDMDL
MODEL 8
REMARK VINA RESULT:      -5.4      5.429      9.587
REMARK  18 active torsions:
REMARK  status: ('A' for Active; 'I' for Inactive)
REMARK    1  A    between atoms: C_1  and  C_2 
REMARK    2  A    between atoms: C_3  and  C_4 
REMARK    3  A    between atoms: C_5  and  C_6 
REMARK    4  A    between atoms: C_7  and  C_8 
REMARK    5  A    between atoms: C_8  and  C_10 
REMARK    6  A    between atoms: C_8  and  O_35 
REMARK    7  A    between atoms: C_10  and  C_12 
REMARK    8  A    between atoms: C_10  and  O_18 
REMARK    9  A    between atoms: C_13  and  C_14 
REMARK   10  A    between atoms: C_14  and  C_15 
REMARK   11  A    between atoms: C_15  and  C_16 
REMARK   12  A    between atoms: C_16  and  O_17 
REMARK   13  A    between atoms: O_18  and  C_19 
REMARK   14  A    between atoms: C_21  and  O_34 
REMARK   15  A    between atoms: C_23  and  O_33 
REMARK   16  A    between atoms: C_25  and  O_32 
REMARK   17  A    between atoms: C_27  and  C_30 
REMARK   18  A    between atoms: C_30  and  O_31 
ROOT
ATOM      1  C   LIG d   1       3.911  -0.140  -7.824  0.00  0.00     0.117 C 
ATOM      2  H   LIG d   1       4.918  -0.559  -7.804  0.00  0.00     0.068 H 
ENDROOT
BRANCH   1   3
ATOM      3  C   LIG d   1       3.912   1.150  -8.647  0.00  0.00     0.146 C 
ATOM      4  H   LIG d   1       3.511   0.948  -9.640  0.00  0.00     0.076 H 
BRANCH   3   5
ATOM      5  C   LIG d   1       5.289   1.655  -8.767  0.00  0.00    -0.054 C 
ATOM      6  C   LIG d   1       6.388   2.059  -8.863  0.00  0.00    -0.012 C 
BRANCH   6   7
ATOM      7  C   LIG d   1       7.676   2.531  -8.976  0.00  0.00    -0.010 C 
ATOM      8  C   LIG d   1       8.775   2.934  -9.073  0.00  0.00    -0.061 C 
BRANCH   8   9
ATOM      9  C   LIG d   1      10.115   3.424  -9.191  0.00  0.00    -0.015 C 
ATOM     10  C   LIG d   1      10.339   4.733  -9.301  0.00  0.00    -0.079 C 
ATOM     11  H   LIG d   1      11.350   5.102  -9.391  0.00  0.00     0.058 H 
ATOM     12  H   LIG d   1      10.945   2.733  -9.192  0.00  0.00     0.071 H 
BRANCH  10  13
ATOM     13  C   LIG d   1       9.181   5.699  -9.300  0.00  0.00    -0.046 C 
ATOM     14  H   LIG d   1       9.521   6.670  -8.938  0.00  0.00     0.027 H 
ATOM     15  H   LIG d   1       8.794   5.802 -10.312  0.00  0.00     0.027 H 
ATOM     16  H   LIG d   1       8.395   5.322  -8.646  0.00  0.00     0.027 H 
ENDBRANCH  10  13
ENDBRANCH   8   9
ENDBRANCH   6   7
ENDBRANCH   3   5
BRANCH   3  17
ATOM     17  O   LIG d   1       3.101   2.130  -7.996  0.00  0.00    -0.376 OA
ATOM     18  H   LIG d   1       2.380   2.468  -8.545  0.00  0.00     0.211 HD
ENDBRANCH   3  17
ENDBRANCH   1   3
BRANCH   1  19
ATOM     19  C   LIG d   1       2.968  -1.135  -8.451  0.00  0.00    -0.056 C 
ATOM     20  C   LIG d   1       3.370  -2.359  -8.688  0.00  0.00    -0.085 C 
ATOM     21  H   LIG d   1       2.677  -3.086  -9.086  0.00  0.00     0.057 H 
ATOM     22  H   LIG d   1       1.962  -0.838  -8.705  0.00  0.00     0.060 H 
BRANCH  20  23
ATOM     23  C   LIG d   1       4.796  -2.752  -8.404  0.00  0.00    -0.033 C 
ATOM     24  H   LIG d   1       5.216  -3.250  -9.278  0.00  0.00     0.031 H 
ATOM     25  H   LIG d   1       5.380  -1.862  -8.176  0.00  0.00     0.031 H 
BRANCH  23  26
ATOM     26  C   LIG d   1       4.833  -3.706  -7.207  0.00  0.00    -0.026 C 
ATOM     27  H   LIG d   1       5.839  -4.111  -7.097  0.00  0.00     0.029 H 
ATOM     28  H   LIG d   1       4.558  -3.164  -6.302  0.00  0.00     0.029 H 
BRANCH  26  29
ATOM     29  C   LIG d   1       3.845  -4.851  -7.437  0.00  0.00     0.044 C 
ATOM     30  H   LIG d   1       3.142  -4.573  -8.222  0.00  0.00     0.056 H 
ATOM     31  H   LIG d   1       4.389  -5.746  -7.737  0.00  0.00     0.056 H 
BRANCH  29  32
ATOM     32  O   LIG d   1       3.129  -5.112  -6.227  0.00  0.00    -0.395 OA
ATOM     33  H   LIG d   1       3.432  -4.590  -5.471  0.00  0.00     0.209 HD
ENDBRANCH  29  32
ENDBRANCH  26  29
ENDBRANCH  23  26
ENDBRANCH  20  23
ENDBRANCH   1  19
BRANCH   1  34
ATOM     34  O   LIG d   1       3.486   0.145  -6.490  0.00  0.00    -0.338 OA
BRANCH  34  35
ATOM     35  C   LIG d   1       4.369  -0.348  -5.481  0.00  0.00     0.189 C 
ATOM     36  H   LIG d   1       4.499  -1.423  -5.605  0.00  0.00     0.094 H 
ATOM     37  O   LIG d   1       5.637   0.302  -5.598  0.00  0.00    -0.341 OA
ATOM     38  C   LIG d   1       6.608  -0.138  -4.646  0.00  0.00     0.113 C 
ATOM     39  C   LIG d   1       6.104   0.157  -3.231  0.00  0.00     0.112 C 
ATOM     40  H   LIG d   1       6.767  -1.210  -4.759  0.00  0.00     0.065 H 
ATOM     41  C   LIG d   1       4.755  -0.538  -3.022  0.00  0.00     0.114 C 
ATOM     42  H   LIG d   1       6.823  -0.217  -2.503  0.00  0.00     0.065 H 
ATOM     43  C   LIG d   1       3.776  -0.061  -4.099  0.00  0.00     0.134 C 
ATOM     44  H   LIG d   1       4.885  -1.617  -3.099  0.00  0.00     0.065 H 
ATOM     45  H   LIG d   1       2.829  -0.592  -3.992  0.00  0.00     0.067 H 
BRANCH  38  46
ATOM     46  C   LIG d   1       7.926   0.602  -4.883  0.00  0.00     0.073 C 
ATOM     47  H   LIG d   1       8.447   0.729  -3.935  0.00  0.00     0.058 H 
ATOM     48  H   LIG d   1       8.548   0.024  -5.566  0.00  0.00     0.058 H 
BRANCH  46  49
ATOM     49  O   LIG d   1       7.657   1.885  -5.454  0.00  0.00    -0.392 OA
ATOM     50  H   LIG d   1       7.355   2.544  -4.815  0.00  0.00     0.209 HD
ENDBRANCH  46  49
ENDBRANCH  38  46
BRANCH  39  51
ATOM     51  O   LIG d   1       5.945   1.567  -3.064  0.00  0.00    -0.387 OA
ATOM     52  H   LIG d   1       6.202   2.087  -3.838  0.00  0.00     0.210 HD
ENDBRANCH  39  51
BRANCH  41  53
ATOM     53  O   LIG d   1       4.241  -0.210  -1.730  0.00  0.00    -0.386 OA
ATOM     54  H   LIG d   1       4.861   0.279  -1.172  0.00  0.00     0.210 HD
ENDBRANCH  41  53
BRANCH  43  55
ATOM     55  O   LIG d   1       3.554   1.343  -3.956  0.00  0.00    -0.384 OA
ATOM     56  H   LIG d   1       4.362   1.857  -3.822  0.00  0.00     0.210 HD
ENDBRANCH  43  55
ENDBRANCH  34  35
ENDBRANCH   1  34
TORSDOF 18
ENDMDL
MODEL 9
REMARK VINA RESULT:      -5.3      5.243      9.761
REMARK  18 active torsions:
REMARK  status: ('A' for Active; 'I' for Inactive)
REMARK    1  A    between atoms: C_1  and  C_2 
REMARK    2  A    between atoms: C_3  and  C_4 
REMARK    3  A    between atoms: C_5  and  C_6 
REMARK    4  A    between atoms: C_7  and  C_8 
REMARK    5  A    between atoms: C_8  and  C_10 
REMARK    6  A    between atoms: C_8  and  O_35 
REMARK    7  A    between atoms: C_10  and  C_12 
REMARK    8  A    between atoms: C_10  and  O_18 
REMARK    9  A    between atoms: C_13  and  C_14 
REMARK   10  A    between atoms: C_14  and  C_15 
REMARK   11  A    between atoms: C_15  and  C_16 
REMARK   12  A    between atoms: C_16  and  O_17 
REMARK   13  A    between atoms: O_18  and  C_19 
REMARK   14  A    between atoms: C_21  and  O_34 
REMARK   15  A    between atoms: C_23  and  O_33 
REMARK   16  A    between atoms: C_25  and  O_32 
REMARK   17  A    between atoms: C_27  and  C_30 
REMARK   18  A    between atoms: C_30  and  O_31 
ROOT
ATOM      1  C   LIG d   1       6.344   0.281  -5.398  0.00  0.00     0.117 C 
ATOM      2  H   LIG d   1       5.628   1.097  -5.302  0.00  0.00     0.068 H 
ENDROOT
BRANCH   1   3
ATOM      3  C   LIG d   1       7.635   0.806  -6.030  0.00  0.00     0.146 C 
ATOM      4  H   LIG d   1       8.289  -0.033  -6.270  0.00  0.00     0.076 H 
BRANCH   3   5
ATOM      5  C   LIG d   1       8.316   1.704  -5.084  0.00  0.00    -0.054 C 
ATOM      6  C   LIG d   1       8.860   2.419  -4.328  0.00  0.00    -0.012 C 
BRANCH   6   7
ATOM      7  C   LIG d   1       9.497   3.259  -3.443  0.00  0.00    -0.010 C 
ATOM      8  C   LIG d   1      10.041   3.975  -2.687  0.00  0.00    -0.061 C 
BRANCH   8   9
ATOM      9  C   LIG d   1      10.702   4.847  -1.765  0.00  0.00    -0.015 C 
ATOM     10  C   LIG d   1      10.461   6.157  -1.796  0.00  0.00    -0.079 C 
ATOM     11  H   LIG d   1      10.961   6.816  -1.101  0.00  0.00     0.058 H 
ATOM     12  H   LIG d   1      11.399   4.444  -1.044  0.00  0.00     0.071 H 
BRANCH  10  13
ATOM     13  C   LIG d   1       9.489   6.721  -2.801  0.00  0.00    -0.046 C 
ATOM     14  H   LIG d   1       9.586   6.178  -3.742  0.00  0.00     0.027 H 
ATOM     15  H   LIG d   1       8.474   6.616  -2.422  0.00  0.00     0.027 H 
ATOM     16  H   LIG d   1       9.709   7.776  -2.966  0.00  0.00     0.027 H 
ENDBRANCH  10  13
ENDBRANCH   8   9
ENDBRANCH   6   7
ENDBRANCH   3   5
BRANCH   3  17
ATOM     17  O   LIG d   1       7.321   1.523  -7.226  0.00  0.00    -0.376 OA
ATOM     18  H   LIG d   1       7.583   2.453  -7.205  0.00  0.00     0.211 HD
ENDBRANCH   3  17
ENDBRANCH   1   3
BRANCH   1  19
ATOM     19  C   LIG d   1       6.647  -0.284  -4.033  0.00  0.00    -0.056 C 
ATOM     20  C   LIG d   1       5.855  -0.018  -3.024  0.00  0.00    -0.085 C 
ATOM     21  H   LIG d   1       6.042  -0.467  -2.060  0.00  0.00     0.057 H 
ATOM     22  H   LIG d   1       7.517  -0.906  -3.888  0.00  0.00     0.060 H 
BRANCH  20  23
ATOM     23  C   LIG d   1       4.684   0.911  -3.210  0.00  0.00    -0.033 C 
ATOM     24  H   LIG d   1       4.951   1.906  -2.855  0.00  0.00     0.031 H 
ATOM     25  H   LIG d   1       4.422   0.960  -4.266  0.00  0.00     0.031 H 
BRANCH  23  26
ATOM     26  C   LIG d   1       3.487   0.389  -2.412  0.00  0.00    -0.026 C 
ATOM     27  H   LIG d   1       3.804   0.148  -1.397  0.00  0.00     0.029 H 
ATOM     28  H   LIG d   1       2.711   1.154  -2.379  0.00  0.00     0.029 H 
BRANCH  26  29
ATOM     29  C   LIG d   1       2.934  -0.869  -3.086  0.00  0.00     0.044 C 
ATOM     30  H   LIG d   1       3.761  -1.508  -3.397  0.00  0.00     0.056 H 
ATOM     31  H   LIG d   1       2.302  -1.410  -2.382  0.00  0.00     0.056 H 
BRANCH  29  32
ATOM     32  O   LIG d   1       2.163  -0.495  -4.230  0.00  0.00    -0.395 OA
ATOM     33  H   LIG d   1       1.216  -0.402  -4.053  0.00  0.00     0.209 HD
ENDBRANCH  29  32
ENDBRANCH  26  29
ENDBRANCH  23  26
ENDBRANCH  20  23
ENDBRANCH   1  19
BRANCH   1  34
ATOM     34  O   LIG d   1       5.791  -0.745  -6.225  0.00  0.00    -0.338 OA
BRANCH  34  35
ATOM     35  C   LIG d   1       4.563  -0.380  -6.858  0.00  0.00     0.189 C 
ATOM     36  H   LIG d   1       3.810  -0.171  -6.099  0.00  0.00     0.094 H 
ATOM     37  O   LIG d   1       4.767   0.787  -7.659  0.00  0.00    -0.341 OA
ATOM     38  C   LIG d   1       3.589   1.253  -8.321  0.00  0.00     0.113 C 
ATOM     39  C   LIG d   1       3.074   0.167  -9.269  0.00  0.00     0.112 C 
ATOM     40  H   LIG d   1       2.823   1.483  -7.580  0.00  0.00     0.065 H 
ATOM     41  C   LIG d   1       2.802  -1.111  -8.470  0.00  0.00     0.114 C 
ATOM     42  H   LIG d   1       2.151   0.504  -9.741  0.00  0.00     0.065 H 
ATOM     43  C   LIG d   1       4.085  -1.531  -7.748  0.00  0.00     0.134 C 
ATOM     44  H   LIG d   1       2.017  -0.923  -7.738  0.00  0.00     0.065 H 
ATOM     45  H   LIG d   1       3.887  -2.409  -7.132  0.00  0.00     0.067 H 
BRANCH  38  46
ATOM     46  C   LIG d   1       3.921   2.515  -9.122  0.00  0.00     0.073 C 
ATOM     47  H   LIG d   1       3.401   2.484 -10.078  0.00  0.00     0.058 H 
ATOM     48  H   LIG d   1       3.601   3.393  -8.561  0.00  0.00     0.058 H 
BRANCH  46  49
ATOM     49  O   LIG d   1       5.330   2.580  -9.347  0.00  0.00    -0.392 OA
ATOM     50  H   LIG d   1       5.792   3.207  -8.774  0.00  0.00     0.209 HD
ENDBRANCH  46  49
ENDBRANCH  38  46
BRANCH  39  51
ATOM     51  O   LIG d   1       4.055  -0.097 -10.273  0.00  0.00    -0.387 OA
ATOM     52  H   LIG d   1       3.683  -0.319 -11.138  0.00  0.00     0.210 HD
ENDBRANCH  39  51
BRANCH  41  53
ATOM     53  O   LIG d   1       2.388  -2.152  -9.356  0.00  0.00    -0.386 OA
ATOM     54  H   LIG d   1       2.195  -2.991  -8.914  0.00  0.00     0.210 HD
ENDBRANCH  41  53
BRANCH  43  55
ATOM     55  O   LIG d   1       5.096  -1.842  -8.710  0.00  0.00    -0.384 OA
ATOM     56  H   LIG d   1       5.491  -2.717  -8.597  0.00  0.00     0.210 HD
ENDBRANCH  43  55
ENDBRANCH  34  35
ENDBRANCH   1  34
TORSDOF 18
ENDMDL
MODEL 10
REMARK VINA RESULT:      -5.2      5.508     10.124
REMARK  18 active torsions:
REMARK  status: ('A' for Active; 'I' for Inactive)
REMARK    1  A    between atoms: C_1  and  C_2 
REMARK    2  A    between atoms: C_3  and  C_4 
REMARK    3  A    between atoms: C_5  and  C_6 
REMARK    4  A    between atoms: C_7  and  C_8 
REMARK    5  A    between atoms: C_8  and  C_10 
REMARK    6  A    between atoms: C_8  and  O_35 
REMARK    7  A    between atoms: C_10  and  C_12 
REMARK    8  A    between atoms: C_10  and  O_18 
REMARK    9  A    between atoms: C_13  and  C_14 
REMARK   10  A    between atoms: C_14  and  C_15 
REMARK   11  A    between atoms: C_15  and  C_16 
REMARK   12  A    between atoms: C_16  and  O_17 
REMARK   13  A    between atoms: O_18  and  C_19 
REMARK   14  A    between atoms: C_21  and  O_34 
REMARK   15  A    between atoms: C_23  and  O_33 
REMARK   16  A    between atoms: C_25  and  O_32 
REMARK   17  A    between atoms: C_27  and  C_30 
REMARK   18  A    between atoms: C_30  and  O_31 
ROOT
ATOM      1  C   LIG d   1       4.994  -1.927  -4.511  0.00  0.00     0.117 C 
ATOM      2  H   LIG d   1       4.758  -0.863  -4.493  0.00  0.00     0.068 H 
ENDROOT
BRANCH   1   3
ATOM      3  C   LIG d   1       6.512  -2.113  -4.525  0.00  0.00     0.146 C 
ATOM      4  H   LIG d   1       6.800  -2.808  -3.737  0.00  0.00     0.076 H 
BRANCH   3   5
ATOM      5  C   LIG d   1       7.168  -0.815  -4.299  0.00  0.00    -0.054 C 
ATOM      6  C   LIG d   1       7.690   0.221  -4.117  0.00  0.00    -0.012 C 
BRANCH   6   7
ATOM      7  C   LIG d   1       8.303   1.435  -3.906  0.00  0.00    -0.010 C 
ATOM      8  C   LIG d   1       8.827   2.471  -3.725  0.00  0.00    -0.061 C 
BRANCH   8   9
ATOM      9  C   LIG d   1       9.464   3.733  -3.504  0.00  0.00    -0.015 C 
ATOM     10  C   LIG d   1       9.876   4.463  -4.539  0.00  0.00    -0.079 C 
ATOM     11  H   LIG d   1      10.358   5.416  -4.372  0.00  0.00     0.058 H 
ATOM     12  H   LIG d   1       9.613   4.094  -2.496  0.00  0.00     0.071 H 
BRANCH  10  13
ATOM     13  C   LIG d   1       9.668   3.961  -5.946  0.00  0.00    -0.046 C 
ATOM     14  H   LIG d   1       9.246   4.759  -6.557  0.00  0.00     0.027 H 
ATOM     15  H   LIG d   1      10.624   3.649  -6.364  0.00  0.00     0.027 H 
ATOM     16  H   LIG d   1       8.983   3.113  -5.931  0.00  0.00     0.027 H 
ENDBRANCH  10  13
ENDBRANCH   8   9
ENDBRANCH   6   7
ENDBRANCH   3   5
BRANCH   3  17
ATOM     17  O   LIG d   1       6.916  -2.636  -5.792  0.00  0.00    -0.376 OA
ATOM     18  H   LIG d   1       7.213  -3.556  -5.760  0.00  0.00     0.211 HD
ENDBRANCH   3  17
ENDBRANCH   1   3
BRANCH   1  19
ATOM     19  C   LIG d   1       4.418  -2.589  -3.286  0.00  0.00    -0.056 C 
ATOM     20  C   LIG d   1       3.636  -1.912  -2.482  0.00  0.00    -0.085 C 
ATOM     21  H   LIG d   1       3.181  -2.401  -1.634  0.00  0.00     0.057 H 
ATOM     22  H   LIG d   1       4.649  -3.622  -3.071  0.00  0.00     0.060 H 
BRANCH  20  23
ATOM     23  C   LIG d   1       3.375  -0.451  -2.739  0.00  0.00    -0.033 C 
ATOM     24  H   LIG d   1       3.556  -0.229  -3.790  0.00  0.00     0.031 H 
ATOM     25  H   LIG d   1       2.340  -0.218  -2.491  0.00  0.00     0.031 H 
BRANCH  23  26
ATOM     26  C   LIG d   1       4.310   0.395  -1.871  0.00  0.00    -0.026 C 
ATOM     27  H   LIG d   1       3.789   0.695  -0.962  0.00  0.00     0.029 H 
ATOM     28  H   LIG d   1       5.191  -0.190  -1.609  0.00  0.00     0.029 H 
BRANCH  26  29
ATOM     29  C   LIG d   1       4.738   1.642  -2.648  0.00  0.00     0.044 C 
ATOM     30  H   LIG d   1       4.994   2.437  -1.948  0.00  0.00     0.056 H 
ATOM     31  H   LIG d   1       5.607   1.406  -3.262  0.00  0.00     0.056 H 
BRANCH  29  32
ATOM     32  O   LIG d   1       3.664   2.072  -3.487  0.00  0.00    -0.395 OA
ATOM     33  H   LIG d   1       3.109   2.760  -3.093  0.00  0.00     0.209 HD
ENDBRANCH  29  32
ENDBRANCH  26  29
ENDBRANCH  23  26
ENDBRANCH  20  23
ENDBRANCH   1  19
BRANCH   1  34
ATOM     34  O   LIG d   1       4.430  -2.521  -5.683  0.00  0.00    -0.338 OA
BRANCH  34  35
ATOM     35  C   LIG d   1       4.577  -1.729  -6.864  0.00  0.00     0.189 C 
ATOM     36  H   LIG d   1       5.635  -1.637  -7.111  0.00  0.00     0.094 H 
ATOM     37  O   LIG d   1       3.888  -2.357  -7.948  0.00  0.00    -0.341 OA
ATOM     38  C   LIG d   1       3.992  -1.656  -9.189  0.00  0.00     0.113 C 
ATOM     39  C   LIG d   1       3.378  -0.262  -9.040  0.00  0.00     0.112 C 
ATOM     40  H   LIG d   1       5.042  -1.563  -9.466  0.00  0.00     0.065 H 
ATOM     41  C   LIG d   1       4.093   0.485  -7.909  0.00  0.00     0.114 C 
ATOM     42  H   LIG d   1       3.496   0.290  -9.972  0.00  0.00     0.065 H 
ATOM     43  C   LIG d   1       3.986  -0.337  -6.622  0.00  0.00     0.134 C 
ATOM     44  H   LIG d   1       5.143   0.621  -8.170  0.00  0.00     0.065 H 
ATOM     45  H   LIG d   1       4.540   0.159  -5.825  0.00  0.00     0.067 H 
BRANCH  38  46
ATOM     46  C   LIG d   1       3.243  -2.430 -10.275  0.00  0.00     0.073 C 
ATOM     47  H   LIG d   1       3.406  -3.498 -10.137  0.00  0.00     0.058 H 
ATOM     48  H   LIG d   1       2.177  -2.213 -10.206  0.00  0.00     0.058 H 
BRANCH  46  49
ATOM     49  O   LIG d   1       3.727  -2.036 -11.561  0.00  0.00    -0.392 OA
ATOM     50  H   LIG d   1       3.266  -2.455 -12.300  0.00  0.00     0.209 HD
ENDBRANCH  46  49
ENDBRANCH  38  46
BRANCH  39  51
ATOM     51  O   LIG d   1       1.988  -0.381  -8.728  0.00  0.00    -0.387 OA
ATOM     52  H   LIG d   1       1.434  -0.608  -9.488  0.00  0.00     0.210 HD
ENDBRANCH  39  51
BRANCH  41  53
ATOM     53  O   LIG d   1       3.480   1.761  -7.714  0.00  0.00    -0.386 OA
ATOM     54  H   LIG d   1       2.549   1.794  -7.973  0.00  0.00     0.210 HD
ENDBRANCH  41  53
BRANCH  43  55
ATOM     55  O   LIG d   1       2.613  -0.460  -6.245  0.00  0.00    -0.384 OA
ATOM     56  H   LIG d   1       2.413  -1.265  -5.748  0.00  0.00     0.210 HD
ENDBRANCH  43  55
ENDBRANCH  34  35
ENDBRANCH   1  34
TORSDOF 18
ENDMDL
