MODEL 1
REMARK VINA RESULT:      -4.9      0.000      0.000
REMARK  10 active torsions:
REMARK  status: ('A' for Active; 'I' for Inactive)
REMARK    1  A    between atoms: C_1  and  C_2 
REMARK    2  A    between atoms: C_2  and  C_3 
REMARK    3  A    between atoms: C_2  and  C_4 
REMARK    4  A    between atoms: C_4  and  C_5 
REMARK       I    between atoms: C_5  and  N_7 
REMARK    5  A    between atoms: C_9  and  C_24 
REMARK       I    between atoms: N_11  and  C_18 
REMARK    6  A    between atoms: C_13  and  C_17 
REMARK    7  A    between atoms: C_18  and  C_20 
REMARK    8  A    between atoms: C_20  and  C_21 
REMARK    9  A    between atoms: C_21  and  C_22 
REMARK   10  A    between atoms: C_21  and  C_23 
ROOT
ATOM      1  C   LIG d   1       5.283  -1.964  -6.284  0.00  0.00     0.216 C 
ATOM      2  O   LIG d   1       4.464  -2.460  -5.539  0.00  0.00    -0.276 OA
ATOM      3  N   LIG d   1       6.498  -2.530  -6.422  0.00  0.00    -0.299 N 
ATOM      4  C   LIG d   1       7.511  -1.905  -7.282  0.00  0.00     0.028 C 
ATOM      5  C   LIG d   1       8.773  -1.644  -6.447  0.00  0.00     0.058 C 
ATOM      6  C   LIG d   1       8.447  -0.618  -5.350  0.00  0.00     0.028 C 
ATOM      7  N   LIG d   1       7.462  -1.207  -4.434  0.00  0.00    -0.299 N 
ATOM      8  C   LIG d   1       7.777  -2.488  -3.754  0.00  0.00     0.028 C 
ATOM      9  C   LIG d   1       8.078  -3.535  -4.838  0.00  0.00     0.058 C 
ATOM     10  C   LIG d   1       6.813  -3.761  -5.682  0.00  0.00     0.028 C 
ATOM     11  C   LIG d   1       9.139  -2.948  -5.755  0.00  0.00     0.151 C 
ATOM     12  O   LIG d   1      10.207  -3.486  -5.925  0.00  0.00    -0.296 OA
ATOM     13  C   LIG d   1       6.290  -0.582  -4.206  0.00  0.00     0.216 C 
ATOM     14  O   LIG d   1       5.991   0.400  -4.852  0.00  0.00    -0.276 OA
ATOM     15  H   LIG d   1       7.127  -0.961  -7.671  0.00  0.00     0.047 H 
ATOM     16  H   LIG d   1       7.751  -2.571  -8.112  0.00  0.00     0.047 H 
ATOM     17  H   LIG d   1       9.354  -0.369  -4.802  0.00  0.00     0.047 H 
ATOM     18  H   LIG d   1       8.034   0.283  -5.804  0.00  0.00     0.047 H 
ATOM     19  H   LIG d   1       6.914  -2.805  -3.168  0.00  0.00     0.047 H 
ATOM     20  H   LIG d   1       8.644  -2.377  -3.103  0.00  0.00     0.047 H 
ATOM     21  H   LIG d   1       6.994  -4.557  -6.404  0.00  0.00     0.047 H 
ATOM     22  H   LIG d   1       5.983  -4.034  -5.032  0.00  0.00     0.047 H 
ENDROOT
BRANCH   1  23
ATOM     23  C   LIG d   1       4.941  -0.716  -7.055  0.00  0.00     0.026 C 
ATOM     24  H   LIG d   1       5.260   0.160  -6.490  0.00  0.00     0.036 H 
ATOM     25  H   LIG d   1       5.452  -0.732  -8.018  0.00  0.00     0.036 H 
BRANCH  23  26
ATOM     26  C   LIG d   1       3.429  -0.654  -7.282  0.00  0.00    -0.038 C 
ATOM     27  H   LIG d   1       2.989  -1.626  -7.059  0.00  0.00     0.030 H 
BRANCH  26  28
ATOM     28  C   LIG d   1       2.818   0.406  -6.362  0.00  0.00    -0.062 C 
ATOM     29  H   LIG d   1       2.324  -0.083  -5.523  0.00  0.00     0.023 H 
ATOM     30  H   LIG d   1       3.606   1.060  -5.989  0.00  0.00     0.023 H 
ATOM     31  H   LIG d   1       2.090   0.994  -6.920  0.00  0.00     0.023 H 
ENDBRANCH  26  28
BRANCH  26  32
ATOM     32  C   LIG d   1       3.146  -0.288  -8.740  0.00  0.00    -0.062 C 
ATOM     33  H   LIG d   1       2.274  -0.840  -9.090  0.00  0.00     0.023 H 
ATOM     34  H   LIG d   1       2.953   0.783  -8.815  0.00  0.00     0.023 H 
ATOM     35  H   LIG d   1       4.009  -0.545  -9.354  0.00  0.00     0.023 H 
ENDBRANCH  26  32
ENDBRANCH  23  26
ENDBRANCH   1  23
BRANCH   9  36
ATOM     36  C   LIG d   1       8.558  -4.846  -4.213  0.00  0.00    -0.050 C 
ATOM     37  H   LIG d   1       9.588  -4.731  -3.873  0.00  0.00     0.024 H 
ATOM     38  H   LIG d   1       8.509  -5.643  -4.955  0.00  0.00     0.024 H 
ATOM     39  H   LIG d   1       7.921  -5.099  -3.365  0.00  0.00     0.024 H 
ENDBRANCH   9  36
BRANCH   5  40
ATOM     40  C   LIG d   1       9.921  -1.153  -7.331  0.00  0.00    -0.050 C 
ATOM     41  H   LIG d   1       9.909  -1.694  -8.277  0.00  0.00     0.024 H 
ATOM     42  H   LIG d   1       9.803  -0.086  -7.521  0.00  0.00     0.024 H 
ATOM     43  H   LIG d   1      10.870  -1.329  -6.824  0.00  0.00     0.024 H 
ENDBRANCH   5  40
BRANCH  13  44
ATOM     44  C   LIG d   1       5.350  -1.106  -3.151  0.00  0.00     0.026 C 
ATOM     45  H   LIG d   1       4.941  -2.064  -3.470  0.00  0.00     0.036 H 
ATOM     46  H   LIG d   1       5.892  -1.235  -2.214  0.00  0.00     0.036 H 
BRANCH  44  47
ATOM     47  C   LIG d   1       4.208  -0.108  -2.945  0.00  0.00    -0.038 C 
ATOM     48  H   LIG d   1       4.147   0.557  -3.807  0.00  0.00     0.030 H 
BRANCH  47  49
ATOM     49  C   LIG d   1       2.888  -0.868  -2.794  0.00  0.00    -0.062 C 
ATOM     50  H   LIG d   1       2.764  -1.176  -1.757  0.00  0.00     0.023 H 
ATOM     51  H   LIG d   1       2.061  -0.222  -3.084  0.00  0.00     0.023 H 
ATOM     52  H   LIG d   1       2.902  -1.750  -3.436  0.00  0.00     0.023 H 
ENDBRANCH  47  49
BRANCH  47  53
ATOM     53  C   LIG d   1       4.471   0.714  -1.683  0.00  0.00    -0.062 C 
ATOM     54  H   LIG d   1       4.936   1.661  -1.956  0.00  0.00     0.023 H 
ATOM     55  H   LIG d   1       3.526   0.908  -1.173  0.00  0.00     0.023 H 
ATOM     56  H   LIG d   1       5.134   0.160  -1.019  0.00  0.00     0.023 H 
ENDBRANCH  47  53
ENDBRANCH  44  47
ENDBRANCH  13  44
TORSDOF 10
ENDMDL
MODEL 2
REMARK VINA RESULT:      -4.9      0.119      3.931
REMARK  10 active torsions:
REMARK  status: ('A' for Active; 'I' for Inactive)
REMARK    1  A    between atoms: C_1  and  C_2 
REMARK    2  A    between atoms: C_2  and  C_3 
REMARK    3  A    between atoms: C_2  and  C_4 
REMARK    4  A    between atoms: C_4  and  C_5 
REMARK       I    between atoms: C_5  and  N_7 
REMARK    5  A    between atoms: C_9  and  C_24 
REMARK       I    between atoms: N_11  and  C_18 
REMARK    6  A    between atoms: C_13  and  C_17 
REMARK    7  A    between atoms: C_18  and  C_20 
REMARK    8  A    between atoms: C_20  and  C_21 
REMARK    9  A    between atoms: C_21  and  C_22 
REMARK   10  A    between atoms: C_21  and  C_23 
ROOT
ATOM      1  C   LIG d   1       6.245  -0.520  -4.221  0.00  0.00     0.216 C 
ATOM      2  O   LIG d   1       5.980   0.498  -4.823  0.00  0.00    -0.276 OA
ATOM      3  N   LIG d   1       7.433  -1.127  -4.410  0.00  0.00    -0.299 N 
ATOM      4  C   LIG d   1       7.737  -2.388  -3.722  0.00  0.00     0.028 C 
ATOM      5  C   LIG d   1       8.097  -3.448  -4.774  0.00  0.00     0.058 C 
ATOM      6  C   LIG d   1       6.867  -3.722  -5.654  0.00  0.00     0.028 C 
ATOM      7  N   LIG d   1       6.539  -2.500  -6.398  0.00  0.00    -0.299 N 
ATOM      8  C   LIG d   1       7.569  -1.880  -7.269  0.00  0.00     0.028 C 
ATOM      9  C   LIG d   1       8.798  -1.572  -6.399  0.00  0.00     0.058 C 
ATOM     10  C   LIG d   1       8.411  -0.533  -5.334  0.00  0.00     0.028 C 
ATOM     11  C   LIG d   1       9.173  -2.853  -5.670  0.00  0.00     0.151 C 
ATOM     12  O   LIG d   1      10.259  -3.366  -5.794  0.00  0.00    -0.296 OA
ATOM     13  C   LIG d   1       5.312  -1.954  -6.298  0.00  0.00     0.216 C 
ATOM     14  O   LIG d   1       4.515  -2.396  -5.497  0.00  0.00    -0.276 OA
ATOM     15  H   LIG d   1       6.864  -2.715  -3.157  0.00  0.00     0.047 H 
ATOM     16  H   LIG d   1       8.578  -2.244  -3.044  0.00  0.00     0.047 H 
ATOM     17  H   LIG d   1       7.091  -4.527  -6.353  0.00  0.00     0.047 H 
ATOM     18  H   LIG d   1       6.025  -4.007  -5.025  0.00  0.00     0.047 H 
ATOM     19  H   LIG d   1       7.176  -0.954  -7.688  0.00  0.00     0.047 H 
ATOM     20  H   LIG d   1       7.853  -2.558  -8.073  0.00  0.00     0.047 H 
ATOM     21  H   LIG d   1       9.294  -0.250  -4.761  0.00  0.00     0.047 H 
ATOM     22  H   LIG d   1       7.988   0.347  -5.818  0.00  0.00     0.047 H 
ENDROOT
BRANCH   1  23
ATOM     23  C   LIG d   1       5.244  -1.107  -3.259  0.00  0.00     0.026 C 
ATOM     24  H   LIG d   1       4.804  -2.005  -3.694  0.00  0.00     0.036 H 
ATOM     25  H   LIG d   1       5.745  -1.365  -2.326  0.00  0.00     0.036 H 
BRANCH  23  26
ATOM     26  C   LIG d   1       4.142  -0.083  -2.980  0.00  0.00    -0.038 C 
ATOM     27  H   LIG d   1       4.091   0.628  -3.806  0.00  0.00     0.030 H 
BRANCH  26  28
ATOM     28  C   LIG d   1       2.799  -0.802  -2.842  0.00  0.00    -0.062 C 
ATOM     29  H   LIG d   1       2.206  -0.640  -3.741  0.00  0.00     0.023 H 
ATOM     30  H   LIG d   1       2.971  -1.870  -2.709  0.00  0.00     0.023 H 
ATOM     31  H   LIG d   1       2.264  -0.410  -1.977  0.00  0.00     0.023 H 
ENDBRANCH  26  28
BRANCH  26  32
ATOM     32  C   LIG d   1       4.456   0.664  -1.683  0.00  0.00    -0.062 C 
ATOM     33  H   LIG d   1       3.989   1.648  -1.708  0.00  0.00     0.023 H 
ATOM     34  H   LIG d   1       4.068   0.098  -0.835  0.00  0.00     0.023 H 
ATOM     35  H   LIG d   1       5.536   0.777  -1.580  0.00  0.00     0.023 H 
ENDBRANCH  26  32
ENDBRANCH  23  26
ENDBRANCH   1  23
BRANCH   9  36
ATOM     36  C   LIG d   1       9.962  -1.068  -7.255  0.00  0.00    -0.050 C 
ATOM     37  H   LIG d   1       9.576  -0.444  -8.061  0.00  0.00     0.024 H 
ATOM     38  H   LIG d   1      10.497  -1.918  -7.677  0.00  0.00     0.024 H 
ATOM     39  H   LIG d   1      10.641  -0.482  -6.635  0.00  0.00     0.024 H 
ENDBRANCH   9  36
BRANCH   5  40
ATOM     40  C   LIG d   1       8.591  -4.734  -4.108  0.00  0.00    -0.050 C 
ATOM     41  H   LIG d   1       8.885  -5.451  -4.874  0.00  0.00     0.024 H 
ATOM     42  H   LIG d   1       9.448  -4.508  -3.473  0.00  0.00     0.024 H 
ATOM     43  H   LIG d   1       7.791  -5.159  -3.501  0.00  0.00     0.024 H 
ENDBRANCH   5  40
BRANCH  13  44
ATOM     44  C   LIG d   1       4.929  -0.793  -7.179  0.00  0.00     0.026 C 
ATOM     45  H   LIG d   1       5.282   0.136  -6.731  0.00  0.00     0.036 H 
ATOM     46  H   LIG d   1       5.382  -0.919  -8.162  0.00  0.00     0.036 H 
BRANCH  44  47
ATOM     47  C   LIG d   1       3.405  -0.742  -7.323  0.00  0.00    -0.038 C 
ATOM     48  H   LIG d   1       2.977  -1.684  -6.981  0.00  0.00     0.030 H 
BRANCH  47  49
ATOM     49  C   LIG d   1       2.852   0.406  -6.476  0.00  0.00    -0.062 C 
ATOM     50  H   LIG d   1       3.506   0.573  -5.620  0.00  0.00     0.023 H 
ATOM     51  H   LIG d   1       2.804   1.312  -7.079  0.00  0.00     0.023 H 
ATOM     52  H   LIG d   1       1.852   0.149  -6.125  0.00  0.00     0.023 H 
ENDBRANCH  47  49
BRANCH  47  53
ATOM     53  C   LIG d   1       3.039  -0.518  -8.790  0.00  0.00    -0.062 C 
ATOM     54  H   LIG d   1       3.854  -0.866  -9.425  0.00  0.00     0.023 H 
ATOM     55  H   LIG d   1       2.131  -1.073  -9.027  0.00  0.00     0.023 H 
ATOM     56  H   LIG d   1       2.871   0.545  -8.965  0.00  0.00     0.023 H 
ENDBRANCH  47  53
ENDBRANCH  44  47
ENDBRANCH  13  44
TORSDOF 10
ENDMDL
MODEL 3
REMARK VINA RESULT:      -4.9      2.220      2.991
REMARK  10 active torsions:
REMARK  status: ('A' for Active; 'I' for Inactive)
REMARK    1  A    between atoms: C_1  and  C_2 
REMARK    2  A    between atoms: C_2  and  C_3 
REMARK    3  A    between atoms: C_2  and  C_4 
REMARK    4  A    between atoms: C_4  and  C_5 
REMARK       I    between atoms: C_5  and  N_7 
REMARK    5  A    between atoms: C_9  and  C_24 
REMARK       I    between atoms: N_11  and  C_18 
REMARK    6  A    between atoms: C_13  and  C_17 
REMARK    7  A    between atoms: C_18  and  C_20 
REMARK    8  A    between atoms: C_20  and  C_21 
REMARK    9  A    between atoms: C_21  and  C_22 
REMARK   10  A    between atoms: C_21  and  C_23 
ROOT
ATOM      1  C   LIG d   1       3.929  -0.611  -7.995  0.00  0.00     0.216 C 
ATOM      2  O   LIG d   1       2.833  -0.588  -7.477  0.00  0.00    -0.276 OA
ATOM      3  N   LIG d   1       4.526  -1.790  -8.259  0.00  0.00    -0.299 N 
ATOM      4  C   LIG d   1       5.875  -1.822  -8.838  0.00  0.00     0.028 C 
ATOM      5  C   LIG d   1       6.788  -2.644  -7.915  0.00  0.00     0.058 C 
ATOM      6  C   LIG d   1       6.915  -1.925  -6.563  0.00  0.00     0.028 C 
ATOM      7  N   LIG d   1       5.597  -1.897  -5.918  0.00  0.00    -0.299 N 
ATOM      8  C   LIG d   1       4.883  -3.174  -5.668  0.00  0.00     0.028 C 
ATOM      9  C   LIG d   1       4.720  -3.895  -7.015  0.00  0.00     0.058 C 
ATOM     10  C   LIG d   1       3.830  -3.044  -7.934  0.00  0.00     0.028 C 
ATOM     11  C   LIG d   1       6.095  -3.974  -7.658  0.00  0.00     0.151 C 
ATOM     12  O   LIG d   1       6.607  -5.029  -7.948  0.00  0.00    -0.296 OA
ATOM     13  C   LIG d   1       5.048  -0.723  -5.550  0.00  0.00     0.216 C 
ATOM     14  O   LIG d   1       5.580   0.321  -5.863  0.00  0.00    -0.276 OA
ATOM     15  H   LIG d   1       6.261  -0.806  -8.922  0.00  0.00     0.047 H 
ATOM     16  H   LIG d   1       5.841  -2.283  -9.825  0.00  0.00     0.047 H 
ATOM     17  H   LIG d   1       7.622  -2.461  -5.930  0.00  0.00     0.047 H 
ATOM     18  H   LIG d   1       7.268  -0.906  -6.724  0.00  0.00     0.047 H 
ATOM     19  H   LIG d   1       3.902  -2.960  -5.246  0.00  0.00     0.047 H 
ATOM     20  H   LIG d   1       5.450  -3.804  -4.982  0.00  0.00     0.047 H 
ATOM     21  H   LIG d   1       3.645  -3.583  -8.864  0.00  0.00     0.047 H 
ATOM     22  H   LIG d   1       2.884  -2.833  -7.436  0.00  0.00     0.047 H 
ENDROOT
BRANCH   1  23
ATOM     23  C   LIG d   1       4.624   0.680  -8.344  0.00  0.00     0.026 C 
ATOM     24  H   LIG d   1       4.759   1.276  -7.442  0.00  0.00     0.036 H 
ATOM     25  H   LIG d   1       5.597   0.461  -8.784  0.00  0.00     0.036 H 
BRANCH  23  26
ATOM     26  C   LIG d   1       3.775   1.461  -9.349  0.00  0.00    -0.038 C 
ATOM     27  H   LIG d   1       2.719   1.261  -9.165  0.00  0.00     0.030 H 
BRANCH  26  28
ATOM     28  C   LIG d   1       4.046   2.958  -9.192  0.00  0.00    -0.062 C 
ATOM     29  H   LIG d   1       5.082   3.110  -8.890  0.00  0.00     0.023 H 
ATOM     30  H   LIG d   1       3.868   3.461 -10.142  0.00  0.00     0.023 H 
ATOM     31  H   LIG d   1       3.382   3.370  -8.432  0.00  0.00     0.023 H 
ENDBRANCH  26  28
BRANCH  26  32
ATOM     32  C   LIG d   1       4.136   1.024 -10.770  0.00  0.00    -0.062 C 
ATOM     33  H   LIG d   1       3.541   1.591 -11.487  0.00  0.00     0.023 H 
ATOM     34  H   LIG d   1       5.195   1.210 -10.949  0.00  0.00     0.023 H 
ATOM     35  H   LIG d   1       3.929  -0.040 -10.887  0.00  0.00     0.023 H 
ENDBRANCH  26  32
ENDBRANCH  23  26
ENDBRANCH   1  23
BRANCH   9  36
ATOM     36  C   LIG d   1       4.126  -5.291  -6.819  0.00  0.00    -0.050 C 
ATOM     37  H   LIG d   1       4.892  -5.961  -6.429  0.00  0.00     0.024 H 
ATOM     38  H   LIG d   1       3.764  -5.670  -7.775  0.00  0.00     0.024 H 
ATOM     39  H   LIG d   1       3.297  -5.237  -6.112  0.00  0.00     0.024 H 
ENDBRANCH   9  36
BRANCH   5  40
ATOM     40  C   LIG d   1       8.161  -2.858  -8.554  0.00  0.00    -0.050 C 
ATOM     41  H   LIG d   1       8.305  -2.136  -9.357  0.00  0.00     0.024 H 
ATOM     42  H   LIG d   1       8.937  -2.722  -7.800  0.00  0.00     0.024 H 
ATOM     43  H   LIG d   1       8.221  -3.868  -8.959  0.00  0.00     0.024 H 
ENDBRANCH   5  40
BRANCH  13  44
ATOM     44  C   LIG d   1       3.770  -0.707  -4.751  0.00  0.00     0.026 C 
ATOM     45  H   LIG d   1       3.155   0.135  -5.065  0.00  0.00     0.036 H 
ATOM     46  H   LIG d   1       3.226  -1.637  -4.918  0.00  0.00     0.036 H 
BRANCH  44  47
ATOM     47  C   LIG d   1       4.101  -0.570  -3.263  0.00  0.00    -0.038 C 
ATOM     48  H   LIG d   1       5.174  -0.428  -3.141  0.00  0.00     0.030 H 
BRANCH  47  49
ATOM     49  C   LIG d   1       3.359   0.638  -2.686  0.00  0.00    -0.062 C 
ATOM     50  H   LIG d   1       4.064   1.452  -2.523  0.00  0.00     0.023 H 
ATOM     51  H   LIG d   1       2.587   0.959  -3.384  0.00  0.00     0.023 H 
ATOM     52  H   LIG d   1       2.898   0.362  -1.737  0.00  0.00     0.023 H 
ENDBRANCH  47  49
BRANCH  47  53
ATOM     53  C   LIG d   1       3.666  -1.837  -2.525  0.00  0.00    -0.062 C 
ATOM     54  H   LIG d   1       4.431  -2.117  -1.802  0.00  0.00     0.023 H 
ATOM     55  H   LIG d   1       2.726  -1.650  -2.005  0.00  0.00     0.023 H 
ATOM     56  H   LIG d   1       3.529  -2.647  -3.242  0.00  0.00     0.023 H 
ENDBRANCH  47  53
ENDBRANCH  44  47
ENDBRANCH  13  44
TORSDOF 10
ENDMDL
MODEL 4
REMARK VINA RESULT:      -4.8      2.186      5.298
REMARK  10 active torsions:
REMARK  status: ('A' for Active; 'I' for Inactive)
REMARK    1  A    between atoms: C_1  and  C_2 
REMARK    2  A    between atoms: C_2  and  C_3 
REMARK    3  A    between atoms: C_2  and  C_4 
REMARK    4  A    between atoms: C_4  and  C_5 
REMARK       I    between atoms: C_5  and  N_7 
REMARK    5  A    between atoms: C_9  and  C_24 
REMARK       I    between atoms: N_11  and  C_18 
REMARK    6  A    between atoms: C_13  and  C_17 
REMARK    7  A    between atoms: C_18  and  C_20 
REMARK    8  A    between atoms: C_20  and  C_21 
REMARK    9  A    between atoms: C_21  and  C_22 
REMARK   10  A    between atoms: C_21  and  C_23 
ROOT
ATOM      1  C   LIG d   1       6.550  -0.265  -6.651  0.00  0.00     0.216 C 
ATOM      2  O   LIG d   1       6.489   0.643  -5.850  0.00  0.00    -0.276 OA
ATOM      3  N   LIG d   1       6.107  -0.083  -7.911  0.00  0.00    -0.299 N 
ATOM      4  C   LIG d   1       6.130  -1.194  -8.870  0.00  0.00     0.028 C 
ATOM      5  C   LIG d   1       4.708  -1.410  -9.410  0.00  0.00     0.058 C 
ATOM      6  C   LIG d   1       3.795  -1.854  -8.256  0.00  0.00     0.028 C 
ATOM      7  N   LIG d   1       3.703  -0.761  -7.280  0.00  0.00    -0.299 N 
ATOM      8  C   LIG d   1       3.227   0.572  -7.725  0.00  0.00     0.028 C 
ATOM      9  C   LIG d   1       4.148   1.047  -8.860  0.00  0.00     0.058 C 
ATOM     10  C   LIG d   1       5.571   1.227  -8.309  0.00  0.00     0.028 C 
ATOM     11  C   LIG d   1       4.199  -0.063  -9.899  0.00  0.00     0.151 C 
ATOM     12  O   LIG d   1       3.856   0.115 -11.043  0.00  0.00    -0.296 OA
ATOM     13  C   LIG d   1       4.039  -0.973  -5.993  0.00  0.00     0.216 C 
ATOM     14  O   LIG d   1       4.537  -2.028  -5.661  0.00  0.00    -0.276 OA
ATOM     15  H   LIG d   1       6.473  -2.101  -8.370  0.00  0.00     0.047 H 
ATOM     16  H   LIG d   1       6.803  -0.956  -9.694  0.00  0.00     0.047 H 
ATOM     17  H   LIG d   1       2.803  -2.083  -8.644  0.00  0.00     0.047 H 
ATOM     18  H   LIG d   1       4.214  -2.740  -7.779  0.00  0.00     0.047 H 
ATOM     19  H   LIG d   1       3.285   1.271  -6.891  0.00  0.00     0.047 H 
ATOM     20  H   LIG d   1       2.201   0.514  -8.087  0.00  0.00     0.047 H 
ATOM     21  H   LIG d   1       6.215   1.637  -9.087  0.00  0.00     0.047 H 
ATOM     22  H   LIG d   1       5.550   1.903  -7.455  0.00  0.00     0.047 H 
ENDROOT
BRANCH   1  23
ATOM     23  C   LIG d   1       7.122  -1.596  -6.238  0.00  0.00     0.026 C 
ATOM     24  H   LIG d   1       6.310  -2.293  -6.033  0.00  0.00     0.036 H 
ATOM     25  H   LIG d   1       7.743  -1.990  -7.043  0.00  0.00     0.036 H 
BRANCH  23  26
ATOM     26  C   LIG d   1       7.973  -1.418  -4.979  0.00  0.00    -0.038 C 
ATOM     27  H   LIG d   1       7.967  -0.369  -4.683  0.00  0.00     0.030 H 
BRANCH  26  28
ATOM     28  C   LIG d   1       7.395  -2.271  -3.848  0.00  0.00    -0.062 C 
ATOM     29  H   LIG d   1       8.116  -2.329  -3.033  0.00  0.00     0.023 H 
ATOM     30  H   LIG d   1       6.473  -1.818  -3.486  0.00  0.00     0.023 H 
ATOM     31  H   LIG d   1       7.187  -3.274  -4.220  0.00  0.00     0.023 H 
ENDBRANCH  26  28
BRANCH  26  32
ATOM     32  C   LIG d   1       9.409  -1.858  -5.268  0.00  0.00    -0.062 C 
ATOM     33  H   LIG d   1       9.489  -2.184  -6.305  0.00  0.00     0.023 H 
ATOM     34  H   LIG d   1      10.087  -1.021  -5.096  0.00  0.00     0.023 H 
ATOM     35  H   LIG d   1       9.677  -2.682  -4.606  0.00  0.00     0.023 H 
ENDBRANCH  26  32
ENDBRANCH  23  26
ENDBRANCH   1  23
BRANCH   9  36
ATOM     36  C   LIG d   1       3.631   2.349  -9.475  0.00  0.00    -0.050 C 
ATOM     37  H   LIG d   1       4.077   3.198  -8.956  0.00  0.00     0.024 H 
ATOM     38  H   LIG d   1       2.546   2.392  -9.378  0.00  0.00     0.024 H 
ATOM     39  H   LIG d   1       3.904   2.385 -10.530  0.00  0.00     0.024 H 
ENDBRANCH   9  36
BRANCH   5  40
ATOM     40  C   LIG d   1       4.703  -2.440 -10.541  0.00  0.00    -0.050 C 
ATOM     41  H   LIG d   1       5.010  -3.410 -10.150  0.00  0.00     0.024 H 
ATOM     42  H   LIG d   1       3.698  -2.517 -10.957  0.00  0.00     0.024 H 
ATOM     43  H   LIG d   1       5.396  -2.127 -11.321  0.00  0.00     0.024 H 
ENDBRANCH   5  40
BRANCH  13  44
ATOM     44  C   LIG d   1       3.797   0.102  -4.965  0.00  0.00     0.026 C 
ATOM     45  H   LIG d   1       4.476   0.935  -5.143  0.00  0.00     0.036 H 
ATOM     46  H   LIG d   1       2.767   0.450  -5.039  0.00  0.00     0.036 H 
BRANCH  44  47
ATOM     47  C   LIG d   1       4.043  -0.466  -3.565  0.00  0.00    -0.038 C 
ATOM     48  H   LIG d   1       4.657  -1.363  -3.640  0.00  0.00     0.030 H 
BRANCH  47  49
ATOM     49  C   LIG d   1       4.768   0.578  -2.712  0.00  0.00    -0.062 C 
ATOM     50  H   LIG d   1       4.063   1.351  -2.408  0.00  0.00     0.023 H 
ATOM     51  H   LIG d   1       5.186   0.098  -1.827  0.00  0.00     0.023 H 
ATOM     52  H   LIG d   1       5.572   1.028  -3.295  0.00  0.00     0.023 H 
ENDBRANCH  47  49
BRANCH  47  53
ATOM     53  C   LIG d   1       2.704  -0.816  -2.914  0.00  0.00    -0.062 C 
ATOM     54  H   LIG d   1       1.905  -0.264  -3.409  0.00  0.00     0.023 H 
ATOM     55  H   LIG d   1       2.522  -1.886  -3.012  0.00  0.00     0.023 H 
ATOM     56  H   LIG d   1       2.731  -0.547  -1.858  0.00  0.00     0.023 H 
ENDBRANCH  47  53
ENDBRANCH  44  47
ENDBRANCH  13  44
TORSDOF 10
ENDMDL
MODEL 5
REMARK VINA RESULT:      -4.8      2.183      4.920
REMARK  10 active torsions:
REMARK  status: ('A' for Active; 'I' for Inactive)
REMARK    1  A    between atoms: C_1  and  C_2 
REMARK    2  A    between atoms: C_2  and  C_3 
REMARK    3  A    between atoms: C_2  and  C_4 
REMARK    4  A    between atoms: C_4  and  C_5 
REMARK       I    between atoms: C_5  and  N_7 
REMARK    5  A    between atoms: C_9  and  C_24 
REMARK       I    between atoms: N_11  and  C_18 
REMARK    6  A    between atoms: C_13  and  C_17 
REMARK    7  A    between atoms: C_18  and  C_20 
REMARK    8  A    between atoms: C_20  and  C_21 
REMARK    9  A    between atoms: C_21  and  C_22 
REMARK   10  A    between atoms: C_21  and  C_23 
ROOT
ATOM      1  C   LIG d   1       5.218  -0.735  -5.482  0.00  0.00     0.216 C 
ATOM      2  O   LIG d   1       5.831   0.281  -5.732  0.00  0.00    -0.276 OA
ATOM      3  N   LIG d   1       5.709  -1.930  -5.864  0.00  0.00    -0.299 N 
ATOM      4  C   LIG d   1       4.947  -3.158  -5.610  0.00  0.00     0.028 C 
ATOM      5  C   LIG d   1       4.726  -3.886  -6.945  0.00  0.00     0.058 C 
ATOM      6  C   LIG d   1       3.847  -3.013  -7.854  0.00  0.00     0.028 C 
ATOM      7  N   LIG d   1       4.579  -1.781  -8.174  0.00  0.00    -0.299 N 
ATOM      8  C   LIG d   1       5.914  -1.874  -8.816  0.00  0.00     0.028 C 
ATOM      9  C   LIG d   1       6.817  -2.721  -7.905  0.00  0.00     0.058 C 
ATOM     10  C   LIG d   1       7.001  -1.993  -6.564  0.00  0.00     0.028 C 
ATOM     11  C   LIG d   1       6.082  -4.022  -7.619  0.00  0.00     0.151 C 
ATOM     12  O   LIG d   1       6.549  -5.098  -7.908  0.00  0.00    -0.296 OA
ATOM     13  C   LIG d   1       4.037  -0.579  -7.896  0.00  0.00     0.216 C 
ATOM     14  O   LIG d   1       3.003  -0.511  -7.267  0.00  0.00    -0.276 OA
ATOM     15  H   LIG d   1       3.982  -2.904  -5.168  0.00  0.00     0.047 H 
ATOM     16  H   LIG d   1       5.502  -3.803  -4.929  0.00  0.00     0.047 H 
ATOM     17  H   LIG d   1       3.622  -3.554  -8.773  0.00  0.00     0.047 H 
ATOM     18  H   LIG d   1       2.920  -2.766  -7.338  0.00  0.00     0.047 H 
ATOM     19  H   LIG d   1       6.334  -0.874  -8.919  0.00  0.00     0.047 H 
ATOM     20  H   LIG d   1       5.839  -2.346  -9.796  0.00  0.00     0.047 H 
ATOM     21  H   LIG d   1       7.702  -2.547  -5.940  0.00  0.00     0.047 H 
ATOM     22  H   LIG d   1       7.383  -0.988  -6.743  0.00  0.00     0.047 H 
ENDROOT
BRANCH   1  23
ATOM     23  C   LIG d   1       3.906  -0.661  -4.744  0.00  0.00     0.026 C 
ATOM     24  H   LIG d   1       3.347   0.211  -5.083  0.00  0.00     0.036 H 
ATOM     25  H   LIG d   1       3.326  -1.562  -4.943  0.00  0.00     0.036 H 
BRANCH  23  26
ATOM     26  C   LIG d   1       4.171  -0.546  -3.242  0.00  0.00    -0.038 C 
ATOM     27  H   LIG d   1       5.245  -0.471  -3.068  0.00  0.00     0.030 H 
BRANCH  26  28
ATOM     28  C   LIG d   1       3.477   0.702  -2.695  0.00  0.00    -0.062 C 
ATOM     29  H   LIG d   1       3.246   1.380  -3.517  0.00  0.00     0.023 H 
ATOM     30  H   LIG d   1       2.554   0.414  -2.192  0.00  0.00     0.023 H 
ATOM     31  H   LIG d   1       4.136   1.203  -1.986  0.00  0.00     0.023 H 
ENDBRANCH  26  28
BRANCH  26  32
ATOM     32  C   LIG d   1       3.625  -1.786  -2.531  0.00  0.00    -0.062 C 
ATOM     33  H   LIG d   1       4.409  -2.227  -1.916  0.00  0.00     0.023 H 
ATOM     34  H   LIG d   1       2.784  -1.500  -1.898  0.00  0.00     0.023 H 
ATOM     35  H   LIG d   1       3.292  -2.513  -3.272  0.00  0.00     0.023 H 
ENDBRANCH  26  32
ENDBRANCH  23  26
ENDBRANCH   1  23
BRANCH   9  36
ATOM     36  C   LIG d   1       8.168  -2.990  -8.570  0.00  0.00    -0.050 C 
ATOM     37  H   LIG d   1       8.739  -2.063  -8.620  0.00  0.00     0.024 H 
ATOM     38  H   LIG d   1       8.007  -3.372  -9.578  0.00  0.00     0.024 H 
ATOM     39  H   LIG d   1       8.720  -3.726  -7.986  0.00  0.00     0.024 H 
ENDBRANCH   9  36
BRANCH   5  40
ATOM     40  C   LIG d   1       4.087  -5.258  -6.721  0.00  0.00    -0.050 C 
ATOM     41  H   LIG d   1       4.865  -6.020  -6.683  0.00  0.00     0.024 H 
ATOM     42  H   LIG d   1       3.538  -5.254  -5.779  0.00  0.00     0.024 H 
ATOM     43  H   LIG d   1       3.403  -5.478  -7.540  0.00  0.00     0.024 H 
ENDBRANCH   5  40
BRANCH  13  44
ATOM     44  C   LIG d   1       4.719   0.681  -8.364  0.00  0.00     0.026 C 
ATOM     45  H   LIG d   1       4.909   1.331  -7.511  0.00  0.00     0.036 H 
ATOM     46  H   LIG d   1       5.663   0.426  -8.845  0.00  0.00     0.036 H 
BRANCH  44  47
ATOM     47  C   LIG d   1       3.816   1.406  -9.366  0.00  0.00    -0.038 C 
ATOM     48  H   LIG d   1       2.776   1.147  -9.171  0.00  0.00     0.030 H 
BRANCH  47  49
ATOM     49  C   LIG d   1       4.002   2.918  -9.216  0.00  0.00    -0.062 C 
ATOM     50  H   LIG d   1       4.591   3.124  -8.323  0.00  0.00     0.023 H 
ATOM     51  H   LIG d   1       4.519   3.310 -10.091  0.00  0.00     0.023 H 
ATOM     52  H   LIG d   1       3.026   3.396  -9.125  0.00  0.00     0.023 H 
ENDBRANCH  47  49
BRANCH  47  53
ATOM     53  C   LIG d   1       4.190   0.984 -10.787  0.00  0.00    -0.062 C 
ATOM     54  H   LIG d   1       4.874   0.137 -10.746  0.00  0.00     0.023 H 
ATOM     55  H   LIG d   1       3.289   0.698 -11.330  0.00  0.00     0.023 H 
ATOM     56  H   LIG d   1       4.673   1.817 -11.299  0.00  0.00     0.023 H 
ENDBRANCH  47  53
ENDBRANCH  44  47
ENDBRANCH  13  44
TORSDOF 10
ENDMDL
MODEL 6
REMARK VINA RESULT:      -4.8      2.153      5.088
REMARK  10 active torsions:
REMARK  status: ('A' for Active; 'I' for Inactive)
REMARK    1  A    between atoms: C_1  and  C_2 
REMARK    2  A    between atoms: C_2  and  C_3 
REMARK    3  A    between atoms: C_2  and  C_4 
REMARK    4  A    between atoms: C_4  and  C_5 
REMARK       I    between atoms: C_5  and  N_7 
REMARK    5  A    between atoms: C_9  and  C_24 
REMARK       I    between atoms: N_11  and  C_18 
REMARK    6  A    between atoms: C_13  and  C_17 
REMARK    7  A    between atoms: C_18  and  C_20 
REMARK    8  A    between atoms: C_20  and  C_21 
REMARK    9  A    between atoms: C_21  and  C_22 
REMARK   10  A    between atoms: C_21  and  C_23 
ROOT
ATOM      1  C   LIG d   1       4.114  -1.076  -5.921  0.00  0.00     0.216 C 
ATOM      2  O   LIG d   1       4.554  -2.158  -5.597  0.00  0.00    -0.276 OA
ATOM      3  N   LIG d   1       3.739  -0.854  -7.196  0.00  0.00    -0.299 N 
ATOM      4  C   LIG d   1       3.254   0.470  -7.604  0.00  0.00     0.028 C 
ATOM      5  C   LIG d   1       4.121   0.975  -8.768  0.00  0.00     0.058 C 
ATOM      6  C   LIG d   1       5.561   1.177  -8.271  0.00  0.00     0.028 C 
ATOM      7  N   LIG d   1       6.113  -0.127  -7.883  0.00  0.00    -0.299 N 
ATOM      8  C   LIG d   1       6.145  -1.227  -8.879  0.00  0.00     0.028 C 
ATOM      9  C   LIG d   1       4.707  -1.464  -9.366  0.00  0.00     0.058 C 
ATOM     10  C   LIG d   1       3.848  -1.939  -8.183  0.00  0.00     0.028 C 
ATOM     11  C   LIG d   1       4.154  -0.122  -9.820  0.00  0.00     0.151 C 
ATOM     12  O   LIG d   1       3.763   0.060 -10.949  0.00  0.00    -0.296 OA
ATOM     13  C   LIG d   1       6.594  -0.316  -6.639  0.00  0.00     0.216 C 
ATOM     14  O   LIG d   1       6.458   0.547  -5.798  0.00  0.00    -0.276 OA
ATOM     15  H   LIG d   1       3.330   1.162  -6.764  0.00  0.00     0.047 H 
ATOM     16  H   LIG d   1       2.215   0.399  -7.926  0.00  0.00     0.047 H 
ATOM     17  H   LIG d   1       6.165   1.608  -9.069  0.00  0.00     0.047 H 
ATOM     18  H   LIG d   1       5.560   1.847  -7.411  0.00  0.00     0.047 H 
ATOM     19  H   LIG d   1       6.523  -2.131  -8.402  0.00  0.00     0.047 H 
ATOM     20  H   LIG d   1       6.779  -0.964  -9.725  0.00  0.00     0.047 H 
ATOM     21  H   LIG d   1       2.846  -2.183  -8.534  0.00  0.00     0.047 H 
ATOM     22  H   LIG d   1       4.304  -2.818  -7.729  0.00  0.00     0.047 H 
ENDROOT
BRANCH   1  23
ATOM     23  C   LIG d   1       3.985   0.022  -4.896  0.00  0.00     0.026 C 
ATOM     24  H   LIG d   1       4.779   0.754  -5.045  0.00  0.00     0.036 H 
ATOM     25  H   LIG d   1       3.017   0.509  -5.006  0.00  0.00     0.036 H 
BRANCH  23  26
ATOM     26  C   LIG d   1       4.098  -0.575  -3.492  0.00  0.00    -0.038 C 
ATOM     27  H   LIG d   1       4.636  -1.523  -3.543  0.00  0.00     0.030 H 
BRANCH  26  28
ATOM     28  C   LIG d   1       4.857   0.394  -2.585  0.00  0.00    -0.062 C 
ATOM     29  H   LIG d   1       5.908   0.414  -2.872  0.00  0.00     0.023 H 
ATOM     30  H   LIG d   1       4.435   1.394  -2.687  0.00  0.00     0.023 H 
ATOM     31  H   LIG d   1       4.770   0.066  -1.549  0.00  0.00     0.023 H 
ENDBRANCH  26  28
BRANCH  26  32
ATOM     32  C   LIG d   1       2.698  -0.814  -2.925  0.00  0.00    -0.062 C 
ATOM     33  H   LIG d   1       2.276  -1.716  -3.367  0.00  0.00     0.023 H 
ATOM     34  H   LIG d   1       2.760  -0.935  -1.842  0.00  0.00     0.023 H 
ATOM     35  H   LIG d   1       2.060   0.038  -3.158  0.00  0.00     0.023 H 
ENDBRANCH  26  32
ENDBRANCH  23  26
ENDBRANCH   1  23
BRANCH   9  36
ATOM     36  C   LIG d   1       4.677  -2.483 -10.506  0.00  0.00    -0.050 C 
ATOM     37  H   LIG d   1       3.660  -2.571 -10.889  0.00  0.00     0.024 H 
ATOM     38  H   LIG d   1       5.010  -3.453 -10.137  0.00  0.00     0.024 H 
ATOM     39  H   LIG d   1       5.339  -2.152 -11.307  0.00  0.00     0.024 H 
ENDBRANCH   9  36
BRANCH   5  40
ATOM     40  C   LIG d   1       3.555   2.273  -9.348  0.00  0.00    -0.050 C 
ATOM     41  H   LIG d   1       4.289   2.722 -10.018  0.00  0.00     0.024 H 
ATOM     42  H   LIG d   1       2.642   2.055  -9.903  0.00  0.00     0.024 H 
ATOM     43  H   LIG d   1       3.331   2.966  -8.538  0.00  0.00     0.024 H 
ENDBRANCH   5  40
BRANCH  13  44
ATOM     44  C   LIG d   1       7.299  -1.602  -6.292  0.00  0.00     0.026 C 
ATOM     45  H   LIG d   1       6.564  -2.396  -6.160  0.00  0.00     0.036 H 
ATOM     46  H   LIG d   1       7.983  -1.869  -7.097  0.00  0.00     0.036 H 
BRANCH  44  47
ATOM     47  C   LIG d   1       8.087  -1.417  -4.993  0.00  0.00    -0.038 C 
ATOM     48  H   LIG d   1       8.037  -0.373  -4.684  0.00  0.00     0.030 H 
BRANCH  47  49
ATOM     49  C   LIG d   1       7.483  -2.302  -3.900  0.00  0.00    -0.062 C 
ATOM     50  H   LIG d   1       7.291  -3.295  -4.303  0.00  0.00     0.023 H 
ATOM     51  H   LIG d   1       8.180  -2.376  -3.066  0.00  0.00     0.023 H 
ATOM     52  H   LIG d   1       6.547  -1.863  -3.554  0.00  0.00     0.023 H 
ENDBRANCH  47  49
BRANCH  47  53
ATOM     53  C   LIG d   1       9.547  -1.812  -5.222  0.00  0.00    -0.062 C 
ATOM     54  H   LIG d   1       9.802  -1.665  -6.271  0.00  0.00     0.023 H 
ATOM     55  H   LIG d   1      10.193  -1.192  -4.600  0.00  0.00     0.023 H 
ATOM     56  H   LIG d   1       9.686  -2.860  -4.957  0.00  0.00     0.023 H 
ENDBRANCH  47  53
ENDBRANCH  44  47
ENDBRANCH  13  44
TORSDOF 10
ENDMDL
MODEL 7
REMARK VINA RESULT:      -4.8      1.928      4.108
REMARK  10 active torsions:
REMARK  status: ('A' for Active; 'I' for Inactive)
REMARK    1  A    between atoms: C_1  and  C_2 
REMARK    2  A    between atoms: C_2  and  C_3 
REMARK    3  A    between atoms: C_2  and  C_4 
REMARK    4  A    between atoms: C_4  and  C_5 
REMARK       I    between atoms: C_5  and  N_7 
REMARK    5  A    between atoms: C_9  and  C_24 
REMARK       I    between atoms: N_11  and  C_18 
REMARK    6  A    between atoms: C_13  and  C_17 
REMARK    7  A    between atoms: C_18  and  C_20 
REMARK    8  A    between atoms: C_20  and  C_21 
REMARK    9  A    between atoms: C_21  and  C_22 
REMARK   10  A    between atoms: C_21  and  C_23 
ROOT
ATOM      1  C   LIG d   1       6.267  -1.022  -3.679  0.00  0.00     0.216 C 
ATOM      2  O   LIG d   1       7.262  -0.445  -3.296  0.00  0.00    -0.276 OA
ATOM      3  N   LIG d   1       6.323  -2.333  -3.985  0.00  0.00    -0.299 N 
ATOM      4  C   LIG d   1       5.133  -3.023  -4.499  0.00  0.00     0.028 C 
ATOM      5  C   LIG d   1       5.481  -3.663  -5.852  0.00  0.00     0.058 C 
ATOM      6  C   LIG d   1       5.808  -2.553  -6.863  0.00  0.00     0.028 C 
ATOM      7  N   LIG d   1       7.017  -1.850  -6.418  0.00  0.00    -0.299 N 
ATOM      8  C   LIG d   1       8.266  -2.621  -6.198  0.00  0.00     0.028 C 
ATOM      9  C   LIG d   1       7.967  -3.719  -5.165  0.00  0.00     0.058 C 
ATOM     10  C   LIG d   1       7.591  -3.061  -3.828  0.00  0.00     0.028 C 
ATOM     11  C   LIG d   1       6.746  -4.484  -5.655  0.00  0.00     0.151 C 
ATOM     12  O   LIG d   1       6.780  -5.671  -5.873  0.00  0.00    -0.296 OA
ATOM     13  C   LIG d   1       6.993  -0.518  -6.221  0.00  0.00     0.216 C 
ATOM     14  O   LIG d   1       5.944   0.086  -6.289  0.00  0.00    -0.276 OA
ATOM     15  H   LIG d   1       4.323  -2.305  -4.631  0.00  0.00     0.047 H 
ATOM     16  H   LIG d   1       4.824  -3.798  -3.796  0.00  0.00     0.047 H 
ATOM     17  H   LIG d   1       5.981  -2.993  -7.845  0.00  0.00     0.047 H 
ATOM     18  H   LIG d   1       4.974  -1.853  -6.918  0.00  0.00     0.047 H 
ATOM     19  H   LIG d   1       9.036  -1.955  -5.810  0.00  0.00     0.047 H 
ATOM     20  H   LIG d   1       8.607  -3.077  -7.127  0.00  0.00     0.047 H 
ATOM     21  H   LIG d   1       7.452  -3.831  -3.068  0.00  0.00     0.047 H 
ATOM     22  H   LIG d   1       8.383  -2.379  -3.520  0.00  0.00     0.047 H 
ENDROOT
BRANCH   1  23
ATOM     23  C   LIG d   1       4.967  -0.271  -3.814  0.00  0.00     0.026 C 
ATOM     24  H   LIG d   1       5.173   0.769  -4.067  0.00  0.00     0.036 H 
ATOM     25  H   LIG d   1       4.367  -0.724  -4.603  0.00  0.00     0.036 H 
BRANCH  23  26
ATOM     26  C   LIG d   1       4.202  -0.334  -2.491  0.00  0.00    -0.038 C 
ATOM     27  H   LIG d   1       4.625  -1.119  -1.864  0.00  0.00     0.030 H 
BRANCH  26  28
ATOM     28  C   LIG d   1       4.316   1.011  -1.771  0.00  0.00    -0.062 C 
ATOM     29  H   LIG d   1       5.112   0.959  -1.028  0.00  0.00     0.023 H 
ATOM     30  H   LIG d   1       4.547   1.792  -2.495  0.00  0.00     0.023 H 
ATOM     31  H   LIG d   1       3.372   1.240  -1.277  0.00  0.00     0.023 H 
ENDBRANCH  26  28
BRANCH  26  32
ATOM     32  C   LIG d   1       2.729  -0.640  -2.768  0.00  0.00    -0.062 C 
ATOM     33  H   LIG d   1       2.636  -1.133  -3.736  0.00  0.00     0.023 H 
ATOM     34  H   LIG d   1       2.341  -1.296  -1.987  0.00  0.00     0.023 H 
ATOM     35  H   LIG d   1       2.159   0.289  -2.778  0.00  0.00     0.023 H 
ENDBRANCH  26  32
ENDBRANCH  23  26
ENDBRANCH   1  23
BRANCH   9  36
ATOM     36  C   LIG d   1       9.166  -4.653  -4.996  0.00  0.00    -0.050 C 
ATOM     37  H   LIG d   1      10.004  -4.279  -5.585  0.00  0.00     0.024 H 
ATOM     38  H   LIG d   1       8.900  -5.653  -5.337  0.00  0.00     0.024 H 
ATOM     39  H   LIG d   1       9.450  -4.692  -3.944  0.00  0.00     0.024 H 
ENDBRANCH   9  36
BRANCH   5  40
ATOM     40  C   LIG d   1       4.333  -4.540  -6.353  0.00  0.00    -0.050 C 
ATOM     41  H   LIG d   1       3.908  -5.096  -5.518  0.00  0.00     0.024 H 
ATOM     42  H   LIG d   1       3.563  -3.911  -6.801  0.00  0.00     0.024 H 
ATOM     43  H   LIG d   1       4.709  -5.240  -7.100  0.00  0.00     0.024 H 
ENDBRANCH   5  40
BRANCH  13  44
ATOM     44  C   LIG d   1       8.270   0.222  -5.915  0.00  0.00     0.026 C 
ATOM     45  H   LIG d   1       8.562   0.033  -4.882  0.00  0.00     0.036 H 
ATOM     46  H   LIG d   1       9.058  -0.123  -6.585  0.00  0.00     0.036 H 
BRANCH  44  47
ATOM     47  C   LIG d   1       8.051   1.723  -6.117  0.00  0.00    -0.038 C 
ATOM     48  H   LIG d   1       7.007   1.906  -6.373  0.00  0.00     0.030 H 
BRANCH  47  49
ATOM     49  C   LIG d   1       8.397   2.467  -4.825  0.00  0.00    -0.062 C 
ATOM     50  H   LIG d   1       7.524   3.021  -4.481  0.00  0.00     0.023 H 
ATOM     51  H   LIG d   1       8.696   1.749  -4.061  0.00  0.00     0.023 H 
ATOM     52  H   LIG d   1       9.217   3.160  -5.014  0.00  0.00     0.023 H 
ENDBRANCH  47  49
BRANCH  47  53
ATOM     53  C   LIG d   1       8.949   2.222  -7.250  0.00  0.00    -0.062 C 
ATOM     54  H   LIG d   1       9.450   3.139  -6.939  0.00  0.00     0.023 H 
ATOM     55  H   LIG d   1       9.695   1.461  -7.483  0.00  0.00     0.023 H 
ATOM     56  H   LIG d   1       8.344   2.420  -8.134  0.00  0.00     0.023 H 
ENDBRANCH  47  53
ENDBRANCH  44  47
ENDBRANCH  13  44
TORSDOF 10
ENDMDL
MODEL 8
REMARK VINA RESULT:      -4.8      1.964      3.350
REMARK  10 active torsions:
REMARK  status: ('A' for Active; 'I' for Inactive)
REMARK    1  A    between atoms: C_1  and  C_2 
REMARK    2  A    between atoms: C_2  and  C_3 
REMARK    3  A    between atoms: C_2  and  C_4 
REMARK    4  A    between atoms: C_4  and  C_5 
REMARK       I    between atoms: C_5  and  N_7 
REMARK    5  A    between atoms: C_9  and  C_24 
REMARK       I    between atoms: N_11  and  C_18 
REMARK    6  A    between atoms: C_13  and  C_17 
REMARK    7  A    between atoms: C_18  and  C_20 
REMARK    8  A    between atoms: C_20  and  C_21 
REMARK    9  A    between atoms: C_21  and  C_22 
REMARK   10  A    between atoms: C_21  and  C_23 
ROOT
ATOM      1  C   LIG d   1       7.245  -0.324  -6.058  0.00  0.00     0.216 C 
ATOM      2  O   LIG d   1       6.227   0.234  -6.407  0.00  0.00    -0.276 OA
ATOM      3  N   LIG d   1       7.350  -1.664  -6.162  0.00  0.00    -0.299 N 
ATOM      4  C   LIG d   1       8.560  -2.349  -5.693  0.00  0.00     0.028 C 
ATOM      5  C   LIG d   1       8.156  -3.410  -4.658  0.00  0.00     0.058 C 
ATOM      6  C   LIG d   1       7.552  -2.710  -3.431  0.00  0.00     0.028 C 
ATOM      7  N   LIG d   1       6.312  -2.036  -3.835  0.00  0.00    -0.299 N 
ATOM      8  C   LIG d   1       5.226  -2.829  -4.463  0.00  0.00     0.028 C 
ATOM      9  C   LIG d   1       5.804  -3.513  -5.712  0.00  0.00     0.058 C 
ATOM     10  C   LIG d   1       6.231  -2.437  -6.722  0.00  0.00     0.028 C 
ATOM     11  C   LIG d   1       7.058  -4.258  -5.283  0.00  0.00     0.151 C 
ATOM     12  O   LIG d   1       7.176  -5.452  -5.429  0.00  0.00    -0.296 OA
ATOM     13  C   LIG d   1       6.161  -0.714  -3.626  0.00  0.00     0.216 C 
ATOM     14  O   LIG d   1       7.094  -0.053  -3.222  0.00  0.00    -0.276 OA
ATOM     15  H   LIG d   1       9.234  -1.626  -5.231  0.00  0.00     0.047 H 
ATOM     16  H   LIG d   1       9.061  -2.830  -6.534  0.00  0.00     0.047 H 
ATOM     17  H   LIG d   1       7.333  -3.449  -2.661  0.00  0.00     0.047 H 
ATOM     18  H   LIG d   1       8.260  -1.978  -3.044  0.00  0.00     0.047 H 
ATOM     19  H   LIG d   1       4.416  -2.160  -4.755  0.00  0.00     0.047 H 
ATOM     20  H   LIG d   1       4.850  -3.584  -3.773  0.00  0.00     0.047 H 
ATOM     21  H   LIG d   1       6.571  -2.913  -7.642  0.00  0.00     0.047 H 
ATOM     22  H   LIG d   1       5.388  -1.781  -6.936  0.00  0.00     0.047 H 
ENDROOT
BRANCH   1  23
ATOM     23  C   LIG d   1       8.394   0.481  -5.508  0.00  0.00     0.026 C 
ATOM     24  H   LIG d   1       8.415   0.390  -4.422  0.00  0.00     0.036 H 
ATOM     25  H   LIG d   1       9.331   0.105  -5.920  0.00  0.00     0.036 H 
BRANCH  23  26
ATOM     26  C   LIG d   1       8.220   1.950  -5.895  0.00  0.00    -0.038 C 
ATOM     27  H   LIG d   1       7.179   2.133  -6.165  0.00  0.00     0.030 H 
BRANCH  26  28
ATOM     28  C   LIG d   1       8.604   2.839  -4.711  0.00  0.00    -0.062 C 
ATOM     29  H   LIG d   1       9.082   2.233  -3.942  0.00  0.00     0.023 H 
ATOM     30  H   LIG d   1       9.295   3.613  -5.045  0.00  0.00     0.023 H 
ATOM     31  H   LIG d   1       7.707   3.305  -4.301  0.00  0.00     0.023 H 
ENDBRANCH  26  28
BRANCH  26  32
ATOM     32  C   LIG d   1       9.121   2.274  -7.088  0.00  0.00    -0.062 C 
ATOM     33  H   LIG d   1       9.832   1.462  -7.238  0.00  0.00     0.023 H 
ATOM     34  H   LIG d   1       8.509   2.391  -7.984  0.00  0.00     0.023 H 
ATOM     35  H   LIG d   1       9.662   3.201  -6.895  0.00  0.00     0.023 H 
ENDBRANCH  26  32
ENDBRANCH  23  26
ENDBRANCH   1  23
BRANCH   9  36
ATOM     36  C   LIG d   1       4.784  -4.470  -6.332  0.00  0.00    -0.050 C 
ATOM     37  H   LIG d   1       5.064  -4.681  -7.364  0.00  0.00     0.024 H 
ATOM     38  H   LIG d   1       3.795  -4.012  -6.311  0.00  0.00     0.024 H 
ATOM     39  H   LIG d   1       4.766  -5.400  -5.763  0.00  0.00     0.024 H 
ENDBRANCH   9  36
BRANCH   5  40
ATOM     40  C   LIG d   1       9.355  -4.273  -4.262  0.00  0.00    -0.050 C 
ATOM     41  H   LIG d   1      10.278  -3.748  -4.506  0.00  0.00     0.024 H 
ATOM     42  H   LIG d   1       9.322  -4.471  -3.191  0.00  0.00     0.024 H 
ATOM     43  H   LIG d   1       9.319  -5.217  -4.808  0.00  0.00     0.024 H 
ENDBRANCH   5  40
BRANCH  13  44
ATOM     44  C   LIG d   1       4.832  -0.056  -3.898  0.00  0.00     0.026 C 
ATOM     45  H   LIG d   1       4.995   0.971  -4.226  0.00  0.00     0.036 H 
ATOM     46  H   LIG d   1       4.307  -0.607  -4.677  0.00  0.00     0.036 H 
BRANCH  44  47
ATOM     47  C   LIG d   1       3.992  -0.055  -2.619  0.00  0.00    -0.038 C 
ATOM     48  H   LIG d   1       4.525  -0.591  -1.834  0.00  0.00     0.030 H 
BRANCH  47  49
ATOM     49  C   LIG d   1       3.745   1.388  -2.172  0.00  0.00    -0.062 C 
ATOM     50  H   LIG d   1       4.677   1.819  -1.808  0.00  0.00     0.023 H 
ATOM     51  H   LIG d   1       3.380   1.972  -3.016  0.00  0.00     0.023 H 
ATOM     52  H   LIG d   1       3.003   1.399  -1.374  0.00  0.00     0.023 H 
ENDBRANCH  47  49
BRANCH  47  53
ATOM     53  C   LIG d   1       2.653  -0.743  -2.888  0.00  0.00    -0.062 C 
ATOM     54  H   LIG d   1       2.534  -1.584  -2.207  0.00  0.00     0.023 H 
ATOM     55  H   LIG d   1       1.842  -0.031  -2.733  0.00  0.00     0.023 H 
ATOM     56  H   LIG d   1       2.629  -1.102  -3.917  0.00  0.00     0.023 H 
ENDBRANCH  47  53
ENDBRANCH  44  47
ENDBRANCH  13  44
TORSDOF 10
ENDMDL
MODEL 9
REMARK VINA RESULT:      -4.7      2.005      5.162
REMARK  10 active torsions:
REMARK  status: ('A' for Active; 'I' for Inactive)
REMARK    1  A    between atoms: C_1  and  C_2 
REMARK    2  A    between atoms: C_2  and  C_3 
REMARK    3  A    between atoms: C_2  and  C_4 
REMARK    4  A    between atoms: C_4  and  C_5 
REMARK       I    between atoms: C_5  and  N_7 
REMARK    5  A    between atoms: C_9  and  C_24 
REMARK       I    between atoms: N_11  and  C_18 
REMARK    6  A    between atoms: C_13  and  C_17 
REMARK    7  A    between atoms: C_18  and  C_20 
REMARK    8  A    between atoms: C_20  and  C_21 
REMARK    9  A    between atoms: C_21  and  C_22 
REMARK   10  A    between atoms: C_21  and  C_23 
ROOT
ATOM      1  C   LIG d   1       5.857  -3.302  -4.605  0.00  0.00     0.216 C 
ATOM      2  O   LIG d   1       4.838  -3.922  -4.822  0.00  0.00    -0.276 OA
ATOM      3  N   LIG d   1       5.829  -2.211  -3.815  0.00  0.00    -0.299 N 
ATOM      4  C   LIG d   1       7.050  -1.428  -3.591  0.00  0.00     0.028 C 
ATOM      5  C   LIG d   1       6.785   0.028  -4.004  0.00  0.00     0.058 C 
ATOM      6  C   LIG d   1       6.510   0.080  -5.515  0.00  0.00     0.028 C 
ATOM      7  N   LIG d   1       5.271  -0.658  -5.794  0.00  0.00    -0.299 N 
ATOM      8  C   LIG d   1       4.017  -0.260  -5.107  0.00  0.00     0.028 C 
ATOM      9  C   LIG d   1       4.265  -0.334  -3.593  0.00  0.00     0.058 C 
ATOM     10  C   LIG d   1       4.558  -1.792  -3.204  0.00  0.00     0.028 C 
ATOM     11  C   LIG d   1       5.516   0.477  -3.296  0.00  0.00     0.151 C 
ATOM     12  O   LIG d   1       5.503   1.421  -2.542  0.00  0.00    -0.296 OA
ATOM     13  C   LIG d   1       5.275  -1.680  -6.672  0.00  0.00     0.216 C 
ATOM     14  O   LIG d   1       6.322  -2.075  -7.139  0.00  0.00    -0.276 OA
ATOM     15  H   LIG d   1       7.862  -1.837  -4.195  0.00  0.00     0.047 H 
ATOM     16  H   LIG d   1       7.324  -1.466  -2.537  0.00  0.00     0.047 H 
ATOM     17  H   LIG d   1       6.396   1.117  -5.830  0.00  0.00     0.047 H 
ATOM     18  H   LIG d   1       7.339  -0.377  -6.053  0.00  0.00     0.047 H 
ATOM     19  H   LIG d   1       3.222  -0.952  -5.383  0.00  0.00     0.047 H 
ATOM     20  H   LIG d   1       3.734   0.756  -5.381  0.00  0.00     0.047 H 
ATOM     21  H   LIG d   1       4.659  -1.868  -2.121  0.00  0.00     0.047 H 
ATOM     22  H   LIG d   1       3.746  -2.432  -3.544  0.00  0.00     0.047 H 
ENDROOT
BRANCH   1  23
ATOM     23  C   LIG d   1       7.157  -3.754  -5.219  0.00  0.00     0.026 C 
ATOM     24  H   LIG d   1       7.328  -3.214  -6.150  0.00  0.00     0.036 H 
ATOM     25  H   LIG d   1       7.975  -3.552  -4.527  0.00  0.00     0.036 H 
BRANCH  23  26
ATOM     26  C   LIG d   1       7.092  -5.256  -5.505  0.00  0.00    -0.038 C 
ATOM     27  H   LIG d   1       6.170  -5.664  -5.090  0.00  0.00     0.030 H 
BRANCH  26  28
ATOM     28  C   LIG d   1       7.118  -5.489  -7.017  0.00  0.00    -0.062 C 
ATOM     29  H   LIG d   1       8.044  -5.996  -7.290  0.00  0.00     0.023 H 
ATOM     30  H   LIG d   1       6.268  -6.107  -7.304  0.00  0.00     0.023 H 
ATOM     31  H   LIG d   1       7.063  -4.530  -7.533  0.00  0.00     0.023 H 
ENDBRANCH  26  28
BRANCH  26  32
ATOM     32  C   LIG d   1       8.293  -5.951  -4.861  0.00  0.00    -0.062 C 
ATOM     33  H   LIG d   1       8.099  -6.103  -3.799  0.00  0.00     0.023 H 
ATOM     34  H   LIG d   1       8.456  -6.916  -5.343  0.00  0.00     0.023 H 
ATOM     35  H   LIG d   1       9.181  -5.330  -4.983  0.00  0.00     0.023 H 
ENDBRANCH  26  32
ENDBRANCH  23  26
ENDBRANCH   1  23
BRANCH   9  36
ATOM     36  C   LIG d   1       3.064   0.207  -2.815  0.00  0.00    -0.050 C 
ATOM     37  H   LIG d   1       3.217   0.042  -1.748  0.00  0.00     0.024 H 
ATOM     38  H   LIG d   1       2.159  -0.309  -3.136  0.00  0.00     0.024 H 
ATOM     39  H   LIG d   1       2.960   1.276  -3.006  0.00  0.00     0.024 H 
ENDBRANCH   9  36
BRANCH   5  40
ATOM     40  C   LIG d   1       7.966   0.926  -3.632  0.00  0.00    -0.050 C 
ATOM     41  H   LIG d   1       7.864   1.888  -4.132  0.00  0.00     0.024 H 
ATOM     42  H   LIG d   1       7.981   1.077  -2.552  0.00  0.00     0.024 H 
ATOM     43  H   LIG d   1       8.896   0.451  -3.945  0.00  0.00     0.024 H 
ENDBRANCH   5  40
BRANCH  13  44
ATOM     44  C   LIG d   1       3.977  -2.334  -7.072  0.00  0.00     0.026 C 
ATOM     45  H   LIG d   1       4.069  -3.415  -6.974  0.00  0.00     0.036 H 
ATOM     46  H   LIG d   1       3.176  -1.976  -6.426  0.00  0.00     0.036 H 
BRANCH  44  47
ATOM     47  C   LIG d   1       3.655  -1.979  -8.526  0.00  0.00    -0.038 C 
ATOM     48  H   LIG d   1       4.568  -1.672  -9.036  0.00  0.00     0.030 H 
BRANCH  47  49
ATOM     49  C   LIG d   1       3.067  -3.204  -9.230  0.00  0.00    -0.062 C 
ATOM     50  H   LIG d   1       3.849  -3.706  -9.799  0.00  0.00     0.023 H 
ATOM     51  H   LIG d   1       2.661  -3.891  -8.488  0.00  0.00     0.023 H 
ATOM     52  H   LIG d   1       2.272  -2.888  -9.907  0.00  0.00     0.023 H 
ENDBRANCH  47  49
BRANCH  47  53
ATOM     53  C   LIG d   1       2.641  -0.835  -8.560  0.00  0.00    -0.062 C 
ATOM     54  H   LIG d   1       2.288  -0.633  -7.549  0.00  0.00     0.023 H 
ATOM     55  H   LIG d   1       3.117   0.059  -8.964  0.00  0.00     0.023 H 
ATOM     56  H   LIG d   1       1.798  -1.114  -9.191  0.00  0.00     0.023 H 
ENDBRANCH  47  53
ENDBRANCH  44  47
ENDBRANCH  13  44
TORSDOF 10
ENDMDL
MODEL 10
REMARK VINA RESULT:      -4.7      1.905      4.762
REMARK  10 active torsions:
REMARK  status: ('A' for Active; 'I' for Inactive)
REMARK    1  A    between atoms: C_1  and  C_2 
REMARK    2  A    between atoms: C_2  and  C_3 
REMARK    3  A    between atoms: C_2  and  C_4 
REMARK    4  A    between atoms: C_4  and  C_5 
REMARK       I    between atoms: C_5  and  N_7 
REMARK    5  A    between atoms: C_9  and  C_24 
REMARK       I    between atoms: N_11  and  C_18 
REMARK    6  A    between atoms: C_13  and  C_17 
REMARK    7  A    between atoms: C_18  and  C_20 
REMARK    8  A    between atoms: C_20  and  C_21 
REMARK    9  A    between atoms: C_21  and  C_22 
REMARK   10  A    between atoms: C_21  and  C_23 
ROOT
ATOM      1  C   LIG d   1       5.591  -1.667  -6.609  0.00  0.00     0.216 C 
ATOM      2  O   LIG d   1       6.658  -1.860  -7.153  0.00  0.00    -0.276 OA
ATOM      3  N   LIG d   1       5.449  -0.641  -5.747  0.00  0.00    -0.299 N 
ATOM      4  C   LIG d   1       4.175  -0.435  -5.047  0.00  0.00     0.028 C 
ATOM      5  C   LIG d   1       4.440  -0.431  -3.534  0.00  0.00     0.058 C 
ATOM      6  C   LIG d   1       4.947  -1.818  -3.108  0.00  0.00     0.028 C 
ATOM      7  N   LIG d   1       6.244  -2.063  -3.751  0.00  0.00    -0.299 N 
ATOM      8  C   LIG d   1       7.356  -1.105  -3.532  0.00  0.00     0.028 C 
ATOM      9  C   LIG d   1       6.877   0.284  -3.981  0.00  0.00     0.058 C 
ATOM     10  C   LIG d   1       6.588   0.253  -5.490  0.00  0.00     0.028 C 
ATOM     11  C   LIG d   1       5.561   0.563  -3.271  0.00  0.00     0.151 C 
ATOM     12  O   LIG d   1       5.415   1.516  -2.543  0.00  0.00    -0.296 OA
ATOM     13  C   LIG d   1       6.422  -3.152  -4.524  0.00  0.00     0.216 C 
ATOM     14  O   LIG d   1       5.479  -3.866  -4.793  0.00  0.00    -0.276 OA
ATOM     15  H   LIG d   1       3.487  -1.244  -5.295  0.00  0.00     0.047 H 
ATOM     16  H   LIG d   1       3.741   0.519  -5.345  0.00  0.00     0.047 H 
ATOM     17  H   LIG d   1       5.064  -1.847  -2.025  0.00  0.00     0.047 H 
ATOM     18  H   LIG d   1       4.232  -2.579  -3.419  0.00  0.00     0.047 H 
ATOM     19  H   LIG d   1       8.214  -1.408  -4.133  0.00  0.00     0.047 H 
ATOM     20  H   LIG d   1       7.636  -1.073  -2.480  0.00  0.00     0.047 H 
ATOM     21  H   LIG d   1       6.322   1.253  -5.832  0.00  0.00     0.047 H 
ATOM     22  H   LIG d   1       7.471  -0.096  -6.024  0.00  0.00     0.047 H 
ENDROOT
BRANCH   1  23
ATOM     23  C   LIG d   1       4.424  -2.576  -6.897  0.00  0.00     0.026 C 
ATOM     24  H   LIG d   1       4.700  -3.606  -6.670  0.00  0.00     0.036 H 
ATOM     25  H   LIG d   1       3.575  -2.284  -6.280  0.00  0.00     0.036 H 
BRANCH  23  26
ATOM     26  C   LIG d   1       4.043  -2.463  -8.375  0.00  0.00    -0.038 C 
ATOM     27  H   LIG d   1       4.939  -2.276  -8.967  0.00  0.00     0.030 H 
BRANCH  26  28
ATOM     28  C   LIG d   1       3.391  -3.768  -8.834  0.00  0.00    -0.062 C 
ATOM     29  H   LIG d   1       4.011  -4.235  -9.600  0.00  0.00     0.023 H 
ATOM     30  H   LIG d   1       3.293  -4.445  -7.985  0.00  0.00     0.023 H 
ATOM     31  H   LIG d   1       2.404  -3.556  -9.245  0.00  0.00     0.023 H 
ENDBRANCH  26  28
BRANCH  26  32
ATOM     32  C   LIG d   1       3.057  -1.308  -8.560  0.00  0.00    -0.062 C 
ATOM     33  H   LIG d   1       3.237  -0.828  -9.522  0.00  0.00     0.023 H 
ATOM     34  H   LIG d   1       2.037  -1.692  -8.531  0.00  0.00     0.023 H 
ATOM     35  H   LIG d   1       3.194  -0.581  -7.760  0.00  0.00     0.023 H 
ENDBRANCH  26  32
ENDBRANCH  23  26
ENDBRANCH   1  23
BRANCH   9  36
ATOM     36  C   LIG d   1       7.917   1.356  -3.646  0.00  0.00    -0.050 C 
ATOM     37  H   LIG d   1       7.662   1.826  -2.696  0.00  0.00     0.024 H 
ATOM     38  H   LIG d   1       7.929   2.110  -4.433  0.00  0.00     0.024 H 
ATOM     39  H   LIG d   1       8.902   0.894  -3.570  0.00  0.00     0.024 H 
ENDBRANCH   9  36
BRANCH   5  40
ATOM     40  C   LIG d   1       3.178  -0.048  -2.759  0.00  0.00    -0.050 C 
ATOM     41  H   LIG d   1       3.162   1.030  -2.599  0.00  0.00     0.024 H 
ATOM     42  H   LIG d   1       2.297  -0.344  -3.329  0.00  0.00     0.024 H 
ATOM     43  H   LIG d   1       3.174  -0.558  -1.795  0.00  0.00     0.024 H 
ENDBRANCH   5  40
BRANCH  13  44
ATOM     44  C   LIG d   1       7.793  -3.483  -5.055  0.00  0.00     0.026 C 
ATOM     45  H   LIG d   1       7.706  -3.874  -6.068  0.00  0.00     0.036 H 
ATOM     46  H   LIG d   1       8.406  -2.582  -5.063  0.00  0.00     0.036 H 
BRANCH  44  47
ATOM     47  C   LIG d   1       8.447  -4.536  -4.157  0.00  0.00    -0.038 C 
ATOM     48  H   LIG d   1       7.791  -4.753  -3.315  0.00  0.00     0.030 H 
BRANCH  47  49
ATOM     49  C   LIG d   1       8.684  -5.816  -4.962  0.00  0.00    -0.062 C 
ATOM     50  H   LIG d   1       8.661  -6.675  -4.292  0.00  0.00     0.023 H 
ATOM     51  H   LIG d   1       7.904  -5.921  -5.715  0.00  0.00     0.023 H 
ATOM     52  H   LIG d   1       9.657  -5.763  -5.451  0.00  0.00     0.023 H 
ENDBRANCH  47  49
BRANCH  47  53
ATOM     53  C   LIG d   1       9.784  -4.004  -3.638  0.00  0.00    -0.062 C 
ATOM     54  H   LIG d   1      10.593  -4.387  -4.260  0.00  0.00     0.023 H 
ATOM     55  H   LIG d   1       9.781  -2.914  -3.677  0.00  0.00     0.023 H 
ATOM     56  H   LIG d   1       9.931  -4.330  -2.608  0.00  0.00     0.023 H 
ENDBRANCH  47  53
ENDBRANCH  44  47
ENDBRANCH  13  44
TORSDOF 10
ENDMDL
