MODEL 1
REMARK VINA RESULT:      -7.7      0.000      0.000
REMARK  6 active torsions:
REMARK  status: ('A' for Active; 'I' for Inactive)
REMARK    1  A    between atoms: C_1  and  O_2 
REMARK    2  A    between atoms: O_2  and  C_3 
REMARK    3  A    between atoms: C_6  and  C_9 
REMARK    4  A    between atoms: N_27  and  C_30 
REMARK    5  A    between atoms: C_35  and  C_36 
REMARK       I    between atoms: C_36  and  N_38 
REMARK    6  A    between atoms: N_38  and  C_39 
ROOT
ATOM      1  C   LIG d   1       8.328   2.256  -5.308  0.00  0.00     0.094 C 
ATOM      2  H   LIG d   1       7.764   2.965  -5.912  0.00  0.00     0.062 H 
ATOM      3  C   LIG d   1       7.381   1.418  -4.471  0.00  0.00     0.046 A 
ATOM      4  C   LIG d   1       7.391   0.068  -4.453  0.00  0.00    -0.015 A 
ATOM      5  C   LIG d   1       6.349  -0.346  -3.533  0.00  0.00     0.003 A 
ATOM      6  C   LIG d   1       5.903  -1.603  -3.113  0.00  0.00    -0.052 A 
ATOM      7  C   LIG d   1       4.870  -1.625  -2.210  0.00  0.00    -0.061 A 
ATOM      8  C   LIG d   1       4.287  -0.464  -1.730  0.00  0.00    -0.060 A 
ATOM      9  C   LIG d   1       4.708   0.793  -2.127  0.00  0.00    -0.038 A 
ATOM     10  C   LIG d   1       5.757   0.847  -3.043  0.00  0.00     0.047 A 
ATOM     11  N   LIG d   1       6.406   1.892  -3.633  0.00  0.00    -0.356 N 
ATOM     12  H   LIG d   1       6.206   2.830  -3.483  0.00  0.00     0.166 HD
ATOM     13  C   LIG d   1       8.310  -0.817  -5.256  0.00  0.00     0.002 C 
ATOM     14  C   LIG d   1       9.529  -0.007  -5.712  0.00  0.00     0.110 A 
ATOM     15  H   LIG d   1      10.269   0.086  -4.916  0.00  0.00     0.060 H 
ATOM     16  N   LIG d   1       9.052   1.318  -6.174  0.00  0.00    -0.261 N 
ATOM     17  C   LIG d   1       9.396   1.441  -7.458  0.00  0.00     0.317 A 
ATOM     18  O   LIG d   1       9.199   2.442  -8.119  0.00  0.00    -0.252 OA
ATOM     19  N   LIG d   1       9.982   0.334  -7.933  0.00  0.00    -0.192 N 
ATOM     20  C   LIG d   1      10.121  -0.633  -6.957  0.00  0.00     0.248 A 
ATOM     21  O   LIG d   1      10.602  -1.740  -7.061  0.00  0.00    -0.273 OA
ATOM     22  H   LIG d   1       6.351  -2.515  -3.482  0.00  0.00     0.062 H 
ATOM     23  H   LIG d   1       4.499  -2.579  -1.863  0.00  0.00     0.062 H 
ATOM     24  H   LIG d   1       3.476  -0.542  -1.021  0.00  0.00     0.062 H 
ATOM     25  H   LIG d   1       4.245   1.691  -1.746  0.00  0.00     0.064 H 
ATOM     26  H   LIG d   1       8.639  -1.654  -4.640  0.00  0.00     0.034 H 
ATOM     27  H   LIG d   1       7.779  -1.195  -6.130  0.00  0.00     0.034 H 
ENDROOT
BRANCH  19  28
ATOM     28  C   LIG d   1      10.411   0.177  -9.252  0.00  0.00     0.058 A 
ATOM     29  C   LIG d   1       9.494  -0.166 -10.255  0.00  0.00     0.059 A 
ATOM     30  C   LIG d   1       9.934  -0.315 -11.573  0.00  0.00    -0.048 A 
ATOM     31  C   LIG d   1      11.266  -0.134 -11.876  0.00  0.00    -0.061 A 
ATOM     32  H   LIG d   1       9.233  -0.575 -12.351  0.00  0.00     0.063 H 
ATOM     33  C   LIG d   1      12.171   0.201 -10.882  0.00  0.00    -0.060 A 
ATOM     34  H   LIG d   1      11.606  -0.252 -12.895  0.00  0.00     0.062 H 
ATOM     35  C   LIG d   1      11.748   0.356  -9.577  0.00  0.00    -0.039 A 
ATOM     36  H   LIG d   1      13.213   0.342 -11.129  0.00  0.00     0.062 H 
ATOM     37  H   LIG d   1      12.460   0.618  -8.807  0.00  0.00     0.064 H 
BRANCH  29  38
ATOM     38  C   LIG d   1       8.070  -0.365  -9.922  0.00  0.00     0.246 C 
ATOM     39  O   LIG d   1       7.680  -1.454  -9.546  0.00  0.00    -0.270 OA
ATOM     40  N   LIG d   1       7.203   0.661 -10.032  0.00  0.00    -0.308 N 
ATOM     41  H   LIG d   1       7.514   1.530 -10.331  0.00  0.00     0.149 HD
BRANCH  40  42
ATOM     42  C   LIG d   1       5.789   0.463  -9.700  0.00  0.00     0.023 C 
ATOM     43  C   LIG d   1       5.290   1.618  -8.814  0.00  0.00    -0.035 C 
ATOM     44  C   LIG d   1       4.150   2.309  -9.591  0.00  0.00    -0.051 C 
ATOM     45  H   LIG d   1       4.914   1.227  -7.869  0.00  0.00     0.028 H 
ATOM     46  H   LIG d   1       6.099   2.325  -8.631  0.00  0.00     0.028 H 
ATOM     47  C   LIG d   1       3.634   1.215 -10.559  0.00  0.00    -0.051 C 
ATOM     48  H   LIG d   1       4.532   3.163 -10.150  0.00  0.00     0.027 H 
ATOM     49  H   LIG d   1       3.358   2.621  -8.910  0.00  0.00     0.027 H 
ATOM     50  C   LIG d   1       4.936   0.493 -10.985  0.00  0.00    -0.035 C 
ATOM     51  H   LIG d   1       3.141   1.665 -11.421  0.00  0.00     0.027 H 
ATOM     52  H   LIG d   1       2.961   0.529 -10.043  0.00  0.00     0.027 H 
ATOM     53  H   LIG d   1       5.445   1.054 -11.767  0.00  0.00     0.028 H 
ATOM     54  H   LIG d   1       4.717  -0.521 -11.320  0.00  0.00     0.028 H 
ATOM     55  H   LIG d   1       5.656  -0.488  -9.184  0.00  0.00     0.050 H 
ENDBRANCH  40  42
ENDBRANCH  29  38
ENDBRANCH  19  28
BRANCH   1  56
ATOM     56  C   LIG d   1       9.295   2.989  -4.416  0.00  0.00    -0.021 A 
ATOM     57  C   LIG d   1       9.940   2.316  -3.395  0.00  0.00    -0.053 A 
ATOM     58  C   LIG d   1      10.828   2.986  -2.577  0.00  0.00    -0.020 A 
ATOM     59  H   LIG d   1       9.750   1.265  -3.237  0.00  0.00     0.062 H 
ATOM     60  C   LIG d   1      11.073   4.337  -2.779  0.00  0.00     0.120 A 
ATOM     61  H   LIG d   1      11.333   2.459  -1.779  0.00  0.00     0.065 H 
ATOM     62  C   LIG d   1      10.420   5.011  -3.800  0.00  0.00    -0.020 A 
ATOM     63  C   LIG d   1       9.536   4.335  -4.619  0.00  0.00    -0.053 A 
ATOM     64  H   LIG d   1      10.605   6.064  -3.957  0.00  0.00     0.065 H 
ATOM     65  H   LIG d   1       9.032   4.860  -5.417  0.00  0.00     0.062 H 
BRANCH  60  66
ATOM     66  O   LIG d   1      11.946   4.999  -1.975  0.00  0.00    -0.495 OA
BRANCH  66  67
ATOM     67  C   LIG d   1      11.527   5.251  -0.632  0.00  0.00     0.079 C 
ATOM     68  H   LIG d   1      10.462   5.481  -0.620  0.00  0.00     0.066 H 
ATOM     69  H   LIG d   1      11.715   4.368  -0.021  0.00  0.00     0.066 H 
ATOM     70  H   LIG d   1      12.085   6.097  -0.231  0.00  0.00     0.066 H 
ENDBRANCH  66  67
ENDBRANCH  60  66
ENDBRANCH   1  56
TORSDOF 6
ENDMDL
MODEL 2
REMARK VINA RESULT:      -7.7      4.781      9.420
REMARK  6 active torsions:
REMARK  status: ('A' for Active; 'I' for Inactive)
REMARK    1  A    between atoms: C_1  and  O_2 
REMARK    2  A    between atoms: O_2  and  C_3 
REMARK    3  A    between atoms: C_6  and  C_9 
REMARK    4  A    between atoms: N_27  and  C_30 
REMARK    5  A    between atoms: C_35  and  C_36 
REMARK       I    between atoms: C_36  and  N_38 
REMARK    6  A    between atoms: N_38  and  C_39 
ROOT
ATOM      1  C   LIG d   1       4.315  -4.653  -7.186  0.00  0.00     0.094 C 
ATOM      2  H   LIG d   1       3.803  -5.253  -6.434  0.00  0.00     0.062 H 
ATOM      3  C   LIG d   1       3.478  -4.573  -8.447  0.00  0.00     0.046 A 
ATOM      4  C   LIG d   1       3.138  -3.414  -9.049  0.00  0.00    -0.015 A 
ATOM      5  C   LIG d   1       2.350  -3.763 -10.216  0.00  0.00     0.003 A 
ATOM      6  C   LIG d   1       1.737  -2.992 -11.208  0.00  0.00    -0.052 A 
ATOM      7  C   LIG d   1       1.054  -3.670 -12.187  0.00  0.00    -0.061 A 
ATOM      8  C   LIG d   1       0.968  -5.052 -12.202  0.00  0.00    -0.060 A 
ATOM      9  C   LIG d   1       1.565  -5.840 -11.233  0.00  0.00    -0.038 A 
ATOM     10  C   LIG d   1       2.267  -5.179 -10.227  0.00  0.00     0.047 A 
ATOM     11  N   LIG d   1       2.959  -5.634  -9.142  0.00  0.00    -0.356 N 
ATOM     12  H   LIG d   1       3.067  -6.567  -8.900  0.00  0.00     0.166 HD
ATOM     13  C   LIG d   1       3.509  -2.032  -8.573  0.00  0.00     0.002 C 
ATOM     14  C   LIG d   1       4.703  -2.125  -7.616  0.00  0.00     0.110 A 
ATOM     15  H   LIG d   1       5.645  -2.220  -8.159  0.00  0.00     0.060 H 
ATOM     16  N   LIG d   1       4.474  -3.274  -6.708  0.00  0.00    -0.261 N 
ATOM     17  C   LIG d   1       4.437  -2.798  -5.462  0.00  0.00     0.317 A 
ATOM     18  O   LIG d   1       4.321  -3.495  -4.473  0.00  0.00    -0.252 OA
ATOM     19  N   LIG d   1       4.542  -1.462  -5.428  0.00  0.00    -0.192 N 
ATOM     20  C   LIG d   1       4.708  -0.927  -6.689  0.00  0.00     0.248 A 
ATOM     21  O   LIG d   1       4.828   0.238  -7.001  0.00  0.00    -0.273 OA
ATOM     22  H   LIG d   1       1.798  -1.913 -11.204  0.00  0.00     0.062 H 
ATOM     23  H   LIG d   1       0.567  -3.106 -12.970  0.00  0.00     0.062 H 
ATOM     24  H   LIG d   1       0.416  -5.531 -12.996  0.00  0.00     0.062 H 
ATOM     25  H   LIG d   1       1.490  -6.917 -11.255  0.00  0.00     0.064 H 
ATOM     26  H   LIG d   1       3.775  -1.412  -9.428  0.00  0.00     0.034 H 
ATOM     27  H   LIG d   1       2.660  -1.587  -8.052  0.00  0.00     0.034 H 
ENDROOT
BRANCH  19  28
ATOM     28  C   LIG d   1       4.499  -0.701  -4.258  0.00  0.00     0.058 A 
ATOM     29  C   LIG d   1       5.663  -0.508  -3.500  0.00  0.00     0.059 A 
ATOM     30  C   LIG d   1       5.609   0.259  -2.334  0.00  0.00    -0.048 A 
ATOM     31  C   LIG d   1       4.413   0.811  -1.930  0.00  0.00    -0.061 A 
ATOM     32  H   LIG d   1       6.502   0.416  -1.749  0.00  0.00     0.063 H 
ATOM     33  C   LIG d   1       3.263   0.614  -2.678  0.00  0.00    -0.060 A 
ATOM     34  H   LIG d   1       4.372   1.402  -1.027  0.00  0.00     0.062 H 
ATOM     35  C   LIG d   1       3.304  -0.137  -3.836  0.00  0.00    -0.039 A 
ATOM     36  H   LIG d   1       2.331   1.051  -2.355  0.00  0.00     0.062 H 
ATOM     37  H   LIG d   1       2.403  -0.286  -4.414  0.00  0.00     0.064 H 
BRANCH  29  38
ATOM     38  C   LIG d   1       6.940  -1.108  -3.936  0.00  0.00     0.246 C 
ATOM     39  O   LIG d   1       7.701  -0.474  -4.640  0.00  0.00    -0.270 OA
ATOM     40  N   LIG d   1       7.261  -2.360  -3.550  0.00  0.00    -0.308 N 
ATOM     41  H   LIG d   1       6.654  -2.866  -2.987  0.00  0.00     0.149 HD
BRANCH  40  42
ATOM     42  C   LIG d   1       8.529  -2.954  -3.982  0.00  0.00     0.023 C 
ATOM     43  C   LIG d   1       9.188  -3.699  -2.807  0.00  0.00    -0.035 C 
ATOM     44  C   LIG d   1       9.308  -5.177  -3.234  0.00  0.00    -0.051 C 
ATOM     45  H   LIG d   1      10.177  -3.285  -2.611  0.00  0.00     0.028 H 
ATOM     46  H   LIG d   1       8.565  -3.617  -1.917  0.00  0.00     0.028 H 
ATOM     47  C   LIG d   1       9.298  -5.127  -4.782  0.00  0.00    -0.051 C 
ATOM     48  H   LIG d   1       8.459  -5.751  -2.865  0.00  0.00     0.027 H 
ATOM     49  H   LIG d   1      10.244  -5.604  -2.872  0.00  0.00     0.027 H 
ATOM     50  C   LIG d   1       8.271  -4.006  -5.081  0.00  0.00    -0.035 C 
ATOM     51  H   LIG d   1       8.963  -6.078  -5.197  0.00  0.00     0.027 H 
ATOM     52  H   LIG d   1      10.283  -4.862  -5.167  0.00  0.00     0.027 H 
ATOM     53  H   LIG d   1       7.255  -4.391  -5.010  0.00  0.00     0.028 H 
ATOM     54  H   LIG d   1       8.451  -3.578  -6.068  0.00  0.00     0.028 H 
ATOM     55  H   LIG d   1       9.198  -2.179  -4.355  0.00  0.00     0.050 H 
ENDBRANCH  40  42
ENDBRANCH  29  38
ENDBRANCH  19  28
BRANCH   1  56
ATOM     56  C   LIG d   1       5.662  -5.252  -7.496  0.00  0.00    -0.021 A 
ATOM     57  C   LIG d   1       6.513  -4.617  -8.382  0.00  0.00    -0.053 A 
ATOM     58  C   LIG d   1       7.748  -5.163  -8.668  0.00  0.00    -0.020 A 
ATOM     59  H   LIG d   1       6.211  -3.692  -8.851  0.00  0.00     0.062 H 
ATOM     60  C   LIG d   1       8.136  -6.351  -8.065  0.00  0.00     0.120 A 
ATOM     61  H   LIG d   1       8.413  -4.667  -9.360  0.00  0.00     0.065 H 
ATOM     62  C   LIG d   1       7.279  -6.989  -7.181  0.00  0.00    -0.020 A 
ATOM     63  C   LIG d   1       6.046  -6.436  -6.894  0.00  0.00    -0.053 A 
ATOM     64  H   LIG d   1       7.577  -7.917  -6.713  0.00  0.00     0.065 H 
ATOM     65  H   LIG d   1       5.381  -6.930  -6.202  0.00  0.00     0.062 H 
BRANCH  60  66
ATOM     66  O   LIG d   1       9.352  -6.892  -8.344  0.00  0.00    -0.495 OA
BRANCH  66  67
ATOM     67  C   LIG d   1      10.482  -6.020  -8.268  0.00  0.00     0.079 C 
ATOM     68  H   LIG d   1      10.147  -5.009  -8.039  0.00  0.00     0.066 H 
ATOM     69  H   LIG d   1      11.155  -6.367  -7.483  0.00  0.00     0.066 H 
ATOM     70  H   LIG d   1      11.006  -6.022  -9.223  0.00  0.00     0.066 H 
ENDBRANCH  66  67
ENDBRANCH  60  66
ENDBRANCH   1  56
TORSDOF 6
ENDMDL
MODEL 3
REMARK VINA RESULT:      -7.6      4.988      9.174
REMARK  6 active torsions:
REMARK  status: ('A' for Active; 'I' for Inactive)
REMARK    1  A    between atoms: C_1  and  O_2 
REMARK    2  A    between atoms: O_2  and  C_3 
REMARK    3  A    between atoms: C_6  and  C_9 
REMARK    4  A    between atoms: N_27  and  C_30 
REMARK    5  A    between atoms: C_35  and  C_36 
REMARK       I    between atoms: C_36  and  N_38 
REMARK    6  A    between atoms: N_38  and  C_39 
ROOT
ATOM      1  C   LIG d   1       5.754  -5.538  -6.480  0.00  0.00     0.094 C 
ATOM      2  H   LIG d   1       4.724  -5.543  -6.834  0.00  0.00     0.062 H 
ATOM      3  C   LIG d   1       6.708  -5.441  -7.655  0.00  0.00     0.046 A 
ATOM      4  C   LIG d   1       7.682  -4.512  -7.754  0.00  0.00    -0.015 A 
ATOM      5  C   LIG d   1       8.370  -4.759  -9.008  0.00  0.00     0.003 A 
ATOM      6  C   LIG d   1       9.450  -4.130  -9.634  0.00  0.00    -0.052 A 
ATOM      7  C   LIG d   1       9.848  -4.639 -10.844  0.00  0.00    -0.061 A 
ATOM      8  C   LIG d   1       9.217  -5.724 -11.430  0.00  0.00    -0.060 A 
ATOM      9  C   LIG d   1       8.146  -6.367 -10.833  0.00  0.00    -0.038 A 
ATOM     10  C   LIG d   1       7.721  -5.872  -9.601  0.00  0.00     0.047 A 
ATOM     11  N   LIG d   1       6.721  -6.256  -8.756  0.00  0.00    -0.356 N 
ATOM     12  H   LIG d   1       6.112  -6.995  -8.911  0.00  0.00     0.166 HD
ATOM     13  C   LIG d   1       7.973  -3.428  -6.747  0.00  0.00     0.002 C 
ATOM     14  C   LIG d   1       7.353  -3.807  -5.397  0.00  0.00     0.110 A 
ATOM     15  H   LIG d   1       7.978  -4.517  -4.854  0.00  0.00     0.060 H 
ATOM     16  N   LIG d   1       5.998  -4.351  -5.652  0.00  0.00    -0.261 N 
ATOM     17  C   LIG d   1       5.126  -3.567  -5.016  0.00  0.00     0.317 A 
ATOM     18  O   LIG d   1       3.928  -3.776  -4.977  0.00  0.00    -0.252 OA
ATOM     19  N   LIG d   1       5.722  -2.523  -4.424  0.00  0.00    -0.192 N 
ATOM     20  C   LIG d   1       7.092  -2.554  -4.586  0.00  0.00     0.248 A 
ATOM     21  O   LIG d   1       7.915  -1.761  -4.182  0.00  0.00    -0.273 OA
ATOM     22  H   LIG d   1       9.948  -3.282  -9.185  0.00  0.00     0.062 H 
ATOM     23  H   LIG d   1      10.679  -4.177 -11.358  0.00  0.00     0.062 H 
ATOM     24  H   LIG d   1       9.573  -6.081 -12.385  0.00  0.00     0.062 H 
ATOM     25  H   LIG d   1       7.663  -7.212 -11.300  0.00  0.00     0.064 H 
ATOM     26  H   LIG d   1       9.051  -3.317  -6.634  0.00  0.00     0.034 H 
ATOM     27  H   LIG d   1       7.544  -2.487  -7.092  0.00  0.00     0.034 H 
ENDROOT
BRANCH  19  28
ATOM     28  C   LIG d   1       5.043  -1.528  -3.718  0.00  0.00     0.058 A 
ATOM     29  C   LIG d   1       4.442  -0.463  -4.404  0.00  0.00     0.059 A 
ATOM     30  C   LIG d   1       3.761   0.524  -3.688  0.00  0.00    -0.048 A 
ATOM     31  C   LIG d   1       3.693   0.451  -2.313  0.00  0.00    -0.061 A 
ATOM     32  H   LIG d   1       3.291   1.344  -4.209  0.00  0.00     0.063 H 
ATOM     33  C   LIG d   1       4.293  -0.600  -1.637  0.00  0.00    -0.060 A 
ATOM     34  H   LIG d   1       3.169   1.217  -1.760  0.00  0.00     0.062 H 
ATOM     35  C   LIG d   1       4.964  -1.585  -2.334  0.00  0.00    -0.039 A 
ATOM     36  H   LIG d   1       4.234  -0.649  -0.560  0.00  0.00     0.062 H 
ATOM     37  H   LIG d   1       5.429  -2.401  -1.800  0.00  0.00     0.064 H 
BRANCH  29  38
ATOM     38  C   LIG d   1       4.524  -0.388  -5.876  0.00  0.00     0.246 C 
ATOM     39  O   LIG d   1       5.475   0.154  -6.404  0.00  0.00    -0.270 OA
ATOM     40  N   LIG d   1       3.545  -0.923  -6.633  0.00  0.00    -0.308 N 
ATOM     41  H   LIG d   1       2.787  -1.357  -6.211  0.00  0.00     0.149 HD
BRANCH  40  42
ATOM     42  C   LIG d   1       3.628  -0.849  -8.094  0.00  0.00     0.023 C 
ATOM     43  C   LIG d   1       3.557  -2.263  -8.697  0.00  0.00    -0.035 C 
ATOM     44  C   LIG d   1       2.308  -2.294  -9.602  0.00  0.00    -0.051 C 
ATOM     45  H   LIG d   1       4.451  -2.461  -9.289  0.00  0.00     0.028 H 
ATOM     46  H   LIG d   1       3.462  -3.003  -7.904  0.00  0.00     0.028 H 
ATOM     47  C   LIG d   1       2.067  -0.809  -9.968  0.00  0.00    -0.051 C 
ATOM     48  H   LIG d   1       1.453  -2.697  -9.059  0.00  0.00     0.027 H 
ATOM     49  H   LIG d   1       2.501  -2.883 -10.500  0.00  0.00     0.027 H 
ATOM     50  C   LIG d   1       2.418  -0.071  -8.652  0.00  0.00    -0.035 C 
ATOM     51  H   LIG d   1       1.024  -0.642 -10.238  0.00  0.00     0.027 H 
ATOM     52  H   LIG d   1       2.730  -0.497 -10.775  0.00  0.00     0.027 H 
ATOM     53  H   LIG d   1       1.582  -0.115  -7.956  0.00  0.00     0.028 H 
ATOM     54  H   LIG d   1       2.693   0.964  -8.858  0.00  0.00     0.028 H 
ATOM     55  H   LIG d   1       4.556  -0.362  -8.392  0.00  0.00     0.050 H 
ENDBRANCH  40  42
ENDBRANCH  29  38
ENDBRANCH  19  28
BRANCH   1  56
ATOM     56  C   LIG d   1       6.036  -6.789  -5.689  0.00  0.00    -0.021 A 
ATOM     57  C   LIG d   1       7.330  -7.087  -5.306  0.00  0.00    -0.053 A 
ATOM     58  C   LIG d   1       7.591  -8.232  -4.579  0.00  0.00    -0.020 A 
ATOM     59  H   LIG d   1       8.139  -6.424  -5.575  0.00  0.00     0.062 H 
ATOM     60  C   LIG d   1       6.551  -9.084  -4.233  0.00  0.00     0.120 A 
ATOM     61  H   LIG d   1       8.602  -8.465  -4.279  0.00  0.00     0.065 H 
ATOM     62  C   LIG d   1       5.255  -8.786  -4.623  0.00  0.00    -0.020 A 
ATOM     63  C   LIG d   1       4.999  -7.636  -5.346  0.00  0.00    -0.053 A 
ATOM     64  H   LIG d   1       4.444  -9.450  -4.359  0.00  0.00     0.065 H 
ATOM     65  H   LIG d   1       3.988  -7.401  -5.645  0.00  0.00     0.062 H 
BRANCH  60  66
ATOM     66  O   LIG d   1       6.805 -10.212  -3.518  0.00  0.00    -0.495 OA
BRANCH  66  67
ATOM     67  C   LIG d   1       5.824 -10.605  -2.556  0.00  0.00     0.079 C 
ATOM     68  H   LIG d   1       5.531 -11.639  -2.737  0.00  0.00     0.066 H 
ATOM     69  H   LIG d   1       6.242 -10.516  -1.554  0.00  0.00     0.066 H 
ATOM     70  H   LIG d   1       4.950  -9.959  -2.645  0.00  0.00     0.066 H 
ENDBRANCH  66  67
ENDBRANCH  60  66
ENDBRANCH   1  56
TORSDOF 6
ENDMDL
MODEL 4
REMARK VINA RESULT:      -7.5      2.820      6.567
REMARK  6 active torsions:
REMARK  status: ('A' for Active; 'I' for Inactive)
REMARK    1  A    between atoms: C_1  and  O_2 
REMARK    2  A    between atoms: O_2  and  C_3 
REMARK    3  A    between atoms: C_6  and  C_9 
REMARK    4  A    between atoms: N_27  and  C_30 
REMARK    5  A    between atoms: C_35  and  C_36 
REMARK       I    between atoms: C_36  and  N_38 
REMARK    6  A    between atoms: N_38  and  C_39 
ROOT
ATOM      1  C   LIG d   1       9.708   1.013  -5.415  0.00  0.00     0.094 C 
ATOM      2  H   LIG d   1       9.614   1.832  -4.702  0.00  0.00     0.062 H 
ATOM      3  C   LIG d   1      11.025   0.291  -5.209  0.00  0.00     0.046 A 
ATOM      4  C   LIG d   1      11.129  -1.043  -5.030  0.00  0.00    -0.015 A 
ATOM      5  C   LIG d   1      12.541  -1.336  -4.878  0.00  0.00     0.003 A 
ATOM      6  C   LIG d   1      13.243  -2.528  -4.673  0.00  0.00    -0.052 A 
ATOM      7  C   LIG d   1      14.608  -2.434  -4.572  0.00  0.00    -0.061 A 
ATOM      8  C   LIG d   1      15.272  -1.222  -4.667  0.00  0.00    -0.060 A 
ATOM      9  C   LIG d   1      14.604  -0.028  -4.871  0.00  0.00    -0.038 A 
ATOM     10  C   LIG d   1      13.216  -0.092  -4.978  0.00  0.00     0.047 A 
ATOM     11  N   LIG d   1      12.267   0.868  -5.177  0.00  0.00    -0.356 N 
ATOM     12  H   LIG d   1      12.445   1.817  -5.279  0.00  0.00     0.166 HD
ATOM     13  C   LIG d   1       9.980  -2.018  -4.988  0.00  0.00     0.002 C 
ATOM     14  C   LIG d   1       8.749  -1.385  -5.646  0.00  0.00     0.110 A 
ATOM     15  H   LIG d   1       8.798  -1.450  -6.734  0.00  0.00     0.060 H 
ATOM     16  N   LIG d   1       8.652   0.019  -5.184  0.00  0.00    -0.261 N 
ATOM     17  C   LIG d   1       7.486   0.152  -4.550  0.00  0.00     0.317 A 
ATOM     18  O   LIG d   1       7.075   1.204  -4.098  0.00  0.00    -0.252 OA
ATOM     19  N   LIG d   1       6.819  -1.008  -4.468  0.00  0.00    -0.192 N 
ATOM     20  C   LIG d   1       7.491  -2.032  -5.103  0.00  0.00     0.248 A 
ATOM     21  O   LIG d   1       7.163  -3.194  -5.206  0.00  0.00    -0.273 OA
ATOM     22  H   LIG d   1      12.734  -3.478  -4.596  0.00  0.00     0.062 H 
ATOM     23  H   LIG d   1      15.183  -3.335  -4.412  0.00  0.00     0.062 H 
ATOM     24  H   LIG d   1      16.348  -1.210  -4.579  0.00  0.00     0.062 H 
ATOM     25  H   LIG d   1      15.133   0.911  -4.943  0.00  0.00     0.064 H 
ATOM     26  H   LIG d   1      10.254  -2.926  -5.524  0.00  0.00     0.034 H 
ATOM     27  H   LIG d   1       9.750  -2.264  -3.950  0.00  0.00     0.034 H 
ENDROOT
BRANCH  19  28
ATOM     28  C   LIG d   1       5.587  -1.162  -3.828  0.00  0.00     0.058 A 
ATOM     29  C   LIG d   1       4.400  -1.150  -4.574  0.00  0.00     0.059 A 
ATOM     30  C   LIG d   1       3.174  -1.310  -3.923  0.00  0.00    -0.048 A 
ATOM     31  C   LIG d   1       3.139  -1.468  -2.554  0.00  0.00    -0.061 A 
ATOM     32  H   LIG d   1       2.256  -1.306  -4.491  0.00  0.00     0.063 H 
ATOM     33  C   LIG d   1       4.314  -1.474  -1.820  0.00  0.00    -0.060 A 
ATOM     34  H   LIG d   1       2.190  -1.588  -2.053  0.00  0.00     0.062 H 
ATOM     35  C   LIG d   1       5.532  -1.323  -2.452  0.00  0.00    -0.039 A 
ATOM     36  H   LIG d   1       4.276  -1.599  -0.748  0.00  0.00     0.062 H 
ATOM     37  H   LIG d   1       6.444  -1.329  -1.872  0.00  0.00     0.064 H 
BRANCH  29  38
ATOM     38  C   LIG d   1       4.445  -0.973  -6.039  0.00  0.00     0.246 C 
ATOM     39  O   LIG d   1       4.460  -1.946  -6.768  0.00  0.00    -0.270 OA
ATOM     40  N   LIG d   1       4.469   0.267  -6.567  0.00  0.00    -0.308 N 
ATOM     41  H   LIG d   1       4.456   1.043  -5.985  0.00  0.00     0.149 HD
BRANCH  40  42
ATOM     42  C   LIG d   1       4.513   0.442  -8.021  0.00  0.00     0.023 C 
ATOM     43  C   LIG d   1       3.355   1.346  -8.478  0.00  0.00    -0.035 C 
ATOM     44  C   LIG d   1       3.997   2.580  -9.147  0.00  0.00    -0.051 C 
ATOM     45  H   LIG d   1       2.728   0.816  -9.196  0.00  0.00     0.028 H 
ATOM     46  H   LIG d   1       2.760   1.654  -7.619  0.00  0.00     0.028 H 
ATOM     47  C   LIG d   1       5.394   2.085  -9.594  0.00  0.00    -0.051 C 
ATOM     48  H   LIG d   1       4.092   3.396  -8.431  0.00  0.00     0.027 H 
ATOM     49  H   LIG d   1       3.409   2.895 -10.010  0.00  0.00     0.027 H 
ATOM     50  C   LIG d   1       5.818   1.157  -8.427  0.00  0.00    -0.035 C 
ATOM     51  H   LIG d   1       6.086   2.921  -9.693  0.00  0.00     0.027 H 
ATOM     52  H   LIG d   1       5.327   1.526 -10.527  0.00  0.00     0.027 H 
ATOM     53  H   LIG d   1       6.206   1.743  -7.595  0.00  0.00     0.028 H 
ATOM     54  H   LIG d   1       6.560   0.434  -8.766  0.00  0.00     0.028 H 
ATOM     55  H   LIG d   1       4.447  -0.527  -8.516  0.00  0.00     0.050 H 
ENDBRANCH  40  42
ENDBRANCH  29  38
ENDBRANCH  19  28
BRANCH   1  56
ATOM     56  C   LIG d   1       9.622   1.541  -6.823  0.00  0.00    -0.021 A 
ATOM     57  C   LIG d   1       9.961   0.727  -7.888  0.00  0.00    -0.053 A 
ATOM     58  C   LIG d   1       9.882   1.208  -9.180  0.00  0.00    -0.020 A 
ATOM     59  H   LIG d   1      10.288  -0.287  -7.709  0.00  0.00     0.062 H 
ATOM     60  C   LIG d   1       9.461   2.510  -9.410  0.00  0.00     0.120 A 
ATOM     61  H   LIG d   1      10.147   0.571 -10.012  0.00  0.00     0.065 H 
ATOM     62  C   LIG d   1       9.127   3.326  -8.340  0.00  0.00    -0.020 A 
ATOM     63  C   LIG d   1       9.203   2.839  -7.050  0.00  0.00    -0.053 A 
ATOM     64  H   LIG d   1       8.804   4.342  -8.516  0.00  0.00     0.065 H 
ATOM     65  H   LIG d   1       8.937   3.473  -6.217  0.00  0.00     0.062 H 
BRANCH  60  66
ATOM     66  O   LIG d   1       9.383   2.986 -10.681  0.00  0.00    -0.495 OA
BRANCH  66  67
ATOM     67  C   LIG d   1      10.124   4.172 -10.976  0.00  0.00     0.079 C 
ATOM     68  H   LIG d   1      10.573   4.084 -11.965  0.00  0.00     0.066 H 
ATOM     69  H   LIG d   1       9.456   5.032 -10.955  0.00  0.00     0.066 H 
ATOM     70  H   LIG d   1      10.910   4.303 -10.231  0.00  0.00     0.066 H 
ENDBRANCH  66  67
ENDBRANCH  60  66
ENDBRANCH   1  56
TORSDOF 6
ENDMDL
MODEL 5
REMARK VINA RESULT:      -7.4      3.151      5.915
REMARK  6 active torsions:
REMARK  status: ('A' for Active; 'I' for Inactive)
REMARK    1  A    between atoms: C_1  and  O_2 
REMARK    2  A    between atoms: O_2  and  C_3 
REMARK    3  A    between atoms: C_6  and  C_9 
REMARK    4  A    between atoms: N_27  and  C_30 
REMARK    5  A    between atoms: C_35  and  C_36 
REMARK       I    between atoms: C_36  and  N_38 
REMARK    6  A    between atoms: N_38  and  C_39 
ROOT
ATOM      1  C   LIG d   1       9.004  -0.788  -5.360  0.00  0.00     0.094 C 
ATOM      2  H   LIG d   1       8.685  -0.149  -4.538  0.00  0.00     0.062 H 
ATOM      3  C   LIG d   1       9.036  -2.236  -4.912  0.00  0.00     0.046 A 
ATOM      4  C   LIG d   1       8.405  -3.236  -5.564  0.00  0.00    -0.015 A 
ATOM      5  C   LIG d   1       8.685  -4.456  -4.829  0.00  0.00     0.003 A 
ATOM      6  C   LIG d   1       8.307  -5.787  -5.028  0.00  0.00    -0.052 A 
ATOM      7  C   LIG d   1       8.762  -6.705  -4.115  0.00  0.00    -0.061 A 
ATOM      8  C   LIG d   1       9.558  -6.341  -3.040  0.00  0.00    -0.060 A 
ATOM      9  C   LIG d   1       9.947  -5.031  -2.819  0.00  0.00    -0.038 A 
ATOM     10  C   LIG d   1       9.501  -4.078  -3.732  0.00  0.00     0.047 A 
ATOM     11  N   LIG d   1       9.691  -2.729  -3.815  0.00  0.00    -0.356 N 
ATOM     12  H   LIG d   1      10.211  -2.199  -3.190  0.00  0.00     0.166 HD
ATOM     13  C   LIG d   1       7.567  -3.087  -6.808  0.00  0.00     0.002 C 
ATOM     14  C   LIG d   1       7.914  -1.765  -7.501  0.00  0.00     0.110 A 
ATOM     15  H   LIG d   1       8.826  -1.851  -8.094  0.00  0.00     0.060 H 
ATOM     16  N   LIG d   1       8.033  -0.718  -6.459  0.00  0.00    -0.261 N 
ATOM     17  C   LIG d   1       7.119   0.217  -6.726  0.00  0.00     0.317 A 
ATOM     18  O   LIG d   1       6.994   1.245  -6.088  0.00  0.00    -0.252 OA
ATOM     19  N   LIG d   1       6.354  -0.109  -7.777  0.00  0.00    -0.192 N 
ATOM     20  C   LIG d   1       6.741  -1.307  -8.343  0.00  0.00     0.248 A 
ATOM     21  O   LIG d   1       6.256  -1.878  -9.295  0.00  0.00    -0.273 OA
ATOM     22  H   LIG d   1       7.686  -6.080  -5.863  0.00  0.00     0.062 H 
ATOM     23  H   LIG d   1       8.490  -7.743  -4.236  0.00  0.00     0.062 H 
ATOM     24  H   LIG d   1       9.885  -7.106  -2.352  0.00  0.00     0.062 H 
ATOM     25  H   LIG d   1      10.567  -4.760  -1.977  0.00  0.00     0.064 H 
ATOM     26  H   LIG d   1       7.769  -3.917  -7.484  0.00  0.00     0.034 H 
ATOM     27  H   LIG d   1       6.511  -3.088  -6.536  0.00  0.00     0.034 H 
ENDROOT
BRANCH  19  28
ATOM     28  C   LIG d   1       5.300   0.674  -8.252  0.00  0.00     0.058 A 
ATOM     29  C   LIG d   1       4.022   0.550  -7.689  0.00  0.00     0.059 A 
ATOM     30  C   LIG d   1       2.975   1.342  -8.169  0.00  0.00    -0.048 A 
ATOM     31  C   LIG d   1       3.203   2.230  -9.199  0.00  0.00    -0.061 A 
ATOM     32  H   LIG d   1       1.990   1.256  -7.737  0.00  0.00     0.063 H 
ATOM     33  C   LIG d   1       4.466   2.346  -9.756  0.00  0.00    -0.060 A 
ATOM     34  H   LIG d   1       2.392   2.839  -9.571  0.00  0.00     0.062 H 
ATOM     35  C   LIG d   1       5.510   1.573  -9.287  0.00  0.00    -0.039 A 
ATOM     36  H   LIG d   1       4.635   3.044 -10.562  0.00  0.00     0.062 H 
ATOM     37  H   LIG d   1       6.492   1.669  -9.728  0.00  0.00     0.064 H 
BRANCH  29  38
ATOM     38  C   LIG d   1       3.784  -0.408  -6.591  0.00  0.00     0.246 C 
ATOM     39  O   LIG d   1       3.441  -1.546  -6.842  0.00  0.00    -0.270 OA
ATOM     40  N   LIG d   1       3.950  -0.019  -5.311  0.00  0.00    -0.308 N 
ATOM     41  H   LIG d   1       4.225   0.890  -5.111  0.00  0.00     0.149 HD
BRANCH  40  42
ATOM     42  C   LIG d   1       3.715  -0.970  -4.222  0.00  0.00     0.023 C 
ATOM     43  C   LIG d   1       4.931  -1.901  -4.064  0.00  0.00    -0.035 C 
ATOM     44  C   LIG d   1       5.473  -1.679  -2.637  0.00  0.00    -0.051 C 
ATOM     45  H   LIG d   1       4.624  -2.939  -4.190  0.00  0.00     0.028 H 
ATOM     46  H   LIG d   1       5.694  -1.645  -4.798  0.00  0.00     0.028 H 
ATOM     47  C   LIG d   1       4.256  -1.134  -1.849  0.00  0.00    -0.051 C 
ATOM     48  H   LIG d   1       6.281  -0.948  -2.645  0.00  0.00     0.027 H 
ATOM     49  H   LIG d   1       5.814  -2.621  -2.207  0.00  0.00     0.027 H 
ATOM     50  C   LIG d   1       3.562  -0.215  -2.885  0.00  0.00    -0.035 C 
ATOM     51  H   LIG d   1       4.584  -0.559  -0.982  0.00  0.00     0.027 H 
ATOM     52  H   LIG d   1       3.595  -1.946  -1.547  0.00  0.00     0.027 H 
ATOM     53  H   LIG d   1       4.061   0.751  -2.934  0.00  0.00     0.028 H 
ATOM     54  H   LIG d   1       2.507  -0.090  -2.637  0.00  0.00     0.028 H 
ATOM     55  H   LIG d   1       2.819  -1.557  -4.425  0.00  0.00     0.050 H 
ENDBRANCH  40  42
ENDBRANCH  29  38
ENDBRANCH  19  28
BRANCH   1  56
ATOM     56  C   LIG d   1      10.366  -0.367  -5.845  0.00  0.00    -0.021 A 
ATOM     57  C   LIG d   1      10.743   0.962  -5.779  0.00  0.00    -0.053 A 
ATOM     58  C   LIG d   1      11.992   1.350  -6.221  0.00  0.00    -0.020 A 
ATOM     59  H   LIG d   1      10.060   1.697  -5.380  0.00  0.00     0.062 H 
ATOM     60  C   LIG d   1      12.870   0.405  -6.734  0.00  0.00     0.120 A 
ATOM     61  H   LIG d   1      12.287   2.388  -6.169  0.00  0.00     0.065 H 
ATOM     62  C   LIG d   1      12.488  -0.926  -6.805  0.00  0.00    -0.020 A 
ATOM     63  C   LIG d   1      11.239  -1.310  -6.356  0.00  0.00    -0.053 A 
ATOM     64  H   LIG d   1      13.168  -1.662  -7.207  0.00  0.00     0.065 H 
ATOM     65  H   LIG d   1      10.944  -2.347  -6.406  0.00  0.00     0.062 H 
BRANCH  60  66
ATOM     66  O   LIG d   1      14.100   0.785  -7.171  0.00  0.00    -0.495 OA
BRANCH  66  67
ATOM     67  C   LIG d   1      15.192  -0.087  -6.873  0.00  0.00     0.079 C 
ATOM     68  H   LIG d   1      15.859   0.396  -6.159  0.00  0.00     0.066 H 
ATOM     69  H   LIG d   1      14.810  -1.014  -6.445  0.00  0.00     0.066 H 
ATOM     70  H   LIG d   1      15.740  -0.308  -7.789  0.00  0.00     0.066 H 
ENDBRANCH  66  67
ENDBRANCH  60  66
ENDBRANCH   1  56
TORSDOF 6
ENDMDL
MODEL 6
REMARK VINA RESULT:      -7.3      4.336      5.966
REMARK  6 active torsions:
REMARK  status: ('A' for Active; 'I' for Inactive)
REMARK    1  A    between atoms: C_1  and  O_2 
REMARK    2  A    between atoms: O_2  and  C_3 
REMARK    3  A    between atoms: C_6  and  C_9 
REMARK    4  A    between atoms: N_27  and  C_30 
REMARK    5  A    between atoms: C_35  and  C_36 
REMARK       I    between atoms: C_36  and  N_38 
REMARK    6  A    between atoms: N_38  and  C_39 
ROOT
ATOM      1  C   LIG d   1       7.157  -2.094  -6.015  0.00  0.00     0.094 C 
ATOM      2  H   LIG d   1       7.594  -1.418  -6.751  0.00  0.00     0.062 H 
ATOM      3  C   LIG d   1       6.278  -1.318  -5.054  0.00  0.00     0.046 A 
ATOM      4  C   LIG d   1       4.994  -1.640  -4.787  0.00  0.00    -0.015 A 
ATOM      5  C   LIG d   1       4.511  -0.669  -3.824  0.00  0.00     0.003 A 
ATOM      6  C   LIG d   1       3.278  -0.503  -3.186  0.00  0.00    -0.052 A 
ATOM      7  C   LIG d   1       3.169   0.550  -2.312  0.00  0.00    -0.061 A 
ATOM      8  C   LIG d   1       4.223   1.415  -2.065  0.00  0.00    -0.060 A 
ATOM      9  C   LIG d   1       5.454   1.274  -2.682  0.00  0.00    -0.038 A 
ATOM     10  C   LIG d   1       5.595   0.212  -3.573  0.00  0.00     0.047 A 
ATOM     11  N   LIG d   1       6.644  -0.211  -4.336  0.00  0.00    -0.356 N 
ATOM     12  H   LIG d   1       7.518   0.210  -4.365  0.00  0.00     0.166 HD
ATOM     13  C   LIG d   1       4.228  -2.787  -5.396  0.00  0.00     0.002 C 
ATOM     14  C   LIG d   1       5.213  -3.810  -5.973  0.00  0.00     0.110 A 
ATOM     15  H   LIG d   1       5.619  -4.459  -5.195  0.00  0.00     0.060 H 
ATOM     16  N   LIG d   1       6.283  -3.067  -6.681  0.00  0.00    -0.261 N 
ATOM     17  C   LIG d   1       6.257  -3.450  -7.959  0.00  0.00     0.317 A 
ATOM     18  O   LIG d   1       7.050  -3.067  -8.798  0.00  0.00    -0.252 OA
ATOM     19  N   LIG d   1       5.256  -4.305  -8.210  0.00  0.00    -0.192 N 
ATOM     20  C   LIG d   1       4.538  -4.606  -7.071  0.00  0.00     0.248 A 
ATOM     21  O   LIG d   1       3.578  -5.336  -6.959  0.00  0.00    -0.273 OA
ATOM     22  H   LIG d   1       2.450  -1.172  -3.372  0.00  0.00     0.062 H 
ATOM     23  H   LIG d   1       2.230   0.710  -1.802  0.00  0.00     0.062 H 
ATOM     24  H   LIG d   1       4.078   2.227  -1.369  0.00  0.00     0.062 H 
ATOM     25  H   LIG d   1       6.267   1.955  -2.481  0.00  0.00     0.064 H 
ATOM     26  H   LIG d   1       3.616  -3.262  -4.630  0.00  0.00     0.034 H 
ATOM     27  H   LIG d   1       3.586  -2.412  -6.194  0.00  0.00     0.034 H 
ENDROOT
BRANCH  19  28
ATOM     28  C   LIG d   1       4.978  -4.838  -9.471  0.00  0.00     0.058 A 
ATOM     29  C   LIG d   1       4.122  -4.159 -10.349  0.00  0.00     0.059 A 
ATOM     30  C   LIG d   1       3.854  -4.699 -11.610  0.00  0.00    -0.048 A 
ATOM     31  C   LIG d   1       4.424  -5.900 -11.977  0.00  0.00    -0.061 A 
ATOM     32  H   LIG d   1       3.200  -4.180 -12.293  0.00  0.00     0.063 H 
ATOM     33  C   LIG d   1       5.266  -6.571 -11.104  0.00  0.00    -0.060 A 
ATOM     34  H   LIG d   1       4.214  -6.318 -12.950  0.00  0.00     0.062 H 
ATOM     35  C   LIG d   1       5.543  -6.045  -9.858  0.00  0.00    -0.039 A 
ATOM     36  H   LIG d   1       5.708  -7.510 -11.401  0.00  0.00     0.062 H 
ATOM     37  H   LIG d   1       6.200  -6.574  -9.183  0.00  0.00     0.064 H 
BRANCH  29  38
ATOM     38  C   LIG d   1       3.510  -2.877  -9.946  0.00  0.00     0.246 C 
ATOM     39  O   LIG d   1       2.398  -2.862  -9.456  0.00  0.00    -0.270 OA
ATOM     40  N   LIG d   1       4.186  -1.724 -10.121  0.00  0.00    -0.308 N 
ATOM     41  H   LIG d   1       5.074  -1.736 -10.512  0.00  0.00     0.149 HD
BRANCH  40  42
ATOM     42  C   LIG d   1       3.579  -0.452  -9.720  0.00  0.00     0.023 C 
ATOM     43  C   LIG d   1       4.376   0.168  -8.559  0.00  0.00    -0.035 C 
ATOM     44  C   LIG d   1       4.896   1.532  -9.062  0.00  0.00    -0.051 C 
ATOM     45  H   LIG d   1       3.726   0.312  -7.696  0.00  0.00     0.028 H 
ATOM     46  H   LIG d   1       5.213  -0.476  -8.294  0.00  0.00     0.028 H 
ATOM     47  C   LIG d   1       3.918   1.915 -10.200  0.00  0.00    -0.051 C 
ATOM     48  H   LIG d   1       5.911   1.435  -9.447  0.00  0.00     0.027 H 
ATOM     49  H   LIG d   1       4.860   2.272  -8.262  0.00  0.00     0.027 H 
ATOM     50  C   LIG d   1       3.643   0.554 -10.887  0.00  0.00    -0.035 C 
ATOM     51  H   LIG d   1       4.388   2.611 -10.895  0.00  0.00     0.027 H 
ATOM     52  H   LIG d   1       2.998   2.336  -9.794  0.00  0.00     0.027 H 
ATOM     53  H   LIG d   1       4.456   0.299 -11.567  0.00  0.00     0.028 H 
ATOM     54  H   LIG d   1       2.692   0.582 -11.420  0.00  0.00     0.028 H 
ATOM     55  H   LIG d   1       2.543  -0.611  -9.419  0.00  0.00     0.050 H 
ENDBRANCH  40  42
ENDBRANCH  29  38
ENDBRANCH  19  28
BRANCH   1  56
ATOM     56  C   LIG d   1       8.246  -2.808  -5.258  0.00  0.00    -0.021 A 
ATOM     57  C   LIG d   1       8.043  -3.179  -3.942  0.00  0.00    -0.053 A 
ATOM     58  C   LIG d   1       9.039  -3.835  -3.246  0.00  0.00    -0.020 A 
ATOM     59  H   LIG d   1       7.104  -2.955  -3.457  0.00  0.00     0.062 H 
ATOM     60  C   LIG d   1      10.245  -4.122  -3.869  0.00  0.00     0.120 A 
ATOM     61  H   LIG d   1       8.880  -4.125  -2.217  0.00  0.00     0.065 H 
ATOM     62  C   LIG d   1      10.449  -3.744  -5.188  0.00  0.00    -0.020 A 
ATOM     63  C   LIG d   1       9.447  -3.093  -5.881  0.00  0.00    -0.053 A 
ATOM     64  H   LIG d   1      11.388  -3.963  -5.674  0.00  0.00     0.065 H 
ATOM     65  H   LIG d   1       9.604  -2.803  -6.910  0.00  0.00     0.062 H 
BRANCH  60  66
ATOM     66  O   LIG d   1      11.228  -4.768  -3.186  0.00  0.00    -0.495 OA
BRANCH  66  67
ATOM     67  C   LIG d   1      10.922  -6.072  -2.687  0.00  0.00     0.079 C 
ATOM     68  H   LIG d   1      10.123  -6.000  -1.949  0.00  0.00     0.066 H 
ATOM     69  H   LIG d   1      10.600  -6.709  -3.510  0.00  0.00     0.066 H 
ATOM     70  H   LIG d   1      11.810  -6.499  -2.221  0.00  0.00     0.066 H 
ENDBRANCH  66  67
ENDBRANCH  60  66
ENDBRANCH   1  56
TORSDOF 6
ENDMDL
MODEL 7
REMARK VINA RESULT:      -7.3      5.943      8.254
REMARK  6 active torsions:
REMARK  status: ('A' for Active; 'I' for Inactive)
REMARK    1  A    between atoms: C_1  and  O_2 
REMARK    2  A    between atoms: O_2  and  C_3 
REMARK    3  A    between atoms: C_6  and  C_9 
REMARK    4  A    between atoms: N_27  and  C_30 
REMARK    5  A    between atoms: C_35  and  C_36 
REMARK       I    between atoms: C_36  and  N_38 
REMARK    6  A    between atoms: N_38  and  C_39 
ROOT
ATOM      1  C   LIG d   1       7.382  -3.335  -5.334  0.00  0.00     0.094 C 
ATOM      2  H   LIG d   1       8.005  -2.811  -6.058  0.00  0.00     0.062 H 
ATOM      3  C   LIG d   1       6.528  -2.342  -4.570  0.00  0.00     0.046 A 
ATOM      4  C   LIG d   1       5.187  -2.443  -4.452  0.00  0.00    -0.015 A 
ATOM      5  C   LIG d   1       4.752  -1.316  -3.648  0.00  0.00     0.003 A 
ATOM      6  C   LIG d   1       3.493  -0.905  -3.199  0.00  0.00    -0.052 A 
ATOM      7  C   LIG d   1       3.448   0.238  -2.441  0.00  0.00    -0.061 A 
ATOM      8  C   LIG d   1       4.589   0.960  -2.129  0.00  0.00    -0.060 A 
ATOM      9  C   LIG d   1       5.847   0.576  -2.559  0.00  0.00    -0.038 A 
ATOM     10  C   LIG d   1       5.923  -0.582  -3.330  0.00  0.00     0.047 A 
ATOM     11  N   LIG d   1       6.977  -1.232  -3.905  0.00  0.00    -0.356 N 
ATOM     12  H   LIG d   1       7.903  -0.949  -3.851  0.00  0.00     0.166 HD
ATOM     13  C   LIG d   1       4.327  -3.522  -5.059  0.00  0.00     0.002 C 
ATOM     14  C   LIG d   1       5.199  -4.733  -5.409  0.00  0.00     0.110 A 
ATOM     15  H   LIG d   1       5.399  -5.349  -4.531  0.00  0.00     0.060 H 
ATOM     16  N   LIG d   1       6.451  -4.234  -6.026  0.00  0.00    -0.261 N 
ATOM     17  C   LIG d   1       6.518  -4.740  -7.259  0.00  0.00     0.317 A 
ATOM     18  O   LIG d   1       7.456  -4.568  -8.013  0.00  0.00    -0.252 OA
ATOM     19  N   LIG d   1       5.431  -5.461  -7.570  0.00  0.00    -0.192 N 
ATOM     20  C   LIG d   1       4.543  -5.532  -6.516  0.00  0.00     0.248 A 
ATOM     21  O   LIG d   1       3.472  -6.097  -6.474  0.00  0.00    -0.273 OA
ATOM     22  H   LIG d   1       2.598  -1.460  -3.439  0.00  0.00     0.062 H 
ATOM     23  H   LIG d   1       2.492   0.587  -2.077  0.00  0.00     0.062 H 
ATOM     24  H   LIG d   1       4.492   1.853  -1.529  0.00  0.00     0.062 H 
ATOM     25  H   LIG d   1       6.728   1.148  -2.309  0.00  0.00     0.064 H 
ATOM     26  H   LIG d   1       3.559  -3.820  -4.345  0.00  0.00     0.034 H 
ATOM     27  H   LIG d   1       3.853  -3.142  -5.965  0.00  0.00     0.034 H 
ENDROOT
BRANCH  19  28
ATOM     28  C   LIG d   1       5.225  -6.076  -8.806  0.00  0.00     0.058 A 
ATOM     29  C   LIG d   1       5.410  -7.459  -8.944  0.00  0.00     0.059 A 
ATOM     30  C   LIG d   1       5.196  -8.065 -10.185  0.00  0.00    -0.048 A 
ATOM     31  C   LIG d   1       4.815  -7.299 -11.266  0.00  0.00    -0.061 A 
ATOM     32  H   LIG d   1       5.331  -9.130 -10.297  0.00  0.00     0.063 H 
ATOM     33  C   LIG d   1       4.639  -5.932 -11.127  0.00  0.00    -0.060 A 
ATOM     34  H   LIG d   1       4.653  -7.768 -12.225  0.00  0.00     0.062 H 
ATOM     35  C   LIG d   1       4.841  -5.322  -9.905  0.00  0.00    -0.039 A 
ATOM     36  H   LIG d   1       4.340  -5.340 -11.980  0.00  0.00     0.062 H 
ATOM     37  H   LIG d   1       4.701  -4.255  -9.805  0.00  0.00     0.064 H 
BRANCH  29  38
ATOM     38  C   LIG d   1       5.824  -8.272  -7.783  0.00  0.00     0.246 C 
ATOM     39  O   LIG d   1       7.001  -8.362  -7.493  0.00  0.00    -0.270 OA
ATOM     40  N   LIG d   1       4.896  -8.912  -7.044  0.00  0.00    -0.308 N 
ATOM     41  H   LIG d   1       3.956  -8.840  -7.275  0.00  0.00     0.149 HD
BRANCH  40  42
ATOM     42  C   LIG d   1       5.307  -9.718  -5.892  0.00  0.00     0.023 C 
ATOM     43  C   LIG d   1       5.021  -8.954  -4.587  0.00  0.00    -0.035 C 
ATOM     44  C   LIG d   1       4.028  -9.817  -3.780  0.00  0.00    -0.051 C 
ATOM     45  H   LIG d   1       5.944  -8.821  -4.022  0.00  0.00     0.028 H 
ATOM     46  H   LIG d   1       4.577  -7.985  -4.811  0.00  0.00     0.028 H 
ATOM     47  C   LIG d   1       4.247 -11.252  -4.319  0.00  0.00    -0.051 C 
ATOM     48  H   LIG d   1       3.004  -9.492  -3.963  0.00  0.00     0.027 H 
ATOM     49  H   LIG d   1       4.259  -9.769  -2.715  0.00  0.00     0.027 H 
ATOM     50  C   LIG d   1       4.477 -11.017  -5.833  0.00  0.00    -0.035 C 
ATOM     51  H   LIG d   1       3.362 -11.866  -4.153  0.00  0.00     0.027 H 
ATOM     52  H   LIG d   1       5.124 -11.708  -3.860  0.00  0.00     0.027 H 
ATOM     53  H   LIG d   1       3.526 -10.886  -6.347  0.00  0.00     0.028 H 
ATOM     54  H   LIG d   1       5.037 -11.847  -6.266  0.00  0.00     0.028 H 
ATOM     55  H   LIG d   1       6.369  -9.954  -5.961  0.00  0.00     0.050 H 
ENDBRANCH  40  42
ENDBRANCH  29  38
ENDBRANCH  19  28
BRANCH   1  56
ATOM     56  C   LIG d   1       8.244  -4.118  -4.379  0.00  0.00    -0.021 A 
ATOM     57  C   LIG d   1       8.503  -5.455  -4.618  0.00  0.00    -0.053 A 
ATOM     58  C   LIG d   1       9.294  -6.174  -3.745  0.00  0.00    -0.020 A 
ATOM     59  H   LIG d   1       8.086  -5.937  -5.490  0.00  0.00     0.062 H 
ATOM     60  C   LIG d   1       9.830  -5.554  -2.625  0.00  0.00     0.120 A 
ATOM     61  H   LIG d   1       9.496  -7.219  -3.933  0.00  0.00     0.065 H 
ATOM     62  C   LIG d   1       9.565  -4.215  -2.384  0.00  0.00    -0.020 A 
ATOM     63  C   LIG d   1       8.777  -3.498  -3.264  0.00  0.00    -0.053 A 
ATOM     64  H   LIG d   1       9.977  -3.731  -1.510  0.00  0.00     0.065 H 
ATOM     65  H   LIG d   1       8.574  -2.453  -3.078  0.00  0.00     0.062 H 
BRANCH  60  66
ATOM     66  O   LIG d   1      10.609  -6.261  -1.763  0.00  0.00    -0.495 OA
BRANCH  66  67
ATOM     67  C   LIG d   1      10.281  -7.639  -1.574  0.00  0.00     0.079 C 
ATOM     68  H   LIG d   1       9.807  -7.770  -0.602  0.00  0.00     0.066 H 
ATOM     69  H   LIG d   1       9.597  -7.960  -2.359  0.00  0.00     0.066 H 
ATOM     70  H   LIG d   1      11.192  -8.237  -1.618  0.00  0.00     0.066 H 
ENDBRANCH  66  67
ENDBRANCH  60  66
ENDBRANCH   1  56
TORSDOF 6
ENDMDL
MODEL 8
REMARK VINA RESULT:      -7.3      2.684      6.741
REMARK  6 active torsions:
REMARK  status: ('A' for Active; 'I' for Inactive)
REMARK    1  A    between atoms: C_1  and  O_2 
REMARK    2  A    between atoms: O_2  and  C_3 
REMARK    3  A    between atoms: C_6  and  C_9 
REMARK    4  A    between atoms: N_27  and  C_30 
REMARK    5  A    between atoms: C_35  and  C_36 
REMARK       I    between atoms: C_36  and  N_38 
REMARK    6  A    between atoms: N_38  and  C_39 
ROOT
ATOM      1  C   LIG d   1       8.016   2.486  -8.764  0.00  0.00     0.094 C 
ATOM      2  H   LIG d   1       7.472   3.377  -9.075  0.00  0.00     0.062 H 
ATOM      3  C   LIG d   1       8.578   2.678  -7.369  0.00  0.00     0.046 A 
ATOM      4  C   LIG d   1       8.371   1.814  -6.353  0.00  0.00    -0.015 A 
ATOM      5  C   LIG d   1       9.073   2.348  -5.201  0.00  0.00     0.003 A 
ATOM      6  C   LIG d   1       9.219   1.891  -3.888  0.00  0.00    -0.052 A 
ATOM      7  C   LIG d   1       9.970   2.667  -3.040  0.00  0.00    -0.061 A 
ATOM      8  C   LIG d   1      10.559   3.851  -3.454  0.00  0.00    -0.060 A 
ATOM      9  C   LIG d   1      10.432   4.326  -4.748  0.00  0.00    -0.038 A 
ATOM     10  C   LIG d   1       9.676   3.558  -5.631  0.00  0.00     0.047 A 
ATOM     11  N   LIG d   1       9.354   3.725  -6.946  0.00  0.00    -0.356 N 
ATOM     12  H   LIG d   1       9.632   4.473  -7.499  0.00  0.00     0.166 HD
ATOM     13  C   LIG d   1       7.554   0.549  -6.424  0.00  0.00     0.002 C 
ATOM     14  C   LIG d   1       7.396   0.125  -7.888  0.00  0.00     0.110 A 
ATOM     15  H   LIG d   1       8.282  -0.395  -8.253  0.00  0.00     0.060 H 
ATOM     16  N   LIG d   1       7.104   1.339  -8.688  0.00  0.00    -0.261 N 
ATOM     17  C   LIG d   1       5.912   1.163  -9.261  0.00  0.00     0.317 A 
ATOM     18  O   LIG d   1       5.406   1.956 -10.032  0.00  0.00    -0.252 OA
ATOM     19  N   LIG d   1       5.336   0.011  -8.888  0.00  0.00    -0.192 N 
ATOM     20  C   LIG d   1       6.147  -0.719  -8.043  0.00  0.00     0.248 A 
ATOM     21  O   LIG d   1       5.922  -1.792  -7.528  0.00  0.00    -0.273 OA
ATOM     22  H   LIG d   1       8.762   0.970  -3.555  0.00  0.00     0.062 H 
ATOM     23  H   LIG d   1      10.103   2.346  -2.018  0.00  0.00     0.062 H 
ATOM     24  H   LIG d   1      11.138   4.421  -2.743  0.00  0.00     0.062 H 
ATOM     25  H   LIG d   1      10.896   5.251  -5.058  0.00  0.00     0.064 H 
ATOM     26  H   LIG d   1       8.059  -0.241  -5.869  0.00  0.00     0.034 H 
ATOM     27  H   LIG d   1       6.570   0.727  -5.989  0.00  0.00     0.034 H 
ENDROOT
BRANCH  19  28
ATOM     28  C   LIG d   1       4.073  -0.408  -9.312  0.00  0.00     0.058 A 
ATOM     29  C   LIG d   1       2.970  -0.297  -8.453  0.00  0.00     0.059 A 
ATOM     30  C   LIG d   1       1.710  -0.715  -8.889  0.00  0.00    -0.048 A 
ATOM     31  C   LIG d   1       1.562  -1.242 -10.154  0.00  0.00    -0.061 A 
ATOM     32  H   LIG d   1       0.856  -0.628  -8.236  0.00  0.00     0.063 H 
ATOM     33  C   LIG d   1       2.655  -1.355 -10.998  0.00  0.00    -0.060 A 
ATOM     34  H   LIG d   1       0.588  -1.568 -10.489  0.00  0.00     0.062 H 
ATOM     35  C   LIG d   1       3.904  -0.940 -10.581  0.00  0.00    -0.039 A 
ATOM     36  H   LIG d   1       2.529  -1.768 -11.988  0.00  0.00     0.062 H 
ATOM     37  H   LIG d   1       4.752  -1.031 -11.245  0.00  0.00     0.064 H 
BRANCH  29  38
ATOM     38  C   LIG d   1       3.138   0.262  -7.097  0.00  0.00     0.246 C 
ATOM     39  O   LIG d   1       3.036   1.460  -6.917  0.00  0.00    -0.270 OA
ATOM     40  N   LIG d   1       3.403  -0.556  -6.059  0.00  0.00    -0.308 N 
ATOM     41  H   LIG d   1       3.484  -1.512  -6.203  0.00  0.00     0.149 HD
BRANCH  40  42
ATOM     42  C   LIG d   1       3.569  -0.001  -4.714  0.00  0.00     0.023 C 
ATOM     43  C   LIG d   1       2.455  -0.521  -3.789  0.00  0.00    -0.035 C 
ATOM     44  C   LIG d   1       3.152  -1.295  -2.651  0.00  0.00    -0.051 C 
ATOM     45  H   LIG d   1       1.890   0.316  -3.379  0.00  0.00     0.028 H 
ATOM     46  H   LIG d   1       1.791  -1.185  -4.341  0.00  0.00     0.028 H 
ATOM     47  C   LIG d   1       4.582  -0.701  -2.608  0.00  0.00    -0.051 C 
ATOM     48  H   LIG d   1       3.189  -2.360  -2.880  0.00  0.00     0.027 H 
ATOM     49  H   LIG d   1       2.640  -1.126  -1.704  0.00  0.00     0.027 H 
ATOM     50  C   LIG d   1       4.904  -0.478  -4.107  0.00  0.00    -0.035 C 
ATOM     51  H   LIG d   1       5.281  -1.409  -2.163  0.00  0.00     0.027 H 
ATOM     52  H   LIG d   1       4.592   0.244  -2.065  0.00  0.00     0.027 H 
ATOM     53  H   LIG d   1       5.223  -1.410  -4.571  0.00  0.00     0.028 H 
ATOM     54  H   LIG d   1       5.671   0.289  -4.221  0.00  0.00     0.028 H 
ATOM     55  H   LIG d   1       3.544   1.088  -4.754  0.00  0.00     0.050 H 
ENDBRANCH  40  42
ENDBRANCH  29  38
ENDBRANCH  19  28
BRANCH   1  56
ATOM     56  C   LIG d   1       9.132   2.196  -9.734  0.00  0.00    -0.021 A 
ATOM     57  C   LIG d   1       9.765   3.236 -10.390  0.00  0.00    -0.053 A 
ATOM     58  C   LIG d   1      10.789   2.973 -11.279  0.00  0.00    -0.020 A 
ATOM     59  H   LIG d   1       9.459   4.255 -10.207  0.00  0.00     0.062 H 
ATOM     60  C   LIG d   1      11.182   1.663 -11.514  0.00  0.00     0.120 A 
ATOM     61  H   LIG d   1      11.284   3.785 -11.790  0.00  0.00     0.065 H 
ATOM     62  C   LIG d   1      10.542   0.621 -10.859  0.00  0.00    -0.020 A 
ATOM     63  C   LIG d   1       9.522   0.890  -9.967  0.00  0.00    -0.053 A 
ATOM     64  H   LIG d   1      10.843  -0.400 -11.044  0.00  0.00     0.065 H 
ATOM     65  H   LIG d   1       9.026   0.079  -9.454  0.00  0.00     0.062 H 
BRANCH  60  66
ATOM     66  O   LIG d   1      12.189   1.401 -12.388  0.00  0.00    -0.495 OA
BRANCH  66  67
ATOM     67  C   LIG d   1      12.040   1.904 -13.718  0.00  0.00     0.079 C 
ATOM     68  H   LIG d   1      12.623   1.291 -14.406  0.00  0.00     0.066 H 
ATOM     69  H   LIG d   1      10.989   1.871 -14.003  0.00  0.00     0.066 H 
ATOM     70  H   LIG d   1      12.397   2.933 -13.758  0.00  0.00     0.066 H 
ENDBRANCH  66  67
ENDBRANCH  60  66
ENDBRANCH   1  56
TORSDOF 6
ENDMDL
MODEL 9
REMARK VINA RESULT:      -7.2      2.860      6.794
REMARK  6 active torsions:
REMARK  status: ('A' for Active; 'I' for Inactive)
REMARK    1  A    between atoms: C_1  and  O_2 
REMARK    2  A    between atoms: O_2  and  C_3 
REMARK    3  A    between atoms: C_6  and  C_9 
REMARK    4  A    between atoms: N_27  and  C_30 
REMARK    5  A    between atoms: C_35  and  C_36 
REMARK       I    between atoms: C_36  and  N_38 
REMARK    6  A    between atoms: N_38  and  C_39 
ROOT
ATOM      1  C   LIG d   1       9.779  -1.426  -6.378  0.00  0.00     0.094 C 
ATOM      2  H   LIG d   1       9.492  -2.410  -6.745  0.00  0.00     0.062 H 
ATOM      3  C   LIG d   1      10.019  -0.486  -7.543  0.00  0.00     0.046 A 
ATOM      4  C   LIG d   1       9.427   0.722  -7.664  0.00  0.00    -0.015 A 
ATOM      5  C   LIG d   1       9.919   1.306  -8.898  0.00  0.00     0.003 A 
ATOM      6  C   LIG d   1       9.666   2.526  -9.533  0.00  0.00    -0.052 A 
ATOM      7  C   LIG d   1      10.320   2.756 -10.717  0.00  0.00    -0.061 A 
ATOM      8  C   LIG d   1      11.191   1.830 -11.269  0.00  0.00    -0.060 A 
ATOM      9  C   LIG d   1      11.460   0.616 -10.662  0.00  0.00    -0.038 A 
ATOM     10  C   LIG d   1      10.812   0.356  -9.457  0.00  0.00     0.047 A 
ATOM     11  N   LIG d   1      10.845  -0.714  -8.611  0.00  0.00    -0.356 N 
ATOM     12  H   LIG d   1      11.375  -1.516  -8.746  0.00  0.00     0.166 HD
ATOM     13  C   LIG d   1       8.439   1.321  -6.696  0.00  0.00     0.002 C 
ATOM     14  C   LIG d   1       8.560   0.614  -5.341  0.00  0.00     0.110 A 
ATOM     15  H   LIG d   1       9.401   0.999  -4.762  0.00  0.00     0.060 H 
ATOM     16  N   LIG d   1       8.686  -0.841  -5.592  0.00  0.00    -0.261 N 
ATOM     17  C   LIG d   1       7.652  -1.440  -4.999  0.00  0.00     0.317 A 
ATOM     18  O   LIG d   1       7.493  -2.645  -4.969  0.00  0.00    -0.252 OA
ATOM     19  N   LIG d   1       6.810  -0.560  -4.440  0.00  0.00    -0.192 N 
ATOM     20  C   LIG d   1       7.255   0.739  -4.583  0.00  0.00     0.248 A 
ATOM     21  O   LIG d   1       6.727   1.759  -4.198  0.00  0.00    -0.273 OA
ATOM     22  H   LIG d   1       8.987   3.253  -9.111  0.00  0.00     0.062 H 
ATOM     23  H   LIG d   1      10.148   3.687 -11.237  0.00  0.00     0.062 H 
ATOM     24  H   LIG d   1      11.676   2.065 -12.205  0.00  0.00     0.062 H 
ATOM     25  H   LIG d   1      12.141  -0.097 -11.103  0.00  0.00     0.064 H 
ATOM     26  H   LIG d   1       8.649   2.383  -6.572  0.00  0.00     0.034 H 
ATOM     27  H   LIG d   1       7.428   1.193  -7.083  0.00  0.00     0.034 H 
ENDROOT
BRANCH  19  28
ATOM     28  C   LIG d   1       5.630  -0.912  -3.782  0.00  0.00     0.058 A 
ATOM     29  C   LIG d   1       4.449  -1.110  -4.512  0.00  0.00     0.059 A 
ATOM     30  C   LIG d   1       3.275  -1.467  -3.844  0.00  0.00    -0.048 A 
ATOM     31  C   LIG d   1       3.283  -1.613  -2.473  0.00  0.00    -0.061 A 
ATOM     32  H   LIG d   1       2.363  -1.625  -4.399  0.00  0.00     0.063 H 
ATOM     33  C   LIG d   1       4.450  -1.412  -1.754  0.00  0.00    -0.060 A 
ATOM     34  H   LIG d   1       2.374  -1.886  -1.957  0.00  0.00     0.062 H 
ATOM     35  C   LIG d   1       5.618  -1.065  -2.403  0.00  0.00    -0.039 A 
ATOM     36  H   LIG d   1       4.447  -1.530  -0.681  0.00  0.00     0.062 H 
ATOM     37  H   LIG d   1       6.525  -0.910  -1.836  0.00  0.00     0.064 H 
BRANCH  29  38
ATOM     38  C   LIG d   1       4.447  -0.945  -5.979  0.00  0.00     0.246 C 
ATOM     39  O   LIG d   1       4.715  -1.888  -6.696  0.00  0.00    -0.270 OA
ATOM     40  N   LIG d   1       4.145   0.252  -6.522  0.00  0.00    -0.308 N 
ATOM     41  H   LIG d   1       3.929   1.004  -5.949  0.00  0.00     0.149 HD
BRANCH  40  42
ATOM     42  C   LIG d   1       4.142   0.414  -7.978  0.00  0.00     0.023 C 
ATOM     43  C   LIG d   1       3.021   1.382  -8.397  0.00  0.00    -0.035 C 
ATOM     44  C   LIG d   1       3.708   2.572  -9.100  0.00  0.00    -0.051 C 
ATOM     45  H   LIG d   1       2.338   0.885  -9.085  0.00  0.00     0.028 H 
ATOM     46  H   LIG d   1       2.480   1.730  -7.518  0.00  0.00     0.028 H 
ATOM     47  C   LIG d   1       5.055   1.993  -9.597  0.00  0.00    -0.051 C 
ATOM     48  H   LIG d   1       3.878   3.386  -8.396  0.00  0.00     0.027 H 
ATOM     49  H   LIG d   1       3.106   2.916  -9.943  0.00  0.00     0.027 H 
ATOM     50  C   LIG d   1       5.469   1.050  -8.440  0.00  0.00    -0.035 C 
ATOM     51  H   LIG d   1       5.790   2.787  -9.730  0.00  0.00     0.027 H 
ATOM     52  H   LIG d   1       4.919   1.434 -10.523  0.00  0.00     0.027 H 
ATOM     53  H   LIG d   1       5.923   1.617  -7.629  0.00  0.00     0.028 H 
ATOM     54  H   LIG d   1       6.154   0.282  -8.801  0.00  0.00     0.028 H 
ATOM     55  H   LIG d   1       4.001  -0.552  -8.461  0.00  0.00     0.050 H 
ENDBRANCH  40  42
ENDBRANCH  29  38
ENDBRANCH  19  28
BRANCH   1  56
ATOM     56  C   LIG d   1      11.023  -1.531  -5.535  0.00  0.00    -0.021 A 
ATOM     57  C   LIG d   1      11.317  -2.713  -4.880  0.00  0.00    -0.053 A 
ATOM     58  C   LIG d   1      12.457  -2.813  -4.108  0.00  0.00    -0.020 A 
ATOM     59  H   LIG d   1      10.653  -3.560  -4.973  0.00  0.00     0.062 H 
ATOM     60  C   LIG d   1      13.310  -1.724  -3.989  0.00  0.00     0.120 A 
ATOM     61  H   LIG d   1      12.686  -3.737  -3.597  0.00  0.00     0.065 H 
ATOM     62  C   LIG d   1      13.011  -0.538  -4.642  0.00  0.00    -0.020 A 
ATOM     63  C   LIG d   1      11.871  -0.446  -5.418  0.00  0.00    -0.053 A 
ATOM     64  H   LIG d   1      13.671   0.312  -4.548  0.00  0.00     0.065 H 
ATOM     65  H   LIG d   1      11.641   0.477  -5.930  0.00  0.00     0.062 H 
BRANCH  60  66
ATOM     66  O   LIG d   1      14.433  -1.819  -3.229  0.00  0.00    -0.495 OA
BRANCH  66  67
ATOM     67  C   LIG d   1      15.685  -1.637  -3.895  0.00  0.00     0.079 C 
ATOM     68  H   LIG d   1      15.518  -1.147  -4.854  0.00  0.00     0.066 H 
ATOM     69  H   LIG d   1      16.337  -1.019  -3.279  0.00  0.00     0.066 H 
ATOM     70  H   LIG d   1      16.152  -2.608  -4.060  0.00  0.00     0.066 H 
ENDBRANCH  66  67
ENDBRANCH  60  66
ENDBRANCH   1  56
TORSDOF 6
ENDMDL
