MODEL 1
REMARK VINA RESULT:      -5.4      0.000      0.000
REMARK  17 active torsions:
REMARK  status: ('A' for Active; 'I' for Inactive)
REMARK    1  A    between atoms: C_1  and  C_2 
REMARK    2  A    between atoms: C_2  and  C_3 
REMARK       I    between atoms: C_3  and  N_5 
REMARK    3  A    between atoms: N_5  and  C_6 
REMARK    4  A    between atoms: N_5  and  C_23 
REMARK    5  A    between atoms: C_6  and  C_7 
REMARK    6  A    between atoms: C_7  and  C_8 
REMARK    7  A    between atoms: C_8  and  C_10 
REMARK    8  A    between atoms: C_8  and  C_20 
REMARK    9  A    between atoms: C_13  and  O_16 
REMARK   10  A    between atoms: O_16  and  C_17 
REMARK   11  A    between atoms: C_17  and  C_18 
REMARK   12  A    between atoms: C_17  and  C_19 
REMARK   13  A    between atoms: C_20  and  C_21 
REMARK   14  A    between atoms: C_20  and  C_22 
REMARK   15  A    between atoms: C_23  and  C_24 
REMARK   16  A    between atoms: C_27  and  O_30 
REMARK   17  A    between atoms: O_30  and  C_31 
ROOT
ATOM      1  C   LIG d   1       5.848  -1.893  -3.899  0.00  0.00    -0.030 C 
ATOM      2  H   LIG d   1       5.849  -2.351  -4.887  0.00  0.00     0.029 H 
ATOM      3  H   LIG d   1       5.371  -2.565  -3.186  0.00  0.00     0.029 H 
ENDROOT
BRANCH   1   4
ATOM      4  C   LIG d   1       7.289  -1.623  -3.459  0.00  0.00     0.016 C 
ATOM      5  H   LIG d   1       7.395  -0.573  -3.190  0.00  0.00     0.046 H 
ATOM      6  H   LIG d   1       7.528  -2.246  -2.597  0.00  0.00     0.046 H 
BRANCH   4   7
ATOM      7  N   LIG d   1       8.202  -1.940  -4.560  0.00  0.00    -0.297 N 
ATOM      8  C   LIG d   1       8.959  -3.053  -4.508  0.00  0.00     0.216 C 
ATOM      9  O   LIG d   1       9.713  -3.316  -5.420  0.00  0.00    -0.276 OA
BRANCH   8  10
ATOM     10  C   LIG d   1       8.864  -3.973  -3.318  0.00  0.00     0.021 C 
ATOM     11  H   LIG d   1       8.232  -3.517  -2.556  0.00  0.00     0.036 H 
ATOM     12  H   LIG d   1       8.432  -4.925  -3.627  0.00  0.00     0.036 H 
BRANCH  10  13
ATOM     13  C   LIG d   1      10.263  -4.210  -2.745  0.00  0.00    -0.057 C 
ATOM     14  H   LIG d   1      10.706  -3.255  -2.461  0.00  0.00     0.023 H 
ATOM     15  H   LIG d   1      10.191  -4.852  -1.866  0.00  0.00     0.023 H 
ATOM     16  H   LIG d   1      10.888  -4.692  -3.496  0.00  0.00     0.023 H 
ENDBRANCH  10  13
ENDBRANCH   8  10
BRANCH   7  17
ATOM     17  C   LIG d   1       8.293  -1.045  -5.717  0.00  0.00     0.040 C 
ATOM     18  H   LIG d   1       8.974  -1.472  -6.453  0.00  0.00     0.051 H 
ATOM     19  H   LIG d   1       7.306  -0.927  -6.164  0.00  0.00     0.051 H 
BRANCH  17  20
ATOM     20  C   LIG d   1       8.808   0.299  -5.274  0.00  0.00    -0.030 A 
ATOM     21  C   LIG d   1      10.141   0.450  -4.937  0.00  0.00    -0.054 A 
ATOM     22  C   LIG d   1      10.617   1.681  -4.531  0.00  0.00    -0.020 A 
ATOM     23  H   LIG d   1      10.811  -0.396  -4.992  0.00  0.00     0.062 H 
ATOM     24  C   LIG d   1       9.756   2.767  -4.460  0.00  0.00     0.120 A 
ATOM     25  H   LIG d   1      11.658   1.799  -4.269  0.00  0.00     0.065 H 
ATOM     26  C   LIG d   1       8.419   2.613  -4.798  0.00  0.00    -0.020 A 
ATOM     27  C   LIG d   1       7.950   1.381  -5.210  0.00  0.00    -0.054 A 
ATOM     28  H   LIG d   1       7.749   3.457  -4.743  0.00  0.00     0.065 H 
ATOM     29  H   LIG d   1       6.911   1.262  -5.477  0.00  0.00     0.062 H 
BRANCH  24  30
ATOM     30  O   LIG d   1      10.222   3.980  -4.059  0.00  0.00    -0.495 OA
BRANCH  30  31
ATOM     31  C   LIG d   1       9.918   4.381  -2.721  0.00  0.00     0.079 C 
ATOM     32  H   LIG d   1       8.963   3.950  -2.421  0.00  0.00     0.066 H 
ATOM     33  H   LIG d   1      10.702   4.031  -2.051  0.00  0.00     0.066 H 
ATOM     34  H   LIG d   1       9.857   5.468  -2.673  0.00  0.00     0.066 H 
ENDBRANCH  30  31
ENDBRANCH  24  30
ENDBRANCH  17  20
ENDBRANCH   7  17
ENDBRANCH   4   7
ENDBRANCH   1   4
BRANCH   1  35
ATOM     35  C   LIG d   1       5.074  -0.573  -3.950  0.00  0.00    -0.012 C 
ATOM     36  H   LIG d   1       5.769   0.260  -3.838  0.00  0.00     0.035 H 
BRANCH  35  37
ATOM     37  C   LIG d   1       4.362  -0.459  -5.273  0.00  0.00    -0.044 A 
ATOM     38  C   LIG d   1       3.204   0.289  -5.372  0.00  0.00    -0.055 A 
ATOM     39  C   LIG d   1       2.550   0.395  -6.583  0.00  0.00    -0.020 A 
ATOM     40  H   LIG d   1       2.811   0.792  -4.500  0.00  0.00     0.062 H 
ATOM     41  C   LIG d   1       3.056  -0.251  -7.703  0.00  0.00     0.121 A 
ATOM     42  H   LIG d   1       1.646   0.980  -6.660  0.00  0.00     0.065 H 
ATOM     43  C   LIG d   1       4.218  -1.000  -7.601  0.00  0.00    -0.020 A 
ATOM     44  C   LIG d   1       4.872  -1.099  -6.388  0.00  0.00    -0.055 A 
ATOM     45  H   LIG d   1       4.615  -1.504  -8.471  0.00  0.00     0.065 H 
ATOM     46  H   LIG d   1       5.780  -1.679  -6.309  0.00  0.00     0.062 H 
BRANCH  41  47
ATOM     47  O   LIG d   1       2.415  -0.146  -8.896  0.00  0.00    -0.489 OA
BRANCH  47  48
ATOM     48  C   LIG d   1       3.229   0.044 -10.055  0.00  0.00     0.095 C 
ATOM     49  H   LIG d   1       4.159  -0.513  -9.941  0.00  0.00     0.073 H 
BRANCH  48  50
ATOM     50  C   LIG d   1       2.482  -0.460 -11.292  0.00  0.00    -0.028 C 
ATOM     51  H   LIG d   1       2.803   0.105 -12.166  0.00  0.00     0.026 H 
ATOM     52  H   LIG d   1       2.699  -1.517 -11.443  0.00  0.00     0.026 H 
ATOM     53  H   LIG d   1       1.409  -0.327 -11.147  0.00  0.00     0.026 H 
ENDBRANCH  48  50
BRANCH  48  54
ATOM     54  C   LIG d   1       3.543   1.532 -10.219  0.00  0.00    -0.028 C 
ATOM     55  H   LIG d   1       4.091   1.887  -9.347  0.00  0.00     0.026 H 
ATOM     56  H   LIG d   1       4.148   1.679 -11.113  0.00  0.00     0.026 H 
ATOM     57  H   LIG d   1       2.612   2.091 -10.316  0.00  0.00     0.026 H 
ENDBRANCH  48  54
ENDBRANCH  47  48
ENDBRANCH  41  47
ENDBRANCH  35  37
BRANCH  35  58
ATOM     58  C   LIG d   1       4.050  -0.538  -2.814  0.00  0.00    -0.040 C 
ATOM     59  H   LIG d   1       3.117  -0.109  -3.181  0.00  0.00     0.030 H 
BRANCH  58  60
ATOM     60  C   LIG d   1       3.795  -1.960  -2.312  0.00  0.00    -0.062 C 
ATOM     61  H   LIG d   1       3.820  -1.971  -1.222  0.00  0.00     0.023 H 
ATOM     62  H   LIG d   1       2.817  -2.297  -2.657  0.00  0.00     0.023 H 
ATOM     63  H   LIG d   1       4.566  -2.626  -2.700  0.00  0.00     0.023 H 
ENDBRANCH  58  60
BRANCH  58  64
ATOM     64  C   LIG d   1       4.589   0.320  -1.667  0.00  0.00    -0.062 C 
ATOM     65  H   LIG d   1       4.625  -0.276  -0.755  0.00  0.00     0.023 H 
ATOM     66  H   LIG d   1       5.591   0.667  -1.915  0.00  0.00     0.023 H 
ATOM     67  H   LIG d   1       3.933   1.177  -1.516  0.00  0.00     0.023 H 
ENDBRANCH  58  64
ENDBRANCH  35  58
ENDBRANCH   1  35
TORSDOF 17
ENDMDL
MODEL 2
REMARK VINA RESULT:      -5.4      2.382      5.265
REMARK  17 active torsions:
REMARK  status: ('A' for Active; 'I' for Inactive)
REMARK    1  A    between atoms: C_1  and  C_2 
REMARK    2  A    between atoms: C_2  and  C_3 
REMARK       I    between atoms: C_3  and  N_5 
REMARK    3  A    between atoms: N_5  and  C_6 
REMARK    4  A    between atoms: N_5  and  C_23 
REMARK    5  A    between atoms: C_6  and  C_7 
REMARK    6  A    between atoms: C_7  and  C_8 
REMARK    7  A    between atoms: C_8  and  C_10 
REMARK    8  A    between atoms: C_8  and  C_20 
REMARK    9  A    between atoms: C_13  and  O_16 
REMARK   10  A    between atoms: O_16  and  C_17 
REMARK   11  A    between atoms: C_17  and  C_18 
REMARK   12  A    between atoms: C_17  and  C_19 
REMARK   13  A    between atoms: C_20  and  C_21 
REMARK   14  A    between atoms: C_20  and  C_22 
REMARK   15  A    between atoms: C_23  and  C_24 
REMARK   16  A    between atoms: C_27  and  O_30 
REMARK   17  A    between atoms: O_30  and  C_31 
ROOT
ATOM      1  C   LIG d   1       5.543  -2.350  -3.948  0.00  0.00    -0.030 C 
ATOM      2  H   LIG d   1       5.336  -2.855  -4.891  0.00  0.00     0.029 H 
ATOM      3  H   LIG d   1       5.087  -2.908  -3.130  0.00  0.00     0.029 H 
ENDROOT
BRANCH   1   4
ATOM      4  C   LIG d   1       7.055  -2.270  -3.732  0.00  0.00     0.016 C 
ATOM      5  H   LIG d   1       7.335  -1.243  -3.506  0.00  0.00     0.046 H 
ATOM      6  H   LIG d   1       7.337  -2.916  -2.900  0.00  0.00     0.046 H 
BRANCH   4   7
ATOM      7  N   LIG d   1       7.746  -2.709  -4.947  0.00  0.00    -0.297 N 
ATOM      8  C   LIG d   1       8.306  -1.800  -5.769  0.00  0.00     0.216 C 
ATOM      9  O   LIG d   1       8.878  -2.162  -6.774  0.00  0.00    -0.276 OA
BRANCH   8  10
ATOM     10  C   LIG d   1       8.222  -0.332  -5.437  0.00  0.00     0.021 C 
ATOM     11  H   LIG d   1       7.574  -0.192  -4.572  0.00  0.00     0.036 H 
ATOM     12  H   LIG d   1       9.218   0.047  -5.210  0.00  0.00     0.036 H 
BRANCH  10  13
ATOM     13  C   LIG d   1       7.646   0.429  -6.634  0.00  0.00    -0.057 C 
ATOM     14  H   LIG d   1       7.960   1.472  -6.586  0.00  0.00     0.023 H 
ATOM     15  H   LIG d   1       8.011  -0.018  -7.559  0.00  0.00     0.023 H 
ATOM     16  H   LIG d   1       6.558   0.375  -6.609  0.00  0.00     0.023 H 
ENDBRANCH  10  13
ENDBRANCH   8  10
BRANCH   7  17
ATOM     17  C   LIG d   1       7.827  -4.136  -5.269  0.00  0.00     0.040 C 
ATOM     18  H   LIG d   1       8.706  -4.319  -5.886  0.00  0.00     0.051 H 
ATOM     19  H   LIG d   1       7.904  -4.713  -4.347  0.00  0.00     0.051 H 
BRANCH  17  20
ATOM     20  C   LIG d   1       6.589  -4.553  -6.021  0.00  0.00    -0.030 A 
ATOM     21  C   LIG d   1       6.518  -4.366  -7.389  0.00  0.00    -0.054 A 
ATOM     22  C   LIG d   1       5.385  -4.747  -8.081  0.00  0.00    -0.020 A 
ATOM     23  H   LIG d   1       7.349  -3.922  -7.917  0.00  0.00     0.062 H 
ATOM     24  C   LIG d   1       4.318  -5.318  -7.402  0.00  0.00     0.120 A 
ATOM     25  H   LIG d   1       5.330  -4.602  -9.150  0.00  0.00     0.065 H 
ATOM     26  C   LIG d   1       4.392  -5.503  -6.029  0.00  0.00    -0.020 A 
ATOM     27  C   LIG d   1       5.530  -5.126  -5.343  0.00  0.00    -0.054 A 
ATOM     28  H   LIG d   1       3.563  -5.948  -5.500  0.00  0.00     0.065 H 
ATOM     29  H   LIG d   1       5.589  -5.274  -4.275  0.00  0.00     0.062 H 
BRANCH  24  30
ATOM     30  O   LIG d   1       3.202  -5.693  -8.081  0.00  0.00    -0.495 OA
BRANCH  30  31
ATOM     31  C   LIG d   1       3.395  -6.448  -9.279  0.00  0.00     0.079 C 
ATOM     32  H   LIG d   1       2.720  -7.304  -9.282  0.00  0.00     0.066 H 
ATOM     33  H   LIG d   1       3.186  -5.817 -10.143  0.00  0.00     0.066 H 
ATOM     34  H   LIG d   1       4.426  -6.798  -9.325  0.00  0.00     0.066 H 
ENDBRANCH  30  31
ENDBRANCH  24  30
ENDBRANCH  17  20
ENDBRANCH   7  17
ENDBRANCH   4   7
ENDBRANCH   1   4
BRANCH   1  35
ATOM     35  C   LIG d   1       4.957  -0.937  -3.989  0.00  0.00    -0.012 C 
ATOM     36  H   LIG d   1       5.761  -0.207  -3.881  0.00  0.00     0.035 H 
BRANCH  35  37
ATOM     37  C   LIG d   1       4.257  -0.721  -5.306  0.00  0.00    -0.044 A 
ATOM     38  C   LIG d   1       3.263   0.235  -5.411  0.00  0.00    -0.055 A 
ATOM     39  C   LIG d   1       2.620   0.434  -6.617  0.00  0.00    -0.020 A 
ATOM     40  H   LIG d   1       2.989   0.825  -4.548  0.00  0.00     0.062 H 
ATOM     41  C   LIG d   1       2.974  -0.324  -7.724  0.00  0.00     0.121 A 
ATOM     42  H   LIG d   1       1.844   1.180  -6.698  0.00  0.00     0.065 H 
ATOM     43  C   LIG d   1       3.972  -1.281  -7.616  0.00  0.00    -0.020 A 
ATOM     44  C   LIG d   1       4.615  -1.474  -6.409  0.00  0.00    -0.055 A 
ATOM     45  H   LIG d   1       4.249  -1.872  -8.477  0.00  0.00     0.065 H 
ATOM     46  H   LIG d   1       5.396  -2.215  -6.325  0.00  0.00     0.062 H 
BRANCH  41  47
ATOM     47  O   LIG d   1       2.344  -0.128  -8.912  0.00  0.00    -0.489 OA
BRANCH  47  48
ATOM     48  C   LIG d   1       3.159  -0.124 -10.085  0.00  0.00     0.095 C 
ATOM     49  H   LIG d   1       4.021  -0.773  -9.931  0.00  0.00     0.073 H 
BRANCH  48  50
ATOM     50  C   LIG d   1       2.344  -0.634 -11.275  0.00  0.00    -0.028 C 
ATOM     51  H   LIG d   1       1.502  -1.224 -10.914  0.00  0.00     0.026 H 
ATOM     52  H   LIG d   1       1.974   0.212 -11.853  0.00  0.00     0.026 H 
ATOM     53  H   LIG d   1       2.977  -1.257 -11.909  0.00  0.00     0.026 H 
ENDBRANCH  48  50
BRANCH  48  54
ATOM     54  C   LIG d   1       3.639   1.301 -10.368  0.00  0.00    -0.028 C 
ATOM     55  H   LIG d   1       4.728   1.331 -10.340  0.00  0.00     0.026 H 
ATOM     56  H   LIG d   1       3.293   1.612 -11.354  0.00  0.00     0.026 H 
ATOM     57  H   LIG d   1       3.237   1.977  -9.613  0.00  0.00     0.026 H 
ENDBRANCH  48  54
ENDBRANCH  47  48
ENDBRANCH  41  47
ENDBRANCH  35  37
BRANCH  35  58
ATOM     58  C   LIG d   1       3.956  -0.765  -2.845  0.00  0.00    -0.040 C 
ATOM     59  H   LIG d   1       3.023  -0.360  -3.237  0.00  0.00     0.030 H 
BRANCH  58  60
ATOM     60  C   LIG d   1       3.689  -2.124  -2.193  0.00  0.00    -0.062 C 
ATOM     61  H   LIG d   1       4.632  -2.562  -1.867  0.00  0.00     0.023 H 
ATOM     62  H   LIG d   1       3.033  -1.991  -1.332  0.00  0.00     0.023 H 
ATOM     63  H   LIG d   1       3.210  -2.785  -2.915  0.00  0.00     0.023 H 
ENDBRANCH  58  60
BRANCH  58  64
ATOM     64  C   LIG d   1       4.531   0.196  -1.803  0.00  0.00    -0.062 C 
ATOM     65  H   LIG d   1       5.619   0.128  -1.808  0.00  0.00     0.023 H 
ATOM     66  H   LIG d   1       4.230   1.215  -2.044  0.00  0.00     0.023 H 
ATOM     67  H   LIG d   1       4.155  -0.071  -0.816  0.00  0.00     0.023 H 
ENDBRANCH  58  64
ENDBRANCH  35  58
ENDBRANCH   1  35
TORSDOF 17
ENDMDL
MODEL 3
REMARK VINA RESULT:      -5.4      1.403      4.358
REMARK  17 active torsions:
REMARK  status: ('A' for Active; 'I' for Inactive)
REMARK    1  A    between atoms: C_1  and  C_2 
REMARK    2  A    between atoms: C_2  and  C_3 
REMARK       I    between atoms: C_3  and  N_5 
REMARK    3  A    between atoms: N_5  and  C_6 
REMARK    4  A    between atoms: N_5  and  C_23 
REMARK    5  A    between atoms: C_6  and  C_7 
REMARK    6  A    between atoms: C_7  and  C_8 
REMARK    7  A    between atoms: C_8  and  C_10 
REMARK    8  A    between atoms: C_8  and  C_20 
REMARK    9  A    between atoms: C_13  and  O_16 
REMARK   10  A    between atoms: O_16  and  C_17 
REMARK   11  A    between atoms: C_17  and  C_18 
REMARK   12  A    between atoms: C_17  and  C_19 
REMARK   13  A    between atoms: C_20  and  C_21 
REMARK   14  A    between atoms: C_20  and  C_22 
REMARK   15  A    between atoms: C_23  and  C_24 
REMARK   16  A    between atoms: C_27  and  O_30 
REMARK   17  A    between atoms: O_30  and  C_31 
ROOT
ATOM      1  C   LIG d   1       5.626  -1.901  -3.959  0.00  0.00    -0.030 C 
ATOM      2  H   LIG d   1       5.706  -2.392  -4.928  0.00  0.00     0.029 H 
ATOM      3  H   LIG d   1       5.137  -2.570  -3.251  0.00  0.00     0.029 H 
ENDROOT
BRANCH   1   4
ATOM      4  C   LIG d   1       7.025  -1.551  -3.447  0.00  0.00     0.016 C 
ATOM      5  H   LIG d   1       6.968  -0.672  -2.806  0.00  0.00     0.046 H 
ATOM      6  H   LIG d   1       7.424  -2.391  -2.878  0.00  0.00     0.046 H 
BRANCH   4   7
ATOM      7  N   LIG d   1       7.904  -1.270  -4.585  0.00  0.00    -0.297 N 
ATOM      8  C   LIG d   1       8.330  -0.011  -4.812  0.00  0.00     0.216 C 
ATOM      9  O   LIG d   1       9.058   0.222  -5.753  0.00  0.00    -0.276 OA
BRANCH   8  10
ATOM     10  C   LIG d   1       7.902   1.106  -3.896  0.00  0.00     0.021 C 
ATOM     11  H   LIG d   1       7.002   1.578  -4.293  0.00  0.00     0.036 H 
ATOM     12  H   LIG d   1       7.692   0.704  -2.905  0.00  0.00     0.036 H 
BRANCH  10  13
ATOM     13  C   LIG d   1       9.022   2.144  -3.800  0.00  0.00    -0.057 C 
ATOM     14  H   LIG d   1       9.836   1.862  -4.467  0.00  0.00     0.023 H 
ATOM     15  H   LIG d   1       8.636   3.122  -4.091  0.00  0.00     0.023 H 
ATOM     16  H   LIG d   1       9.389   2.190  -2.775  0.00  0.00     0.023 H 
ENDBRANCH  10  13
ENDBRANCH   8  10
BRANCH   7  17
ATOM     17  C   LIG d   1       8.320  -2.356  -5.476  0.00  0.00     0.040 C 
ATOM     18  H   LIG d   1       7.440  -2.810  -5.930  0.00  0.00     0.051 H 
ATOM     19  H   LIG d   1       8.966  -1.957  -6.258  0.00  0.00     0.051 H 
BRANCH  17  20
ATOM     20  C   LIG d   1       9.072  -3.395  -4.685  0.00  0.00    -0.030 A 
ATOM     21  C   LIG d   1      10.334  -3.110  -4.197  0.00  0.00    -0.054 A 
ATOM     22  C   LIG d   1      11.025  -4.060  -3.472  0.00  0.00    -0.020 A 
ATOM     23  H   LIG d   1      10.780  -2.145  -4.385  0.00  0.00     0.062 H 
ATOM     24  C   LIG d   1      10.453  -5.301  -3.232  0.00  0.00     0.120 A 
ATOM     25  H   LIG d   1      12.012  -3.837  -3.090  0.00  0.00     0.065 H 
ATOM     26  C   LIG d   1       9.186  -5.584  -3.723  0.00  0.00    -0.020 A 
ATOM     27  C   LIG d   1       8.496  -4.628  -4.443  0.00  0.00    -0.054 A 
ATOM     28  H   LIG d   1       8.739  -6.549  -3.537  0.00  0.00     0.065 H 
ATOM     29  H   LIG d   1       7.509  -4.846  -4.821  0.00  0.00     0.062 H 
BRANCH  24  30
ATOM     30  O   LIG d   1      11.132  -6.238  -2.518  0.00  0.00    -0.495 OA
BRANCH  30  31
ATOM     31  C   LIG d   1      10.404  -6.934  -1.505  0.00  0.00     0.079 C 
ATOM     32  H   LIG d   1      10.829  -6.703  -0.528  0.00  0.00     0.066 H 
ATOM     33  H   LIG d   1       9.360  -6.622  -1.530  0.00  0.00     0.066 H 
ATOM     34  H   LIG d   1      10.467  -8.007  -1.684  0.00  0.00     0.066 H 
ENDBRANCH  30  31
ENDBRANCH  24  30
ENDBRANCH  17  20
ENDBRANCH   7  17
ENDBRANCH   4   7
ENDBRANCH   1   4
BRANCH   1  35
ATOM     35  C   LIG d   1       4.800  -0.621  -4.103  0.00  0.00    -0.012 C 
ATOM     36  H   LIG d   1       5.445   0.246  -3.950  0.00  0.00     0.035 H 
BRANCH  35  37
ATOM     37  C   LIG d   1       4.200  -0.563  -5.484  0.00  0.00    -0.044 A 
ATOM     38  C   LIG d   1       3.097   0.236  -5.725  0.00  0.00    -0.055 A 
ATOM     39  C   LIG d   1       2.546   0.291  -6.989  0.00  0.00    -0.020 A 
ATOM     40  H   LIG d   1       2.668   0.818  -4.922  0.00  0.00     0.062 H 
ATOM     41  C   LIG d   1       3.099  -0.457  -8.019  0.00  0.00     0.121 A 
ATOM     42  H   LIG d   1       1.685   0.915  -7.177  0.00  0.00     0.065 H 
ATOM     43  C   LIG d   1       4.205  -1.257  -7.775  0.00  0.00    -0.020 A 
ATOM     44  C   LIG d   1       4.756  -1.305  -6.509  0.00  0.00    -0.055 A 
ATOM     45  H   LIG d   1       4.637  -1.840  -8.575  0.00  0.00     0.065 H 
ATOM     46  H   LIG d   1       5.620  -1.924  -6.320  0.00  0.00     0.062 H 
BRANCH  41  47
ATOM     47  O   LIG d   1       2.558  -0.403  -9.265  0.00  0.00    -0.489 OA
BRANCH  47  48
ATOM     48  C   LIG d   1       3.458  -0.190 -10.354  0.00  0.00     0.095 C 
ATOM     49  H   LIG d   1       4.389  -0.727 -10.167  0.00  0.00     0.073 H 
BRANCH  48  50
ATOM     50  C   LIG d   1       2.825  -0.703 -11.649  0.00  0.00    -0.028 C 
ATOM     51  H   LIG d   1       1.776  -0.409 -11.682  0.00  0.00     0.026 H 
ATOM     52  H   LIG d   1       3.349  -0.278 -12.504  0.00  0.00     0.026 H 
ATOM     53  H   LIG d   1       2.899  -1.791 -11.682  0.00  0.00     0.026 H 
ENDBRANCH  48  50
BRANCH  48  54
ATOM     54  C   LIG d   1       3.752   1.306 -10.487  0.00  0.00    -0.028 C 
ATOM     55  H   LIG d   1       3.809   1.755  -9.496  0.00  0.00     0.026 H 
ATOM     56  H   LIG d   1       4.702   1.445 -11.003  0.00  0.00     0.026 H 
ATOM     57  H   LIG d   1       2.956   1.783 -11.058  0.00  0.00     0.026 H 
ENDBRANCH  48  54
ENDBRANCH  47  48
ENDBRANCH  41  47
ENDBRANCH  35  37
BRANCH  35  58
ATOM     58  C   LIG d   1       3.681  -0.614  -3.059  0.00  0.00    -0.040 C 
ATOM     59  H   LIG d   1       2.729  -0.410  -3.550  0.00  0.00     0.030 H 
BRANCH  58  60
ATOM     60  C   LIG d   1       3.619  -1.979  -2.371  0.00  0.00    -0.062 C 
ATOM     61  H   LIG d   1       2.685  -2.062  -1.814  0.00  0.00     0.023 H 
ATOM     62  H   LIG d   1       3.665  -2.768  -3.122  0.00  0.00     0.023 H 
ATOM     63  H   LIG d   1       4.461  -2.080  -1.686  0.00  0.00     0.023 H 
ENDBRANCH  58  60
BRANCH  58  64
ATOM     64  C   LIG d   1       3.962   0.471  -2.018  0.00  0.00    -0.062 C 
ATOM     65  H   LIG d   1       3.796   0.067  -1.019  0.00  0.00     0.023 H 
ATOM     66  H   LIG d   1       4.995   0.802  -2.108  0.00  0.00     0.023 H 
ATOM     67  H   LIG d   1       3.293   1.315  -2.184  0.00  0.00     0.023 H 
ENDBRANCH  58  64
ENDBRANCH  35  58
ENDBRANCH   1  35
TORSDOF 17
ENDMDL
MODEL 4
REMARK VINA RESULT:      -5.3      2.391      8.143
REMARK  17 active torsions:
REMARK  status: ('A' for Active; 'I' for Inactive)
REMARK    1  A    between atoms: C_1  and  C_2 
REMARK    2  A    between atoms: C_2  and  C_3 
REMARK       I    between atoms: C_3  and  N_5 
REMARK    3  A    between atoms: N_5  and  C_6 
REMARK    4  A    between atoms: N_5  and  C_23 
REMARK    5  A    between atoms: C_6  and  C_7 
REMARK    6  A    between atoms: C_7  and  C_8 
REMARK    7  A    between atoms: C_8  and  C_10 
REMARK    8  A    between atoms: C_8  and  C_20 
REMARK    9  A    between atoms: C_13  and  O_16 
REMARK   10  A    between atoms: O_16  and  C_17 
REMARK   11  A    between atoms: C_17  and  C_18 
REMARK   12  A    between atoms: C_17  and  C_19 
REMARK   13  A    between atoms: C_20  and  C_21 
REMARK   14  A    between atoms: C_20  and  C_22 
REMARK   15  A    between atoms: C_23  and  C_24 
REMARK   16  A    between atoms: C_27  and  O_30 
REMARK   17  A    between atoms: O_30  and  C_31 
ROOT
ATOM      1  C   LIG d   1       8.359   1.304  -4.068  0.00  0.00    -0.030 C 
ATOM      2  H   LIG d   1       8.892   1.403  -3.123  0.00  0.00     0.029 H 
ATOM      3  H   LIG d   1       8.579   0.332  -4.509  0.00  0.00     0.029 H 
ENDROOT
BRANCH   1   4
ATOM      4  C   LIG d   1       6.853   1.423  -3.821  0.00  0.00     0.016 C 
ATOM      5  H   LIG d   1       6.680   1.817  -2.820  0.00  0.00     0.046 H 
ATOM      6  H   LIG d   1       6.418   2.098  -4.558  0.00  0.00     0.046 H 
BRANCH   4   7
ATOM      7  N   LIG d   1       6.233   0.101  -3.940  0.00  0.00    -0.297 N 
ATOM      8  C   LIG d   1       5.324  -0.301  -3.031  0.00  0.00     0.216 C 
ATOM      9  O   LIG d   1       4.809  -1.394  -3.130  0.00  0.00    -0.276 OA
BRANCH   8  10
ATOM     10  C   LIG d   1       4.944   0.611  -1.892  0.00  0.00     0.021 C 
ATOM     11  H   LIG d   1       4.810   0.021  -0.984  0.00  0.00     0.036 H 
ATOM     12  H   LIG d   1       5.734   1.345  -1.734  0.00  0.00     0.036 H 
BRANCH  10  13
ATOM     13  C   LIG d   1       3.636   1.331  -2.229  0.00  0.00    -0.057 C 
ATOM     14  H   LIG d   1       3.794   2.409  -2.187  0.00  0.00     0.023 H 
ATOM     15  H   LIG d   1       3.316   1.050  -3.233  0.00  0.00     0.023 H 
ATOM     16  H   LIG d   1       2.868   1.047  -1.510  0.00  0.00     0.023 H 
ENDBRANCH  10  13
ENDBRANCH   8  10
BRANCH   7  17
ATOM     17  C   LIG d   1       6.602  -0.784  -5.048  0.00  0.00     0.040 C 
ATOM     18  H   LIG d   1       7.683  -0.760  -5.187  0.00  0.00     0.051 H 
ATOM     19  H   LIG d   1       6.289  -1.803  -4.818  0.00  0.00     0.051 H 
BRANCH  17  20
ATOM     20  C   LIG d   1       5.922  -0.321  -6.310  0.00  0.00    -0.030 A 
ATOM     21  C   LIG d   1       4.555  -0.478  -6.452  0.00  0.00    -0.054 A 
ATOM     22  C   LIG d   1       3.928  -0.054  -7.608  0.00  0.00    -0.020 A 
ATOM     23  H   LIG d   1       3.978  -0.932  -5.661  0.00  0.00     0.062 H 
ATOM     24  C   LIG d   1       4.670   0.528  -8.625  0.00  0.00     0.120 A 
ATOM     25  H   LIG d   1       2.860  -0.176  -7.719  0.00  0.00     0.065 H 
ATOM     26  C   LIG d   1       6.041   0.684  -8.479  0.00  0.00    -0.020 A 
ATOM     27  C   LIG d   1       6.662   0.264  -7.319  0.00  0.00    -0.054 A 
ATOM     28  H   LIG d   1       6.620   1.137  -9.270  0.00  0.00     0.065 H 
ATOM     29  H   LIG d   1       7.728   0.389  -7.203  0.00  0.00     0.062 H 
BRANCH  24  30
ATOM     30  O   LIG d   1       4.055   0.945  -9.764  0.00  0.00    -0.495 OA
BRANCH  30  31
ATOM     31  C   LIG d   1       3.638   2.311  -9.813  0.00  0.00     0.079 C 
ATOM     32  H   LIG d   1       3.903   2.738 -10.780  0.00  0.00     0.066 H 
ATOM     33  H   LIG d   1       2.559   2.366  -9.674  0.00  0.00     0.066 H 
ATOM     34  H   LIG d   1       4.136   2.871  -9.021  0.00  0.00     0.066 H 
ENDBRANCH  30  31
ENDBRANCH  24  30
ENDBRANCH  17  20
ENDBRANCH   7  17
ENDBRANCH   4   7
ENDBRANCH   1   4
BRANCH   1  35
ATOM     35  C   LIG d   1       8.808   2.410  -5.025  0.00  0.00    -0.012 C 
ATOM     36  H   LIG d   1       7.963   2.725  -5.639  0.00  0.00     0.035 H 
BRANCH  35  37
ATOM     37  C   LIG d   1       9.318   3.585  -4.231  0.00  0.00    -0.044 A 
ATOM     38  C   LIG d   1       9.936   3.379  -3.011  0.00  0.00    -0.055 A 
ATOM     39  C   LIG d   1      10.403   4.454  -2.282  0.00  0.00    -0.020 A 
ATOM     40  H   LIG d   1      10.053   2.375  -2.629  0.00  0.00     0.062 H 
ATOM     41  C   LIG d   1      10.253   5.743  -2.774  0.00  0.00     0.121 A 
ATOM     42  H   LIG d   1      10.886   4.292  -1.330  0.00  0.00     0.065 H 
ATOM     43  C   LIG d   1       9.633   5.947  -3.998  0.00  0.00    -0.020 A 
ATOM     44  C   LIG d   1       9.171   4.868  -4.726  0.00  0.00    -0.055 A 
ATOM     45  H   LIG d   1       9.515   6.950  -4.383  0.00  0.00     0.065 H 
ATOM     46  H   LIG d   1       8.692   5.026  -5.681  0.00  0.00     0.062 H 
BRANCH  41  47
ATOM     47  O   LIG d   1      10.714   6.803  -2.059  0.00  0.00    -0.489 OA
BRANCH  47  48
ATOM     48  C   LIG d   1      10.043   7.098  -0.833  0.00  0.00     0.095 C 
ATOM     49  H   LIG d   1       9.346   6.294  -0.596  0.00  0.00     0.073 H 
BRANCH  48  50
ATOM     50  C   LIG d   1      11.072   7.228   0.293  0.00  0.00    -0.028 C 
ATOM     51  H   LIG d   1      11.814   6.435   0.201  0.00  0.00     0.026 H 
ATOM     52  H   LIG d   1      11.564   8.197   0.226  0.00  0.00     0.026 H 
ATOM     53  H   LIG d   1      10.567   7.143   1.257  0.00  0.00     0.026 H 
ENDBRANCH  48  50
BRANCH  48  54
ATOM     54  C   LIG d   1       9.274   8.413  -0.976  0.00  0.00    -0.028 C 
ATOM     55  H   LIG d   1       8.208   8.204  -1.054  0.00  0.00     0.026 H 
ATOM     56  H   LIG d   1       9.459   9.039  -0.103  0.00  0.00     0.026 H 
ATOM     57  H   LIG d   1       9.609   8.934  -1.873  0.00  0.00     0.026 H 
ENDBRANCH  48  54
ENDBRANCH  47  48
ENDBRANCH  41  47
ENDBRANCH  35  37
BRANCH  35  58
ATOM     58  C   LIG d   1       9.925   1.882  -5.928  0.00  0.00    -0.040 C 
ATOM     59  H   LIG d   1      10.878   2.308  -5.613  0.00  0.00     0.030 H 
BRANCH  58  60
ATOM     60  C   LIG d   1       9.987   0.357  -5.823  0.00  0.00    -0.062 C 
ATOM     61  H   LIG d   1       8.989  -0.035  -5.631  0.00  0.00     0.023 H 
ATOM     62  H   LIG d   1      10.367  -0.056  -6.758  0.00  0.00     0.023 H 
ATOM     63  H   LIG d   1      10.651   0.076  -5.005  0.00  0.00     0.023 H 
ENDBRANCH  58  60
BRANCH  58  64
ATOM     64  C   LIG d   1       9.641   2.283  -7.377  0.00  0.00    -0.062 C 
ATOM     65  H   LIG d   1       8.581   2.151  -7.589  0.00  0.00     0.023 H 
ATOM     66  H   LIG d   1       9.915   3.327  -7.525  0.00  0.00     0.023 H 
ATOM     67  H   LIG d   1      10.227   1.654  -8.048  0.00  0.00     0.023 H 
ENDBRANCH  58  64
ENDBRANCH  35  58
ENDBRANCH   1  35
TORSDOF 17
ENDMDL
MODEL 5
REMARK VINA RESULT:      -5.2      2.680      5.356
REMARK  17 active torsions:
REMARK  status: ('A' for Active; 'I' for Inactive)
REMARK    1  A    between atoms: C_1  and  C_2 
REMARK    2  A    between atoms: C_2  and  C_3 
REMARK       I    between atoms: C_3  and  N_5 
REMARK    3  A    between atoms: N_5  and  C_6 
REMARK    4  A    between atoms: N_5  and  C_23 
REMARK    5  A    between atoms: C_6  and  C_7 
REMARK    6  A    between atoms: C_7  and  C_8 
REMARK    7  A    between atoms: C_8  and  C_10 
REMARK    8  A    between atoms: C_8  and  C_20 
REMARK    9  A    between atoms: C_13  and  O_16 
REMARK   10  A    between atoms: O_16  and  C_17 
REMARK   11  A    between atoms: C_17  and  C_18 
REMARK   12  A    between atoms: C_17  and  C_19 
REMARK   13  A    between atoms: C_20  and  C_21 
REMARK   14  A    between atoms: C_20  and  C_22 
REMARK   15  A    between atoms: C_23  and  C_24 
REMARK   16  A    between atoms: C_27  and  O_30 
REMARK   17  A    between atoms: O_30  and  C_31 
ROOT
ATOM      1  C   LIG d   1       6.831   0.026  -3.194  0.00  0.00    -0.030 C 
ATOM      2  H   LIG d   1       7.592  -0.717  -3.429  0.00  0.00     0.029 H 
ATOM      3  H   LIG d   1       6.858   0.251  -2.129  0.00  0.00     0.029 H 
ENDROOT
BRANCH   1   4
ATOM      4  C   LIG d   1       7.101   1.303  -3.993  0.00  0.00     0.016 C 
ATOM      5  H   LIG d   1       6.251   1.514  -4.640  0.00  0.00     0.046 H 
ATOM      6  H   LIG d   1       7.250   2.136  -3.305  0.00  0.00     0.046 H 
BRANCH   4   7
ATOM      7  N   LIG d   1       8.304   1.123  -4.809  0.00  0.00    -0.297 N 
ATOM      8  C   LIG d   1       9.408   1.852  -4.553  0.00  0.00     0.216 C 
ATOM      9  O   LIG d   1      10.404   1.702  -5.228  0.00  0.00    -0.276 OA
BRANCH   8  10
ATOM     10  C   LIG d   1       9.405   2.853  -3.427  0.00  0.00     0.021 C 
ATOM     11  H   LIG d   1       9.155   3.840  -3.818  0.00  0.00     0.036 H 
ATOM     12  H   LIG d   1       8.665   2.561  -2.682  0.00  0.00     0.036 H 
BRANCH  10  13
ATOM     13  C   LIG d   1      10.791   2.897  -2.780  0.00  0.00    -0.057 C 
ATOM     14  H   LIG d   1      11.200   3.904  -2.866  0.00  0.00     0.023 H 
ATOM     15  H   LIG d   1      10.708   2.629  -1.726  0.00  0.00     0.023 H 
ATOM     16  H   LIG d   1      11.450   2.191  -3.284  0.00  0.00     0.023 H 
ENDBRANCH  10  13
ENDBRANCH   8  10
BRANCH   7  17
ATOM     17  C   LIG d   1       8.307   0.149  -5.905  0.00  0.00     0.040 C 
ATOM     18  H   LIG d   1       9.322   0.034  -6.284  0.00  0.00     0.051 H 
ATOM     19  H   LIG d   1       7.946  -0.812  -5.537  0.00  0.00     0.051 H 
BRANCH  17  20
ATOM     20  C   LIG d   1       7.407   0.635  -7.011  0.00  0.00    -0.030 A 
ATOM     21  C   LIG d   1       6.191   0.014  -7.232  0.00  0.00    -0.054 A 
ATOM     22  C   LIG d   1       5.364   0.458  -8.246  0.00  0.00    -0.020 A 
ATOM     23  H   LIG d   1       5.889  -0.817  -6.614  0.00  0.00     0.062 H 
ATOM     24  C   LIG d   1       5.753   1.526  -9.041  0.00  0.00     0.120 A 
ATOM     25  H   LIG d   1       4.414  -0.027  -8.418  0.00  0.00     0.065 H 
ATOM     26  C   LIG d   1       6.974   2.146  -8.816  0.00  0.00    -0.020 A 
ATOM     27  C   LIG d   1       7.795   1.703  -7.798  0.00  0.00    -0.054 A 
ATOM     28  H   LIG d   1       7.278   2.977  -9.434  0.00  0.00     0.065 H 
ATOM     29  H   LIG d   1       8.742   2.188  -7.620  0.00  0.00     0.062 H 
BRANCH  24  30
ATOM     30  O   LIG d   1       4.940   1.963 -10.039  0.00  0.00    -0.495 OA
BRANCH  30  31
ATOM     31  C   LIG d   1       3.586   2.255  -9.691  0.00  0.00     0.079 C 
ATOM     32  H   LIG d   1       2.953   1.407  -9.951  0.00  0.00     0.066 H 
ATOM     33  H   LIG d   1       3.520   2.443  -8.620  0.00  0.00     0.066 H 
ATOM     34  H   LIG d   1       3.252   3.137 -10.237  0.00  0.00     0.066 H 
ENDBRANCH  30  31
ENDBRANCH  24  30
ENDBRANCH  17  20
ENDBRANCH   7  17
ENDBRANCH   4   7
ENDBRANCH   1   4
BRANCH   1  35
ATOM     35  C   LIG d   1       5.451  -0.524  -3.563  0.00  0.00    -0.012 C 
ATOM     36  H   LIG d   1       4.961   0.161  -4.257  0.00  0.00     0.035 H 
BRANCH  35  37
ATOM     37  C   LIG d   1       5.606  -1.873  -4.215  0.00  0.00    -0.044 A 
ATOM     38  C   LIG d   1       4.576  -2.394  -4.977  0.00  0.00    -0.055 A 
ATOM     39  C   LIG d   1       4.716  -3.631  -5.576  0.00  0.00    -0.020 A 
ATOM     40  H   LIG d   1       3.662  -1.833  -5.104  0.00  0.00     0.062 H 
ATOM     41  C   LIG d   1       5.891  -4.351  -5.412  0.00  0.00     0.121 A 
ATOM     42  H   LIG d   1       3.912  -4.037  -6.171  0.00  0.00     0.065 H 
ATOM     43  C   LIG d   1       6.922  -3.826  -4.647  0.00  0.00    -0.020 A 
ATOM     44  C   LIG d   1       6.780  -2.586  -4.055  0.00  0.00    -0.055 A 
ATOM     45  H   LIG d   1       7.838  -4.384  -4.518  0.00  0.00     0.065 H 
ATOM     46  H   LIG d   1       7.584  -2.175  -3.463  0.00  0.00     0.062 H 
BRANCH  41  47
ATOM     47  O   LIG d   1       6.031  -5.567  -6.001  0.00  0.00    -0.489 OA
BRANCH  47  48
ATOM     48  C   LIG d   1       4.860  -6.378  -6.101  0.00  0.00     0.095 C 
ATOM     49  H   LIG d   1       4.006  -5.837  -5.692  0.00  0.00     0.073 H 
BRANCH  48  50
ATOM     50  C   LIG d   1       4.593  -6.714  -7.570  0.00  0.00    -0.028 C 
ATOM     51  H   LIG d   1       5.421  -7.303  -7.965  0.00  0.00     0.026 H 
ATOM     52  H   LIG d   1       3.669  -7.285  -7.651  0.00  0.00     0.026 H 
ATOM     53  H   LIG d   1       4.500  -5.789  -8.142  0.00  0.00     0.026 H 
ENDBRANCH  48  50
BRANCH  48  54
ATOM     54  C   LIG d   1       5.067  -7.673  -5.311  0.00  0.00    -0.028 C 
ATOM     55  H   LIG d   1       4.195  -7.860  -4.684  0.00  0.00     0.026 H 
ATOM     56  H   LIG d   1       5.201  -8.503  -6.004  0.00  0.00     0.026 H 
ATOM     57  H   LIG d   1       5.953  -7.577  -4.684  0.00  0.00     0.026 H 
ENDBRANCH  48  54
ENDBRANCH  47  48
ENDBRANCH  41  47
ENDBRANCH  35  37
BRANCH  35  58
ATOM     58  C   LIG d   1       4.601  -0.662  -2.298  0.00  0.00    -0.040 C 
ATOM     59  H   LIG d   1       5.027  -1.436  -1.659  0.00  0.00     0.030 H 
BRANCH  58  60
ATOM     60  C   LIG d   1       4.587   0.670  -1.545  0.00  0.00    -0.062 C 
ATOM     61  H   LIG d   1       4.570   1.492  -2.261  0.00  0.00     0.023 H 
ATOM     62  H   LIG d   1       3.700   0.720  -0.913  0.00  0.00     0.023 H 
ATOM     63  H   LIG d   1       5.480   0.746  -0.925  0.00  0.00     0.023 H 
ENDBRANCH  58  60
BRANCH  58  64
ATOM     64  C   LIG d   1       3.172  -1.047  -2.683  0.00  0.00    -0.062 C 
ATOM     65  H   LIG d   1       3.084  -2.132  -2.717  0.00  0.00     0.023 H 
ATOM     66  H   LIG d   1       2.478  -0.649  -1.944  0.00  0.00     0.023 H 
ATOM     67  H   LIG d   1       2.936  -0.632  -3.663  0.00  0.00     0.023 H 
ENDBRANCH  58  64
ENDBRANCH  35  58
ENDBRANCH   1  35
TORSDOF 17
ENDMDL
MODEL 6
REMARK VINA RESULT:      -5.2      2.530      7.926
REMARK  17 active torsions:
REMARK  status: ('A' for Active; 'I' for Inactive)
REMARK    1  A    between atoms: C_1  and  C_2 
REMARK    2  A    between atoms: C_2  and  C_3 
REMARK       I    between atoms: C_3  and  N_5 
REMARK    3  A    between atoms: N_5  and  C_6 
REMARK    4  A    between atoms: N_5  and  C_23 
REMARK    5  A    between atoms: C_6  and  C_7 
REMARK    6  A    between atoms: C_7  and  C_8 
REMARK    7  A    between atoms: C_8  and  C_10 
REMARK    8  A    between atoms: C_8  and  C_20 
REMARK    9  A    between atoms: C_13  and  O_16 
REMARK   10  A    between atoms: O_16  and  C_17 
REMARK   11  A    between atoms: C_17  and  C_18 
REMARK   12  A    between atoms: C_17  and  C_19 
REMARK   13  A    between atoms: C_20  and  C_21 
REMARK   14  A    between atoms: C_20  and  C_22 
REMARK   15  A    between atoms: C_23  and  C_24 
REMARK   16  A    between atoms: C_27  and  O_30 
REMARK   17  A    between atoms: O_30  and  C_31 
ROOT
ATOM      1  C   LIG d   1       4.362  -0.458  -5.460  0.00  0.00    -0.030 C 
ATOM      2  H   LIG d   1       5.225   0.146  -5.185  0.00  0.00     0.029 H 
ATOM      3  H   LIG d   1       3.454   0.137  -5.360  0.00  0.00     0.029 H 
ENDROOT
BRANCH   1   4
ATOM      4  C   LIG d   1       4.507  -0.928  -6.909  0.00  0.00     0.016 C 
ATOM      5  H   LIG d   1       5.354  -1.608  -6.987  0.00  0.00     0.046 H 
ATOM      6  H   LIG d   1       3.596  -1.443  -7.216  0.00  0.00     0.046 H 
BRANCH   4   7
ATOM      7  N   LIG d   1       4.730   0.231  -7.777  0.00  0.00    -0.297 N 
ATOM      8  C   LIG d   1       5.987   0.634  -8.053  0.00  0.00     0.216 C 
ATOM      9  O   LIG d   1       6.172   1.592  -8.772  0.00  0.00    -0.276 OA
BRANCH   8  10
ATOM     10  C   LIG d   1       7.161  -0.108  -7.468  0.00  0.00     0.021 C 
ATOM     11  H   LIG d   1       6.814  -1.036  -7.012  0.00  0.00     0.036 H 
ATOM     12  H   LIG d   1       7.877  -0.336  -8.257  0.00  0.00     0.036 H 
BRANCH  10  13
ATOM     13  C   LIG d   1       7.834   0.762  -6.403  0.00  0.00    -0.057 C 
ATOM     14  H   LIG d   1       7.668   1.814  -6.635  0.00  0.00     0.023 H 
ATOM     15  H   LIG d   1       7.408   0.534  -5.426  0.00  0.00     0.023 H 
ATOM     16  H   LIG d   1       8.904   0.556  -6.389  0.00  0.00     0.023 H 
ENDBRANCH  10  13
ENDBRANCH   8  10
BRANCH   7  17
ATOM     17  C   LIG d   1       3.588   0.952  -8.345  0.00  0.00     0.040 C 
ATOM     18  H   LIG d   1       2.831   1.096  -7.576  0.00  0.00     0.051 H 
ATOM     19  H   LIG d   1       3.919   1.923  -8.714  0.00  0.00     0.051 H 
BRANCH  17  20
ATOM     20  C   LIG d   1       3.006   0.155  -9.483  0.00  0.00    -0.030 A 
ATOM     21  C   LIG d   1       1.911  -0.661  -9.263  0.00  0.00    -0.054 A 
ATOM     22  C   LIG d   1       1.375  -1.393 -10.305  0.00  0.00    -0.020 A 
ATOM     23  H   LIG d   1       1.476  -0.726  -8.278  0.00  0.00     0.062 H 
ATOM     24  C   LIG d   1       1.935  -1.310 -11.571  0.00  0.00     0.120 A 
ATOM     25  H   LIG d   1       0.519  -2.030 -10.133  0.00  0.00     0.065 H 
ATOM     26  C   LIG d   1       3.034  -0.490 -11.788  0.00  0.00    -0.020 A 
ATOM     27  C   LIG d   1       3.563   0.244 -10.745  0.00  0.00    -0.054 A 
ATOM     28  H   LIG d   1       3.470  -0.424 -12.773  0.00  0.00     0.065 H 
ATOM     29  H   LIG d   1       4.414   0.885 -10.915  0.00  0.00     0.062 H 
BRANCH  24  30
ATOM     30  O   LIG d   1       1.409  -2.030 -12.597  0.00  0.00    -0.495 OA
BRANCH  30  31
ATOM     31  C   LIG d   1       0.004  -1.901 -12.826  0.00  0.00     0.079 C 
ATOM     32  H   LIG d   1      -0.390  -1.086 -12.220  0.00  0.00     0.066 H 
ATOM     33  H   LIG d   1      -0.173  -1.688 -13.880  0.00  0.00     0.066 H 
ATOM     34  H   LIG d   1      -0.495  -2.830 -12.554  0.00  0.00     0.066 H 
ENDBRANCH  30  31
ENDBRANCH  24  30
ENDBRANCH  17  20
ENDBRANCH   7  17
ENDBRANCH   4   7
ENDBRANCH   1   4
BRANCH   1  35
ATOM     35  C   LIG d   1       4.277  -1.675  -4.535  0.00  0.00    -0.012 C 
ATOM     36  H   LIG d   1       3.544  -2.380  -4.930  0.00  0.00     0.035 H 
BRANCH  35  37
ATOM     37  C   LIG d   1       5.625  -2.343  -4.459  0.00  0.00    -0.044 A 
ATOM     38  C   LIG d   1       5.794  -3.619  -4.965  0.00  0.00    -0.055 A 
ATOM     39  C   LIG d   1       7.029  -4.232  -4.896  0.00  0.00    -0.020 A 
ATOM     40  H   LIG d   1       4.959  -4.135  -5.415  0.00  0.00     0.062 H 
ATOM     41  C   LIG d   1       8.102  -3.568  -4.318  0.00  0.00     0.121 A 
ATOM     42  H   LIG d   1       7.160  -5.228  -5.292  0.00  0.00     0.065 H 
ATOM     43  C   LIG d   1       7.930  -2.289  -3.811  0.00  0.00    -0.020 A 
ATOM     44  C   LIG d   1       6.693  -1.676  -3.887  0.00  0.00    -0.055 A 
ATOM     45  H   LIG d   1       8.763  -1.769  -3.360  0.00  0.00     0.065 H 
ATOM     46  H   LIG d   1       6.560  -0.678  -3.497  0.00  0.00     0.062 H 
BRANCH  41  47
ATOM     47  O   LIG d   1       9.318  -4.170  -4.250  0.00  0.00    -0.489 OA
BRANCH  47  48
ATOM     48  C   LIG d   1      10.073  -3.973  -3.054  0.00  0.00     0.095 C 
ATOM     49  H   LIG d   1       9.837  -2.996  -2.631  0.00  0.00     0.073 H 
BRANCH  48  50
ATOM     50  C   LIG d   1       9.718  -5.064  -2.041  0.00  0.00    -0.028 C 
ATOM     51  H   LIG d   1       9.689  -6.031  -2.543  0.00  0.00     0.026 H 
ATOM     52  H   LIG d   1      10.470  -5.087  -1.252  0.00  0.00     0.026 H 
ATOM     53  H   LIG d   1       8.741  -4.851  -1.605  0.00  0.00     0.026 H 
ENDBRANCH  48  50
BRANCH  48  54
ATOM     54  C   LIG d   1      11.567  -4.042  -3.376  0.00  0.00    -0.028 C 
ATOM     55  H   LIG d   1      11.738  -4.785  -4.154  0.00  0.00     0.026 H 
ATOM     56  H   LIG d   1      11.909  -3.068  -3.723  0.00  0.00     0.026 H 
ATOM     57  H   LIG d   1      12.119  -4.322  -2.479  0.00  0.00     0.026 H 
ENDBRANCH  48  54
ENDBRANCH  47  48
ENDBRANCH  41  47
ENDBRANCH  35  37
BRANCH  35  58
ATOM     58  C   LIG d   1       3.850  -1.225  -3.137  0.00  0.00    -0.040 C 
ATOM     59  H   LIG d   1       4.594  -0.537  -2.734  0.00  0.00     0.030 H 
BRANCH  58  60
ATOM     60  C   LIG d   1       2.495  -0.518  -3.220  0.00  0.00    -0.062 C 
ATOM     61  H   LIG d   1       2.509   0.370  -2.587  0.00  0.00     0.023 H 
ATOM     62  H   LIG d   1       2.301  -0.226  -4.252  0.00  0.00     0.023 H 
ATOM     63  H   LIG d   1       1.711  -1.194  -2.880  0.00  0.00     0.023 H 
ENDBRANCH  58  60
BRANCH  58  64
ATOM     64  C   LIG d   1       3.734  -2.445  -2.221  0.00  0.00    -0.062 C 
ATOM     65  H   LIG d   1       4.482  -3.184  -2.505  0.00  0.00     0.023 H 
ATOM     66  H   LIG d   1       3.897  -2.140  -1.188  0.00  0.00     0.023 H 
ATOM     67  H   LIG d   1       2.739  -2.878  -2.320  0.00  0.00     0.023 H 
ENDBRANCH  58  64
ENDBRANCH  35  58
ENDBRANCH   1  35
TORSDOF 17
ENDMDL
MODEL 7
REMARK VINA RESULT:      -5.1      2.721      8.359
REMARK  17 active torsions:
REMARK  status: ('A' for Active; 'I' for Inactive)
REMARK    1  A    between atoms: C_1  and  C_2 
REMARK    2  A    between atoms: C_2  and  C_3 
REMARK       I    between atoms: C_3  and  N_5 
REMARK    3  A    between atoms: N_5  and  C_6 
REMARK    4  A    between atoms: N_5  and  C_23 
REMARK    5  A    between atoms: C_6  and  C_7 
REMARK    6  A    between atoms: C_7  and  C_8 
REMARK    7  A    between atoms: C_8  and  C_10 
REMARK    8  A    between atoms: C_8  and  C_20 
REMARK    9  A    between atoms: C_13  and  O_16 
REMARK   10  A    between atoms: O_16  and  C_17 
REMARK   11  A    between atoms: C_17  and  C_18 
REMARK   12  A    between atoms: C_17  and  C_19 
REMARK   13  A    between atoms: C_20  and  C_21 
REMARK   14  A    between atoms: C_20  and  C_22 
REMARK   15  A    between atoms: C_23  and  C_24 
REMARK   16  A    between atoms: C_27  and  O_30 
REMARK   17  A    between atoms: O_30  and  C_31 
ROOT
ATOM      1  C   LIG d   1       5.950  -2.124  -5.503  0.00  0.00    -0.030 C 
ATOM      2  H   LIG d   1       6.120  -3.104  -5.947  0.00  0.00     0.029 H 
ATOM      3  H   LIG d   1       6.233  -1.348  -6.214  0.00  0.00     0.029 H 
ENDROOT
BRANCH   1   4
ATOM      4  C   LIG d   1       4.469  -1.974  -5.147  0.00  0.00     0.016 C 
ATOM      5  H   LIG d   1       3.902  -2.780  -5.609  0.00  0.00     0.046 H 
ATOM      6  H   LIG d   1       4.350  -2.019  -4.064  0.00  0.00     0.046 H 
BRANCH   4   7
ATOM      7  N   LIG d   1       3.977  -0.685  -5.639  0.00  0.00    -0.297 N 
ATOM      8  C   LIG d   1       3.154   0.059  -4.874  0.00  0.00     0.216 C 
ATOM      9  O   LIG d   1       2.748   1.126  -5.281  0.00  0.00    -0.276 OA
BRANCH   8  10
ATOM     10  C   LIG d   1       2.741  -0.435  -3.512  0.00  0.00     0.021 C 
ATOM     11  H   LIG d   1       1.662  -0.329  -3.398  0.00  0.00     0.036 H 
ATOM     12  H   LIG d   1       3.015  -1.485  -3.406  0.00  0.00     0.036 H 
BRANCH  10  13
ATOM     13  C   LIG d   1       3.450   0.389  -2.434  0.00  0.00    -0.057 C 
ATOM     14  H   LIG d   1       4.320  -0.159  -2.072  0.00  0.00     0.023 H 
ATOM     15  H   LIG d   1       3.772   1.340  -2.858  0.00  0.00     0.023 H 
ATOM     16  H   LIG d   1       2.764   0.573  -1.608  0.00  0.00     0.023 H 
ENDBRANCH  10  13
ENDBRANCH   8  10
BRANCH   7  17
ATOM     17  C   LIG d   1       4.379  -0.205  -6.964  0.00  0.00     0.040 C 
ATOM     18  H   LIG d   1       4.291   0.880  -6.999  0.00  0.00     0.051 H 
ATOM     19  H   LIG d   1       5.414  -0.491  -7.156  0.00  0.00     0.051 H 
BRANCH  17  20
ATOM     20  C   LIG d   1       3.486  -0.816  -8.013  0.00  0.00    -0.030 A 
ATOM     21  C   LIG d   1       3.701  -2.118  -8.426  0.00  0.00    -0.054 A 
ATOM     22  C   LIG d   1       2.884  -2.682  -9.387  0.00  0.00    -0.020 A 
ATOM     23  H   LIG d   1       4.508  -2.695  -7.999  0.00  0.00     0.062 H 
ATOM     24  C   LIG d   1       1.848  -1.941  -9.937  0.00  0.00     0.120 A 
ATOM     25  H   LIG d   1       3.051  -3.699  -9.710  0.00  0.00     0.065 H 
ATOM     26  C   LIG d   1       1.635  -0.634  -9.520  0.00  0.00    -0.020 A 
ATOM     27  C   LIG d   1       2.452  -0.078  -8.554  0.00  0.00    -0.054 A 
ATOM     28  H   LIG d   1       0.829  -0.057  -9.946  0.00  0.00     0.065 H 
ATOM     29  H   LIG d   1       2.284   0.937  -8.227  0.00  0.00     0.062 H 
BRANCH  24  30
ATOM     30  O   LIG d   1       1.043  -2.493 -10.883  0.00  0.00    -0.495 OA
BRANCH  30  31
ATOM     31  C   LIG d   1       0.865  -1.755 -12.094  0.00  0.00     0.079 C 
ATOM     32  H   LIG d   1       0.983  -2.422 -12.947  0.00  0.00     0.066 H 
ATOM     33  H   LIG d   1      -0.134  -1.319 -12.108  0.00  0.00     0.066 H 
ATOM     34  H   LIG d   1       1.609  -0.961 -12.148  0.00  0.00     0.066 H 
ENDBRANCH  30  31
ENDBRANCH  24  30
ENDBRANCH  17  20
ENDBRANCH   7  17
ENDBRANCH   4   7
ENDBRANCH   1   4
BRANCH   1  35
ATOM     35  C   LIG d   1       6.796  -1.986  -4.235  0.00  0.00    -0.012 C 
ATOM     36  H   LIG d   1       6.140  -1.896  -3.368  0.00  0.00     0.035 H 
BRANCH  35  37
ATOM     37  C   LIG d   1       7.670  -3.203  -4.079  0.00  0.00    -0.044 A 
ATOM     38  C   LIG d   1       7.507  -4.284  -4.927  0.00  0.00    -0.055 A 
ATOM     39  C   LIG d   1       8.308  -5.400  -4.785  0.00  0.00    -0.020 A 
ATOM     40  H   LIG d   1       6.753  -4.254  -5.699  0.00  0.00     0.062 H 
ATOM     41  C   LIG d   1       9.276  -5.437  -3.792  0.00  0.00     0.121 A 
ATOM     42  H   LIG d   1       8.180  -6.243  -5.448  0.00  0.00     0.065 H 
ATOM     43  C   LIG d   1       9.438  -4.352  -2.944  0.00  0.00    -0.020 A 
ATOM     44  C   LIG d   1       8.638  -3.235  -3.092  0.00  0.00    -0.055 A 
ATOM     45  H   LIG d   1      10.191  -4.378  -2.170  0.00  0.00     0.065 H 
ATOM     46  H   LIG d   1       8.767  -2.388  -2.435  0.00  0.00     0.062 H 
BRANCH  41  47
ATOM     47  O   LIG d   1      10.066  -6.534  -3.653  0.00  0.00    -0.489 OA
BRANCH  47  48
ATOM     48  C   LIG d   1       9.427  -7.808  -3.741  0.00  0.00     0.095 C 
ATOM     49  H   LIG d   1       8.589  -7.748  -4.436  0.00  0.00     0.073 H 
BRANCH  48  50
ATOM     50  C   LIG d   1      10.430  -8.850  -4.242  0.00  0.00    -0.028 C 
ATOM     51  H   LIG d   1      11.152  -9.067  -3.455  0.00  0.00     0.026 H 
ATOM     52  H   LIG d   1       9.901  -9.763  -4.513  0.00  0.00     0.026 H 
ATOM     53  H   LIG d   1      10.952  -8.459  -5.116  0.00  0.00     0.026 H 
ENDBRANCH  48  50
BRANCH  48  54
ATOM     54  C   LIG d   1       8.913  -8.218  -2.359  0.00  0.00    -0.028 C 
ATOM     55  H   LIG d   1       7.953  -7.738  -2.171  0.00  0.00     0.026 H 
ATOM     56  H   LIG d   1       8.792  -9.300  -2.322  0.00  0.00     0.026 H 
ATOM     57  H   LIG d   1       9.630  -7.907  -1.598  0.00  0.00     0.026 H 
ENDBRANCH  48  54
ENDBRANCH  47  48
ENDBRANCH  41  47
ENDBRANCH  35  37
BRANCH  35  58
ATOM     58  C   LIG d   1       7.674  -0.737  -4.340  0.00  0.00    -0.040 C 
ATOM     59  H   LIG d   1       8.618  -0.912  -3.823  0.00  0.00     0.030 H 
BRANCH  58  60
ATOM     60  C   LIG d   1       7.949  -0.429  -5.814  0.00  0.00    -0.062 C 
ATOM     61  H   LIG d   1       8.678  -1.140  -6.203  0.00  0.00     0.023 H 
ATOM     62  H   LIG d   1       7.021  -0.512  -6.381  0.00  0.00     0.023 H 
ATOM     63  H   LIG d   1       8.343   0.583  -5.907  0.00  0.00     0.023 H 
ENDBRANCH  58  60
BRANCH  58  64
ATOM     64  C   LIG d   1       6.953   0.449  -3.698  0.00  0.00    -0.062 C 
ATOM     65  H   LIG d   1       7.496   0.766  -2.807  0.00  0.00     0.023 H 
ATOM     66  H   LIG d   1       6.908   1.274  -4.407  0.00  0.00     0.023 H 
ATOM     67  H   LIG d   1       5.942   0.152  -3.420  0.00  0.00     0.023 H 
ENDBRANCH  58  64
ENDBRANCH  35  58
ENDBRANCH   1  35
TORSDOF 17
ENDMDL
MODEL 8
REMARK VINA RESULT:      -5.1      2.304      7.854
REMARK  17 active torsions:
REMARK  status: ('A' for Active; 'I' for Inactive)
REMARK    1  A    between atoms: C_1  and  C_2 
REMARK    2  A    between atoms: C_2  and  C_3 
REMARK       I    between atoms: C_3  and  N_5 
REMARK    3  A    between atoms: N_5  and  C_6 
REMARK    4  A    between atoms: N_5  and  C_23 
REMARK    5  A    between atoms: C_6  and  C_7 
REMARK    6  A    between atoms: C_7  and  C_8 
REMARK    7  A    between atoms: C_8  and  C_10 
REMARK    8  A    between atoms: C_8  and  C_20 
REMARK    9  A    between atoms: C_13  and  O_16 
REMARK   10  A    between atoms: O_16  and  C_17 
REMARK   11  A    between atoms: C_17  and  C_18 
REMARK   12  A    between atoms: C_17  and  C_19 
REMARK   13  A    between atoms: C_20  and  C_21 
REMARK   14  A    between atoms: C_20  and  C_22 
REMARK   15  A    between atoms: C_23  and  C_24 
REMARK   16  A    between atoms: C_27  and  O_30 
REMARK   17  A    between atoms: O_30  and  C_31 
ROOT
ATOM      1  C   LIG d   1       3.946  -0.371  -5.694  0.00  0.00    -0.030 C 
ATOM      2  H   LIG d   1       3.924   0.708  -5.547  0.00  0.00     0.029 H 
ATOM      3  H   LIG d   1       2.927  -0.758  -5.698  0.00  0.00     0.029 H 
ENDROOT
BRANCH   1   4
ATOM      4  C   LIG d   1       4.617  -0.690  -7.032  0.00  0.00     0.016 C 
ATOM      5  H   LIG d   1       5.664  -0.936  -6.862  0.00  0.00     0.046 H 
ATOM      6  H   LIG d   1       4.114  -1.539  -7.496  0.00  0.00     0.046 H 
BRANCH   4   7
ATOM      7  N   LIG d   1       4.525   0.476  -7.914  0.00  0.00    -0.297 N 
ATOM      8  C   LIG d   1       5.646   1.107  -8.315  0.00  0.00     0.216 C 
ATOM      9  O   LIG d   1       5.571   2.071  -9.046  0.00  0.00    -0.276 OA
BRANCH   8  10
ATOM     10  C   LIG d   1       6.994   0.612  -7.857  0.00  0.00     0.021 C 
ATOM     11  H   LIG d   1       6.881   0.066  -6.920  0.00  0.00     0.036 H 
ATOM     12  H   LIG d   1       7.417  -0.048  -8.613  0.00  0.00     0.036 H 
BRANCH  10  13
ATOM     13  C   LIG d   1       7.928   1.805  -7.640  0.00  0.00    -0.057 C 
ATOM     14  H   LIG d   1       7.400   2.585  -7.092  0.00  0.00     0.023 H 
ATOM     15  H   LIG d   1       8.799   1.485  -7.068  0.00  0.00     0.023 H 
ATOM     16  H   LIG d   1       8.252   2.194  -8.606  0.00  0.00     0.023 H 
ENDBRANCH  10  13
ENDBRANCH   8  10
BRANCH   7  17
ATOM     17  C   LIG d   1       3.215   0.956  -8.360  0.00  0.00     0.040 C 
ATOM     18  H   LIG d   1       2.503   0.885  -7.538  0.00  0.00     0.051 H 
ATOM     19  H   LIG d   1       3.298   1.996  -8.678  0.00  0.00     0.051 H 
BRANCH  17  20
ATOM     20  C   LIG d   1       2.737   0.114  -9.514  0.00  0.00    -0.030 A 
ATOM     21  C   LIG d   1       3.311   0.268 -10.763  0.00  0.00    -0.054 A 
ATOM     22  C   LIG d   1       2.875  -0.503 -11.823  0.00  0.00    -0.020 A 
ATOM     23  H   LIG d   1       4.099   0.990 -10.910  0.00  0.00     0.062 H 
ATOM     24  C   LIG d   1       1.861  -1.431 -11.635  0.00  0.00     0.120 A 
ATOM     25  H   LIG d   1       3.324  -0.383 -12.799  0.00  0.00     0.065 H 
ATOM     26  C   LIG d   1       1.287  -1.582 -10.381  0.00  0.00    -0.020 A 
ATOM     27  C   LIG d   1       1.731  -0.813  -9.322  0.00  0.00    -0.054 A 
ATOM     28  H   LIG d   1       0.498  -2.304 -10.232  0.00  0.00     0.065 H 
ATOM     29  H   LIG d   1       1.287  -0.934  -8.346  0.00  0.00     0.062 H 
BRANCH  24  30
ATOM     30  O   LIG d   1       1.430  -2.190 -12.677  0.00  0.00    -0.495 OA
BRANCH  30  31
ATOM     31  C   LIG d   1       0.031  -2.156 -12.969  0.00  0.00     0.079 C 
ATOM     32  H   LIG d   1      -0.484  -2.903 -12.365  0.00  0.00     0.066 H 
ATOM     33  H   LIG d   1      -0.363  -1.167 -12.737  0.00  0.00     0.066 H 
ATOM     34  H   LIG d   1      -0.125  -2.372 -14.025  0.00  0.00     0.066 H 
ENDBRANCH  30  31
ENDBRANCH  24  30
ENDBRANCH  17  20
ENDBRANCH   7  17
ENDBRANCH   4   7
ENDBRANCH   1   4
BRANCH   1  35
ATOM     35  C   LIG d   1       4.735  -1.024  -4.558  0.00  0.00    -0.012 C 
ATOM     36  H   LIG d   1       4.920  -2.072  -4.800  0.00  0.00     0.035 H 
BRANCH  35  37
ATOM     37  C   LIG d   1       6.050  -0.309  -4.383  0.00  0.00    -0.044 A 
ATOM     38  C   LIG d   1       7.227  -0.923  -4.771  0.00  0.00    -0.055 A 
ATOM     39  C   LIG d   1       8.433  -0.269  -4.612  0.00  0.00    -0.020 A 
ATOM     40  H   LIG d   1       7.202  -1.915  -5.199  0.00  0.00     0.062 H 
ATOM     41  C   LIG d   1       8.463   1.005  -4.062  0.00  0.00     0.121 A 
ATOM     42  H   LIG d   1       9.351  -0.749  -4.915  0.00  0.00     0.065 H 
ATOM     43  C   LIG d   1       7.281   1.618  -3.675  0.00  0.00    -0.020 A 
ATOM     44  C   LIG d   1       6.076   0.962  -3.841  0.00  0.00    -0.055 A 
ATOM     45  H   LIG d   1       7.302   2.610  -3.247  0.00  0.00     0.065 H 
ATOM     46  H   LIG d   1       5.155   1.441  -3.543  0.00  0.00     0.062 H 
BRANCH  41  47
ATOM     47  O   LIG d   1       9.648   1.650  -3.907  0.00  0.00    -0.489 OA
BRANCH  47  48
ATOM     48  C   LIG d   1       9.603   3.074  -3.807  0.00  0.00     0.095 C 
ATOM     49  H   LIG d   1       8.583   3.391  -3.588  0.00  0.00     0.073 H 
BRANCH  48  50
ATOM     50  C   LIG d   1      10.532   3.538  -2.682  0.00  0.00    -0.028 C 
ATOM     51  H   LIG d   1      11.469   2.984  -2.733  0.00  0.00     0.026 H 
ATOM     52  H   LIG d   1      10.732   4.603  -2.791  0.00  0.00     0.026 H 
ATOM     53  H   LIG d   1      10.053   3.355  -1.718  0.00  0.00     0.026 H 
ENDBRANCH  48  50
BRANCH  48  54
ATOM     54  C   LIG d   1      10.056   3.694  -5.130  0.00  0.00    -0.028 C 
ATOM     55  H   LIG d   1      11.094   4.015  -5.045  0.00  0.00     0.026 H 
ATOM     56  H   LIG d   1       9.968   2.955  -5.926  0.00  0.00     0.026 H 
ATOM     57  H   LIG d   1       9.427   4.554  -5.363  0.00  0.00     0.026 H 
ENDBRANCH  48  54
ENDBRANCH  47  48
ENDBRANCH  41  47
ENDBRANCH  35  37
BRANCH  35  58
ATOM     58  C   LIG d   1       3.930  -0.936  -3.260  0.00  0.00    -0.040 C 
ATOM     59  H   LIG d   1       4.383  -0.195  -2.602  0.00  0.00     0.030 H 
BRANCH  58  60
ATOM     60  C   LIG d   1       2.491  -0.524  -3.579  0.00  0.00    -0.062 C 
ATOM     61  H   LIG d   1       2.339   0.516  -3.289  0.00  0.00     0.023 H 
ATOM     62  H   LIG d   1       2.311  -0.633  -4.649  0.00  0.00     0.023 H 
ATOM     63  H   LIG d   1       1.800  -1.160  -3.027  0.00  0.00     0.023 H 
ENDBRANCH  58  60
BRANCH  58  64
ATOM     64  C   LIG d   1       3.927  -2.300  -2.567  0.00  0.00    -0.062 C 
ATOM     65  H   LIG d   1       4.539  -2.999  -3.139  0.00  0.00     0.023 H 
ATOM     66  H   LIG d   1       4.336  -2.198  -1.563  0.00  0.00     0.023 H 
ATOM     67  H   LIG d   1       2.906  -2.676  -2.508  0.00  0.00     0.023 H 
ENDBRANCH  58  64
ENDBRANCH  35  58
ENDBRANCH   1  35
TORSDOF 17
ENDMDL
MODEL 9
REMARK VINA RESULT:      -5.1      2.794      8.351
REMARK  17 active torsions:
REMARK  status: ('A' for Active; 'I' for Inactive)
REMARK    1  A    between atoms: C_1  and  C_2 
REMARK    2  A    between atoms: C_2  and  C_3 
REMARK       I    between atoms: C_3  and  N_5 
REMARK    3  A    between atoms: N_5  and  C_6 
REMARK    4  A    between atoms: N_5  and  C_23 
REMARK    5  A    between atoms: C_6  and  C_7 
REMARK    6  A    between atoms: C_7  and  C_8 
REMARK    7  A    between atoms: C_8  and  C_10 
REMARK    8  A    between atoms: C_8  and  C_20 
REMARK    9  A    between atoms: C_13  and  O_16 
REMARK   10  A    between atoms: O_16  and  C_17 
REMARK   11  A    between atoms: C_17  and  C_18 
REMARK   12  A    between atoms: C_17  and  C_19 
REMARK   13  A    between atoms: C_20  and  C_21 
REMARK   14  A    between atoms: C_20  and  C_22 
REMARK   15  A    between atoms: C_23  and  C_24 
REMARK   16  A    between atoms: C_27  and  O_30 
REMARK   17  A    between atoms: O_30  and  C_31 
ROOT
ATOM      1  C   LIG d   1       8.073   0.984  -4.033  0.00  0.00    -0.030 C 
ATOM      2  H   LIG d   1       8.788   1.001  -3.211  0.00  0.00     0.029 H 
ATOM      3  H   LIG d   1       8.167   0.044  -4.578  0.00  0.00     0.029 H 
ENDROOT
BRANCH   1   4
ATOM      4  C   LIG d   1       6.653   1.111  -3.478  0.00  0.00     0.016 C 
ATOM      5  H   LIG d   1       6.659   1.779  -2.618  0.00  0.00     0.046 H 
ATOM      6  H   LIG d   1       5.997   1.516  -4.249  0.00  0.00     0.046 H 
BRANCH   4   7
ATOM      7  N   LIG d   1       6.169  -0.209  -3.068  0.00  0.00    -0.297 N 
ATOM      8  C   LIG d   1       5.113  -0.312  -2.236  0.00  0.00     0.216 C 
ATOM      9  O   LIG d   1       4.712  -1.404  -1.898  0.00  0.00    -0.276 OA
BRANCH   8  10
ATOM     10  C   LIG d   1       4.431   0.933  -1.728  0.00  0.00     0.021 C 
ATOM     11  H   LIG d   1       4.005   0.737  -0.744  0.00  0.00     0.036 H 
ATOM     12  H   LIG d   1       5.157   1.742  -1.656  0.00  0.00     0.036 H 
BRANCH  10  13
ATOM     13  C   LIG d   1       3.315   1.333  -2.696  0.00  0.00    -0.057 C 
ATOM     14  H   LIG d   1       3.482   2.353  -3.041  0.00  0.00     0.023 H 
ATOM     15  H   LIG d   1       3.316   0.656  -3.551  0.00  0.00     0.023 H 
ATOM     16  H   LIG d   1       2.353   1.272  -2.187  0.00  0.00     0.023 H 
ENDBRANCH  10  13
ENDBRANCH   8  10
BRANCH   7  17
ATOM     17  C   LIG d   1       6.833  -1.419  -3.562  0.00  0.00     0.040 C 
ATOM     18  H   LIG d   1       7.838  -1.169  -3.899  0.00  0.00     0.051 H 
ATOM     19  H   LIG d   1       6.893  -2.153  -2.758  0.00  0.00     0.051 H 
BRANCH  17  20
ATOM     20  C   LIG d   1       6.043  -1.992  -4.709  0.00  0.00    -0.030 A 
ATOM     21  C   LIG d   1       5.601  -3.301  -4.655  0.00  0.00    -0.054 A 
ATOM     22  C   LIG d   1       4.876  -3.830  -5.706  0.00  0.00    -0.020 A 
ATOM     23  H   LIG d   1       5.822  -3.911  -3.792  0.00  0.00     0.062 H 
ATOM     24  C   LIG d   1       4.593  -3.047  -6.815  0.00  0.00     0.120 A 
ATOM     25  H   LIG d   1       4.530  -4.853  -5.663  0.00  0.00     0.065 H 
ATOM     26  C   LIG d   1       5.039  -1.734  -6.867  0.00  0.00    -0.020 A 
ATOM     27  C   LIG d   1       5.757  -1.208  -5.811  0.00  0.00    -0.054 A 
ATOM     28  H   LIG d   1       4.818  -1.123  -7.729  0.00  0.00     0.065 H 
ATOM     29  H   LIG d   1       6.100  -0.186  -5.849  0.00  0.00     0.062 H 
BRANCH  24  30
ATOM     30  O   LIG d   1       3.881  -3.566  -7.851  0.00  0.00    -0.495 OA
BRANCH  30  31
ATOM     31  C   LIG d   1       3.686  -4.982  -7.858  0.00  0.00     0.079 C 
ATOM     32  H   LIG d   1       4.573  -5.473  -7.460  0.00  0.00     0.066 H 
ATOM     33  H   LIG d   1       2.824  -5.232  -7.241  0.00  0.00     0.066 H 
ATOM     34  H   LIG d   1       3.512  -5.319  -8.880  0.00  0.00     0.066 H 
ENDBRANCH  30  31
ENDBRANCH  24  30
ENDBRANCH  17  20
ENDBRANCH   7  17
ENDBRANCH   4   7
ENDBRANCH   1   4
BRANCH   1  35
ATOM     35  C   LIG d   1       8.357   2.152  -4.980  0.00  0.00    -0.012 C 
ATOM     36  H   LIG d   1       7.414   2.579  -5.323  0.00  0.00     0.035 H 
BRANCH  35  37
ATOM     37  C   LIG d   1       9.152   3.206  -4.253  0.00  0.00    -0.044 A 
ATOM     38  C   LIG d   1       9.132   4.515  -4.699  0.00  0.00    -0.055 A 
ATOM     39  C   LIG d   1       9.859   5.483  -4.034  0.00  0.00    -0.020 A 
ATOM     40  H   LIG d   1       8.547   4.780  -5.567  0.00  0.00     0.062 H 
ATOM     41  C   LIG d   1      10.610   5.141  -2.918  0.00  0.00     0.121 A 
ATOM     42  H   LIG d   1       9.843   6.505  -4.382  0.00  0.00     0.065 H 
ATOM     43  C   LIG d   1      10.627   3.828  -2.473  0.00  0.00    -0.020 A 
ATOM     44  C   LIG d   1       9.894   2.863  -3.138  0.00  0.00    -0.055 A 
ATOM     45  H   LIG d   1      11.210   3.559  -1.604  0.00  0.00     0.065 H 
ATOM     46  H   LIG d   1       9.904   1.841  -2.790  0.00  0.00     0.062 H 
BRANCH  41  47
ATOM     47  O   LIG d   1      11.324   6.092  -2.261  0.00  0.00    -0.489 OA
BRANCH  47  48
ATOM     48  C   LIG d   1      10.934   6.385  -0.919  0.00  0.00     0.095 C 
ATOM     49  H   LIG d   1      10.402   5.530  -0.500  0.00  0.00     0.073 H 
BRANCH  48  50
ATOM     50  C   LIG d   1      12.178   6.672  -0.076  0.00  0.00    -0.028 C 
ATOM     51  H   LIG d   1      11.956   6.490   0.975  0.00  0.00     0.026 H 
ATOM     52  H   LIG d   1      12.992   6.021  -0.394  0.00  0.00     0.026 H 
ATOM     53  H   LIG d   1      12.474   7.714  -0.210  0.00  0.00     0.026 H 
ENDBRANCH  48  50
BRANCH  48  54
ATOM     54  C   LIG d   1      10.017   7.610  -0.910  0.00  0.00    -0.028 C 
ATOM     55  H   LIG d   1       9.029   7.323  -0.549  0.00  0.00     0.026 H 
ATOM     56  H   LIG d   1      10.436   8.372  -0.254  0.00  0.00     0.026 H 
ATOM     57  H   LIG d   1       9.933   8.008  -1.921  0.00  0.00     0.026 H 
ENDBRANCH  48  54
ENDBRANCH  47  48
ENDBRANCH  41  47
ENDBRANCH  35  37
BRANCH  35  58
ATOM     58  C   LIG d   1       9.157   1.650  -6.184  0.00  0.00    -0.040 C 
ATOM     59  H   LIG d   1      10.079   2.225  -6.272  0.00  0.00     0.030 H 
BRANCH  58  60
ATOM     60  C   LIG d   1       9.495   0.170  -5.991  0.00  0.00    -0.062 C 
ATOM     61  H   LIG d   1      10.570   0.059  -5.850  0.00  0.00     0.023 H 
ATOM     62  H   LIG d   1       8.972  -0.210  -5.114  0.00  0.00     0.023 H 
ATOM     63  H   LIG d   1       9.185  -0.391  -6.872  0.00  0.00     0.023 H 
ENDBRANCH  58  60
BRANCH  58  64
ATOM     64  C   LIG d   1       8.325   1.821  -7.457  0.00  0.00    -0.062 C 
ATOM     65  H   LIG d   1       8.313   2.873  -7.744  0.00  0.00     0.023 H 
ATOM     66  H   LIG d   1       8.764   1.230  -8.259  0.00  0.00     0.023 H 
ATOM     67  H   LIG d   1       7.306   1.484  -7.272  0.00  0.00     0.023 H 
ENDBRANCH  58  64
ENDBRANCH  35  58
ENDBRANCH   1  35
TORSDOF 17
ENDMDL
MODEL 10
REMARK VINA RESULT:      -5.0      3.146      5.676
REMARK  17 active torsions:
REMARK  status: ('A' for Active; 'I' for Inactive)
REMARK    1  A    between atoms: C_1  and  C_2 
REMARK    2  A    between atoms: C_2  and  C_3 
REMARK       I    between atoms: C_3  and  N_5 
REMARK    3  A    between atoms: N_5  and  C_6 
REMARK    4  A    between atoms: N_5  and  C_23 
REMARK    5  A    between atoms: C_6  and  C_7 
REMARK    6  A    between atoms: C_7  and  C_8 
REMARK    7  A    between atoms: C_8  and  C_10 
REMARK    8  A    between atoms: C_8  and  C_20 
REMARK    9  A    between atoms: C_13  and  O_16 
REMARK   10  A    between atoms: O_16  and  C_17 
REMARK   11  A    between atoms: C_17  and  C_18 
REMARK   12  A    between atoms: C_17  and  C_19 
REMARK   13  A    between atoms: C_20  and  C_21 
REMARK   14  A    between atoms: C_20  and  C_22 
REMARK   15  A    between atoms: C_23  and  C_24 
REMARK   16  A    between atoms: C_27  and  O_30 
REMARK   17  A    between atoms: O_30  and  C_31 
ROOT
ATOM      1  C   LIG d   1       3.233  -0.087  -6.648  0.00  0.00    -0.030 C 
ATOM      2  H   LIG d   1       2.532  -0.907  -6.493  0.00  0.00     0.029 H 
ATOM      3  H   LIG d   1       2.706   0.863  -6.565  0.00  0.00     0.029 H 
ENDROOT
BRANCH   1   4
ATOM      4  C   LIG d   1       4.338  -0.152  -5.592  0.00  0.00     0.016 C 
ATOM      5  H   LIG d   1       5.304  -0.256  -6.083  0.00  0.00     0.046 H 
ATOM      6  H   LIG d   1       4.327   0.763  -4.999  0.00  0.00     0.046 H 
BRANCH   4   7
ATOM      7  N   LIG d   1       4.108  -1.304  -4.716  0.00  0.00    -0.297 N 
ATOM      8  C   LIG d   1       3.549  -1.127  -3.503  0.00  0.00     0.216 C 
ATOM      9  O   LIG d   1       3.358  -2.080  -2.779  0.00  0.00    -0.276 OA
BRANCH   8  10
ATOM     10  C   LIG d   1       3.159   0.256  -3.048  0.00  0.00     0.021 C 
ATOM     11  H   LIG d   1       3.157   0.932  -3.903  0.00  0.00     0.036 H 
ATOM     12  H   LIG d   1       2.163   0.226  -2.606  0.00  0.00     0.036 H 
BRANCH  10  13
ATOM     13  C   LIG d   1       4.165   0.753  -2.008  0.00  0.00    -0.057 C 
ATOM     14  H   LIG d   1       4.427   1.789  -2.222  0.00  0.00     0.023 H 
ATOM     15  H   LIG d   1       3.721   0.689  -1.014  0.00  0.00     0.023 H 
ATOM     16  H   LIG d   1       5.062   0.135  -2.045  0.00  0.00     0.023 H 
ENDBRANCH  10  13
ENDBRANCH   8  10
BRANCH   7  17
ATOM     17  C   LIG d   1       4.487  -2.649  -5.159  0.00  0.00     0.040 C 
ATOM     18  H   LIG d   1       4.041  -3.388  -4.495  0.00  0.00     0.051 H 
ATOM     19  H   LIG d   1       4.128  -2.811  -6.175  0.00  0.00     0.051 H 
BRANCH  17  20
ATOM     20  C   LIG d   1       5.988  -2.783  -5.129  0.00  0.00    -0.030 A 
ATOM     21  C   LIG d   1       6.674  -2.580  -3.946  0.00  0.00    -0.054 A 
ATOM     22  C   LIG d   1       8.049  -2.703  -3.915  0.00  0.00    -0.020 A 
ATOM     23  H   LIG d   1       6.135  -2.325  -3.046  0.00  0.00     0.062 H 
ATOM     24  C   LIG d   1       8.742  -3.030  -5.072  0.00  0.00     0.120 A 
ATOM     25  H   LIG d   1       8.586  -2.546  -2.990  0.00  0.00     0.065 H 
ATOM     26  C   LIG d   1       8.050  -3.233  -6.257  0.00  0.00    -0.020 A 
ATOM     27  C   LIG d   1       6.674  -3.115  -6.282  0.00  0.00    -0.054 A 
ATOM     28  H   LIG d   1       8.588  -3.488  -7.158  0.00  0.00     0.065 H 
ATOM     29  H   LIG d   1       6.136  -3.276  -7.203  0.00  0.00     0.062 H 
BRANCH  24  30
ATOM     30  O   LIG d   1      10.096  -3.151  -5.044  0.00  0.00    -0.495 OA
BRANCH  30  31
ATOM     31  C   LIG d   1      10.673  -3.702  -3.858  0.00  0.00     0.079 C 
ATOM     32  H   LIG d   1       9.909  -3.782  -3.085  0.00  0.00     0.066 H 
ATOM     33  H   LIG d   1      11.073  -4.692  -4.076  0.00  0.00     0.066 H 
ATOM     34  H   LIG d   1      11.476  -3.053  -3.510  0.00  0.00     0.066 H 
ENDBRANCH  30  31
ENDBRANCH  24  30
ENDBRANCH  17  20
ENDBRANCH   7  17
ENDBRANCH   4   7
ENDBRANCH   1   4
BRANCH   1  35
ATOM     35  C   LIG d   1       3.853  -0.205  -8.043  0.00  0.00    -0.012 C 
ATOM     36  H   LIG d   1       4.919  -0.414  -7.950  0.00  0.00     0.035 H 
BRANCH  35  37
ATOM     37  C   LIG d   1       3.185  -1.327  -8.796  0.00  0.00    -0.044 A 
ATOM     38  C   LIG d   1       2.079  -1.067  -9.585  0.00  0.00    -0.055 A 
ATOM     39  C   LIG d   1       1.466  -2.094 -10.276  0.00  0.00    -0.020 A 
ATOM     40  H   LIG d   1       1.695  -0.060  -9.660  0.00  0.00     0.062 H 
ATOM     41  C   LIG d   1       1.961  -3.387 -10.179  0.00  0.00     0.121 A 
ATOM     42  H   LIG d   1       0.603  -1.890 -10.892  0.00  0.00     0.065 H 
ATOM     43  C   LIG d   1       3.070  -3.644  -9.387  0.00  0.00    -0.020 A 
ATOM     44  C   LIG d   1       3.683  -2.613  -8.701  0.00  0.00    -0.055 A 
ATOM     45  H   LIG d   1       3.457  -4.650  -9.310  0.00  0.00     0.065 H 
ATOM     46  H   LIG d   1       4.550  -2.812  -8.088  0.00  0.00     0.062 H 
BRANCH  41  47
ATOM     47  O   LIG d   1       1.360  -4.398 -10.859  0.00  0.00    -0.489 OA
BRANCH  47  48
ATOM     48  C   LIG d   1       0.497  -5.258 -10.114  0.00  0.00     0.095 C 
ATOM     49  H   LIG d   1       0.685  -5.127  -9.048  0.00  0.00     0.073 H 
BRANCH  48  50
ATOM     50  C   LIG d   1      -0.961  -4.908 -10.420  0.00  0.00    -0.028 C 
ATOM     51  H   LIG d   1      -1.118  -3.840 -10.272  0.00  0.00     0.026 H 
ATOM     52  H   LIG d   1      -1.189  -5.169 -11.454  0.00  0.00     0.026 H 
ATOM     53  H   LIG d   1      -1.617  -5.469  -9.752  0.00  0.00     0.026 H 
ENDBRANCH  48  50
BRANCH  48  54
ATOM     54  C   LIG d   1       0.766  -6.713 -10.504  0.00  0.00    -0.028 C 
ATOM     55  H   LIG d   1       1.832  -6.850 -10.684  0.00  0.00     0.026 H 
ATOM     56  H   LIG d   1       0.447  -7.370  -9.696  0.00  0.00     0.026 H 
ATOM     57  H   LIG d   1       0.210  -6.955 -11.409  0.00  0.00     0.026 H 
ENDBRANCH  48  54
ENDBRANCH  47  48
ENDBRANCH  41  47
ENDBRANCH  35  37
BRANCH  35  58
ATOM     58  C   LIG d   1       3.655   1.108  -8.802  0.00  0.00    -0.040 C 
ATOM     59  H   LIG d   1       3.177   0.904  -9.761  0.00  0.00     0.030 H 
BRANCH  58  60
ATOM     60  C   LIG d   1       2.769   2.045  -7.979  0.00  0.00    -0.062 C 
ATOM     61  H   LIG d   1       2.032   2.515  -8.631  0.00  0.00     0.023 H 
ATOM     62  H   LIG d   1       2.257   1.473  -7.205  0.00  0.00     0.023 H 
ATOM     63  H   LIG d   1       3.386   2.814  -7.515  0.00  0.00     0.023 H 
ENDBRANCH  58  60
BRANCH  58  64
ATOM     64  C   LIG d   1       5.014   1.769  -9.040  0.00  0.00    -0.062 C 
ATOM     65  H   LIG d   1       4.981   2.343  -9.966  0.00  0.00     0.023 H 
ATOM     66  H   LIG d   1       5.245   2.434  -8.209  0.00  0.00     0.023 H 
ATOM     67  H   LIG d   1       5.783   1.001  -9.116  0.00  0.00     0.023 H 
ENDBRANCH  58  64
ENDBRANCH  35  58
ENDBRANCH   1  35
TORSDOF 17
ENDMDL
