MODEL 1
REMARK VINA RESULT:      -4.8      0.000      0.000
REMARK  4 active torsions:
REMARK  status: ('A' for Active; 'I' for Inactive)
REMARK    1  A    between atoms: C_1  and  C_2 
REMARK    2  A    between atoms: C_2  and  C_4 
REMARK    3  A    between atoms: C_5  and  O_12 
REMARK    4  A    between atoms: C_7  and  O_11 
ROOT
ATOM      1  C   LIG d   1       5.946  -1.464  -3.426  0.00  0.00     0.051 A 
ATOM      2  C   LIG d   1       6.398  -0.142  -3.248  0.00  0.00     0.130 A 
ATOM      3  C   LIG d   1       5.541   0.814  -2.739  0.00  0.00     0.022 A 
ATOM      4  C   LIG d   1       4.236   0.474  -2.402  0.00  0.00     0.120 A 
ATOM      5  C   LIG d   1       3.781  -0.827  -2.573  0.00  0.00    -0.027 A 
ATOM      6  C   LIG d   1       4.622  -1.796  -3.088  0.00  0.00    -0.091 A 
ATOM      7  O   LIG d   1       4.173  -3.064  -3.261  0.00  0.00    -0.873 OA
ATOM      8  H   LIG d   1       5.886   1.828  -2.601  0.00  0.00     0.069 H 
ATOM      9  H   LIG d   1       2.765  -1.082  -2.308  0.00  0.00     0.065 H 
ENDROOT
BRANCH   1  10
ATOM     10  C   LIG d   1       6.846  -2.482  -3.965  0.00  0.00     0.163 C 
ATOM     11  O   LIG d   1       7.783  -2.878  -3.302  0.00  0.00    -0.292 OA
BRANCH  10  12
ATOM     12  C   LIG d   1       6.610  -3.041  -5.345  0.00  0.00    -0.001 C 
ATOM     13  H   LIG d   1       6.935  -2.315  -6.091  0.00  0.00     0.031 H 
ATOM     14  H   LIG d   1       7.178  -3.964  -5.464  0.00  0.00     0.031 H 
ATOM     15  H   LIG d   1       5.549  -3.248  -5.477  0.00  0.00     0.031 H 
ENDBRANCH  10  12
ENDBRANCH   1  10
BRANCH   2  16
ATOM     16  O   LIG d   1       7.672   0.191  -3.576  0.00  0.00    -0.506 OA
ATOM     17  H   LIG d   1       8.134  -0.481  -4.096  0.00  0.00     0.292 HD
ENDBRANCH   2  16
BRANCH   4  18
ATOM     18  O   LIG d   1       3.401   1.419  -1.902  0.00  0.00    -0.507 OA
ATOM     19  H   LIG d   1       3.544   1.615  -0.965  0.00  0.00     0.292 HD
ENDBRANCH   4  18
TORSDOF 4
ENDMDL
MODEL 2
REMARK VINA RESULT:      -4.7      1.291      3.726
REMARK  4 active torsions:
REMARK  status: ('A' for Active; 'I' for Inactive)
REMARK    1  A    between atoms: C_1  and  C_2 
REMARK    2  A    between atoms: C_2  and  C_4 
REMARK    3  A    between atoms: C_5  and  O_12 
REMARK    4  A    between atoms: C_7  and  O_11 
ROOT
ATOM      1  C   LIG d   1       4.800  -0.257  -3.375  0.00  0.00     0.051 A 
ATOM      2  C   LIG d   1       6.034   0.421  -3.369  0.00  0.00     0.130 A 
ATOM      3  C   LIG d   1       7.211  -0.293  -3.498  0.00  0.00     0.022 A 
ATOM      4  C   LIG d   1       7.178  -1.675  -3.634  0.00  0.00     0.120 A 
ATOM      5  C   LIG d   1       5.966  -2.353  -3.641  0.00  0.00    -0.027 A 
ATOM      6  C   LIG d   1       4.778  -1.657  -3.507  0.00  0.00    -0.091 A 
ATOM      7  O   LIG d   1       3.596  -2.322  -3.508  0.00  0.00    -0.873 OA
ATOM      8  H   LIG d   1       8.157   0.226  -3.493  0.00  0.00     0.069 H 
ATOM      9  H   LIG d   1       5.950  -3.428  -3.748  0.00  0.00     0.065 H 
ENDROOT
BRANCH   1  10
ATOM     10  C   LIG d   1       3.551   0.489  -3.239  0.00  0.00     0.163 C 
ATOM     11  O   LIG d   1       3.244   0.970  -2.166  0.00  0.00    -0.292 OA
BRANCH  10  12
ATOM     12  C   LIG d   1       2.643   0.661  -4.429  0.00  0.00    -0.001 C 
ATOM     13  H   LIG d   1       3.050   1.427  -5.088  0.00  0.00     0.031 H 
ATOM     14  H   LIG d   1       2.570  -0.283  -4.969  0.00  0.00     0.031 H 
ATOM     15  H   LIG d   1       1.652   0.962  -4.089  0.00  0.00     0.031 H 
ENDBRANCH  10  12
ENDBRANCH   1  10
BRANCH   2  16
ATOM     16  O   LIG d   1       6.068   1.771  -3.236  0.00  0.00    -0.506 OA
ATOM     17  H   LIG d   1       6.630   2.081  -2.513  0.00  0.00     0.292 HD
ENDBRANCH   2  16
BRANCH   4  18
ATOM     18  O   LIG d   1       8.337  -2.368  -3.760  0.00  0.00    -0.507 OA
ATOM     19  H   LIG d   1       9.122  -1.808  -3.848  0.00  0.00     0.292 HD
ENDBRANCH   4  18
TORSDOF 4
ENDMDL
MODEL 3
REMARK VINA RESULT:      -4.6      1.434      4.570
REMARK  4 active torsions:
REMARK  status: ('A' for Active; 'I' for Inactive)
REMARK    1  A    between atoms: C_1  and  C_2 
REMARK    2  A    between atoms: C_2  and  C_4 
REMARK    3  A    between atoms: C_5  and  O_12 
REMARK    4  A    between atoms: C_7  and  O_11 
ROOT
ATOM      1  C   LIG d   1       4.888  -0.283  -3.743  0.00  0.00     0.051 A 
ATOM      2  C   LIG d   1       4.571  -1.650  -3.860  0.00  0.00     0.130 A 
ATOM      3  C   LIG d   1       5.584  -2.581  -3.989  0.00  0.00     0.022 A 
ATOM      4  C   LIG d   1       6.912  -2.171  -4.002  0.00  0.00     0.120 A 
ATOM      5  C   LIG d   1       7.235  -0.825  -3.887  0.00  0.00    -0.027 A 
ATOM      6  C   LIG d   1       6.235   0.122  -3.764  0.00  0.00    -0.091 A 
ATOM      7  O   LIG d   1       6.552   1.437  -3.659  0.00  0.00    -0.873 OA
ATOM      8  H   LIG d   1       5.343  -3.629  -4.078  0.00  0.00     0.069 H 
ATOM      9  H   LIG d   1       8.270  -0.516  -3.899  0.00  0.00     0.065 H 
ENDROOT
BRANCH   1  10
ATOM     10  C   LIG d   1       3.823   0.709  -3.608  0.00  0.00     0.163 C 
ATOM     11  O   LIG d   1       3.145   1.008  -4.569  0.00  0.00    -0.292 OA
BRANCH  10  12
ATOM     12  C   LIG d   1       3.567   1.362  -2.274  0.00  0.00    -0.001 C 
ATOM     13  H   LIG d   1       4.471   1.313  -1.666  0.00  0.00     0.031 H 
ATOM     14  H   LIG d   1       3.288   2.404  -2.427  0.00  0.00     0.031 H 
ATOM     15  H   LIG d   1       2.758   0.840  -1.763  0.00  0.00     0.031 H 
ENDBRANCH  10  12
ENDBRANCH   1  10
BRANCH   2  16
ATOM     16  O   LIG d   1       3.275  -2.052  -3.847  0.00  0.00    -0.506 OA
ATOM     17  H   LIG d   1       3.027  -2.555  -3.059  0.00  0.00     0.292 HD
ENDBRANCH   2  16
BRANCH   4  18
ATOM     18  O   LIG d   1       7.900  -3.092  -4.129  0.00  0.00    -0.507 OA
ATOM     19  H   LIG d   1       7.584  -4.005  -4.170  0.00  0.00     0.292 HD
ENDBRANCH   4  18
TORSDOF 4
ENDMDL
MODEL 4
REMARK VINA RESULT:      -4.4      1.972      3.964
REMARK  4 active torsions:
REMARK  status: ('A' for Active; 'I' for Inactive)
REMARK    1  A    between atoms: C_1  and  C_2 
REMARK    2  A    between atoms: C_2  and  C_4 
REMARK    3  A    between atoms: C_5  and  O_12 
REMARK    4  A    between atoms: C_7  and  O_11 
ROOT
ATOM      1  C   LIG d   1       5.166  -0.191  -3.825  0.00  0.00     0.051 A 
ATOM      2  C   LIG d   1       6.026  -1.304  -3.892  0.00  0.00     0.130 A 
ATOM      3  C   LIG d   1       5.761  -2.324  -4.787  0.00  0.00     0.022 A 
ATOM      4  C   LIG d   1       4.650  -2.252  -5.618  0.00  0.00     0.120 A 
ATOM      5  C   LIG d   1       3.796  -1.158  -5.560  0.00  0.00    -0.027 A 
ATOM      6  C   LIG d   1       4.041  -0.131  -4.667  0.00  0.00    -0.091 A 
ATOM      7  O   LIG d   1       3.202   0.932  -4.606  0.00  0.00    -0.873 OA
ATOM      8  H   LIG d   1       6.420  -3.177  -4.840  0.00  0.00     0.069 H 
ATOM      9  H   LIG d   1       2.935  -1.112  -6.210  0.00  0.00     0.065 H 
ENDROOT
BRANCH   1  10
ATOM     10  C   LIG d   1       5.438   0.892  -2.882  0.00  0.00     0.163 C 
ATOM     11  O   LIG d   1       6.306   1.705  -3.124  0.00  0.00    -0.292 OA
BRANCH  10  12
ATOM     12  C   LIG d   1       4.640   0.999  -1.608  0.00  0.00    -0.001 C 
ATOM     13  H   LIG d   1       4.910   0.181  -0.940  0.00  0.00     0.031 H 
ATOM     14  H   LIG d   1       4.857   1.951  -1.123  0.00  0.00     0.031 H 
ATOM     15  H   LIG d   1       3.577   0.944  -1.839  0.00  0.00     0.031 H 
ENDBRANCH  10  12
ENDBRANCH   1  10
BRANCH   2  16
ATOM     16  O   LIG d   1       7.112  -1.375  -3.081  0.00  0.00    -0.506 OA
ATOM     17  H   LIG d   1       7.725  -2.089  -3.306  0.00  0.00     0.292 HD
ENDBRANCH   2  16
BRANCH   4  18
ATOM     18  O   LIG d   1       4.398  -3.257  -6.493  0.00  0.00    -0.507 OA
ATOM     19  H   LIG d   1       4.935  -3.223  -7.297  0.00  0.00     0.292 HD
ENDBRANCH   4  18
TORSDOF 4
ENDMDL
MODEL 5
REMARK VINA RESULT:      -4.4      2.357      3.441
REMARK  4 active torsions:
REMARK  status: ('A' for Active; 'I' for Inactive)
REMARK    1  A    between atoms: C_1  and  C_2 
REMARK    2  A    between atoms: C_2  and  C_4 
REMARK    3  A    between atoms: C_5  and  O_12 
REMARK    4  A    between atoms: C_7  and  O_11 
ROOT
ATOM      1  C   LIG d   1       4.418  -0.377  -4.819  0.00  0.00     0.051 A 
ATOM      2  C   LIG d   1       3.290  -0.160  -4.007  0.00  0.00     0.130 A 
ATOM      3  C   LIG d   1       3.444   0.398  -2.752  0.00  0.00     0.022 A 
ATOM      4  C   LIG d   1       4.709   0.745  -2.292  0.00  0.00     0.120 A 
ATOM      5  C   LIG d   1       5.829   0.535  -3.086  0.00  0.00    -0.027 A 
ATOM      6  C   LIG d   1       5.695  -0.029  -4.342  0.00  0.00    -0.091 A 
ATOM      7  O   LIG d   1       6.791  -0.240  -5.113  0.00  0.00    -0.873 OA
ATOM      8  H   LIG d   1       2.579   0.566  -2.127  0.00  0.00     0.069 H 
ATOM      9  H   LIG d   1       6.808   0.808  -2.720  0.00  0.00     0.065 H 
ENDROOT
BRANCH   1  10
ATOM     10  C   LIG d   1       4.265  -0.968  -6.147  0.00  0.00     0.163 C 
ATOM     11  O   LIG d   1       3.820  -0.302  -7.060  0.00  0.00    -0.292 OA
BRANCH  10  12
ATOM     12  C   LIG d   1       4.660  -2.402  -6.384  0.00  0.00    -0.001 C 
ATOM     13  H   LIG d   1       3.791  -2.968  -6.720  0.00  0.00     0.031 H 
ATOM     14  H   LIG d   1       5.438  -2.444  -7.147  0.00  0.00     0.031 H 
ATOM     15  H   LIG d   1       5.038  -2.833  -5.457  0.00  0.00     0.031 H 
ENDBRANCH  10  12
ENDBRANCH   1  10
BRANCH   2  16
ATOM     16  O   LIG d   1       2.054  -0.497  -4.454  0.00  0.00    -0.506 OA
ATOM     17  H   LIG d   1       1.601  -1.151  -3.903  0.00  0.00     0.292 HD
ENDBRANCH   2  16
BRANCH   4  18
ATOM     18  O   LIG d   1       4.851   1.293  -1.059  0.00  0.00    -0.507 OA
ATOM     19  H   LIG d   1       5.307   0.721  -0.425  0.00  0.00     0.292 HD
ENDBRANCH   4  18
TORSDOF 4
ENDMDL
MODEL 6
REMARK VINA RESULT:      -4.3      1.037      2.633
REMARK  4 active torsions:
REMARK  status: ('A' for Active; 'I' for Inactive)
REMARK    1  A    between atoms: C_1  and  C_2 
REMARK    2  A    between atoms: C_2  and  C_4 
REMARK    3  A    between atoms: C_5  and  O_12 
REMARK    4  A    between atoms: C_7  and  O_11 
ROOT
ATOM      1  C   LIG d   1       5.721  -1.169  -3.914  0.00  0.00     0.051 A 
ATOM      2  C   LIG d   1       4.374  -1.492  -3.666  0.00  0.00     0.130 A 
ATOM      3  C   LIG d   1       3.566  -0.596  -2.992  0.00  0.00     0.022 A 
ATOM      4  C   LIG d   1       4.080   0.621  -2.561  0.00  0.00     0.120 A 
ATOM      5  C   LIG d   1       5.408   0.949  -2.801  0.00  0.00    -0.027 A 
ATOM      6  C   LIG d   1       6.234   0.063  -3.468  0.00  0.00    -0.091 A 
ATOM      7  O   LIG d   1       7.532   0.383  -3.696  0.00  0.00    -0.873 OA
ATOM      8  H   LIG d   1       2.532  -0.842  -2.801  0.00  0.00     0.069 H 
ATOM      9  H   LIG d   1       5.798   1.898  -2.463  0.00  0.00     0.065 H 
ENDROOT
BRANCH   1  10
ATOM     10  C   LIG d   1       6.584  -2.110  -4.626  0.00  0.00     0.163 C 
ATOM     11  O   LIG d   1       6.477  -2.243  -5.828  0.00  0.00    -0.292 OA
BRANCH  10  12
ATOM     12  C   LIG d   1       7.606  -2.916  -3.867  0.00  0.00    -0.001 C 
ATOM     13  H   LIG d   1       7.766  -3.868  -4.372  0.00  0.00     0.031 H 
ATOM     14  H   LIG d   1       8.546  -2.364  -3.826  0.00  0.00     0.031 H 
ATOM     15  H   LIG d   1       7.248  -3.097  -2.854  0.00  0.00     0.031 H 
ENDBRANCH  10  12
ENDBRANCH   1  10
BRANCH   2  16
ATOM     16  O   LIG d   1       3.870  -2.680  -4.087  0.00  0.00    -0.506 OA
ATOM     17  H   LIG d   1       4.318  -3.451  -3.714  0.00  0.00     0.292 HD
ENDBRANCH   2  16
BRANCH   4  18
ATOM     18  O   LIG d   1       3.279   1.494  -1.900  0.00  0.00    -0.507 OA
ATOM     19  H   LIG d   1       2.806   1.105  -1.152  0.00  0.00     0.292 HD
ENDBRANCH   4  18
TORSDOF 4
ENDMDL
MODEL 7
REMARK VINA RESULT:      -4.3      3.337      4.175
REMARK  4 active torsions:
REMARK  status: ('A' for Active; 'I' for Inactive)
REMARK    1  A    between atoms: C_1  and  C_2 
REMARK    2  A    between atoms: C_2  and  C_4 
REMARK    3  A    between atoms: C_5  and  O_12 
REMARK    4  A    between atoms: C_7  and  O_11 
ROOT
ATOM      1  C   LIG d   1       3.674  -0.429  -5.847  0.00  0.00     0.051 A 
ATOM      2  C   LIG d   1       3.099   0.252  -4.758  0.00  0.00     0.130 A 
ATOM      3  C   LIG d   1       3.178  -0.291  -3.489  0.00  0.00     0.022 A 
ATOM      4  C   LIG d   1       3.823  -1.505  -3.288  0.00  0.00     0.120 A 
ATOM      5  C   LIG d   1       4.394  -2.184  -4.356  0.00  0.00    -0.027 A 
ATOM      6  C   LIG d   1       4.320  -1.660  -5.634  0.00  0.00    -0.091 A 
ATOM      7  O   LIG d   1       4.872  -2.328  -6.677  0.00  0.00    -0.873 OA
ATOM      8  H   LIG d   1       2.738   0.230  -2.652  0.00  0.00     0.069 H 
ATOM      9  H   LIG d   1       4.894  -3.127  -4.190  0.00  0.00     0.065 H 
ENDROOT
BRANCH   1  10
ATOM     10  C   LIG d   1       3.595   0.137  -7.193  0.00  0.00     0.163 C 
ATOM     11  O   LIG d   1       4.394   0.981  -7.545  0.00  0.00    -0.292 OA
BRANCH  10  12
ATOM     12  C   LIG d   1       2.521  -0.326  -8.142  0.00  0.00    -0.001 C 
ATOM     13  H   LIG d   1       1.604  -0.523  -7.586  0.00  0.00     0.031 H 
ATOM     14  H   LIG d   1       2.335   0.449  -8.887  0.00  0.00     0.031 H 
ATOM     15  H   LIG d   1       2.846  -1.238  -8.642  0.00  0.00     0.031 H 
ENDBRANCH  10  12
ENDBRANCH   1  10
BRANCH   2  16
ATOM     16  O   LIG d   1       2.468   1.438  -4.952  0.00  0.00    -0.506 OA
ATOM     17  H   LIG d   1       1.618   1.362  -5.407  0.00  0.00     0.292 HD
ENDBRANCH   2  16
BRANCH   4  18
ATOM     18  O   LIG d   1       3.897  -2.030  -2.039  0.00  0.00    -0.507 OA
ATOM     19  H   LIG d   1       3.328  -1.589  -1.393  0.00  0.00     0.292 HD
ENDBRANCH   4  18
TORSDOF 4
ENDMDL
MODEL 8
REMARK VINA RESULT:      -4.2      7.983      9.668
REMARK  4 active torsions:
REMARK  status: ('A' for Active; 'I' for Inactive)
REMARK    1  A    between atoms: C_1  and  C_2 
REMARK    2  A    between atoms: C_2  and  C_4 
REMARK    3  A    between atoms: C_5  and  O_12 
REMARK    4  A    between atoms: C_7  and  O_11 
ROOT
ATOM      1  C   LIG d   1      10.896   6.184  -0.867  0.00  0.00     0.051 A 
ATOM      2  C   LIG d   1      10.679   5.101  -1.740  0.00  0.00     0.130 A 
ATOM      3  C   LIG d   1       9.943   5.286  -2.894  0.00  0.00     0.022 A 
ATOM      4  C   LIG d   1       9.417   6.537  -3.194  0.00  0.00     0.120 A 
ATOM      5  C   LIG d   1       9.626   7.612  -2.339  0.00  0.00    -0.027 A 
ATOM      6  C   LIG d   1      10.355   7.444  -1.176  0.00  0.00    -0.091 A 
ATOM      7  O   LIG d   1      10.551   8.494  -0.339  0.00  0.00    -0.873 OA
ATOM      8  H   LIG d   1       9.776   4.457  -3.565  0.00  0.00     0.069 H 
ATOM      9  H   LIG d   1       9.213   8.581  -2.581  0.00  0.00     0.065 H 
ENDROOT
BRANCH   1  10
ATOM     10  C   LIG d   1      11.673   5.997   0.357  0.00  0.00     0.163 C 
ATOM     11  O   LIG d   1      12.886   6.062   0.323  0.00  0.00    -0.292 OA
BRANCH  10  12
ATOM     12  C   LIG d   1      10.971   5.724   1.662  0.00  0.00    -0.001 C 
ATOM     13  H   LIG d   1      11.233   4.726   2.014  0.00  0.00     0.031 H 
ATOM     14  H   LIG d   1      11.278   6.463   2.402  0.00  0.00     0.031 H 
ATOM     15  H   LIG d   1       9.893   5.785   1.514  0.00  0.00     0.031 H 
ENDBRANCH  10  12
ENDBRANCH   1  10
BRANCH   2  16
ATOM     16  O   LIG d   1      11.192   3.879  -1.449  0.00  0.00    -0.506 OA
ATOM     17  H   LIG d   1      12.021   3.680  -1.906  0.00  0.00     0.292 HD
ENDBRANCH   2  16
BRANCH   4  18
ATOM     18  O   LIG d   1       8.695   6.710  -4.330  0.00  0.00    -0.507 OA
ATOM     19  H   LIG d   1       9.185   6.516  -5.141  0.00  0.00     0.292 HD
ENDBRANCH   4  18
TORSDOF 4
ENDMDL
MODEL 9
REMARK VINA RESULT:      -4.1      7.891      9.797
REMARK  4 active torsions:
REMARK  status: ('A' for Active; 'I' for Inactive)
REMARK    1  A    between atoms: C_1  and  C_2 
REMARK    2  A    between atoms: C_2  and  C_4 
REMARK    3  A    between atoms: C_5  and  O_12 
REMARK    4  A    between atoms: C_7  and  O_11 
ROOT
ATOM      1  C   LIG d   1       9.857   6.869  -1.443  0.00  0.00     0.051 A 
ATOM      2  C   LIG d   1       9.698   6.349  -2.741  0.00  0.00     0.130 A 
ATOM      3  C   LIG d   1      10.244   5.120  -3.060  0.00  0.00     0.022 A 
ATOM      4  C   LIG d   1      10.948   4.398  -2.102  0.00  0.00     0.120 A 
ATOM      5  C   LIG d   1      11.109   4.903  -0.819  0.00  0.00    -0.027 A 
ATOM      6  C   LIG d   1      10.576   6.134  -0.483  0.00  0.00    -0.091 A 
ATOM      7  O   LIG d   1      10.741   6.628   0.769  0.00  0.00    -0.873 OA
ATOM      8  H   LIG d   1      10.124   4.719  -4.055  0.00  0.00     0.069 H 
ATOM      9  H   LIG d   1      11.657   4.335  -0.081  0.00  0.00     0.065 H 
ENDROOT
BRANCH   1  10
ATOM     10  C   LIG d   1       9.283   8.168  -1.096  0.00  0.00     0.163 C 
ATOM     11  O   LIG d   1       8.118   8.249  -0.767  0.00  0.00    -0.292 OA
BRANCH  10  12
ATOM     12  C   LIG d   1      10.139   9.407  -1.149  0.00  0.00    -0.001 C 
ATOM     13  H   LIG d   1       9.869  10.071  -0.327  0.00  0.00     0.031 H 
ATOM     14  H   LIG d   1      11.189   9.127  -1.060  0.00  0.00     0.031 H 
ATOM     15  H   LIG d   1       9.980   9.920  -2.097  0.00  0.00     0.031 H 
ENDBRANCH  10  12
ENDBRANCH   1  10
BRANCH   2  16
ATOM     16  O   LIG d   1       9.012   7.051  -3.677  0.00  0.00    -0.506 OA
ATOM     17  H   LIG d   1       9.076   6.685  -4.570  0.00  0.00     0.292 HD
ENDBRANCH   2  16
BRANCH   4  18
ATOM     18  O   LIG d   1      11.480   3.193  -2.424  0.00  0.00    -0.507 OA
ATOM     19  H   LIG d   1      11.837   2.706  -1.668  0.00  0.00     0.292 HD
ENDBRANCH   4  18
TORSDOF 4
ENDMDL
MODEL 10
REMARK VINA RESULT:      -4.1      9.863     11.314
REMARK  4 active torsions:
REMARK  status: ('A' for Active; 'I' for Inactive)
REMARK    1  A    between atoms: C_1  and  C_2 
REMARK    2  A    between atoms: C_2  and  C_4 
REMARK    3  A    between atoms: C_5  and  O_12 
REMARK    4  A    between atoms: C_7  and  O_11 
ROOT
ATOM      1  C   LIG d   1      10.770   7.754   0.340  0.00  0.00     0.051 A 
ATOM      2  C   LIG d   1      11.378   8.812   1.041  0.00  0.00     0.130 A 
ATOM      3  C   LIG d   1      11.009  10.116   0.772  0.00  0.00     0.022 A 
ATOM      4  C   LIG d   1      10.040  10.384  -0.187  0.00  0.00     0.120 A 
ATOM      5  C   LIG d   1       9.434   9.347  -0.884  0.00  0.00    -0.027 A 
ATOM      6  C   LIG d   1       9.795   8.036  -0.634  0.00  0.00    -0.091 A 
ATOM      7  O   LIG d   1       9.207   7.026  -1.321  0.00  0.00    -0.873 OA
ATOM      8  H   LIG d   1      11.475  10.929   1.310  0.00  0.00     0.069 H 
ATOM      9  H   LIG d   1       8.682   9.566  -1.628  0.00  0.00     0.065 H 
ENDROOT
BRANCH   1  10
ATOM     10  C   LIG d   1      11.154   6.371   0.617  0.00  0.00     0.163 C 
ATOM     11  O   LIG d   1      10.696   5.795   1.582  0.00  0.00    -0.292 OA
BRANCH  10  12
ATOM     12  C   LIG d   1      12.120   5.660  -0.296  0.00  0.00    -0.001 C 
ATOM     13  H   LIG d   1      12.963   6.316  -0.515  0.00  0.00     0.031 H 
ATOM     14  H   LIG d   1      12.480   4.754   0.191  0.00  0.00     0.031 H 
ATOM     15  H   LIG d   1      11.615   5.396  -1.225  0.00  0.00     0.031 H 
ENDBRANCH  10  12
ENDBRANCH   1  10
BRANCH   2  16
ATOM     16  O   LIG d   1      12.325   8.552   1.979  0.00  0.00    -0.506 OA
ATOM     17  H   LIG d   1      12.283   7.657   2.343  0.00  0.00     0.292 HD
ENDBRANCH   2  16
BRANCH   4  18
ATOM     18  O   LIG d   1       9.684  11.668  -0.445  0.00  0.00    -0.507 OA
ATOM     19  H   LIG d   1       8.773  11.769  -0.753  0.00  0.00     0.292 HD
ENDBRANCH   4  18
TORSDOF 4
ENDMDL
