MODEL 1
REMARK VINA RESULT:      -7.0      0.000      0.000
REMARK  7 active torsions:
REMARK  status: ('A' for Active; 'I' for Inactive)
REMARK    1  A    between atoms: C_1  and  C_2 
REMARK    2  A    between atoms: C_2  and  C_4 
REMARK    3  A    between atoms: C_7  and  N_10 
REMARK       I    between atoms: N_10  and  C_11 
REMARK    4  A    between atoms: C_11  and  C_13 
REMARK    5  A    between atoms: C_13  and  O_14 
REMARK    6  A    between atoms: O_14  and  C_15 
REMARK       I    between atoms: N_25  and  C_28 
REMARK    7  A    between atoms: C_28  and  C_30 
ROOT
ATOM      1  C   LIG d   1       4.669  -0.989  -3.202  0.00  0.00     0.125 A 
ATOM      2  C   LIG d   1       5.949  -0.442  -3.243  0.00  0.00    -0.019 A 
ATOM      3  C   LIG d   1       6.997  -1.175  -3.720  0.00  0.00    -0.044 A 
ATOM      4  C   LIG d   1       6.781  -2.477  -4.181  0.00  0.00     0.059 A 
ATOM      5  C   LIG d   1       5.491  -3.037  -4.146  0.00  0.00     0.135 A 
ATOM      6  C   LIG d   1       4.440  -2.281  -3.653  0.00  0.00     0.022 A 
ATOM      7  O   LIG d   1       5.272  -4.299  -4.583  0.00  0.00    -0.484 OA
ATOM      8  C   LIG d   1       6.202  -4.878  -5.498  0.00  0.00     0.120 C 
ATOM      9  C   LIG d   1       6.135  -4.141  -6.836  0.00  0.00     0.003 C 
ATOM     10  C   LIG d   1       4.714  -4.241  -7.399  0.00  0.00     0.018 C 
ATOM     11  N   LIG d   1       4.331  -5.657  -7.471  0.00  0.00    -0.301 N 
ATOM     12  C   LIG d   1       4.442  -6.481  -6.258  0.00  0.00     0.018 C 
ATOM     13  C   LIG d   1       5.866  -6.356  -5.707  0.00  0.00     0.003 C 
ATOM     14  C   LIG d   1       3.887  -6.191  -8.626  0.00  0.00     0.212 C 
ATOM     15  O   LIG d   1       3.491  -7.337  -8.651  0.00  0.00    -0.276 OA
ATOM     16  C   LIG d   1       7.622  -4.758  -4.926  0.00  0.00     0.051 C 
ATOM     17  C   LIG d   1       7.894  -3.279  -4.712  0.00  0.00     0.170 C 
ATOM     18  O   LIG d   1       8.972  -2.785  -4.965  0.00  0.00    -0.292 OA
ATOM     19  H   LIG d   1       6.113   0.567  -2.890  0.00  0.00     0.065 H 
ATOM     20  H   LIG d   1       7.988  -0.749  -3.746  0.00  0.00     0.063 H 
ATOM     21  H   LIG d   1       3.443  -2.697  -3.622  0.00  0.00     0.069 H 
ATOM     22  H   LIG d   1       6.395  -3.093  -6.687  0.00  0.00     0.032 H 
ATOM     23  H   LIG d   1       6.836  -4.594  -7.537  0.00  0.00     0.032 H 
ATOM     24  H   LIG d   1       4.684  -3.804  -8.398  0.00  0.00     0.047 H 
ATOM     25  H   LIG d   1       4.023  -3.707  -6.745  0.00  0.00     0.047 H 
ATOM     26  H   LIG d   1       4.235  -7.522  -6.504  0.00  0.00     0.047 H 
ATOM     27  H   LIG d   1       3.730  -6.129  -5.512  0.00  0.00     0.047 H 
ATOM     28  H   LIG d   1       6.570  -6.792  -6.416  0.00  0.00     0.032 H 
ATOM     29  H   LIG d   1       5.934  -6.883  -4.756  0.00  0.00     0.032 H 
ATOM     30  H   LIG d   1       7.676  -5.259  -4.061  0.00  0.00     0.038 H 
ATOM     31  H   LIG d   1       8.343  -5.170  -5.631  0.00  0.00     0.038 H 
ENDROOT
BRANCH   1  32
ATOM     32  O   LIG d   1       3.636  -0.253  -2.721  0.00  0.00    -0.483 OA
BRANCH  32  33
ATOM     33  C   LIG d   1       3.243   0.889  -3.486  0.00  0.00     0.166 C 
ATOM     34  H   LIG d   1       4.080   1.585  -3.555  0.00  0.00     0.080 H 
ATOM     35  H   LIG d   1       2.401   1.380  -2.999  0.00  0.00     0.080 H 
BRANCH  33  36
ATOM     36  C   LIG d   1       2.839   0.452  -4.870  0.00  0.00     0.255 C 
ATOM     37  N   LIG d   1       3.728   0.508  -5.882  0.00  0.00    -0.283 N 
ATOM     38  H   LIG d   1       4.648   0.760  -5.706  0.00  0.00     0.155 HD
ATOM     39  O   LIG d   1       1.714   0.049  -5.074  0.00  0.00    -0.272 OA
BRANCH  37  40
ATOM     40  C   LIG d   1       3.324   0.207  -7.181  0.00  0.00     0.034 A 
ATOM     41  C   LIG d   1       2.899   1.226  -8.029  0.00  0.00    -0.040 A 
ATOM     42  C   LIG d   1       2.506   0.935  -9.310  0.00  0.00    -0.050 A 
ATOM     43  H   LIG d   1       2.883   2.247  -7.679  0.00  0.00     0.064 H 
ATOM     44  C   LIG d   1       2.523  -0.391  -9.761  0.00  0.00     0.017 A 
ATOM     45  H   LIG d   1       2.181   1.726  -9.969  0.00  0.00     0.062 H 
ATOM     46  C   LIG d   1       2.951  -1.412  -8.904  0.00  0.00    -0.050 A 
ATOM     47  C   LIG d   1       3.348  -1.112  -7.627  0.00  0.00    -0.040 A 
ATOM     48  H   LIG d   1       2.969  -2.436  -9.249  0.00  0.00     0.062 H 
ATOM     49  H   LIG d   1       3.677  -1.899  -6.965  0.00  0.00     0.064 H 
BRANCH  44  50
ATOM     50  C   LIG d   1       2.098  -0.709 -11.130  0.00  0.00     0.160 C 
ATOM     51  O   LIG d   1       0.921  -0.862 -11.381  0.00  0.00    -0.292 OA
BRANCH  50  52
ATOM     52  C   LIG d   1       3.124  -0.839 -12.227  0.00  0.00    -0.001 C 
ATOM     53  H   LIG d   1       3.698  -0.021 -12.245  0.00  0.00     0.031 H 
ATOM     54  H   LIG d   1       3.747  -1.714 -12.039  0.00  0.00     0.031 H 
ATOM     55  H   LIG d   1       2.619  -0.952 -13.185  0.00  0.00     0.031 H 
ENDBRANCH  50  52
ENDBRANCH  44  50
ENDBRANCH  37  40
ENDBRANCH  33  36
ENDBRANCH  32  33
ENDBRANCH   1  32
BRANCH  14  56
ATOM     56  C   LIG d   1       3.884  -5.365  -9.886  0.00  0.00     0.012 C 
ATOM     57  H   LIG d   1       4.874  -5.391 -10.341  0.00  0.00     0.032 H 
ATOM     58  H   LIG d   1       3.152  -5.770 -10.584  0.00  0.00     0.032 H 
ATOM     59  H   LIG d   1       3.623  -4.335  -9.643  0.00  0.00     0.032 H 
ENDBRANCH  14  56
TORSDOF 7
ENDMDL
MODEL 2
REMARK VINA RESULT:      -6.9      7.911     11.536
REMARK  7 active torsions:
REMARK  status: ('A' for Active; 'I' for Inactive)
REMARK    1  A    between atoms: C_1  and  C_2 
REMARK    2  A    between atoms: C_2  and  C_4 
REMARK    3  A    between atoms: C_7  and  N_10 
REMARK       I    between atoms: N_10  and  C_11 
REMARK    4  A    between atoms: C_11  and  C_13 
REMARK    5  A    between atoms: C_13  and  O_14 
REMARK    6  A    between atoms: O_14  and  C_15 
REMARK       I    between atoms: N_25  and  C_28 
REMARK    7  A    between atoms: C_28  and  C_30 
ROOT
ATOM      1  C   LIG d   1       9.859   4.519  -6.333  0.00  0.00     0.125 A 
ATOM      2  C   LIG d   1      10.000   5.352  -7.440  0.00  0.00    -0.019 A 
ATOM      3  C   LIG d   1      10.056   6.708  -7.281  0.00  0.00    -0.044 A 
ATOM      4  C   LIG d   1       9.984   7.259  -5.997  0.00  0.00     0.059 A 
ATOM      5  C   LIG d   1       9.845   6.425  -4.873  0.00  0.00     0.135 A 
ATOM      6  C   LIG d   1       9.784   5.052  -5.054  0.00  0.00     0.022 A 
ATOM      7  O   LIG d   1       9.768   6.948  -3.628  0.00  0.00    -0.484 OA
ATOM      8  C   LIG d   1      10.295   8.255  -3.400  0.00  0.00     0.120 C 
ATOM      9  C   LIG d   1      11.816   8.231  -3.561  0.00  0.00     0.003 C 
ATOM     10  C   LIG d   1      12.417   7.241  -2.559  0.00  0.00     0.018 C 
ATOM     11  N   LIG d   1      11.958   7.596  -1.210  0.00  0.00    -0.301 N 
ATOM     12  C   LIG d   1      10.515   7.732  -0.967  0.00  0.00     0.018 C 
ATOM     13  C   LIG d   1       9.934   8.717  -1.987  0.00  0.00     0.003 C 
ATOM     14  C   LIG d   1      12.844   7.795  -0.213  0.00  0.00     0.212 C 
ATOM     15  O   LIG d   1      12.450   8.000   0.916  0.00  0.00    -0.276 OA
ATOM     16  C   LIG d   1       9.694   9.232  -4.421  0.00  0.00     0.051 C 
ATOM     17  C   LIG d   1      10.056   8.715  -5.802  0.00  0.00     0.170 C 
ATOM     18  O   LIG d   1      10.388   9.463  -6.697  0.00  0.00    -0.292 OA
ATOM     19  H   LIG d   1      10.060   4.925  -8.431  0.00  0.00     0.065 H 
ATOM     20  H   LIG d   1      10.161   7.350  -8.141  0.00  0.00     0.063 H 
ATOM     21  H   LIG d   1       9.679   4.399  -4.200  0.00  0.00     0.069 H 
ATOM     22  H   LIG d   1      12.069   7.922  -4.575  0.00  0.00     0.032 H 
ATOM     23  H   LIG d   1      12.217   9.227  -3.374  0.00  0.00     0.032 H 
ATOM     24  H   LIG d   1      13.505   7.293  -2.600  0.00  0.00     0.047 H 
ATOM     25  H   LIG d   1      12.089   6.230  -2.803  0.00  0.00     0.047 H 
ATOM     26  H   LIG d   1      10.347   8.109   0.042  0.00  0.00     0.047 H 
ATOM     27  H   LIG d   1      10.032   6.761  -1.081  0.00  0.00     0.047 H 
ATOM     28  H   LIG d   1      10.350   9.709  -1.811  0.00  0.00     0.032 H 
ATOM     29  H   LIG d   1       8.850   8.751  -1.881  0.00  0.00     0.032 H 
ATOM     30  H   LIG d   1       8.701   9.267  -4.303  0.00  0.00     0.038 H 
ATOM     31  H   LIG d   1      10.114  10.227  -4.275  0.00  0.00     0.038 H 
ENDROOT
BRANCH   1  32
ATOM     32  O   LIG d   1       9.800   3.175  -6.505  0.00  0.00    -0.483 OA
BRANCH  32  33
ATOM     33  C   LIG d   1       9.923   2.366  -5.333  0.00  0.00     0.166 C 
ATOM     34  H   LIG d   1      10.249   2.986  -4.496  0.00  0.00     0.080 H 
ATOM     35  H   LIG d   1      10.656   1.580  -5.509  0.00  0.00     0.080 H 
BRANCH  33  36
ATOM     36  C   LIG d   1       8.589   1.746  -5.008  0.00  0.00     0.255 C 
ATOM     37  N   LIG d   1       8.394   1.151  -3.814  0.00  0.00    -0.283 N 
ATOM     38  H   LIG d   1       9.086   1.187  -3.136  0.00  0.00     0.155 HD
ATOM     39  O   LIG d   1       7.690   1.782  -5.822  0.00  0.00    -0.272 OA
BRANCH  37  40
ATOM     40  C   LIG d   1       7.198   0.485  -3.555  0.00  0.00     0.034 A 
ATOM     41  C   LIG d   1       6.102   1.193  -3.069  0.00  0.00    -0.040 A 
ATOM     42  C   LIG d   1       4.920   0.543  -2.818  0.00  0.00    -0.050 A 
ATOM     43  H   LIG d   1       6.180   2.256  -2.895  0.00  0.00     0.064 H 
ATOM     44  C   LIG d   1       4.822  -0.836  -3.039  0.00  0.00     0.017 A 
ATOM     45  H   LIG d   1       4.069   1.093  -2.445  0.00  0.00     0.062 H 
ATOM     46  C   LIG d   1       5.928  -1.543  -3.528  0.00  0.00    -0.050 A 
ATOM     47  C   LIG d   1       7.103  -0.884  -3.782  0.00  0.00    -0.040 A 
ATOM     48  H   LIG d   1       5.855  -2.607  -3.704  0.00  0.00     0.062 H 
ATOM     49  H   LIG d   1       7.956  -1.429  -4.158  0.00  0.00     0.064 H 
BRANCH  44  50
ATOM     50  C   LIG d   1       3.562  -1.537  -2.767  0.00  0.00     0.160 C 
ATOM     51  O   LIG d   1       3.578  -2.655  -2.293  0.00  0.00    -0.292 OA
BRANCH  50  52
ATOM     52  C   LIG d   1       2.245  -0.868  -3.069  0.00  0.00    -0.001 C 
ATOM     53  H   LIG d   1       2.398   0.104  -3.243  0.00  0.00     0.031 H 
ATOM     54  H   LIG d   1       1.798  -1.328  -3.950  0.00  0.00     0.031 H 
ATOM     55  H   LIG d   1       1.574  -0.985  -2.219  0.00  0.00     0.031 H 
ENDBRANCH  50  52
ENDBRANCH  44  50
ENDBRANCH  37  40
ENDBRANCH  33  36
ENDBRANCH  32  33
ENDBRANCH   1  32
BRANCH  14  56
ATOM     56  C   LIG d   1      14.322   7.762  -0.501  0.00  0.00     0.012 C 
ATOM     57  H   LIG d   1      14.830   7.180   0.267  0.00  0.00     0.032 H 
ATOM     58  H   LIG d   1      14.492   7.304  -1.476  0.00  0.00     0.032 H 
ATOM     59  H   LIG d   1      14.714   8.779  -0.505  0.00  0.00     0.032 H 
ENDBRANCH  14  56
TORSDOF 7
ENDMDL
MODEL 3
REMARK VINA RESULT:      -6.8      4.839      7.968
REMARK  7 active torsions:
REMARK  status: ('A' for Active; 'I' for Inactive)
REMARK    1  A    between atoms: C_1  and  C_2 
REMARK    2  A    between atoms: C_2  and  C_4 
REMARK    3  A    between atoms: C_7  and  N_10 
REMARK       I    between atoms: N_10  and  C_11 
REMARK    4  A    between atoms: C_11  and  C_13 
REMARK    5  A    between atoms: C_13  and  O_14 
REMARK    6  A    between atoms: O_14  and  C_15 
REMARK       I    between atoms: N_25  and  C_28 
REMARK    7  A    between atoms: C_28  and  C_30 
ROOT
ATOM      1  C   LIG d   1       4.876  -8.832  -4.736  0.00  0.00     0.125 A 
ATOM      2  C   LIG d   1       4.020  -9.466  -3.839  0.00  0.00    -0.019 A 
ATOM      3  C   LIG d   1       4.502 -10.404  -2.971  0.00  0.00    -0.044 A 
ATOM      4  C   LIG d   1       5.864 -10.719  -2.976  0.00  0.00     0.059 A 
ATOM      5  C   LIG d   1       6.737 -10.082  -3.877  0.00  0.00     0.135 A 
ATOM      6  C   LIG d   1       6.230  -9.136  -4.754  0.00  0.00     0.022 A 
ATOM      7  O   LIG d   1       8.055 -10.384  -3.894  0.00  0.00    -0.484 OA
ATOM      8  C   LIG d   1       8.642 -10.963  -2.728  0.00  0.00     0.120 C 
ATOM      9  C   LIG d   1       8.641  -9.940  -1.591  0.00  0.00     0.003 C 
ATOM     10  C   LIG d   1       9.437  -8.704  -2.020  0.00  0.00     0.018 C 
ATOM     11  N   LIG d   1      10.776  -9.128  -2.450  0.00  0.00    -0.301 N 
ATOM     12  C   LIG d   1      10.890 -10.172  -3.478  0.00  0.00     0.018 C 
ATOM     13  C   LIG d   1      10.077 -11.393  -3.033  0.00  0.00     0.003 C 
ATOM     14  C   LIG d   1      11.879  -8.572  -1.910  0.00  0.00     0.212 C 
ATOM     15  O   LIG d   1      12.977  -8.867  -2.335  0.00  0.00    -0.276 OA
ATOM     16  C   LIG d   1       7.825 -12.191  -2.303  0.00  0.00     0.051 C 
ATOM     17  C   LIG d   1       6.406 -11.716  -2.040  0.00  0.00     0.170 C 
ATOM     18  O   LIG d   1       5.755 -12.137  -1.108  0.00  0.00    -0.292 OA
ATOM     19  H   LIG d   1       2.968  -9.218  -3.833  0.00  0.00     0.065 H 
ATOM     20  H   LIG d   1       3.835 -10.896  -2.280  0.00  0.00     0.063 H 
ATOM     21  H   LIG d   1       6.888  -8.637  -5.450  0.00  0.00     0.069 H 
ATOM     22  H   LIG d   1       7.616  -9.651  -1.362  0.00  0.00     0.032 H 
ATOM     23  H   LIG d   1       9.101 -10.380  -0.706  0.00  0.00     0.032 H 
ATOM     24  H   LIG d   1       9.525  -8.015  -1.180  0.00  0.00     0.047 H 
ATOM     25  H   LIG d   1       8.927  -8.210  -2.847  0.00  0.00     0.047 H 
ATOM     26  H   LIG d   1      11.936 -10.454  -3.599  0.00  0.00     0.047 H 
ATOM     27  H   LIG d   1      10.498  -9.798  -4.423  0.00  0.00     0.047 H 
ATOM     28  H   LIG d   1      10.527 -11.822  -2.137  0.00  0.00     0.032 H 
ATOM     29  H   LIG d   1      10.073 -12.136  -3.830  0.00  0.00     0.032 H 
ATOM     30  H   LIG d   1       7.842 -12.872  -3.036  0.00  0.00     0.038 H 
ATOM     31  H   LIG d   1       8.246 -12.622  -1.396  0.00  0.00     0.038 H 
ENDROOT
BRANCH   1  32
ATOM     32  O   LIG d   1       4.385  -7.905  -5.596  0.00  0.00    -0.483 OA
BRANCH  32  33
ATOM     33  C   LIG d   1       5.288  -6.890  -6.039  0.00  0.00     0.166 C 
ATOM     34  H   LIG d   1       5.442  -6.985  -7.114  0.00  0.00     0.080 H 
ATOM     35  H   LIG d   1       6.242  -7.001  -5.524  0.00  0.00     0.080 H 
BRANCH  33  36
ATOM     36  C   LIG d   1       4.708  -5.533  -5.733  0.00  0.00     0.255 C 
ATOM     37  N   LIG d   1       5.524  -4.499  -5.449  0.00  0.00    -0.283 N 
ATOM     38  H   LIG d   1       6.485  -4.608  -5.513  0.00  0.00     0.155 HD
ATOM     39  O   LIG d   1       3.506  -5.372  -5.743  0.00  0.00    -0.272 OA
BRANCH  37  40
ATOM     40  C   LIG d   1       4.986  -3.273  -5.062  0.00  0.00     0.034 A 
ATOM     41  C   LIG d   1       4.606  -3.070  -3.738  0.00  0.00    -0.040 A 
ATOM     42  C   LIG d   1       4.081  -1.864  -3.351  0.00  0.00    -0.050 A 
ATOM     43  H   LIG d   1       4.729  -3.862  -3.014  0.00  0.00     0.064 H 
ATOM     44  C   LIG d   1       3.918  -0.840  -4.292  0.00  0.00     0.017 A 
ATOM     45  H   LIG d   1       3.791  -1.705  -2.323  0.00  0.00     0.062 H 
ATOM     46  C   LIG d   1       4.301  -1.049  -5.622  0.00  0.00    -0.050 A 
ATOM     47  C   LIG d   1       4.831  -2.256  -5.999  0.00  0.00    -0.040 A 
ATOM     48  H   LIG d   1       4.181  -0.260  -6.351  0.00  0.00     0.062 H 
ATOM     49  H   LIG d   1       5.126  -2.419  -7.025  0.00  0.00     0.064 H 
BRANCH  44  50
ATOM     50  C   LIG d   1       3.351   0.452  -3.884  0.00  0.00     0.160 C 
ATOM     51  O   LIG d   1       2.755   1.135  -4.690  0.00  0.00    -0.292 OA
BRANCH  50  52
ATOM     52  C   LIG d   1       3.505   0.927  -2.461  0.00  0.00    -0.001 C 
ATOM     53  H   LIG d   1       4.410   1.335  -2.342  0.00  0.00     0.031 H 
ATOM     54  H   LIG d   1       2.740   1.672  -2.243  0.00  0.00     0.031 H 
ATOM     55  H   LIG d   1       3.393   0.083  -1.782  0.00  0.00     0.031 H 
ENDBRANCH  50  52
ENDBRANCH  44  50
ENDBRANCH  37  40
ENDBRANCH  33  36
ENDBRANCH  32  33
ENDBRANCH   1  32
BRANCH  14  56
ATOM     56  C   LIG d   1      11.749  -7.585  -0.780  0.00  0.00     0.012 C 
ATOM     57  H   LIG d   1      11.592  -6.586  -1.185  0.00  0.00     0.032 H 
ATOM     58  H   LIG d   1      10.901  -7.860  -0.153  0.00  0.00     0.032 H 
ATOM     59  H   LIG d   1      12.661  -7.596  -0.182  0.00  0.00     0.032 H 
ENDBRANCH  14  56
TORSDOF 7
ENDMDL
MODEL 4
REMARK VINA RESULT:      -6.7      7.751     10.697
REMARK  7 active torsions:
REMARK  status: ('A' for Active; 'I' for Inactive)
REMARK    1  A    between atoms: C_1  and  C_2 
REMARK    2  A    between atoms: C_2  and  C_4 
REMARK    3  A    between atoms: C_7  and  N_10 
REMARK       I    between atoms: N_10  and  C_11 
REMARK    4  A    between atoms: C_11  and  C_13 
REMARK    5  A    between atoms: C_13  and  O_14 
REMARK    6  A    between atoms: O_14  and  C_15 
REMARK       I    between atoms: N_25  and  C_28 
REMARK    7  A    between atoms: C_28  and  C_30 
ROOT
ATOM      1  C   LIG d   1      10.243   4.657  -4.893  0.00  0.00     0.125 A 
ATOM      2  C   LIG d   1       9.505   5.569  -4.142  0.00  0.00    -0.019 A 
ATOM      3  C   LIG d   1       9.402   6.870  -4.545  0.00  0.00    -0.044 A 
ATOM      4  C   LIG d   1      10.029   7.283  -5.725  0.00  0.00     0.059 A 
ATOM      5  C   LIG d   1      10.774   6.367  -6.490  0.00  0.00     0.135 A 
ATOM      6  C   LIG d   1      10.873   5.053  -6.063  0.00  0.00     0.022 A 
ATOM      7  O   LIG d   1      11.391   6.758  -7.629  0.00  0.00    -0.484 OA
ATOM      8  C   LIG d   1      10.915   7.924  -8.302  0.00  0.00     0.120 C 
ATOM      9  C   LIG d   1       9.516   7.660  -8.860  0.00  0.00     0.003 C 
ATOM     10  C   LIG d   1       9.572   6.480  -9.834  0.00  0.00     0.018 C 
ATOM     11  N   LIG d   1      10.588   6.759 -10.858  0.00  0.00    -0.301 N 
ATOM     12  C   LIG d   1      11.948   7.111 -10.426  0.00  0.00     0.018 C 
ATOM     13  C   LIG d   1      11.866   8.284  -9.444  0.00  0.00     0.003 C 
ATOM     14  C   LIG d   1      10.279   6.695 -12.168  0.00  0.00     0.212 C 
ATOM     15  O   LIG d   1      11.145   6.841 -13.004  0.00  0.00    -0.276 OA
ATOM     16  C   LIG d   1      10.850   9.094  -7.309  0.00  0.00     0.051 C 
ATOM     17  C   LIG d   1       9.919   8.675  -6.184  0.00  0.00     0.170 C 
ATOM     18  O   LIG d   1       9.125   9.449  -5.691  0.00  0.00    -0.292 OA
ATOM     19  H   LIG d   1       9.017   5.247  -3.233  0.00  0.00     0.065 H 
ATOM     20  H   LIG d   1       8.833   7.575  -3.959  0.00  0.00     0.063 H 
ATOM     21  H   LIG d   1      11.440   4.338  -6.642  0.00  0.00     0.069 H 
ATOM     22  H   LIG d   1       8.836   7.425  -8.041  0.00  0.00     0.032 H 
ATOM     23  H   LIG d   1       9.160   8.547  -9.384  0.00  0.00     0.032 H 
ATOM     24  H   LIG d   1       8.600   6.351 -10.310  0.00  0.00     0.047 H 
ATOM     25  H   LIG d   1       9.838   5.572  -9.292  0.00  0.00     0.047 H 
ATOM     26  H   LIG d   1      12.544   7.399 -11.292  0.00  0.00     0.047 H 
ATOM     27  H   LIG d   1      12.407   6.254  -9.933  0.00  0.00     0.047 H 
ATOM     28  H   LIG d   1      11.492   9.167  -9.964  0.00  0.00     0.032 H 
ATOM     29  H   LIG d   1      12.857   8.491  -9.041  0.00  0.00     0.032 H 
ATOM     30  H   LIG d   1      11.768   9.284  -6.958  0.00  0.00     0.038 H 
ATOM     31  H   LIG d   1      10.458   9.981  -7.805  0.00  0.00     0.038 H 
ENDROOT
BRANCH   1  32
ATOM     32  O   LIG d   1      10.342   3.368  -4.480  0.00  0.00    -0.483 OA
BRANCH  32  33
ATOM     33  C   LIG d   1      10.013   2.355  -5.432  0.00  0.00     0.166 C 
ATOM     34  H   LIG d   1      10.774   1.575  -5.411  0.00  0.00     0.080 H 
ATOM     35  H   LIG d   1       9.969   2.793  -6.429  0.00  0.00     0.080 H 
BRANCH  33  36
ATOM     36  C   LIG d   1       8.673   1.758  -5.086  0.00  0.00     0.255 C 
ATOM     37  N   LIG d   1       8.504   1.111  -3.915  0.00  0.00    -0.283 N 
ATOM     38  H   LIG d   1       9.222   1.094  -3.263  0.00  0.00     0.155 HD
ATOM     39  O   LIG d   1       7.746   1.859  -5.862  0.00  0.00    -0.272 OA
BRANCH  37  40
ATOM     40  C   LIG d   1       7.299   0.468  -3.643  0.00  0.00     0.034 A 
ATOM     41  C   LIG d   1       6.219   1.197  -3.153  0.00  0.00    -0.040 A 
ATOM     42  C   LIG d   1       5.029   0.569  -2.888  0.00  0.00    -0.050 A 
ATOM     43  H   LIG d   1       6.317   2.260  -2.986  0.00  0.00     0.064 H 
ATOM     44  C   LIG d   1       4.905  -0.809  -3.100  0.00  0.00     0.017 A 
ATOM     45  H   LIG d   1       4.190   1.137  -2.513  0.00  0.00     0.062 H 
ATOM     46  C   LIG d   1       5.995  -1.539  -3.592  0.00  0.00    -0.050 A 
ATOM     47  C   LIG d   1       7.179  -0.902  -3.860  0.00  0.00    -0.040 A 
ATOM     48  H   LIG d   1       5.903  -2.602  -3.761  0.00  0.00     0.062 H 
ATOM     49  H   LIG d   1       8.020  -1.463  -4.238  0.00  0.00     0.064 H 
BRANCH  44  50
ATOM     50  C   LIG d   1       3.635  -1.487  -2.813  0.00  0.00     0.160 C 
ATOM     51  O   LIG d   1       3.636  -2.595  -2.319  0.00  0.00    -0.292 OA
BRANCH  50  52
ATOM     52  C   LIG d   1       2.328  -0.804  -3.127  0.00  0.00    -0.001 C 
ATOM     53  H   LIG d   1       2.508   0.076  -3.564  0.00  0.00     0.031 H 
ATOM     54  H   LIG d   1       1.744  -1.431  -3.801  0.00  0.00     0.031 H 
ATOM     55  H   LIG d   1       1.770  -0.646  -2.205  0.00  0.00     0.031 H 
ENDBRANCH  50  52
ENDBRANCH  44  50
ENDBRANCH  37  40
ENDBRANCH  33  36
ENDBRANCH  32  33
ENDBRANCH   1  32
BRANCH  14  56
ATOM     56  C   LIG d   1       8.856   6.444 -12.594  0.00  0.00     0.012 C 
ATOM     57  H   LIG d   1       8.683   5.370 -12.670  0.00  0.00     0.032 H 
ATOM     58  H   LIG d   1       8.174   6.870 -11.858  0.00  0.00     0.032 H 
ATOM     59  H   LIG d   1       8.680   6.910 -13.564  0.00  0.00     0.032 H 
ENDBRANCH  14  56
TORSDOF 7
ENDMDL
MODEL 5
REMARK VINA RESULT:      -6.7      7.373     10.481
REMARK  7 active torsions:
REMARK  status: ('A' for Active; 'I' for Inactive)
REMARK    1  A    between atoms: C_1  and  C_2 
REMARK    2  A    between atoms: C_2  and  C_4 
REMARK    3  A    between atoms: C_7  and  N_10 
REMARK       I    between atoms: N_10  and  C_11 
REMARK    4  A    between atoms: C_11  and  C_13 
REMARK    5  A    between atoms: C_13  and  O_14 
REMARK    6  A    between atoms: O_14  and  C_15 
REMARK       I    between atoms: N_25  and  C_28 
REMARK    7  A    between atoms: C_28  and  C_30 
ROOT
ATOM      1  C   LIG d   1       9.341   3.202  -4.231  0.00  0.00     0.125 A 
ATOM      2  C   LIG d   1       9.433   3.479  -5.593  0.00  0.00    -0.019 A 
ATOM      3  C   LIG d   1       9.027   2.555  -6.514  0.00  0.00    -0.044 A 
ATOM      4  C   LIG d   1       8.506   1.330  -6.085  0.00  0.00     0.059 A 
ATOM      5  C   LIG d   1       8.408   1.043  -4.711  0.00  0.00     0.135 A 
ATOM      6  C   LIG d   1       8.829   1.990  -3.791  0.00  0.00     0.022 A 
ATOM      7  O   LIG d   1       7.912  -0.142  -4.286  0.00  0.00    -0.484 OA
ATOM      8  C   LIG d   1       7.065  -0.885  -5.162  0.00  0.00     0.120 C 
ATOM      9  C   LIG d   1       5.752  -0.131  -5.370  0.00  0.00     0.003 C 
ATOM     10  C   LIG d   1       5.061   0.067  -4.018  0.00  0.00     0.018 C 
ATOM     11  N   LIG d   1       4.909  -1.241  -3.367  0.00  0.00    -0.301 N 
ATOM     12  C   LIG d   1       6.099  -2.087  -3.196  0.00  0.00     0.018 C 
ATOM     13  C   LIG d   1       6.780  -2.261  -4.558  0.00  0.00     0.003 C 
ATOM     14  C   LIG d   1       3.703  -1.658  -2.936  0.00  0.00     0.212 C 
ATOM     15  O   LIG d   1       3.605  -2.700  -2.322  0.00  0.00    -0.276 OA
ATOM     16  C   LIG d   1       7.766  -1.063  -6.517  0.00  0.00     0.051 C 
ATOM     17  C   LIG d   1       8.051   0.327  -7.059  0.00  0.00     0.170 C 
ATOM     18  O   LIG d   1       7.911   0.595  -8.234  0.00  0.00    -0.292 OA
ATOM     19  H   LIG d   1       9.831   4.428  -5.923  0.00  0.00     0.065 H 
ATOM     20  H   LIG d   1       9.103   2.772  -7.568  0.00  0.00     0.063 H 
ATOM     21  H   LIG d   1       8.758   1.784  -2.733  0.00  0.00     0.069 H 
ATOM     22  H   LIG d   1       5.957   0.840  -5.820  0.00  0.00     0.032 H 
ATOM     23  H   LIG d   1       5.102  -0.707  -6.029  0.00  0.00     0.032 H 
ATOM     24  H   LIG d   1       4.078   0.515  -4.171  0.00  0.00     0.047 H 
ATOM     25  H   LIG d   1       5.667   0.721  -3.390  0.00  0.00     0.047 H 
ATOM     26  H   LIG d   1       5.803  -3.061  -2.808  0.00  0.00     0.047 H 
ATOM     27  H   LIG d   1       6.790  -1.609  -2.502  0.00  0.00     0.047 H 
ATOM     28  H   LIG d   1       6.122  -2.821  -5.224  0.00  0.00     0.032 H 
ATOM     29  H   LIG d   1       7.716  -2.804  -4.429  0.00  0.00     0.032 H 
ATOM     30  H   LIG d   1       8.615  -1.576  -6.388  0.00  0.00     0.038 H 
ATOM     31  H   LIG d   1       7.115  -1.603  -7.204  0.00  0.00     0.038 H 
ENDROOT
BRANCH   1  32
ATOM     32  O   LIG d   1       9.751   4.125  -3.327  0.00  0.00    -0.483 OA
BRANCH  32  33
ATOM     33  C   LIG d   1      10.826   3.753  -2.462  0.00  0.00     0.166 C 
ATOM     34  H   LIG d   1      11.672   3.412  -3.060  0.00  0.00     0.080 H 
ATOM     35  H   LIG d   1      10.501   2.949  -1.803  0.00  0.00     0.080 H 
BRANCH  33  36
ATOM     36  C   LIG d   1      11.243   4.943  -1.637  0.00  0.00     0.255 C 
ATOM     37  N   LIG d   1      10.328   5.608  -0.902  0.00  0.00    -0.283 N 
ATOM     38  H   LIG d   1       9.418   5.277  -0.845  0.00  0.00     0.155 HD
ATOM     39  O   LIG d   1      12.400   5.303  -1.634  0.00  0.00    -0.272 OA
BRANCH  37  40
ATOM     40  C   LIG d   1      10.690   6.770  -0.225  0.00  0.00     0.034 A 
ATOM     41  C   LIG d   1      11.101   6.698   1.104  0.00  0.00    -0.040 A 
ATOM     42  C   LIG d   1      11.464   7.839   1.774  0.00  0.00    -0.050 A 
ATOM     43  H   LIG d   1      11.138   5.743   1.606  0.00  0.00     0.064 H 
ATOM     44  C   LIG d   1      11.410   9.077   1.123  0.00  0.00     0.017 A 
ATOM     45  H   LIG d   1      11.787   7.782   2.803  0.00  0.00     0.062 H 
ATOM     46  C   LIG d   1      10.996   9.144  -0.213  0.00  0.00    -0.050 A 
ATOM     47  C   LIG d   1      10.641   7.998  -0.877  0.00  0.00    -0.040 A 
ATOM     48  H   LIG d   1      10.957  10.097  -0.721  0.00  0.00     0.062 H 
ATOM     49  H   LIG d   1      10.320   8.049  -1.907  0.00  0.00     0.064 H 
BRANCH  44  50
ATOM     50  C   LIG d   1      11.792  10.301   1.837  0.00  0.00     0.160 C 
ATOM     51  O   LIG d   1      11.496  11.387   1.383  0.00  0.00    -0.292 OA
BRANCH  50  52
ATOM     52  C   LIG d   1      12.549  10.211   3.138  0.00  0.00    -0.001 C 
ATOM     53  H   LIG d   1      13.399  10.731   3.066  0.00  0.00     0.031 H 
ATOM     54  H   LIG d   1      11.938  10.623   3.941  0.00  0.00     0.031 H 
ATOM     55  H   LIG d   1      12.777   9.167   3.354  0.00  0.00     0.031 H 
ENDBRANCH  50  52
ENDBRANCH  44  50
ENDBRANCH  37  40
ENDBRANCH  33  36
ENDBRANCH  32  33
ENDBRANCH   1  32
BRANCH  14  56
ATOM     56  C   LIG d   1       2.475  -0.831  -3.217  0.00  0.00     0.012 C 
ATOM     57  H   LIG d   1       1.598  -1.330  -2.805  0.00  0.00     0.032 H 
ATOM     58  H   LIG d   1       2.585   0.151  -2.756  0.00  0.00     0.032 H 
ATOM     59  H   LIG d   1       2.355  -0.715  -4.294  0.00  0.00     0.032 H 
ENDBRANCH  14  56
TORSDOF 7
ENDMDL
MODEL 6
REMARK VINA RESULT:      -6.7      4.420      7.791
REMARK  7 active torsions:
REMARK  status: ('A' for Active; 'I' for Inactive)
REMARK    1  A    between atoms: C_1  and  C_2 
REMARK    2  A    between atoms: C_2  and  C_4 
REMARK    3  A    between atoms: C_7  and  N_10 
REMARK       I    between atoms: N_10  and  C_11 
REMARK    4  A    between atoms: C_11  and  C_13 
REMARK    5  A    between atoms: C_13  and  O_14 
REMARK    6  A    between atoms: O_14  and  C_15 
REMARK       I    between atoms: N_25  and  C_28 
REMARK    7  A    between atoms: C_28  and  C_30 
ROOT
ATOM      1  C   LIG d   1       6.717  -6.969  -6.580  0.00  0.00     0.125 A 
ATOM      2  C   LIG d   1       5.373  -6.737  -6.295  0.00  0.00    -0.019 A 
ATOM      3  C   LIG d   1       4.668  -7.622  -5.530  0.00  0.00    -0.044 A 
ATOM      4  C   LIG d   1       5.303  -8.759  -5.020  0.00  0.00     0.059 A 
ATOM      5  C   LIG d   1       6.660  -9.000  -5.301  0.00  0.00     0.135 A 
ATOM      6  C   LIG d   1       7.359  -8.095  -6.083  0.00  0.00     0.022 A 
ATOM      7  O   LIG d   1       7.282 -10.100  -4.818  0.00  0.00    -0.484 OA
ATOM      8  C   LIG d   1       6.737 -10.748  -3.669  0.00  0.00     0.120 C 
ATOM      9  C   LIG d   1       6.875  -9.835  -2.450  0.00  0.00     0.003 C 
ATOM     10  C   LIG d   1       8.356  -9.518  -2.220  0.00  0.00     0.018 C 
ATOM     11  N   LIG d   1       9.100 -10.780  -2.116  0.00  0.00    -0.301 N 
ATOM     12  C   LIG d   1       8.967 -11.769  -3.196  0.00  0.00     0.018 C 
ATOM     13  C   LIG d   1       7.479 -12.061  -3.417  0.00  0.00     0.003 C 
ATOM     14  C   LIG d   1       9.888 -11.028  -1.052  0.00  0.00     0.212 C 
ATOM     15  O   LIG d   1      10.565 -12.034  -1.019  0.00  0.00    -0.276 OA
ATOM     16  C   LIG d   1       5.249 -11.046  -3.911  0.00  0.00     0.051 C 
ATOM     17  C   LIG d   1       4.566  -9.717  -4.183  0.00  0.00     0.170 C 
ATOM     18  O   LIG d   1       3.469  -9.460  -3.733  0.00  0.00    -0.292 OA
ATOM     19  H   LIG d   1       4.885  -5.856  -6.685  0.00  0.00     0.065 H 
ATOM     20  H   LIG d   1       3.626  -7.441  -5.315  0.00  0.00     0.063 H 
ATOM     21  H   LIG d   1       8.402  -8.265  -6.305  0.00  0.00     0.069 H 
ATOM     22  H   LIG d   1       6.327  -8.909  -2.625  0.00  0.00     0.032 H 
ATOM     23  H   LIG d   1       6.470 -10.337  -1.572  0.00  0.00     0.032 H 
ATOM     24  H   LIG d   1       8.469  -8.951  -1.295  0.00  0.00     0.047 H 
ATOM     25  H   LIG d   1       8.739  -8.935  -3.057  0.00  0.00     0.047 H 
ATOM     26  H   LIG d   1       9.483 -12.687  -2.917  0.00  0.00     0.047 H 
ATOM     27  H   LIG d   1       9.400 -11.369  -4.113  0.00  0.00     0.047 H 
ATOM     28  H   LIG d   1       7.069 -12.547  -2.531  0.00  0.00     0.032 H 
ATOM     29  H   LIG d   1       7.362 -12.717  -4.279  0.00  0.00     0.032 H 
ATOM     30  H   LIG d   1       5.156 -11.662  -4.694  0.00  0.00     0.038 H 
ATOM     31  H   LIG d   1       4.816 -11.513  -3.027  0.00  0.00     0.038 H 
ENDROOT
BRANCH   1  32
ATOM     32  O   LIG d   1       7.406  -6.086  -7.344  0.00  0.00    -0.483 OA
BRANCH  32  33
ATOM     33  C   LIG d   1       8.290  -5.193  -6.664  0.00  0.00     0.166 C 
ATOM     34  H   LIG d   1       9.012  -4.787  -7.374  0.00  0.00     0.080 H 
ATOM     35  H   LIG d   1       8.818  -5.732  -5.878  0.00  0.00     0.080 H 
BRANCH  33  36
ATOM     36  C   LIG d   1       7.496  -4.066  -6.056  0.00  0.00     0.255 C 
ATOM     37  N   LIG d   1       7.309  -4.017  -4.721  0.00  0.00    -0.283 N 
ATOM     38  H   LIG d   1       7.746  -4.664  -4.146  0.00  0.00     0.155 HD
ATOM     39  O   LIG d   1       7.026  -3.203  -6.766  0.00  0.00    -0.272 OA
BRANCH  37  40
ATOM     40  C   LIG d   1       6.487  -3.037  -4.169  0.00  0.00     0.034 A 
ATOM     41  C   LIG d   1       7.052  -1.898  -3.602  0.00  0.00    -0.040 A 
ATOM     42  C   LIG d   1       6.247  -0.927  -3.062  0.00  0.00    -0.050 A 
ATOM     43  H   LIG d   1       8.125  -1.776  -3.591  0.00  0.00     0.064 H 
ATOM     44  C   LIG d   1       4.856  -1.089  -3.072  0.00  0.00     0.017 A 
ATOM     45  H   LIG d   1       6.686  -0.042  -2.626  0.00  0.00     0.062 H 
ATOM     46  C   LIG d   1       4.293  -2.237  -3.644  0.00  0.00    -0.050 A 
ATOM     47  C   LIG d   1       5.105  -3.199  -4.187  0.00  0.00    -0.040 A 
ATOM     48  H   LIG d   1       3.220  -2.364  -3.658  0.00  0.00     0.062 H 
ATOM     49  H   LIG d   1       4.672  -4.085  -4.627  0.00  0.00     0.064 H 
BRANCH  44  50
ATOM     50  C   LIG d   1       3.990  -0.056  -2.491  0.00  0.00     0.160 C 
ATOM     51  O   LIG d   1       2.793  -0.085  -2.687  0.00  0.00    -0.292 OA
BRANCH  50  52
ATOM     52  C   LIG d   1       4.587   1.040  -1.645  0.00  0.00    -0.001 C 
ATOM     53  H   LIG d   1       4.677   0.721  -0.701  0.00  0.00     0.031 H 
ATOM     54  H   LIG d   1       5.571   1.303  -2.033  0.00  0.00     0.031 H 
ATOM     55  H   LIG d   1       3.940   1.915  -1.674  0.00  0.00     0.031 H 
ENDBRANCH  50  52
ENDBRANCH  44  50
ENDBRANCH  37  40
ENDBRANCH  33  36
ENDBRANCH  32  33
ENDBRANCH   1  32
BRANCH  14  56
ATOM     56  C   LIG d   1       9.928 -10.056   0.099  0.00  0.00     0.012 C 
ATOM     57  H   LIG d   1       9.998  -9.039  -0.286  0.00  0.00     0.032 H 
ATOM     58  H   LIG d   1       9.019 -10.158   0.692  0.00  0.00     0.032 H 
ATOM     59  H   LIG d   1      10.795 -10.269   0.724  0.00  0.00     0.032 H 
ENDBRANCH  14  56
TORSDOF 7
ENDMDL
MODEL 7
REMARK VINA RESULT:      -6.7      4.467      7.371
REMARK  7 active torsions:
REMARK  status: ('A' for Active; 'I' for Inactive)
REMARK    1  A    between atoms: C_1  and  C_2 
REMARK    2  A    between atoms: C_2  and  C_4 
REMARK    3  A    between atoms: C_7  and  N_10 
REMARK       I    between atoms: N_10  and  C_11 
REMARK    4  A    between atoms: C_11  and  C_13 
REMARK    5  A    between atoms: C_13  and  O_14 
REMARK    6  A    between atoms: O_14  and  C_15 
REMARK       I    between atoms: N_25  and  C_28 
REMARK    7  A    between atoms: C_28  and  C_30 
ROOT
ATOM      1  C   LIG d   1       8.860  -7.200  -4.419  0.00  0.00     0.125 A 
ATOM      2  C   LIG d   1       9.623  -7.513  -3.296  0.00  0.00    -0.019 A 
ATOM      3  C   LIG d   1       9.173  -8.433  -2.392  0.00  0.00    -0.044 A 
ATOM      4  C   LIG d   1       7.947  -9.072  -2.603  0.00  0.00     0.059 A 
ATOM      5  C   LIG d   1       7.172  -8.764  -3.736  0.00  0.00     0.135 A 
ATOM      6  C   LIG d   1       7.641  -7.825  -4.640  0.00  0.00     0.022 A 
ATOM      7  O   LIG d   1       5.982  -9.372  -3.947  0.00  0.00    -0.484 OA
ATOM      8  C   LIG d   1       5.733 -10.629  -3.318  0.00  0.00     0.120 C 
ATOM      9  C   LIG d   1       6.658 -11.693  -3.910  0.00  0.00     0.003 C 
ATOM     10  C   LIG d   1       6.407 -11.802  -5.417  0.00  0.00     0.018 C 
ATOM     11  N   LIG d   1       4.977 -12.053  -5.641  0.00  0.00    -0.301 N 
ATOM     12  C   LIG d   1       3.996 -11.138  -5.040  0.00  0.00     0.018 C 
ATOM     13  C   LIG d   1       4.275 -11.035  -3.537  0.00  0.00     0.003 C 
ATOM     14  C   LIG d   1       4.571 -13.103  -6.383  0.00  0.00     0.212 C 
ATOM     15  O   LIG d   1       3.394 -13.250  -6.634  0.00  0.00    -0.276 OA
ATOM     16  C   LIG d   1       6.003 -10.506  -1.811  0.00  0.00     0.051 C 
ATOM     17  C   LIG d   1       7.451 -10.076  -1.650  0.00  0.00     0.170 C 
ATOM     18  O   LIG d   1       8.161 -10.536  -0.780  0.00  0.00    -0.292 OA
ATOM     19  H   LIG d   1      10.572  -7.022  -3.136  0.00  0.00     0.065 H 
ATOM     20  H   LIG d   1       9.764  -8.670  -1.521  0.00  0.00     0.063 H 
ATOM     21  H   LIG d   1       7.058  -7.580  -5.516  0.00  0.00     0.069 H 
ATOM     22  H   LIG d   1       7.696 -11.411  -3.733  0.00  0.00     0.032 H 
ATOM     23  H   LIG d   1       6.457 -12.654  -3.437  0.00  0.00     0.032 H 
ATOM     24  H   LIG d   1       6.991 -12.627  -5.827  0.00  0.00     0.047 H 
ATOM     25  H   LIG d   1       6.696 -10.871  -5.904  0.00  0.00     0.047 H 
ATOM     26  H   LIG d   1       2.990 -11.524  -5.200  0.00  0.00     0.047 H 
ATOM     27  H   LIG d   1       4.089 -10.152  -5.497  0.00  0.00     0.047 H 
ATOM     28  H   LIG d   1       4.091 -12.001  -3.066  0.00  0.00     0.032 H 
ATOM     29  H   LIG d   1       3.618 -10.285  -3.097  0.00  0.00     0.032 H 
ATOM     30  H   LIG d   1       5.384  -9.827  -1.416  0.00  0.00     0.038 H 
ATOM     31  H   LIG d   1       5.846 -11.469  -1.326  0.00  0.00     0.038 H 
ENDROOT
BRANCH   1  32
ATOM     32  O   LIG d   1       9.315  -6.282  -5.308  0.00  0.00    -0.483 OA
BRANCH  32  33
ATOM     33  C   LIG d   1       9.886  -5.088  -4.770  0.00  0.00     0.166 C 
ATOM     34  H   LIG d   1      10.356  -4.516  -5.571  0.00  0.00     0.080 H 
ATOM     35  H   LIG d   1      10.635  -5.347  -4.022  0.00  0.00     0.080 H 
BRANCH  33  36
ATOM     36  C   LIG d   1       8.803  -4.257  -4.130  0.00  0.00     0.255 C 
ATOM     37  N   LIG d   1       7.803  -3.758  -4.883  0.00  0.00    -0.283 N 
ATOM     38  H   LIG d   1       7.738  -3.993  -5.821  0.00  0.00     0.155 HD
ATOM     39  O   LIG d   1       8.832  -4.039  -2.938  0.00  0.00    -0.272 OA
BRANCH  37  40
ATOM     40  C   LIG d   1       6.862  -2.903  -4.312  0.00  0.00     0.034 A 
ATOM     41  C   LIG d   1       5.518  -3.267  -4.289  0.00  0.00    -0.040 A 
ATOM     42  C   LIG d   1       4.589  -2.432  -3.724  0.00  0.00    -0.050 A 
ATOM     43  H   LIG d   1       5.208  -4.211  -4.713  0.00  0.00     0.064 H 
ATOM     44  C   LIG d   1       4.992  -1.207  -3.180  0.00  0.00     0.017 A 
ATOM     45  H   LIG d   1       3.548  -2.718  -3.702  0.00  0.00     0.062 H 
ATOM     46  C   LIG d   1       6.345  -0.845  -3.206  0.00  0.00    -0.050 A 
ATOM     47  C   LIG d   1       7.268  -1.688  -3.767  0.00  0.00    -0.040 A 
ATOM     48  H   LIG d   1       6.661   0.098  -2.783  0.00  0.00     0.062 H 
ATOM     49  H   LIG d   1       8.311  -1.409  -3.789  0.00  0.00     0.064 H 
BRANCH  44  50
ATOM     50  C   LIG d   1       4.001  -0.307  -2.578  0.00  0.00     0.160 C 
ATOM     51  O   LIG d   1       2.817  -0.495  -2.764  0.00  0.00    -0.292 OA
BRANCH  50  52
ATOM     52  C   LIG d   1       4.453   0.850  -1.723  0.00  0.00    -0.001 C 
ATOM     53  H   LIG d   1       4.778   1.591  -2.309  0.00  0.00     0.031 H 
ATOM     54  H   LIG d   1       3.616   1.205  -1.121  0.00  0.00     0.031 H 
ATOM     55  H   LIG d   1       5.259   0.523  -1.066  0.00  0.00     0.031 H 
ENDBRANCH  50  52
ENDBRANCH  44  50
ENDBRANCH  37  40
ENDBRANCH  33  36
ENDBRANCH  32  33
ENDBRANCH   1  32
BRANCH  14  56
ATOM     56  C   LIG d   1       5.581 -14.095  -6.899  0.00  0.00     0.012 C 
ATOM     57  H   LIG d   1       5.423 -14.254  -7.965  0.00  0.00     0.032 H 
ATOM     58  H   LIG d   1       6.587 -13.709  -6.734  0.00  0.00     0.032 H 
ATOM     59  H   LIG d   1       5.464 -15.041  -6.369  0.00  0.00     0.032 H 
ENDBRANCH  14  56
TORSDOF 7
ENDMDL
MODEL 8
REMARK VINA RESULT:      -6.6      3.742      7.752
REMARK  7 active torsions:
REMARK  status: ('A' for Active; 'I' for Inactive)
REMARK    1  A    between atoms: C_1  and  C_2 
REMARK    2  A    between atoms: C_2  and  C_4 
REMARK    3  A    between atoms: C_7  and  N_10 
REMARK       I    between atoms: N_10  and  C_11 
REMARK    4  A    between atoms: C_11  and  C_13 
REMARK    5  A    between atoms: C_13  and  O_14 
REMARK    6  A    between atoms: O_14  and  C_15 
REMARK       I    between atoms: N_25  and  C_28 
REMARK    7  A    between atoms: C_28  and  C_30 
ROOT
ATOM      1  C   LIG d   1       1.617  -1.379 -10.771  0.00  0.00     0.125 A 
ATOM      2  C   LIG d   1       2.004  -1.150 -12.090  0.00  0.00    -0.019 A 
ATOM      3  C   LIG d   1       2.099  -2.190 -12.970  0.00  0.00    -0.044 A 
ATOM      4  C   LIG d   1       1.793  -3.488 -12.548  0.00  0.00     0.059 A 
ATOM      5  C   LIG d   1       1.399  -3.727 -11.220  0.00  0.00     0.135 A 
ATOM      6  C   LIG d   1       1.313  -2.661 -10.338  0.00  0.00     0.022 A 
ATOM      7  O   LIG d   1       1.107  -4.980 -10.799  0.00  0.00    -0.484 OA
ATOM      8  C   LIG d   1       0.735  -5.959 -11.768  0.00  0.00     0.120 C 
ATOM      9  C   LIG d   1      -0.615  -5.588 -12.383  0.00  0.00     0.003 C 
ATOM     10  C   LIG d   1      -1.673  -5.516 -11.278  0.00  0.00     0.018 C 
ATOM     11  N   LIG d   1      -1.674  -6.786 -10.541  0.00  0.00    -0.301 N 
ATOM     12  C   LIG d   1      -0.408  -7.280  -9.983  0.00  0.00     0.018 C 
ATOM     13  C   LIG d   1       0.638  -7.332 -11.102  0.00  0.00     0.003 C 
ATOM     14  C   LIG d   1      -2.815  -7.486 -10.380  0.00  0.00     0.212 C 
ATOM     15  O   LIG d   1      -2.821  -8.487  -9.696  0.00  0.00    -0.276 OA
ATOM     16  C   LIG d   1       1.798  -6.008 -12.876  0.00  0.00     0.051 C 
ATOM     17  C   LIG d   1       1.875  -4.619 -13.484  0.00  0.00     0.170 C 
ATOM     18  O   LIG d   1       1.999  -4.451 -14.679  0.00  0.00    -0.292 OA
ATOM     19  H   LIG d   1       2.236  -0.146 -12.416  0.00  0.00     0.065 H 
ATOM     20  H   LIG d   1       2.403  -2.010 -13.990  0.00  0.00     0.063 H 
ATOM     21  H   LIG d   1       1.009  -2.830  -9.315  0.00  0.00     0.069 H 
ATOM     22  H   LIG d   1      -0.536  -4.618 -12.876  0.00  0.00     0.032 H 
ATOM     23  H   LIG d   1      -0.902  -6.344 -13.114  0.00  0.00     0.032 H 
ATOM     24  H   LIG d   1      -2.655  -5.350 -11.722  0.00  0.00     0.047 H 
ATOM     25  H   LIG d   1      -1.435  -4.698 -10.598  0.00  0.00     0.047 H 
ATOM     26  H   LIG d   1      -0.554  -8.279  -9.572  0.00  0.00     0.047 H 
ATOM     27  H   LIG d   1      -0.067  -6.606  -9.197  0.00  0.00     0.047 H 
ATOM     28  H   LIG d   1       0.341  -8.076 -11.842  0.00  0.00     0.032 H 
ATOM     29  H   LIG d   1       1.606  -7.603 -10.682  0.00  0.00     0.032 H 
ATOM     30  H   LIG d   1       2.679  -6.274 -12.481  0.00  0.00     0.038 H 
ATOM     31  H   LIG d   1       1.508  -6.732 -13.637  0.00  0.00     0.038 H 
ENDROOT
BRANCH   1  32
ATOM     32  O   LIG d   1       1.530  -0.339  -9.905  0.00  0.00    -0.483 OA
BRANCH  32  33
ATOM     33  C   LIG d   1       2.670   0.516  -9.804  0.00  0.00     0.166 C 
ATOM     34  H   LIG d   1       2.386   1.534 -10.072  0.00  0.00     0.080 H 
ATOM     35  H   LIG d   1       3.449   0.167 -10.481  0.00  0.00     0.080 H 
BRANCH  33  36
ATOM     36  C   LIG d   1       3.189   0.497  -8.389  0.00  0.00     0.255 C 
ATOM     37  N   LIG d   1       2.781  -0.462  -7.533  0.00  0.00    -0.283 N 
ATOM     38  H   LIG d   1       2.211  -1.181  -7.848  0.00  0.00     0.155 HD
ATOM     39  O   LIG d   1       3.975   1.344  -8.020  0.00  0.00    -0.272 OA
BRANCH  37  40
ATOM     40  C   LIG d   1       3.176  -0.418  -6.199  0.00  0.00     0.034 A 
ATOM     41  C   LIG d   1       4.307  -1.118  -5.787  0.00  0.00    -0.040 A 
ATOM     42  C   LIG d   1       4.704  -1.074  -4.475  0.00  0.00    -0.050 A 
ATOM     43  H   LIG d   1       4.876  -1.693  -6.504  0.00  0.00     0.064 H 
ATOM     44  C   LIG d   1       3.963  -0.332  -3.547  0.00  0.00     0.017 A 
ATOM     45  H   LIG d   1       5.584  -1.613  -4.158  0.00  0.00     0.062 H 
ATOM     46  C   LIG d   1       2.826   0.370  -3.966  0.00  0.00    -0.050 A 
ATOM     47  C   LIG d   1       2.440   0.325  -5.280  0.00  0.00    -0.040 A 
ATOM     48  H   LIG d   1       2.254   0.947  -3.254  0.00  0.00     0.062 H 
ATOM     49  H   LIG d   1       1.563   0.865  -5.604  0.00  0.00     0.064 H 
BRANCH  44  50
ATOM     50  C   LIG d   1       4.380  -0.286  -2.141  0.00  0.00     0.160 C 
ATOM     51  O   LIG d   1       4.472  -1.312  -1.500  0.00  0.00    -0.292 OA
BRANCH  50  52
ATOM     52  C   LIG d   1       4.701   1.037  -1.492  0.00  0.00    -0.001 C 
ATOM     53  H   LIG d   1       5.337   0.892  -0.735  0.00  0.00     0.031 H 
ATOM     54  H   LIG d   1       5.157   1.700  -2.227  0.00  0.00     0.031 H 
ATOM     55  H   LIG d   1       3.784   1.489  -1.116  0.00  0.00     0.031 H 
ENDBRANCH  50  52
ENDBRANCH  44  50
ENDBRANCH  37  40
ENDBRANCH  33  36
ENDBRANCH  32  33
ENDBRANCH   1  32
BRANCH  14  56
ATOM     56  C   LIG d   1      -4.082  -7.025 -11.052  0.00  0.00     0.012 C 
ATOM     57  H   LIG d   1      -4.216  -5.957 -10.883  0.00  0.00     0.032 H 
ATOM     58  H   LIG d   1      -4.018  -7.218 -12.123  0.00  0.00     0.032 H 
ATOM     59  H   LIG d   1      -4.932  -7.568 -10.636  0.00  0.00     0.032 H 
ENDBRANCH  14  56
TORSDOF 7
ENDMDL
MODEL 9
REMARK VINA RESULT:      -6.5      8.668     12.268
REMARK  7 active torsions:
REMARK  status: ('A' for Active; 'I' for Inactive)
REMARK    1  A    between atoms: C_1  and  C_2 
REMARK    2  A    between atoms: C_2  and  C_4 
REMARK    3  A    between atoms: C_7  and  N_10 
REMARK       I    between atoms: N_10  and  C_11 
REMARK    4  A    between atoms: C_11  and  C_13 
REMARK    5  A    between atoms: C_13  and  O_14 
REMARK    6  A    between atoms: O_14  and  C_15 
REMARK       I    between atoms: N_25  and  C_28 
REMARK    7  A    between atoms: C_28  and  C_30 
ROOT
ATOM      1  C   LIG d   1      10.138   5.014  -4.007  0.00  0.00     0.125 A 
ATOM      2  C   LIG d   1       9.985   4.470  -2.734  0.00  0.00    -0.019 A 
ATOM      3  C   LIG d   1      10.421   5.154  -1.635  0.00  0.00    -0.044 A 
ATOM      4  C   LIG d   1      11.011   6.412  -1.789  0.00  0.00     0.059 A 
ATOM      5  C   LIG d   1      11.168   6.970  -3.071  0.00  0.00     0.135 A 
ATOM      6  C   LIG d   1      10.725   6.260  -4.175  0.00  0.00     0.022 A 
ATOM      7  O   LIG d   1      11.744   8.183  -3.232  0.00  0.00    -0.484 OA
ATOM      8  C   LIG d   1      11.755   9.089  -2.129  0.00  0.00     0.120 C 
ATOM      9  C   LIG d   1      10.326   9.537  -1.816  0.00  0.00     0.003 C 
ATOM     10  C   LIG d   1       9.728  10.220  -3.049  0.00  0.00     0.018 C 
ATOM     11  N   LIG d   1      10.622  11.307  -3.469  0.00  0.00    -0.301 N 
ATOM     12  C   LIG d   1      12.040  11.001  -3.711  0.00  0.00     0.018 C 
ATOM     13  C   LIG d   1      12.613  10.308  -2.471  0.00  0.00     0.003 C 
ATOM     14  C   LIG d   1      10.154  12.560  -3.629  0.00  0.00     0.212 C 
ATOM     15  O   LIG d   1      10.881  13.430  -4.060  0.00  0.00    -0.276 OA
ATOM     16  C   LIG d   1      12.344   8.385  -0.898  0.00  0.00     0.051 C 
ATOM     17  C   LIG d   1      11.474   7.171  -0.618  0.00  0.00     0.170 C 
ATOM     18  O   LIG d   1      11.178   6.845   0.512  0.00  0.00    -0.292 OA
ATOM     19  H   LIG d   1       9.524   3.499  -2.616  0.00  0.00     0.065 H 
ATOM     20  H   LIG d   1      10.304   4.727  -0.651  0.00  0.00     0.063 H 
ATOM     21  H   LIG d   1      10.836   6.677  -5.166  0.00  0.00     0.069 H 
ATOM     22  H   LIG d   1       9.722   8.669  -1.552  0.00  0.00     0.032 H 
ATOM     23  H   LIG d   1      10.339  10.238  -0.982  0.00  0.00     0.032 H 
ATOM     24  H   LIG d   1       8.748  10.629  -2.802  0.00  0.00     0.047 H 
ATOM     25  H   LIG d   1       9.629   9.495  -3.857  0.00  0.00     0.047 H 
ATOM     26  H   LIG d   1      12.586  11.925  -3.900  0.00  0.00     0.047 H 
ATOM     27  H   LIG d   1      12.129  10.339  -4.573  0.00  0.00     0.047 H 
ATOM     28  H   LIG d   1      12.609  11.004  -1.631  0.00  0.00     0.032 H 
ATOM     29  H   LIG d   1      13.635   9.988  -2.673  0.00  0.00     0.032 H 
ATOM     30  H   LIG d   1      13.287   8.110  -1.090  0.00  0.00     0.038 H 
ATOM     31  H   LIG d   1      12.328   9.058  -0.041  0.00  0.00     0.038 H 
ENDROOT
BRANCH   1  32
ATOM     32  O   LIG d   1       9.706   4.323  -5.091  0.00  0.00    -0.483 OA
BRANCH  32  33
ATOM     33  C   LIG d   1       9.961   2.917  -5.108  0.00  0.00     0.166 C 
ATOM     34  H   LIG d   1      10.665   2.666  -4.314  0.00  0.00     0.080 H 
ATOM     35  H   LIG d   1      10.384   2.636  -6.071  0.00  0.00     0.080 H 
BRANCH  33  36
ATOM     36  C   LIG d   1       8.671   2.170  -4.888  0.00  0.00     0.255 C 
ATOM     37  N   LIG d   1       8.463   1.507  -3.733  0.00  0.00    -0.283 N 
ATOM     38  H   LIG d   1       9.111   1.571  -3.014  0.00  0.00     0.155 HD
ATOM     39  O   LIG d   1       7.818   2.166  -5.751  0.00  0.00    -0.272 OA
BRANCH  37  40
ATOM     40  C   LIG d   1       7.319   0.730  -3.572  0.00  0.00     0.034 A 
ATOM     41  C   LIG d   1       6.154   1.306  -3.072  0.00  0.00    -0.040 A 
ATOM     42  C   LIG d   1       5.023   0.546  -2.917  0.00  0.00    -0.050 A 
ATOM     43  H   LIG d   1       6.140   2.354  -2.810  0.00  0.00     0.064 H 
ATOM     44  C   LIG d   1       5.044  -0.813  -3.252  0.00  0.00     0.017 A 
ATOM     45  H   LIG d   1       4.118   0.995  -2.533  0.00  0.00     0.062 H 
ATOM     46  C   LIG d   1       6.218  -1.388  -3.754  0.00  0.00    -0.050 A 
ATOM     47  C   LIG d   1       7.342  -0.620  -3.912  0.00  0.00    -0.040 A 
ATOM     48  H   LIG d   1       6.238  -2.436  -4.018  0.00  0.00     0.062 H 
ATOM     49  H   LIG d   1       8.249  -1.063  -4.298  0.00  0.00     0.064 H 
BRANCH  44  50
ATOM     50  C   LIG d   1       3.838  -1.632  -3.083  0.00  0.00     0.160 C 
ATOM     51  O   LIG d   1       3.934  -2.832  -2.933  0.00  0.00    -0.292 OA
BRANCH  50  52
ATOM     52  C   LIG d   1       2.477  -0.981  -3.089  0.00  0.00    -0.001 C 
ATOM     53  H   LIG d   1       2.578   0.003  -2.952  0.00  0.00     0.031 H 
ATOM     54  H   LIG d   1       1.991  -1.166  -4.047  0.00  0.00     0.031 H 
ATOM     55  H   LIG d   1       1.870  -1.401  -2.288  0.00  0.00     0.031 H 
ENDBRANCH  50  52
ENDBRANCH  44  50
ENDBRANCH  37  40
ENDBRANCH  33  36
ENDBRANCH  32  33
ENDBRANCH   1  32
BRANCH  14  56
ATOM     56  C   LIG d   1       8.726  12.882  -3.271  0.00  0.00     0.012 C 
ATOM     57  H   LIG d   1       8.228  11.980  -2.916  0.00  0.00     0.032 H 
ATOM     58  H   LIG d   1       8.709  13.638  -2.486  0.00  0.00     0.032 H 
ATOM     59  H   LIG d   1       8.207  13.260  -4.152  0.00  0.00     0.032 H 
ENDBRANCH  14  56
TORSDOF 7
ENDMDL
