MODEL 1
REMARK VINA RESULT:      -6.4      0.000      0.000
REMARK  7 active torsions:
REMARK  status: ('A' for Active; 'I' for Inactive)
REMARK    1  A    between atoms: C_1  and  O_2 
REMARK    2  A    between atoms: O_2  and  C_3 
REMARK    3  A    between atoms: C_9  and  C_13 
REMARK    4  A    between atoms: C_13  and  C_14 
REMARK    5  A    between atoms: C_14  and  N_15 
REMARK       I    between atoms: N_15  and  C_16 
REMARK    6  A    between atoms: C_16  and  C_18 
REMARK    7  A    between atoms: C_18  and  N_19 
ROOT
ATOM      1  C   LIG d   1       2.858  -0.324  -3.315  0.00  0.00     0.016 C 
ATOM      2  H   LIG d   1       1.854  -0.291  -2.868  0.00  0.00     0.046 H 
ATOM      3  H   LIG d   1       3.341   0.659  -3.207  0.00  0.00     0.046 H 
ENDROOT
BRANCH   1   4
ATOM      4  C   LIG d   1       3.699  -1.385  -2.604  0.00  0.00    -0.010 C 
ATOM      5  H   LIG d   1       3.294  -2.384  -2.827  0.00  0.00     0.033 H 
ATOM      6  H   LIG d   1       3.667  -1.212  -1.518  0.00  0.00     0.033 H 
BRANCH   4   7
ATOM      7  C   LIG d   1       5.124  -1.302  -3.085  0.00  0.00    -0.021 A 
ATOM      8  C   LIG d   1       5.815  -2.273  -3.936  0.00  0.00     0.006 A 
ATOM      9  C   LIG d   1       7.117  -1.775  -4.119  0.00  0.00     0.047 A 
ATOM     10  C   LIG d   1       5.439  -3.479  -4.532  0.00  0.00    -0.011 A 
ATOM     11  C   LIG d   1       8.023  -2.491  -4.895  0.00  0.00    -0.034 A 
ATOM     12  N   LIG d   1       7.198  -0.587  -3.424  0.00  0.00    -0.360 N 
ATOM     13  C   LIG d   1       7.641  -3.679  -5.477  0.00  0.00    -0.018 A 
ATOM     14  H   LIG d   1       9.026  -2.118  -5.037  0.00  0.00     0.064 H 
ATOM     15  C   LIG d   1       6.352  -4.176  -5.298  0.00  0.00     0.121 A 
ATOM     16  H   LIG d   1       8.348  -4.231  -6.079  0.00  0.00     0.066 H 
ATOM     17  C   LIG d   1       6.002  -0.323  -2.815  0.00  0.00     0.006 A 
ATOM     18  H   LIG d   1       8.137  -0.013  -3.423  0.00  0.00     0.165 HD
ATOM     19  H   LIG d   1       5.794   0.546  -2.208  0.00  0.00     0.081 H 
ATOM     20  H   LIG d   1       4.440  -3.866  -4.394  0.00  0.00     0.066 H 
BRANCH  15  21
ATOM     21  O   LIG d   1       5.992  -5.350  -5.881  0.00  0.00    -0.495 OA
BRANCH  21  22
ATOM     22  C   LIG d   1       4.667  -5.821  -5.625  0.00  0.00     0.079 C 
ATOM     23  H   LIG d   1       4.621  -6.905  -5.805  0.00  0.00     0.066 H 
ATOM     24  H   LIG d   1       3.960  -5.308  -6.293  0.00  0.00     0.066 H 
ATOM     25  H   LIG d   1       4.399  -5.611  -4.578  0.00  0.00     0.066 H 
ENDBRANCH  21  22
ENDBRANCH  15  21
ENDBRANCH   4   7
ENDBRANCH   1   4
BRANCH   1  26
ATOM     26  N   LIG d   1       2.749  -0.661  -4.737  0.00  0.00    -0.314 N 
ATOM     27  C   LIG d   1       2.668   0.321  -5.658  0.00  0.00     0.233 C 
ATOM     28  O   LIG d   1       2.685   1.482  -5.309  0.00  0.00    -0.274 OA
ATOM     29  H   LIG d   1       2.734  -1.714  -5.054  0.00  0.00     0.149 HD
BRANCH  27  30
ATOM     30  C   LIG d   1       2.555  -0.025  -7.120  0.00  0.00     0.100 C 
ATOM     31  H   LIG d   1       2.795  -1.089  -7.264  0.00  0.00     0.059 H 
ATOM     32  H   LIG d   1       1.529   0.170  -7.465  0.00  0.00     0.059 H 
BRANCH  30  33
ATOM     33  N   LIG d   1       3.493   0.796  -7.890  0.00  0.00    -0.338 N 
ATOM     34  C   LIG d   1       4.851   0.578  -7.974  0.00  0.00     0.050 A 
ATOM     35  C   LIG d   1       5.381   1.582  -8.804  0.00  0.00     0.001 A 
ATOM     36  C   LIG d   1       5.701  -0.377  -7.427  0.00  0.00    -0.037 A 
ATOM     37  C   LIG d   1       4.245   2.414  -9.209  0.00  0.00    -0.036 A 
ATOM     38  C   LIG d   1       6.751   1.613  -9.072  0.00  0.00    -0.039 A 
ATOM     39  C   LIG d   1       3.151   1.890  -8.637  0.00  0.00     0.006 A 
ATOM     40  H   LIG d   1       4.282   3.282  -9.852  0.00  0.00     0.064 H 
ATOM     41  H   LIG d   1       2.148   2.275  -8.747  0.00  0.00     0.081 H 
ATOM     42  C   LIG d   1       7.575   0.657  -8.521  0.00  0.00     0.019 A 
ATOM     43  H   LIG d   1       7.162   2.382  -9.709  0.00  0.00     0.064 H 
ATOM     44  C   LIG d   1       7.051  -0.333  -7.701  0.00  0.00    -0.046 A 
ATOM     45 BR   LIG d   1       9.431   0.695  -8.881  0.00  0.00    -0.050 Br
ATOM     46  H   LIG d   1       7.708  -1.077  -7.274  0.00  0.00     0.063 H 
ATOM     47  H   LIG d   1       5.305  -1.152  -6.788  0.00  0.00     0.064 H 
ENDBRANCH  30  33
ENDBRANCH  27  30
ENDBRANCH   1  26
TORSDOF 7
ENDMDL
MODEL 2
REMARK VINA RESULT:      -6.4      1.821      3.029
REMARK  7 active torsions:
REMARK  status: ('A' for Active; 'I' for Inactive)
REMARK    1  A    between atoms: C_1  and  O_2 
REMARK    2  A    between atoms: O_2  and  C_3 
REMARK    3  A    between atoms: C_9  and  C_13 
REMARK    4  A    between atoms: C_13  and  C_14 
REMARK    5  A    between atoms: C_14  and  N_15 
REMARK       I    between atoms: N_15  and  C_16 
REMARK    6  A    between atoms: C_16  and  C_18 
REMARK    7  A    between atoms: C_18  and  N_19 
ROOT
ATOM      1  C   LIG d   1       3.087  -0.459  -3.402  0.00  0.00     0.016 C 
ATOM      2  H   LIG d   1       2.110  -0.336  -2.913  0.00  0.00     0.046 H 
ATOM      3  H   LIG d   1       3.678   0.460  -3.279  0.00  0.00     0.046 H 
ENDROOT
BRANCH   1   4
ATOM      4  C   LIG d   1       3.832  -1.634  -2.766  0.00  0.00    -0.010 C 
ATOM      5  H   LIG d   1       3.178  -2.518  -2.750  0.00  0.00     0.033 H 
ATOM      6  H   LIG d   1       4.120  -1.372  -1.737  0.00  0.00     0.033 H 
BRANCH   4   7
ATOM      7  C   LIG d   1       5.069  -1.939  -3.571  0.00  0.00    -0.021 A 
ATOM      8  C   LIG d   1       6.192  -1.033  -3.822  0.00  0.00     0.006 A 
ATOM      9  C   LIG d   1       7.103  -1.751  -4.615  0.00  0.00     0.047 A 
ATOM     10  C   LIG d   1       6.478   0.282  -3.445  0.00  0.00    -0.011 A 
ATOM     11  C   LIG d   1       8.288  -1.144  -5.019  0.00  0.00    -0.034 A 
ATOM     12  N   LIG d   1       6.562  -3.001  -4.824  0.00  0.00    -0.360 N 
ATOM     13  C   LIG d   1       8.560   0.153  -4.643  0.00  0.00    -0.018 A 
ATOM     14  H   LIG d   1       8.992  -1.687  -5.632  0.00  0.00     0.064 H 
ATOM     15  C   LIG d   1       7.659   0.867  -3.858  0.00  0.00     0.121 A 
ATOM     16  H   LIG d   1       9.481   0.620  -4.960  0.00  0.00     0.066 H 
ATOM     17  C   LIG d   1       5.351  -3.094  -4.195  0.00  0.00     0.006 A 
ATOM     18  H   LIG d   1       7.107  -3.744  -5.426  0.00  0.00     0.165 HD
ATOM     19  H   LIG d   1       4.715  -3.968  -4.199  0.00  0.00     0.081 H 
ATOM     20  H   LIG d   1       5.780   0.838  -2.837  0.00  0.00     0.066 H 
BRANCH  15  21
ATOM     21  O   LIG d   1       7.943   2.147  -3.495  0.00  0.00    -0.495 OA
BRANCH  21  22
ATOM     22  C   LIG d   1       9.316   2.541  -3.531  0.00  0.00     0.079 C 
ATOM     23  H   LIG d   1       9.428   3.524  -3.049  0.00  0.00     0.066 H 
ATOM     24  H   LIG d   1       9.652   2.605  -4.576  0.00  0.00     0.066 H 
ATOM     25  H   LIG d   1       9.925   1.798  -2.994  0.00  0.00     0.066 H 
ENDBRANCH  21  22
ENDBRANCH  15  21
ENDBRANCH   4   7
ENDBRANCH   1   4
BRANCH   1  26
ATOM     26  N   LIG d   1       2.889  -0.724  -4.830  0.00  0.00    -0.314 N 
ATOM     27  C   LIG d   1       2.715   0.301  -5.688  0.00  0.00     0.233 C 
ATOM     28  O   LIG d   1       2.723   1.443  -5.278  0.00  0.00    -0.274 OA
ATOM     29  H   LIG d   1       2.882  -1.760  -5.202  0.00  0.00     0.149 HD
BRANCH  27  30
ATOM     30  C   LIG d   1       2.511   0.029  -7.156  0.00  0.00     0.100 C 
ATOM     31  H   LIG d   1       2.768  -1.017  -7.374  0.00  0.00     0.059 H 
ATOM     32  H   LIG d   1       1.458   0.211  -7.419  0.00  0.00     0.059 H 
BRANCH  30  33
ATOM     33  N   LIG d   1       3.370   0.918  -7.942  0.00  0.00    -0.338 N 
ATOM     34  C   LIG d   1       4.726   0.753  -8.119  0.00  0.00     0.050 A 
ATOM     35  C   LIG d   1       5.170   1.813  -8.932  0.00  0.00     0.001 A 
ATOM     36  C   LIG d   1       5.640  -0.194  -7.671  0.00  0.00    -0.037 A 
ATOM     37  C   LIG d   1       3.984   2.620  -9.226  0.00  0.00    -0.036 A 
ATOM     38  C   LIG d   1       6.518   1.905  -9.281  0.00  0.00    -0.039 A 
ATOM     39  C   LIG d   1       2.945   2.032  -8.613  0.00  0.00     0.006 A 
ATOM     40  H   LIG d   1       3.951   3.518  -9.827  0.00  0.00     0.064 H 
ATOM     41  H   LIG d   1       1.925   2.385  -8.643  0.00  0.00     0.081 H 
ATOM     42  C   LIG d   1       7.406   0.955  -8.828  0.00  0.00     0.019 A 
ATOM     43  H   LIG d   1       6.862   2.717  -9.905  0.00  0.00     0.064 H 
ATOM     44  C   LIG d   1       6.968  -0.090  -8.026  0.00  0.00    -0.046 A 
ATOM     45 BR   LIG d   1       9.234   1.076  -9.300  0.00  0.00    -0.050 Br
ATOM     46  H   LIG d   1       7.675  -0.828  -7.676  0.00  0.00     0.063 H 
ATOM     47  H   LIG d   1       5.311  -1.012  -7.047  0.00  0.00     0.064 H 
ENDBRANCH  30  33
ENDBRANCH  27  30
ENDBRANCH   1  26
TORSDOF 7
ENDMDL
MODEL 3
REMARK VINA RESULT:      -6.3      2.970      6.736
REMARK  7 active torsions:
REMARK  status: ('A' for Active; 'I' for Inactive)
REMARK    1  A    between atoms: C_1  and  O_2 
REMARK    2  A    between atoms: O_2  and  C_3 
REMARK    3  A    between atoms: C_9  and  C_13 
REMARK    4  A    between atoms: C_13  and  C_14 
REMARK    5  A    between atoms: C_14  and  N_15 
REMARK       I    between atoms: N_15  and  C_16 
REMARK    6  A    between atoms: C_16  and  C_18 
REMARK    7  A    between atoms: C_18  and  N_19 
ROOT
ATOM      1  C   LIG d   1       3.432  -4.455  -8.608  0.00  0.00     0.016 C 
ATOM      2  H   LIG d   1       2.581  -4.025  -8.061  0.00  0.00     0.046 H 
ATOM      3  H   LIG d   1       3.165  -5.459  -8.970  0.00  0.00     0.046 H 
ENDROOT
BRANCH   1   4
ATOM      4  C   LIG d   1       3.780  -3.559  -9.798  0.00  0.00    -0.010 C 
ATOM      5  H   LIG d   1       3.586  -4.102 -10.735  0.00  0.00     0.033 H 
ATOM      6  H   LIG d   1       4.843  -3.280  -9.749  0.00  0.00     0.033 H 
BRANCH   4   7
ATOM      7  C   LIG d   1       2.931  -2.315  -9.754  0.00  0.00    -0.021 A 
ATOM      8  C   LIG d   1       3.363  -0.980  -9.333  0.00  0.00     0.006 A 
ATOM      9  C   LIG d   1       2.238  -0.148  -9.460  0.00  0.00     0.047 A 
ATOM     10  C   LIG d   1       4.574  -0.452  -8.878  0.00  0.00    -0.011 A 
ATOM     11  C   LIG d   1       2.339   1.200  -9.130  0.00  0.00    -0.034 A 
ATOM     12  N   LIG d   1       1.203  -0.933  -9.925  0.00  0.00    -0.360 N 
ATOM     13  C   LIG d   1       3.537   1.709  -8.681  0.00  0.00    -0.018 A 
ATOM     14  H   LIG d   1       1.478   1.845  -9.221  0.00  0.00     0.064 H 
ATOM     15  C   LIG d   1       4.654   0.888  -8.554  0.00  0.00     0.121 A 
ATOM     16  H   LIG d   1       3.611   2.756  -8.426  0.00  0.00     0.066 H 
ATOM     17  C   LIG d   1       1.636  -2.219 -10.094  0.00  0.00     0.006 A 
ATOM     18  H   LIG d   1       0.211  -0.489 -10.101  0.00  0.00     0.165 HD
ATOM     19  H   LIG d   1       1.026  -3.037 -10.448  0.00  0.00     0.081 H 
ATOM     20  H   LIG d   1       5.441  -1.088  -8.778  0.00  0.00     0.066 H 
BRANCH  15  21
ATOM     21  O   LIG d   1       5.830   1.407  -8.110  0.00  0.00    -0.495 OA
BRANCH  21  22
ATOM     22  C   LIG d   1       6.971   0.546  -8.139  0.00  0.00     0.079 C 
ATOM     23  H   LIG d   1       7.570   0.700  -7.228  0.00  0.00     0.066 H 
ATOM     24  H   LIG d   1       7.582   0.777  -9.023  0.00  0.00     0.066 H 
ATOM     25  H   LIG d   1       6.639  -0.502  -8.187  0.00  0.00     0.066 H 
ENDBRANCH  21  22
ENDBRANCH  15  21
ENDBRANCH   4   7
ENDBRANCH   1   4
BRANCH   1  26
ATOM     26  N   LIG d   1       4.589  -4.550  -7.714  0.00  0.00    -0.314 N 
ATOM     27  C   LIG d   1       4.430  -4.994  -6.451  0.00  0.00     0.233 C 
ATOM     28  O   LIG d   1       3.330  -5.314  -6.054  0.00  0.00    -0.274 OA
ATOM     29  H   LIG d   1       5.588  -4.261  -8.074  0.00  0.00     0.149 HD
BRANCH  27  30
ATOM     30  C   LIG d   1       5.620  -5.091  -5.531  0.00  0.00     0.100 C 
ATOM     31  H   LIG d   1       5.314  -5.556  -4.583  0.00  0.00     0.059 H 
ATOM     32  H   LIG d   1       6.401  -5.705  -6.005  0.00  0.00     0.059 H 
BRANCH  30  33
ATOM     33  N   LIG d   1       6.147  -3.749  -5.269  0.00  0.00    -0.338 N 
ATOM     34  C   LIG d   1       5.589  -2.836  -4.403  0.00  0.00     0.050 A 
ATOM     35  C   LIG d   1       6.393  -1.682  -4.442  0.00  0.00     0.001 A 
ATOM     36  C   LIG d   1       4.471  -2.862  -3.576  0.00  0.00    -0.037 A 
ATOM     37  C   LIG d   1       7.469  -1.972  -5.393  0.00  0.00    -0.036 A 
ATOM     38  C   LIG d   1       6.065  -0.577  -3.655  0.00  0.00    -0.039 A 
ATOM     39  C   LIG d   1       7.269  -3.219  -5.845  0.00  0.00     0.006 A 
ATOM     40  H   LIG d   1       8.275  -1.308  -5.673  0.00  0.00     0.064 H 
ATOM     41  H   LIG d   1       7.899  -3.729  -6.559  0.00  0.00     0.081 H 
ATOM     42  C   LIG d   1       4.954  -0.625  -2.842  0.00  0.00     0.019 A 
ATOM     43  H   LIG d   1       6.680   0.310  -3.682  0.00  0.00     0.064 H 
ATOM     44  C   LIG d   1       4.160  -1.764  -2.804  0.00  0.00    -0.046 A 
ATOM     45 BR   LIG d   1       4.505   0.870  -1.774  0.00  0.00    -0.050 Br
ATOM     46  H   LIG d   1       3.291  -1.788  -2.164  0.00  0.00     0.063 H 
ATOM     47  H   LIG d   1       3.846  -3.743  -3.538  0.00  0.00     0.064 H 
ENDBRANCH  30  33
ENDBRANCH  27  30
ENDBRANCH   1  26
TORSDOF 7
ENDMDL
MODEL 4
REMARK VINA RESULT:      -5.8      3.060      5.948
REMARK  7 active torsions:
REMARK  status: ('A' for Active; 'I' for Inactive)
REMARK    1  A    between atoms: C_1  and  O_2 
REMARK    2  A    between atoms: O_2  and  C_3 
REMARK    3  A    between atoms: C_9  and  C_13 
REMARK    4  A    between atoms: C_13  and  C_14 
REMARK    5  A    between atoms: C_14  and  N_15 
REMARK       I    between atoms: N_15  and  C_16 
REMARK    6  A    between atoms: C_16  and  C_18 
REMARK    7  A    between atoms: C_18  and  N_19 
ROOT
ATOM      1  C   LIG d   1       2.775   0.400  -7.524  0.00  0.00     0.016 C 
ATOM      2  H   LIG d   1       3.157   1.427  -7.431  0.00  0.00     0.046 H 
ATOM      3  H   LIG d   1       1.691   0.427  -7.712  0.00  0.00     0.046 H 
ENDROOT
BRANCH   1   4
ATOM      4  C   LIG d   1       3.477  -0.302  -8.688  0.00  0.00    -0.010 C 
ATOM      5  H   LIG d   1       4.270  -0.958  -8.296  0.00  0.00     0.033 H 
ATOM      6  H   LIG d   1       3.921   0.450  -9.357  0.00  0.00     0.033 H 
BRANCH   4   7
ATOM      7  C   LIG d   1       2.476  -1.127  -9.453  0.00  0.00    -0.021 A 
ATOM      8  C   LIG d   1       2.461  -2.587  -9.575  0.00  0.00     0.006 A 
ATOM      9  C   LIG d   1       1.350  -2.900 -10.378  0.00  0.00     0.047 A 
ATOM     10  C   LIG d   1       3.275  -3.609  -9.082  0.00  0.00    -0.011 A 
ATOM     11  C   LIG d   1       1.069  -4.230 -10.674  0.00  0.00    -0.034 A 
ATOM     12  N   LIG d   1       0.743  -1.708 -10.713  0.00  0.00    -0.360 N 
ATOM     13  C   LIG d   1       1.880  -5.229 -10.183  0.00  0.00    -0.018 A 
ATOM     14  H   LIG d   1       0.221  -4.478 -11.293  0.00  0.00     0.064 H 
ATOM     15  C   LIG d   1       2.981  -4.923  -9.388  0.00  0.00     0.121 A 
ATOM     16  H   LIG d   1       1.659  -6.261 -10.416  0.00  0.00     0.066 H 
ATOM     17  C   LIG d   1       1.428  -0.664 -10.153  0.00  0.00     0.006 A 
ATOM     18  H   LIG d   1      -0.158  -1.707 -11.345  0.00  0.00     0.165 HD
ATOM     19  H   LIG d   1       1.164   0.378 -10.258  0.00  0.00     0.081 H 
ATOM     20  H   LIG d   1       4.130  -3.373  -8.465  0.00  0.00     0.066 H 
BRANCH  15  21
ATOM     21  O   LIG d   1       3.771  -5.922  -8.910  0.00  0.00    -0.495 OA
BRANCH  21  22
ATOM     22  C   LIG d   1       4.171  -5.833  -7.541  0.00  0.00     0.079 C 
ATOM     23  H   LIG d   1       3.328  -5.469  -6.935  0.00  0.00     0.066 H 
ATOM     24  H   LIG d   1       5.016  -5.134  -7.451  0.00  0.00     0.066 H 
ATOM     25  H   LIG d   1       4.478  -6.827  -7.183  0.00  0.00     0.066 H 
ENDBRANCH  21  22
ENDBRANCH  15  21
ENDBRANCH   4   7
ENDBRANCH   1   4
BRANCH   1  26
ATOM     26  N   LIG d   1       3.037  -0.333  -6.283  0.00  0.00    -0.314 N 
ATOM     27  C   LIG d   1       2.907   0.288  -5.093  0.00  0.00     0.233 C 
ATOM     28  O   LIG d   1       2.572   1.453  -5.050  0.00  0.00    -0.274 OA
ATOM     29  H   LIG d   1       3.340  -1.390  -6.321  0.00  0.00     0.149 HD
BRANCH  27  30
ATOM     30  C   LIG d   1       3.177  -0.466  -3.816  0.00  0.00     0.100 C 
ATOM     31  H   LIG d   1       2.781   0.105  -2.964  0.00  0.00     0.059 H 
ATOM     32  H   LIG d   1       2.685  -1.449  -3.860  0.00  0.00     0.059 H 
BRANCH  30  33
ATOM     33  N   LIG d   1       4.621  -0.650  -3.654  0.00  0.00    -0.338 N 
ATOM     34  C   LIG d   1       5.323  -1.772  -4.035  0.00  0.00     0.050 A 
ATOM     35  C   LIG d   1       6.673  -1.548  -3.706  0.00  0.00     0.001 A 
ATOM     36  C   LIG d   1       4.955  -2.972  -4.632  0.00  0.00    -0.037 A 
ATOM     37  C   LIG d   1       6.726  -0.215  -3.102  0.00  0.00    -0.036 A 
ATOM     38  C   LIG d   1       7.628  -2.528  -3.980  0.00  0.00    -0.039 A 
ATOM     39  C   LIG d   1       5.474   0.269  -3.105  0.00  0.00     0.006 A 
ATOM     40  H   LIG d   1       7.607   0.287  -2.729  0.00  0.00     0.064 H 
ATOM     41  H   LIG d   1       5.182   1.238  -2.730  0.00  0.00     0.081 H 
ATOM     42  C   LIG d   1       7.242  -3.709  -4.573  0.00  0.00     0.019 A 
ATOM     43  H   LIG d   1       8.665  -2.360  -3.729  0.00  0.00     0.064 H 
ATOM     44  C   LIG d   1       5.910  -3.930  -4.898  0.00  0.00    -0.046 A 
ATOM     45 BR   LIG d   1       8.533  -5.040  -4.947  0.00  0.00    -0.050 Br
ATOM     46  H   LIG d   1       5.620  -4.861  -5.362  0.00  0.00     0.063 H 
ATOM     47  H   LIG d   1       3.922  -3.155  -4.889  0.00  0.00     0.064 H 
ENDBRANCH  30  33
ENDBRANCH  27  30
ENDBRANCH   1  26
TORSDOF 7
ENDMDL
MODEL 5
REMARK VINA RESULT:      -5.8      5.306      7.767
REMARK  7 active torsions:
REMARK  status: ('A' for Active; 'I' for Inactive)
REMARK    1  A    between atoms: C_1  and  O_2 
REMARK    2  A    between atoms: O_2  and  C_3 
REMARK    3  A    between atoms: C_9  and  C_13 
REMARK    4  A    between atoms: C_13  and  C_14 
REMARK    5  A    between atoms: C_14  and  N_15 
REMARK       I    between atoms: N_15  and  C_16 
REMARK    6  A    between atoms: C_16  and  C_18 
REMARK    7  A    between atoms: C_18  and  N_19 
ROOT
ATOM      1  C   LIG d   1       4.905  -8.162  -5.539  0.00  0.00     0.016 C 
ATOM      2  H   LIG d   1       4.264  -8.677  -6.270  0.00  0.00     0.046 H 
ATOM      3  H   LIG d   1       4.316  -7.915  -4.644  0.00  0.00     0.046 H 
ENDROOT
BRANCH   1   4
ATOM      4  C   LIG d   1       6.067  -9.077  -5.148  0.00  0.00    -0.010 C 
ATOM      5  H   LIG d   1       6.959  -8.467  -4.936  0.00  0.00     0.033 H 
ATOM      6  H   LIG d   1       6.285  -9.769  -5.975  0.00  0.00     0.033 H 
BRANCH   4   7
ATOM      7  C   LIG d   1       5.695  -9.864  -3.918  0.00  0.00    -0.021 A 
ATOM      8  C   LIG d   1       6.596 -10.271  -2.838  0.00  0.00     0.006 A 
ATOM      9  C   LIG d   1       5.805 -10.978  -1.916  0.00  0.00     0.047 A 
ATOM     10  C   LIG d   1       7.960 -10.093  -2.595  0.00  0.00    -0.011 A 
ATOM     11  C   LIG d   1       6.389 -11.497  -0.765  0.00  0.00    -0.034 A 
ATOM     12  N   LIG d   1       4.518 -10.993  -2.413  0.00  0.00    -0.360 N 
ATOM     13  C   LIG d   1       7.735 -11.317  -0.537  0.00  0.00    -0.018 A 
ATOM     14  H   LIG d   1       5.790 -12.046  -0.055  0.00  0.00     0.064 H 
ATOM     15  C   LIG d   1       8.522 -10.617  -1.448  0.00  0.00     0.121 A 
ATOM     16  H   LIG d   1       8.185 -11.722   0.358  0.00  0.00     0.066 H 
ATOM     17  C   LIG d   1       4.473 -10.324  -3.605  0.00  0.00     0.006 A 
ATOM     18  H   LIG d   1       3.717 -11.498  -1.852  0.00  0.00     0.165 HD
ATOM     19  H   LIG d   1       3.586 -10.187  -4.206  0.00  0.00     0.081 H 
ATOM     20  H   LIG d   1       8.572  -9.551  -3.301  0.00  0.00     0.066 H 
BRANCH  15  21
ATOM     21  O   LIG d   1       9.850 -10.447  -1.207  0.00  0.00    -0.495 OA
BRANCH  21  22
ATOM     22  C   LIG d   1      10.211  -9.861   0.046  0.00  0.00     0.079 C 
ATOM     23  H   LIG d   1      10.547 -10.650   0.736  0.00  0.00     0.066 H 
ATOM     24  H   LIG d   1       9.340  -9.345   0.474  0.00  0.00     0.066 H 
ATOM     25  H   LIG d   1      11.026  -9.138  -0.109  0.00  0.00     0.066 H 
ENDBRANCH  21  22
ENDBRANCH  15  21
ENDBRANCH   4   7
ENDBRANCH   1   4
BRANCH   1  26
ATOM     26  N   LIG d   1       5.432  -6.931  -6.133  0.00  0.00    -0.314 N 
ATOM     27  C   LIG d   1       4.905  -5.738  -5.791  0.00  0.00     0.233 C 
ATOM     28  O   LIG d   1       3.994  -5.685  -4.991  0.00  0.00    -0.274 OA
ATOM     29  H   LIG d   1       6.259  -6.979  -6.858  0.00  0.00     0.149 HD
BRANCH  27  30
ATOM     30  C   LIG d   1       5.446  -4.472  -6.401  0.00  0.00     0.100 C 
ATOM     31  H   LIG d   1       6.167  -4.725  -7.192  0.00  0.00     0.059 H 
ATOM     32  H   LIG d   1       4.618  -3.889  -6.831  0.00  0.00     0.059 H 
BRANCH  30  33
ATOM     33  N   LIG d   1       6.116  -3.678  -5.367  0.00  0.00    -0.338 N 
ATOM     34  C   LIG d   1       5.537  -2.643  -4.667  0.00  0.00     0.050 A 
ATOM     35  C   LIG d   1       6.509  -2.150  -3.777  0.00  0.00     0.001 A 
ATOM     36  C   LIG d   1       4.275  -2.060  -4.691  0.00  0.00    -0.037 A 
ATOM     37  C   LIG d   1       7.707  -2.964  -3.996  0.00  0.00    -0.036 A 
ATOM     38  C   LIG d   1       6.201  -1.085  -2.928  0.00  0.00    -0.039 A 
ATOM     39  C   LIG d   1       7.406  -3.858  -4.950  0.00  0.00     0.006 A 
ATOM     40  H   LIG d   1       8.653  -2.866  -3.482  0.00  0.00     0.064 H 
ATOM     41  H   LIG d   1       8.082  -4.608  -5.333  0.00  0.00     0.081 H 
ATOM     42  C   LIG d   1       4.944  -0.524  -2.968  0.00  0.00     0.019 A 
ATOM     43  H   LIG d   1       6.944  -0.704  -2.244  0.00  0.00     0.064 H 
ATOM     44  C   LIG d   1       3.985  -1.010  -3.847  0.00  0.00    -0.046 A 
ATOM     45 BR   LIG d   1       4.522   0.919  -1.821  0.00  0.00    -0.050 Br
ATOM     46  H   LIG d   1       3.003  -0.561  -3.869  0.00  0.00     0.063 H 
ATOM     47  H   LIG d   1       3.520  -2.431  -5.370  0.00  0.00     0.064 H 
ENDBRANCH  30  33
ENDBRANCH  27  30
ENDBRANCH   1  26
TORSDOF 7
ENDMDL
MODEL 6
REMARK VINA RESULT:      -5.8      6.087      8.382
REMARK  7 active torsions:
REMARK  status: ('A' for Active; 'I' for Inactive)
REMARK    1  A    between atoms: C_1  and  O_2 
REMARK    2  A    between atoms: O_2  and  C_3 
REMARK    3  A    between atoms: C_9  and  C_13 
REMARK    4  A    between atoms: C_13  and  C_14 
REMARK    5  A    between atoms: C_14  and  N_15 
REMARK       I    between atoms: N_15  and  C_16 
REMARK    6  A    between atoms: C_16  and  C_18 
REMARK    7  A    between atoms: C_18  and  N_19 
ROOT
ATOM      1  C   LIG d   1       9.833   2.370  -4.206  0.00  0.00     0.016 C 
ATOM      2  H   LIG d   1       9.188   3.028  -4.807  0.00  0.00     0.046 H 
ATOM      3  H   LIG d   1      10.717   2.085  -4.795  0.00  0.00     0.046 H 
ENDROOT
BRANCH   1   4
ATOM      4  C   LIG d   1      10.278   3.109  -2.943  0.00  0.00    -0.010 C 
ATOM      5  H   LIG d   1      11.367   3.006  -2.823  0.00  0.00     0.033 H 
ATOM      6  H   LIG d   1       9.771   2.678  -2.067  0.00  0.00     0.033 H 
BRANCH   4   7
ATOM      7  C   LIG d   1       9.922   4.568  -3.062  0.00  0.00    -0.021 A 
ATOM      8  C   LIG d   1      10.159   5.608  -2.059  0.00  0.00     0.006 A 
ATOM      9  C   LIG d   1       9.664   6.802  -2.611  0.00  0.00     0.047 A 
ATOM     10  C   LIG d   1      10.733   5.613  -0.785  0.00  0.00    -0.011 A 
ATOM     11  C   LIG d   1       9.750   7.984  -1.881  0.00  0.00    -0.034 A 
ATOM     12  N   LIG d   1       9.164   6.496  -3.859  0.00  0.00    -0.360 N 
ATOM     13  C   LIG d   1      10.317   7.976  -0.626  0.00  0.00    -0.018 A 
ATOM     14  H   LIG d   1       9.368   8.904  -2.295  0.00  0.00     0.064 H 
ATOM     15  C   LIG d   1      10.808   6.795  -0.076  0.00  0.00     0.121 A 
ATOM     16  H   LIG d   1      10.381   8.896  -0.062  0.00  0.00     0.066 H 
ATOM     17  C   LIG d   1       9.327   5.161  -4.110  0.00  0.00     0.006 A 
ATOM     18  H   LIG d   1       8.719   7.286  -4.483  0.00  0.00     0.165 HD
ATOM     19  H   LIG d   1       9.023   4.659  -5.016  0.00  0.00     0.081 H 
ATOM     20  H   LIG d   1      11.114   4.697  -0.357  0.00  0.00     0.066 H 
BRANCH  15  21
ATOM     21  O   LIG d   1      11.366   6.805   1.165  0.00  0.00    -0.495 OA
BRANCH  21  22
ATOM     22  C   LIG d   1      11.453   8.069   1.826  0.00  0.00     0.079 C 
ATOM     23  H   LIG d   1      11.860   8.819   1.131  0.00  0.00     0.066 H 
ATOM     24  H   LIG d   1      12.115   7.981   2.700  0.00  0.00     0.066 H 
ATOM     25  H   LIG d   1      10.450   8.380   2.155  0.00  0.00     0.066 H 
ENDBRANCH  21  22
ENDBRANCH  15  21
ENDBRANCH   4   7
ENDBRANCH   1   4
BRANCH   1  26
ATOM     26  N   LIG d   1       9.088   1.166  -3.829  0.00  0.00    -0.314 N 
ATOM     27  C   LIG d   1       7.742   1.150  -3.920  0.00  0.00     0.233 C 
ATOM     28  O   LIG d   1       7.149   2.132  -4.314  0.00  0.00    -0.274 OA
ATOM     29  H   LIG d   1       9.625   0.275  -3.473  0.00  0.00     0.149 HD
BRANCH  27  30
ATOM     30  C   LIG d   1       6.976  -0.088  -3.533  0.00  0.00     0.100 C 
ATOM     31  H   LIG d   1       7.378  -0.954  -4.079  0.00  0.00     0.059 H 
ATOM     32  H   LIG d   1       7.075  -0.257  -2.451  0.00  0.00     0.059 H 
BRANCH  30  33
ATOM     33  N   LIG d   1       5.561   0.088  -3.871  0.00  0.00    -0.338 N 
ATOM     34  C   LIG d   1       5.014  -0.114  -5.119  0.00  0.00     0.050 A 
ATOM     35  C   LIG d   1       3.638   0.161  -5.018  0.00  0.00     0.001 A 
ATOM     36  C   LIG d   1       5.546  -0.506  -6.342  0.00  0.00    -0.037 A 
ATOM     37  C   LIG d   1       3.403   0.541  -3.624  0.00  0.00    -0.036 A 
ATOM     38  C   LIG d   1       2.819   0.039  -6.142  0.00  0.00    -0.039 A 
ATOM     39  C   LIG d   1       4.585   0.472  -2.992  0.00  0.00     0.006 A 
ATOM     40  H   LIG d   1       2.455   0.819  -3.185  0.00  0.00     0.064 H 
ATOM     41  H   LIG d   1       4.743   0.689  -1.946  0.00  0.00     0.081 H 
ATOM     42  C   LIG d   1       3.366  -0.352  -7.344  0.00  0.00     0.019 A 
ATOM     43  H   LIG d   1       1.763   0.249  -6.069  0.00  0.00     0.064 H 
ATOM     44  C   LIG d   1       4.725  -0.623  -7.443  0.00  0.00    -0.046 A 
ATOM     45 BR   LIG d   1       2.261  -0.519  -8.870  0.00  0.00    -0.050 Br
ATOM     46  H   LIG d   1       5.142  -0.927  -8.392  0.00  0.00     0.063 H 
ATOM     47  H   LIG d   1       6.601  -0.720  -6.431  0.00  0.00     0.064 H 
ENDBRANCH  30  33
ENDBRANCH  27  30
ENDBRANCH   1  26
TORSDOF 7
ENDMDL
MODEL 7
REMARK VINA RESULT:      -5.7      2.511      4.907
REMARK  7 active torsions:
REMARK  status: ('A' for Active; 'I' for Inactive)
REMARK    1  A    between atoms: C_1  and  O_2 
REMARK    2  A    between atoms: O_2  and  C_3 
REMARK    3  A    between atoms: C_9  and  C_13 
REMARK    4  A    between atoms: C_13  and  C_14 
REMARK    5  A    between atoms: C_14  and  N_15 
REMARK       I    between atoms: N_15  and  C_16 
REMARK    6  A    between atoms: C_16  and  C_18 
REMARK    7  A    between atoms: C_18  and  N_19 
ROOT
ATOM      1  C   LIG d   1       2.665   0.369  -7.449  0.00  0.00     0.016 C 
ATOM      2  H   LIG d   1       3.426   1.147  -7.602  0.00  0.00     0.046 H 
ATOM      3  H   LIG d   1       1.669   0.834  -7.395  0.00  0.00     0.046 H 
ENDROOT
BRANCH   1   4
ATOM      4  C   LIG d   1       2.703  -0.617  -8.618  0.00  0.00    -0.010 C 
ATOM      5  H   LIG d   1       2.495  -0.082  -9.557  0.00  0.00     0.033 H 
ATOM      6  H   LIG d   1       1.943  -1.398  -8.465  0.00  0.00     0.033 H 
BRANCH   4   7
ATOM      7  C   LIG d   1       4.067  -1.253  -8.694  0.00  0.00    -0.021 A 
ATOM      8  C   LIG d   1       4.372  -2.680  -8.568  0.00  0.00     0.006 A 
ATOM      9  C   LIG d   1       5.766  -2.794  -8.706  0.00  0.00     0.047 A 
ATOM     10  C   LIG d   1       3.595  -3.822  -8.357  0.00  0.00    -0.011 A 
ATOM     11  C   LIG d   1       6.363  -4.049  -8.632  0.00  0.00    -0.034 A 
ATOM     12  N   LIG d   1       6.261  -1.522  -8.901  0.00  0.00    -0.360 N 
ATOM     13  C   LIG d   1       5.588  -5.168  -8.422  0.00  0.00    -0.018 A 
ATOM     14  H   LIG d   1       7.433  -4.145  -8.732  0.00  0.00     0.064 H 
ATOM     15  C   LIG d   1       4.206  -5.058  -8.285  0.00  0.00     0.121 A 
ATOM     16  H   LIG d   1       6.055  -6.140  -8.365  0.00  0.00     0.066 H 
ATOM     17  C   LIG d   1       5.234  -0.618  -8.891  0.00  0.00     0.006 A 
ATOM     18  H   LIG d   1       7.342  -1.365  -9.035  0.00  0.00     0.165 HD
ATOM     19  H   LIG d   1       5.345   0.448  -9.023  0.00  0.00     0.081 H 
ATOM     20  H   LIG d   1       2.524  -3.738  -8.249  0.00  0.00     0.066 H 
BRANCH  15  21
ATOM     21  O   LIG d   1       3.455  -6.173  -8.079  0.00  0.00    -0.495 OA
BRANCH  21  22
ATOM     22  C   LIG d   1       3.597  -7.234  -9.026  0.00  0.00     0.079 C 
ATOM     23  H   LIG d   1       4.157  -6.872  -9.901  0.00  0.00     0.066 H 
ATOM     24  H   LIG d   1       2.602  -7.577  -9.344  0.00  0.00     0.066 H 
ATOM     25  H   LIG d   1       4.142  -8.069  -8.561  0.00  0.00     0.066 H 
ENDBRANCH  21  22
ENDBRANCH  15  21
ENDBRANCH   4   7
ENDBRANCH   1   4
BRANCH   1  26
ATOM     26  N   LIG d   1       2.939  -0.345  -6.200  0.00  0.00    -0.314 N 
ATOM     27  C   LIG d   1       2.876   0.308  -5.022  0.00  0.00     0.233 C 
ATOM     28  O   LIG d   1       2.591   1.487  -4.997  0.00  0.00    -0.274 OA
ATOM     29  H   LIG d   1       3.196  -1.415  -6.221  0.00  0.00     0.149 HD
BRANCH  27  30
ATOM     30  C   LIG d   1       3.158  -0.425  -3.737  0.00  0.00     0.100 C 
ATOM     31  H   LIG d   1       2.833   0.189  -2.885  0.00  0.00     0.059 H 
ATOM     32  H   LIG d   1       2.611  -1.380  -3.731  0.00  0.00     0.059 H 
BRANCH  30  33
ATOM     33  N   LIG d   1       4.596  -0.687  -3.629  0.00  0.00    -0.338 N 
ATOM     34  C   LIG d   1       5.226  -1.831  -4.066  0.00  0.00     0.050 A 
ATOM     35  C   LIG d   1       6.595  -1.686  -3.777  0.00  0.00     0.001 A 
ATOM     36  C   LIG d   1       4.777  -2.993  -4.684  0.00  0.00    -0.037 A 
ATOM     37  C   LIG d   1       6.737  -0.376  -3.138  0.00  0.00    -0.036 A 
ATOM     38  C   LIG d   1       7.490  -2.705  -4.112  0.00  0.00    -0.039 A 
ATOM     39  C   LIG d   1       5.512   0.170  -3.085  0.00  0.00     0.006 A 
ATOM     40  H   LIG d   1       7.655   0.069  -2.782  0.00  0.00     0.064 H 
ATOM     41  H   LIG d   1       5.283   1.141  -2.673  0.00  0.00     0.081 H 
ATOM     42  C   LIG d   1       7.024  -3.847  -4.725  0.00  0.00     0.019 A 
ATOM     43  H   LIG d   1       8.541  -2.597  -3.892  0.00  0.00     0.064 H 
ATOM     44  C   LIG d   1       5.672  -3.990  -5.009  0.00  0.00    -0.046 A 
ATOM     45 BR   LIG d   1       8.231  -5.229  -5.180  0.00  0.00    -0.050 Br
ATOM     46  H   LIG d   1       5.318  -4.891  -5.488  0.00  0.00     0.063 H 
ATOM     47  H   LIG d   1       3.727  -3.116  -4.910  0.00  0.00     0.064 H 
ENDBRANCH  30  33
ENDBRANCH  27  30
ENDBRANCH   1  26
TORSDOF 7
ENDMDL
MODEL 8
REMARK VINA RESULT:      -5.7      2.924      7.010
REMARK  7 active torsions:
REMARK  status: ('A' for Active; 'I' for Inactive)
REMARK    1  A    between atoms: C_1  and  O_2 
REMARK    2  A    between atoms: O_2  and  C_3 
REMARK    3  A    between atoms: C_9  and  C_13 
REMARK    4  A    between atoms: C_13  and  C_14 
REMARK    5  A    between atoms: C_14  and  N_15 
REMARK       I    between atoms: N_15  and  C_16 
REMARK    6  A    between atoms: C_16  and  C_18 
REMARK    7  A    between atoms: C_18  and  N_19 
ROOT
ATOM      1  C   LIG d   1       5.583  -3.205 -10.282  0.00  0.00     0.016 C 
ATOM      2  H   LIG d   1       5.608  -4.304 -10.292  0.00  0.00     0.046 H 
ATOM      3  H   LIG d   1       6.153  -2.817 -11.139  0.00  0.00     0.046 H 
ENDROOT
BRANCH   1   4
ATOM      4  C   LIG d   1       4.133  -2.727 -10.376  0.00  0.00    -0.010 C 
ATOM      5  H   LIG d   1       3.641  -2.853  -9.399  0.00  0.00     0.033 H 
ATOM      6  H   LIG d   1       3.600  -3.317 -11.134  0.00  0.00     0.033 H 
BRANCH   4   7
ATOM      7  C   LIG d   1       4.109  -1.271 -10.764  0.00  0.00    -0.021 A 
ATOM      8  C   LIG d   1       3.771  -0.142  -9.895  0.00  0.00     0.006 A 
ATOM      9  C   LIG d   1       3.886   1.011 -10.690  0.00  0.00     0.047 A 
ATOM     10  C   LIG d   1       3.394  -0.031  -8.554  0.00  0.00    -0.011 A 
ATOM     11  C   LIG d   1       3.623   2.259 -10.133  0.00  0.00    -0.034 A 
ATOM     12  N   LIG d   1       4.267   0.599 -11.950  0.00  0.00    -0.360 N 
ATOM     13  C   LIG d   1       3.252   2.357  -8.810  0.00  0.00    -0.018 A 
ATOM     14  H   LIG d   1       3.706   3.149 -10.738  0.00  0.00     0.064 H 
ATOM     15  C   LIG d   1       3.136   1.216  -8.020  0.00  0.00     0.121 A 
ATOM     16  H   LIG d   1       3.049   3.327  -8.382  0.00  0.00     0.066 H 
ATOM     17  C   LIG d   1       4.396  -0.763 -11.974  0.00  0.00     0.006 A 
ATOM     18  H   LIG d   1       4.420   1.340 -12.749  0.00  0.00     0.165 HD
ATOM     19  H   LIG d   1       4.684  -1.343 -12.838  0.00  0.00     0.081 H 
ATOM     20  H   LIG d   1       3.304  -0.914  -7.940  0.00  0.00     0.066 H 
BRANCH  15  21
ATOM     21  O   LIG d   1       2.769   1.330  -6.715  0.00  0.00    -0.495 OA
BRANCH  21  22
ATOM     22  C   LIG d   1       2.948   0.179  -5.888  0.00  0.00     0.079 C 
ATOM     23  H   LIG d   1       2.104   0.094  -5.188  0.00  0.00     0.066 H 
ATOM     24  H   LIG d   1       3.886   0.277  -5.321  0.00  0.00     0.066 H 
ATOM     25  H   LIG d   1       2.994  -0.722  -6.518  0.00  0.00     0.066 H 
ENDBRANCH  21  22
ENDBRANCH  15  21
ENDBRANCH   4   7
ENDBRANCH   1   4
BRANCH   1  26
ATOM     26  N   LIG d   1       6.179  -2.714  -9.036  0.00  0.00    -0.314 N 
ATOM     27  C   LIG d   1       6.958  -3.528  -8.296  0.00  0.00     0.233 C 
ATOM     28  O   LIG d   1       7.166  -4.666  -8.660  0.00  0.00    -0.274 OA
ATOM     29  H   LIG d   1       5.991  -1.682  -8.705  0.00  0.00     0.149 HD
BRANCH  27  30
ATOM     30  C   LIG d   1       7.570  -3.024  -7.015  0.00  0.00     0.100 C 
ATOM     31  H   LIG d   1       8.430  -3.655  -6.746  0.00  0.00     0.059 H 
ATOM     32  H   LIG d   1       7.906  -1.985  -7.152  0.00  0.00     0.059 H 
BRANCH  30  33
ATOM     33  N   LIG d   1       6.573  -3.075  -5.942  0.00  0.00    -0.338 N 
ATOM     34  C   LIG d   1       6.276  -2.037  -5.088  0.00  0.00     0.050 A 
ATOM     35  C   LIG d   1       5.272  -2.493  -4.214  0.00  0.00     0.001 A 
ATOM     36  C   LIG d   1       6.757  -0.739  -4.958  0.00  0.00    -0.037 A 
ATOM     37  C   LIG d   1       4.992  -3.876  -4.607  0.00  0.00    -0.036 A 
ATOM     38  C   LIG d   1       4.768  -1.644  -3.227  0.00  0.00    -0.039 A 
ATOM     39  C   LIG d   1       5.794  -4.160  -5.645  0.00  0.00     0.006 A 
ATOM     40  H   LIG d   1       4.271  -4.540  -4.151  0.00  0.00     0.064 H 
ATOM     41  H   LIG d   1       5.823  -5.105  -6.166  0.00  0.00     0.081 H 
ATOM     42  C   LIG d   1       5.258  -0.361  -3.117  0.00  0.00     0.019 A 
ATOM     43  H   LIG d   1       3.998  -1.990  -2.555  0.00  0.00     0.064 H 
ATOM     44  C   LIG d   1       6.249   0.089  -3.980  0.00  0.00    -0.046 A 
ATOM     45 BR   LIG d   1       4.579   0.794  -1.783  0.00  0.00    -0.050 Br
ATOM     46  H   LIG d   1       6.626   1.096  -3.883  0.00  0.00     0.063 H 
ATOM     47  H   LIG d   1       7.528  -0.377  -5.624  0.00  0.00     0.064 H 
ENDBRANCH  30  33
ENDBRANCH  27  30
ENDBRANCH   1  26
TORSDOF 7
ENDMDL
MODEL 9
REMARK VINA RESULT:      -5.7      3.462      5.128
REMARK  7 active torsions:
REMARK  status: ('A' for Active; 'I' for Inactive)
REMARK    1  A    between atoms: C_1  and  O_2 
REMARK    2  A    between atoms: O_2  and  C_3 
REMARK    3  A    between atoms: C_9  and  C_13 
REMARK    4  A    between atoms: C_13  and  C_14 
REMARK    5  A    between atoms: C_14  and  N_15 
REMARK       I    between atoms: N_15  and  C_16 
REMARK    6  A    between atoms: C_16  and  C_18 
REMARK    7  A    between atoms: C_18  and  N_19 
ROOT
ATOM      1  C   LIG d   1       5.194  -3.156  -6.750  0.00  0.00     0.016 C 
ATOM      2  H   LIG d   1       5.407  -4.089  -7.292  0.00  0.00     0.046 H 
ATOM      3  H   LIG d   1       4.140  -3.148  -6.433  0.00  0.00     0.046 H 
ENDROOT
BRANCH   1   4
ATOM      4  C   LIG d   1       6.097  -3.062  -5.520  0.00  0.00    -0.010 C 
ATOM      5  H   LIG d   1       6.919  -2.359  -5.720  0.00  0.00     0.033 H 
ATOM      6  H   LIG d   1       6.512  -4.055  -5.292  0.00  0.00     0.033 H 
BRANCH   4   7
ATOM      7  C   LIG d   1       5.294  -2.572  -4.343  0.00  0.00    -0.021 A 
ATOM      8  C   LIG d   1       5.387  -1.254  -3.713  0.00  0.00     0.006 A 
ATOM      9  C   LIG d   1       4.451  -1.256  -2.664  0.00  0.00     0.047 A 
ATOM     10  C   LIG d   1       6.164  -0.118  -3.953  0.00  0.00    -0.011 A 
ATOM     11  C   LIG d   1       4.306  -0.122  -1.870  0.00  0.00    -0.034 A 
ATOM     12  N   LIG d   1       3.841  -2.492  -2.667  0.00  0.00    -0.360 N 
ATOM     13  C   LIG d   1       5.078   0.992  -2.116  0.00  0.00    -0.018 A 
ATOM     14  H   LIG d   1       3.593  -0.117  -1.060  0.00  0.00     0.064 H 
ATOM     15  C   LIG d   1       6.006   0.998  -3.154  0.00  0.00     0.121 A 
ATOM     16  H   LIG d   1       4.962   1.870  -1.497  0.00  0.00     0.066 H 
ATOM     17  C   LIG d   1       4.356  -3.261  -3.674  0.00  0.00     0.006 A 
ATOM     18  H   LIG d   1       3.063  -2.725  -1.923  0.00  0.00     0.165 HD
ATOM     19  H   LIG d   1       4.052  -4.274  -3.898  0.00  0.00     0.081 H 
ATOM     20  H   LIG d   1       6.884  -0.112  -4.757  0.00  0.00     0.066 H 
BRANCH  15  21
ATOM     21  O   LIG d   1       6.760   2.106  -3.383  0.00  0.00    -0.495 OA
BRANCH  21  22
ATOM     22  C   LIG d   1       8.104   1.897  -3.821  0.00  0.00     0.079 C 
ATOM     23  H   LIG d   1       8.106   1.642  -4.891  0.00  0.00     0.066 H 
ATOM     24  H   LIG d   1       8.552   1.072  -3.247  0.00  0.00     0.066 H 
ATOM     25  H   LIG d   1       8.689   2.814  -3.661  0.00  0.00     0.066 H 
ENDBRANCH  21  22
ENDBRANCH  15  21
ENDBRANCH   4   7
ENDBRANCH   1   4
BRANCH   1  26
ATOM     26  N   LIG d   1       5.448  -2.012  -7.629  0.00  0.00    -0.314 N 
ATOM     27  C   LIG d   1       4.655  -0.922  -7.563  0.00  0.00     0.233 C 
ATOM     28  O   LIG d   1       3.733  -0.890  -6.776  0.00  0.00    -0.274 OA
ATOM     29  H   LIG d   1       6.285  -2.040  -8.343  0.00  0.00     0.149 HD
BRANCH  27  30
ATOM     30  C   LIG d   1       4.916   0.255  -8.467  0.00  0.00     0.100 C 
ATOM     31  H   LIG d   1       4.238   1.079  -8.201  0.00  0.00     0.059 H 
ATOM     32  H   LIG d   1       5.959   0.584  -8.349  0.00  0.00     0.059 H 
BRANCH  30  33
ATOM     33  N   LIG d   1       4.684  -0.138  -9.860  0.00  0.00    -0.338 N 
ATOM     34  C   LIG d   1       3.469  -0.525 -10.380  0.00  0.00     0.050 A 
ATOM     35  C   LIG d   1       3.675  -0.817 -11.741  0.00  0.00     0.001 A 
ATOM     36  C   LIG d   1       2.197  -0.662  -9.836  0.00  0.00    -0.037 A 
ATOM     37  C   LIG d   1       5.097  -0.576 -11.995  0.00  0.00    -0.036 A 
ATOM     38  C   LIG d   1       2.606  -1.240 -12.532  0.00  0.00    -0.039 A 
ATOM     39  C   LIG d   1       5.640  -0.169 -10.837  0.00  0.00     0.006 A 
ATOM     40  H   LIG d   1       5.611  -0.699 -12.938  0.00  0.00     0.064 H 
ATOM     41  H   LIG d   1       6.678   0.093 -10.697  0.00  0.00     0.081 H 
ATOM     42  C   LIG d   1       1.353  -1.368 -11.974  0.00  0.00     0.019 A 
ATOM     43  H   LIG d   1       2.760  -1.464 -13.577  0.00  0.00     0.064 H 
ATOM     44  C   LIG d   1       1.150  -1.080 -10.630  0.00  0.00    -0.046 A 
ATOM     45 BR   LIG d   1      -0.099  -1.940 -13.042  0.00  0.00    -0.050 Br
ATOM     46  H   LIG d   1       0.164  -1.186 -10.204  0.00  0.00     0.063 H 
ATOM     47  H   LIG d   1       2.027  -0.441  -8.793  0.00  0.00     0.064 H 
ENDBRANCH  30  33
ENDBRANCH  27  30
ENDBRANCH   1  26
TORSDOF 7
ENDMDL
MODEL 10
REMARK VINA RESULT:      -5.6      3.397      6.331
REMARK  7 active torsions:
REMARK  status: ('A' for Active; 'I' for Inactive)
REMARK    1  A    between atoms: C_1  and  O_2 
REMARK    2  A    between atoms: O_2  and  C_3 
REMARK    3  A    between atoms: C_9  and  C_13 
REMARK    4  A    between atoms: C_13  and  C_14 
REMARK    5  A    between atoms: C_14  and  N_15 
REMARK       I    between atoms: N_15  and  C_16 
REMARK    6  A    between atoms: C_16  and  C_18 
REMARK    7  A    between atoms: C_18  and  N_19 
ROOT
ATOM      1  C   LIG d   1       3.527  -0.554  -8.648  0.00  0.00     0.016 C 
ATOM      2  H   LIG d   1       2.641   0.097  -8.635  0.00  0.00     0.046 H 
ATOM      3  H   LIG d   1       4.037  -0.460  -9.618  0.00  0.00     0.046 H 
ENDROOT
BRANCH   1   4
ATOM      4  C   LIG d   1       4.482  -0.138  -7.528  0.00  0.00    -0.010 C 
ATOM      5  H   LIG d   1       4.826   0.892  -7.702  0.00  0.00     0.033 H 
ATOM      6  H   LIG d   1       5.348  -0.817  -7.513  0.00  0.00     0.033 H 
BRANCH   4   7
ATOM      7  C   LIG d   1       3.765  -0.211  -6.205  0.00  0.00    -0.021 A 
ATOM      8  C   LIG d   1       4.312  -0.715  -4.943  0.00  0.00     0.006 A 
ATOM      9  C   LIG d   1       3.285  -0.585  -3.993  0.00  0.00     0.047 A 
ATOM     10  C   LIG d   1       5.548  -1.246  -4.566  0.00  0.00    -0.011 A 
ATOM     11  C   LIG d   1       3.509  -0.986  -2.679  0.00  0.00    -0.034 A 
ATOM     12  N   LIG d   1       2.197  -0.040  -4.642  0.00  0.00    -0.360 N 
ATOM     13  C   LIG d   1       4.731  -1.509  -2.320  0.00  0.00    -0.018 A 
ATOM     14  H   LIG d   1       2.724  -0.894  -1.944  0.00  0.00     0.064 H 
ATOM     15  C   LIG d   1       5.751  -1.640  -3.259  0.00  0.00     0.121 A 
ATOM     16  H   LIG d   1       4.901  -1.819  -1.299  0.00  0.00     0.066 H 
ATOM     17  C   LIG d   1       2.503   0.176  -5.958  0.00  0.00     0.006 A 
ATOM     18  H   LIG d   1       1.265   0.154  -4.090  0.00  0.00     0.165 HD
ATOM     19  H   LIG d   1       1.829   0.596  -6.691  0.00  0.00     0.081 H 
ATOM     20  H   LIG d   1       6.340  -1.348  -5.294  0.00  0.00     0.066 H 
BRANCH  15  21
ATOM     21  O   LIG d   1       6.953  -2.157  -2.887  0.00  0.00    -0.495 OA
BRANCH  21  22
ATOM     22  C   LIG d   1       7.726  -2.796  -3.904  0.00  0.00     0.079 C 
ATOM     23  H   LIG d   1       7.059  -3.359  -4.574  0.00  0.00     0.066 H 
ATOM     24  H   LIG d   1       8.445  -3.486  -3.439  0.00  0.00     0.066 H 
ATOM     25  H   LIG d   1       8.271  -2.035  -4.483  0.00  0.00     0.066 H 
ENDBRANCH  21  22
ENDBRANCH  15  21
ENDBRANCH   4   7
ENDBRANCH   1   4
BRANCH   1  26
ATOM     26  N   LIG d   1       3.114  -1.945  -8.446  0.00  0.00    -0.314 N 
ATOM     27  C   LIG d   1       3.855  -2.949  -8.959  0.00  0.00     0.233 C 
ATOM     28  O   LIG d   1       4.862  -2.700  -9.586  0.00  0.00    -0.274 OA
ATOM     29  H   LIG d   1       2.201  -2.171  -7.876  0.00  0.00     0.149 HD
BRANCH  27  30
ATOM     30  C   LIG d   1       3.431  -4.380  -8.751  0.00  0.00     0.100 C 
ATOM     31  H   LIG d   1       2.334  -4.433  -8.701  0.00  0.00     0.059 H 
ATOM     32  H   LIG d   1       3.790  -4.994  -9.590  0.00  0.00     0.059 H 
BRANCH  30  33
ATOM     33  N   LIG d   1       4.002  -4.882  -7.499  0.00  0.00    -0.338 N 
ATOM     34  C   LIG d   1       4.265  -6.206  -7.225  0.00  0.00     0.050 A 
ATOM     35  C   LIG d   1       4.804  -6.262  -5.927  0.00  0.00     0.001 A 
ATOM     36  C   LIG d   1       4.101  -7.382  -7.948  0.00  0.00    -0.037 A 
ATOM     37  C   LIG d   1       4.844  -4.878  -5.446  0.00  0.00    -0.036 A 
ATOM     38  C   LIG d   1       5.169  -7.491  -5.376  0.00  0.00    -0.039 A 
ATOM     39  C   LIG d   1       4.359  -4.106  -6.431  0.00  0.00     0.006 A 
ATOM     40  H   LIG d   1       5.203  -4.543  -4.483  0.00  0.00     0.064 H 
ATOM     41  H   LIG d   1       4.263  -3.031  -6.386  0.00  0.00     0.081 H 
ATOM     42  C   LIG d   1       5.000  -8.644  -6.110  0.00  0.00     0.019 A 
ATOM     43  H   LIG d   1       5.584  -7.538  -4.380  0.00  0.00     0.064 H 
ATOM     44  C   LIG d   1       4.466  -8.589  -7.391  0.00  0.00    -0.046 A 
ATOM     45 BR   LIG d   1       5.493 -10.312  -5.368  0.00  0.00    -0.050 Br
ATOM     46  H   LIG d   1       4.337  -9.500  -7.956  0.00  0.00     0.063 H 
ATOM     47  H   LIG d   1       3.688  -7.352  -8.946  0.00  0.00     0.064 H 
ENDBRANCH  30  33
ENDBRANCH  27  30
ENDBRANCH   1  26
TORSDOF 7
ENDMDL
