MODEL 1
REMARK VINA RESULT:      -5.4      0.000      0.000
REMARK  3 active torsions:
REMARK  status: ('A' for Active; 'I' for Inactive)
REMARK    1  A    between atoms: C_3  and  C_10 
REMARK    2  A    between atoms: C_5  and  N_7 
REMARK    3  A    between atoms: C_13  and  N_15 
ROOT
ATOM      1  C   LIG d   1       3.301  -1.520  -2.441  0.00  0.00    -0.055 A 
ATOM      2  C   LIG d   1       4.436  -2.248  -2.741  0.00  0.00    -0.052 A 
ATOM      3  C   LIG d   1       5.059  -2.083  -3.977  0.00  0.00     0.007 A 
ATOM      4  C   LIG d   1       4.533  -1.183  -4.903  0.00  0.00     0.025 A 
ATOM      5  C   LIG d   1       3.398  -0.461  -4.591  0.00  0.00     0.274 A 
ATOM      6  C   LIG d   1       2.784  -0.629  -3.363  0.00  0.00     0.016 A 
ATOM      7  H   LIG d   1       2.814  -1.650  -1.485  0.00  0.00     0.062 H 
ATOM      8  H   LIG d   1       4.839  -2.943  -2.019  0.00  0.00     0.062 H 
ATOM      9  H   LIG d   1       5.012  -1.051  -5.861  0.00  0.00     0.069 H 
ATOM     10  H   LIG d   1       1.896  -0.061  -3.125  0.00  0.00     0.069 H 
ENDROOT
BRANCH   3  11
ATOM     11  C   LIG d   1       6.278  -2.861  -4.305  0.00  0.00     0.080 A 
ATOM     12  N   LIG d   1       7.413  -2.643  -3.645  0.00  0.00    -0.225 NA
ATOM     13  C   LIG d   1       8.506  -3.330  -3.921  0.00  0.00     0.156 A 
ATOM     14  S   LIG d   1       7.937  -4.392  -5.242  0.00  0.00    -0.060 SA
ATOM     15  C   LIG d   1       6.249  -3.805  -5.293  0.00  0.00     0.005 A 
ATOM     16  H   LIG d   1       5.432  -4.112  -5.929  0.00  0.00     0.072 H 
BRANCH  13  17
ATOM     17  N   LIG d   1       9.762  -3.247  -3.345  0.00  0.00    -0.338 N 
ATOM     18  H   LIG d   1       9.991  -2.489  -2.785  0.00  0.00     0.144 HD
ATOM     19  H   LIG d   1      10.415  -3.948  -3.501  0.00  0.00     0.144 HD
ENDBRANCH  13  17
ENDBRANCH   3  11
BRANCH   5  20
ATOM     20  N   LIG d   1       2.839   0.494  -5.573  0.00  0.00     0.080 N 
ATOM     21  O   LIG d   1       2.647   0.145  -6.715  0.00  0.00     0.041 OA
ATOM     22  O   LIG d   1       2.575   1.624  -5.235  0.00  0.00    -0.576 OA
ENDBRANCH   5  20
TORSDOF 3
ENDMDL
MODEL 2
REMARK VINA RESULT:      -5.3      3.570      4.934
REMARK  3 active torsions:
REMARK  status: ('A' for Active; 'I' for Inactive)
REMARK    1  A    between atoms: C_3  and  C_10 
REMARK    2  A    between atoms: C_5  and  N_7 
REMARK    3  A    between atoms: C_13  and  N_15 
ROOT
ATOM      1  C   LIG d   1       4.559  -2.547  -3.474  0.00  0.00    -0.055 A 
ATOM      2  C   LIG d   1       4.412  -2.281  -4.821  0.00  0.00    -0.052 A 
ATOM      3  C   LIG d   1       4.159  -0.979  -5.248  0.00  0.00     0.007 A 
ATOM      4  C   LIG d   1       4.057   0.050  -4.312  0.00  0.00     0.025 A 
ATOM      5  C   LIG d   1       4.207  -0.228  -2.968  0.00  0.00     0.274 A 
ATOM      6  C   LIG d   1       4.457  -1.523  -2.549  0.00  0.00     0.016 A 
ATOM      7  H   LIG d   1       4.751  -3.556  -3.141  0.00  0.00     0.062 H 
ATOM      8  H   LIG d   1       4.492  -3.081  -5.542  0.00  0.00     0.062 H 
ATOM      9  H   LIG d   1       3.862   1.060  -4.637  0.00  0.00     0.069 H 
ATOM     10  H   LIG d   1       4.573  -1.734  -1.497  0.00  0.00     0.069 H 
ENDROOT
BRANCH   3  11
ATOM     11  C   LIG d   1       4.001  -0.687  -6.693  0.00  0.00     0.080 A 
ATOM     12  N   LIG d   1       3.444   0.454  -7.092  0.00  0.00    -0.225 NA
ATOM     13  C   LIG d   1       3.299   0.731  -8.375  0.00  0.00     0.156 A 
ATOM     14  S   LIG d   1       3.987  -0.732  -9.137  0.00  0.00    -0.060 SA
ATOM     15  C   LIG d   1       4.419  -1.591  -7.629  0.00  0.00     0.005 A 
ATOM     16  H   LIG d   1       4.883  -2.556  -7.496  0.00  0.00     0.072 H 
BRANCH  13  17
ATOM     17  N   LIG d   1       2.753   1.855  -8.972  0.00  0.00    -0.338 N 
ATOM     18  H   LIG d   1       3.300   2.644  -9.112  0.00  0.00     0.144 HD
ATOM     19  H   LIG d   1       1.824   1.853  -9.252  0.00  0.00     0.144 HD
ENDBRANCH  13  17
ENDBRANCH   3  11
BRANCH   5  20
ATOM     20  N   LIG d   1       4.098   0.862  -1.972  0.00  0.00     0.080 N 
ATOM     21  O   LIG d   1       4.949   0.992  -1.123  0.00  0.00     0.041 OA
ATOM     22  O   LIG d   1       3.158   1.622  -2.008  0.00  0.00    -0.576 OA
ENDBRANCH   5  20
TORSDOF 3
ENDMDL
MODEL 3
REMARK VINA RESULT:      -5.2      3.146      3.583
REMARK  3 active torsions:
REMARK  status: ('A' for Active; 'I' for Inactive)
REMARK    1  A    between atoms: C_3  and  C_10 
REMARK    2  A    between atoms: C_5  and  N_7 
REMARK    3  A    between atoms: C_13  and  N_15 
ROOT
ATOM      1  C   LIG d   1       4.053  -1.723  -2.015  0.00  0.00    -0.055 A 
ATOM      2  C   LIG d   1       4.020  -2.636  -3.051  0.00  0.00    -0.052 A 
ATOM      3  C   LIG d   1       4.782  -2.412  -4.197  0.00  0.00     0.007 A 
ATOM      4  C   LIG d   1       5.574  -1.269  -4.290  0.00  0.00     0.025 A 
ATOM      5  C   LIG d   1       5.599  -0.364  -3.248  0.00  0.00     0.274 A 
ATOM      6  C   LIG d   1       4.841  -0.590  -2.113  0.00  0.00     0.016 A 
ATOM      7  H   LIG d   1       3.460  -1.892  -1.129  0.00  0.00     0.062 H 
ATOM      8  H   LIG d   1       3.405  -3.520  -2.973  0.00  0.00     0.062 H 
ATOM      9  H   LIG d   1       6.166  -1.092  -5.175  0.00  0.00     0.069 H 
ATOM     10  H   LIG d   1       4.864   0.121  -1.301  0.00  0.00     0.069 H 
ENDROOT
BRANCH   3  11
ATOM     11  C   LIG d   1       4.751  -3.389  -5.313  0.00  0.00     0.080 A 
ATOM     12  N   LIG d   1       4.698  -4.695  -5.062  0.00  0.00    -0.225 NA
ATOM     13  C   LIG d   1       4.665  -5.577  -6.043  0.00  0.00     0.156 A 
ATOM     14  S   LIG d   1       4.726  -4.517  -7.481  0.00  0.00    -0.060 SA
ATOM     15  C   LIG d   1       4.783  -2.957  -6.609  0.00  0.00     0.005 A 
ATOM     16  H   LIG d   1       4.829  -1.951  -6.999  0.00  0.00     0.072 H 
BRANCH  13  17
ATOM     17  N   LIG d   1       4.606  -6.960  -5.978  0.00  0.00    -0.338 N 
ATOM     18  H   LIG d   1       3.963  -7.390  -5.394  0.00  0.00     0.144 HD
ATOM     19  H   LIG d   1       5.207  -7.497  -6.516  0.00  0.00     0.144 HD
ENDBRANCH  13  17
ENDBRANCH   3  11
BRANCH   5  20
ATOM     20  N   LIG d   1       6.439   0.851  -3.345  0.00  0.00     0.080 N 
ATOM     21  O   LIG d   1       7.605   0.756  -3.652  0.00  0.00     0.041 OA
ATOM     22  O   LIG d   1       5.960   1.937  -3.117  0.00  0.00    -0.576 OA
ENDBRANCH   5  20
TORSDOF 3
ENDMDL
MODEL 4
REMARK VINA RESULT:      -5.0      3.735      5.488
REMARK  3 active torsions:
REMARK  status: ('A' for Active; 'I' for Inactive)
REMARK    1  A    between atoms: C_3  and  C_10 
REMARK    2  A    between atoms: C_5  and  N_7 
REMARK    3  A    between atoms: C_13  and  N_15 
ROOT
ATOM      1  C   LIG d   1       7.357  -3.656  -4.740  0.00  0.00    -0.055 A 
ATOM      2  C   LIG d   1       6.782  -2.508  -4.233  0.00  0.00    -0.052 A 
ATOM      3  C   LIG d   1       5.395  -2.385  -4.196  0.00  0.00     0.007 A 
ATOM      4  C   LIG d   1       4.594  -3.423  -4.669  0.00  0.00     0.025 A 
ATOM      5  C   LIG d   1       5.180  -4.567  -5.174  0.00  0.00     0.274 A 
ATOM      6  C   LIG d   1       6.558  -4.684  -5.208  0.00  0.00     0.016 A 
ATOM      7  H   LIG d   1       8.433  -3.752  -4.774  0.00  0.00     0.062 H 
ATOM      8  H   LIG d   1       7.407  -1.706  -3.867  0.00  0.00     0.062 H 
ATOM      9  H   LIG d   1       3.519  -3.333  -4.642  0.00  0.00     0.069 H 
ATOM     10  H   LIG d   1       7.012  -5.581  -5.604  0.00  0.00     0.069 H 
ENDROOT
BRANCH   3  11
ATOM     11  C   LIG d   1       4.771  -1.153  -3.652  0.00  0.00     0.080 A 
ATOM     12  N   LIG d   1       4.008  -0.387  -4.428  0.00  0.00    -0.225 NA
ATOM     13  C   LIG d   1       3.443   0.710  -3.959  0.00  0.00     0.156 A 
ATOM     14  S   LIG d   1       4.020   0.715  -2.267  0.00  0.00    -0.060 SA
ATOM     15  C   LIG d   1       4.979  -0.791  -2.351  0.00  0.00     0.005 A 
ATOM     16  H   LIG d   1       5.563  -1.279  -1.585  0.00  0.00     0.072 H 
BRANCH  13  17
ATOM     17  N   LIG d   1       2.623   1.619  -4.607  0.00  0.00    -0.338 N 
ATOM     18  H   LIG d   1       2.493   1.558  -5.566  0.00  0.00     0.144 HD
ATOM     19  H   LIG d   1       2.180   2.318  -4.102  0.00  0.00     0.144 HD
ENDBRANCH  13  17
ENDBRANCH   3  11
BRANCH   5  20
ATOM     20  N   LIG d   1       4.332  -5.670  -5.677  0.00  0.00     0.080 N 
ATOM     21  O   LIG d   1       3.398  -5.430  -6.407  0.00  0.00     0.041 OA
ATOM     22  O   LIG d   1       4.572  -6.811  -5.358  0.00  0.00    -0.576 OA
ENDBRANCH   5  20
TORSDOF 3
ENDMDL
MODEL 5
REMARK VINA RESULT:      -5.0      1.707      2.141
REMARK  3 active torsions:
REMARK  status: ('A' for Active; 'I' for Inactive)
REMARK    1  A    between atoms: C_3  and  C_10 
REMARK    2  A    between atoms: C_5  and  N_7 
REMARK    3  A    between atoms: C_13  and  N_15 
ROOT
ATOM      1  C   LIG d   1       4.502   0.219  -1.733  0.00  0.00    -0.055 A 
ATOM      2  C   LIG d   1       5.339  -0.781  -2.187  0.00  0.00    -0.052 A 
ATOM      3  C   LIG d   1       5.209  -1.258  -3.490  0.00  0.00     0.007 A 
ATOM      4  C   LIG d   1       4.234  -0.721  -4.329  0.00  0.00     0.025 A 
ATOM      5  C   LIG d   1       3.403   0.279  -3.865  0.00  0.00     0.274 A 
ATOM      6  C   LIG d   1       3.537   0.748  -2.571  0.00  0.00     0.016 A 
ATOM      7  H   LIG d   1       4.599   0.587  -0.723  0.00  0.00     0.062 H 
ATOM      8  H   LIG d   1       6.093  -1.193  -1.532  0.00  0.00     0.062 H 
ATOM      9  H   LIG d   1       4.130  -1.086  -5.340  0.00  0.00     0.069 H 
ATOM     10  H   LIG d   1       2.884   1.531  -2.213  0.00  0.00     0.069 H 
ENDROOT
BRANCH   3  11
ATOM     11  C   LIG d   1       6.106  -2.331  -3.982  0.00  0.00     0.080 A 
ATOM     12  N   LIG d   1       5.632  -3.297  -4.766  0.00  0.00    -0.225 NA
ATOM     13  C   LIG d   1       6.417  -4.257  -5.216  0.00  0.00     0.156 A 
ATOM     14  S   LIG d   1       7.986  -3.812  -4.483  0.00  0.00    -0.060 SA
ATOM     15  C   LIG d   1       7.427  -2.343  -3.630  0.00  0.00     0.005 A 
ATOM     16  H   LIG d   1       7.980  -1.655  -3.009  0.00  0.00     0.072 H 
BRANCH  13  17
ATOM     17  N   LIG d   1       6.108  -5.331  -6.036  0.00  0.00    -0.338 N 
ATOM     18  H   LIG d   1       5.551  -5.199  -6.819  0.00  0.00     0.144 HD
ATOM     19  H   LIG d   1       6.449  -6.214  -5.827  0.00  0.00     0.144 HD
ENDBRANCH  13  17
ENDBRANCH   3  11
BRANCH   5  20
ATOM     20  N   LIG d   1       2.367   0.850  -4.755  0.00  0.00     0.080 N 
ATOM     21  O   LIG d   1       2.453   1.998  -5.124  0.00  0.00     0.041 OA
ATOM     22  O   LIG d   1       1.435   0.168  -5.113  0.00  0.00    -0.576 OA
ENDBRANCH   5  20
TORSDOF 3
ENDMDL
MODEL 6
REMARK VINA RESULT:      -5.0      9.500     10.061
REMARK  3 active torsions:
REMARK  status: ('A' for Active; 'I' for Inactive)
REMARK    1  A    between atoms: C_3  and  C_10 
REMARK    2  A    between atoms: C_5  and  N_7 
REMARK    3  A    between atoms: C_13  and  N_15 
ROOT
ATOM      1  C   LIG d   1       9.570   7.692  -1.876  0.00  0.00    -0.055 A 
ATOM      2  C   LIG d   1       9.734   6.499  -2.552  0.00  0.00    -0.052 A 
ATOM      3  C   LIG d   1      10.379   5.431  -1.930  0.00  0.00     0.007 A 
ATOM      4  C   LIG d   1      10.853   5.574  -0.626  0.00  0.00     0.025 A 
ATOM      5  C   LIG d   1      10.682   6.771   0.040  0.00  0.00     0.274 A 
ATOM      6  C   LIG d   1      10.042   7.827  -0.583  0.00  0.00     0.016 A 
ATOM      7  H   LIG d   1       9.074   8.521  -2.359  0.00  0.00     0.062 H 
ATOM      8  H   LIG d   1       9.365   6.394  -3.562  0.00  0.00     0.062 H 
ATOM      9  H   LIG d   1      11.352   4.750  -0.140  0.00  0.00     0.069 H 
ATOM     10  H   LIG d   1       9.911   8.761  -0.057  0.00  0.00     0.069 H 
ENDROOT
BRANCH   3  11
ATOM     11  C   LIG d   1      10.558   4.148  -2.651  0.00  0.00     0.080 A 
ATOM     12  N   LIG d   1       9.514   3.356  -2.885  0.00  0.00    -0.225 NA
ATOM     13  C   LIG d   1       9.656   2.212  -3.529  0.00  0.00     0.156 A 
ATOM     14  S   LIG d   1      11.415   2.196  -3.848  0.00  0.00    -0.060 SA
ATOM     15  C   LIG d   1      11.799   3.763  -3.077  0.00  0.00     0.005 A 
ATOM     16  H   LIG d   1      12.748   4.266  -2.975  0.00  0.00     0.072 H 
BRANCH  13  17
ATOM     17  N   LIG d   1       8.697   1.271  -3.864  0.00  0.00    -0.338 N 
ATOM     18  H   LIG d   1       8.835   0.337  -3.642  0.00  0.00     0.144 HD
ATOM     19  H   LIG d   1       7.887   1.545  -4.321  0.00  0.00     0.144 HD
ENDBRANCH  13  17
ENDBRANCH   3  11
BRANCH   5  20
ATOM     20  N   LIG d   1      11.185   6.923   1.423  0.00  0.00     0.080 N 
ATOM     21  O   LIG d   1      11.668   7.974   1.778  0.00  0.00     0.041 OA
ATOM     22  O   LIG d   1      11.115   5.998   2.198  0.00  0.00    -0.576 OA
ENDBRANCH   5  20
TORSDOF 3
ENDMDL
MODEL 7
REMARK VINA RESULT:      -4.9      4.594      4.935
REMARK  3 active torsions:
REMARK  status: ('A' for Active; 'I' for Inactive)
REMARK    1  A    between atoms: C_3  and  C_10 
REMARK    2  A    between atoms: C_5  and  N_7 
REMARK    3  A    between atoms: C_13  and  N_15 
ROOT
ATOM      1  C   LIG d   1       6.748  -1.641  -3.684  0.00  0.00    -0.055 A 
ATOM      2  C   LIG d   1       7.622  -0.619  -3.996  0.00  0.00    -0.052 A 
ATOM      3  C   LIG d   1       7.232   0.707  -3.816  0.00  0.00     0.007 A 
ATOM      4  C   LIG d   1       5.961   0.994  -3.320  0.00  0.00     0.025 A 
ATOM      5  C   LIG d   1       5.096  -0.037  -3.011  0.00  0.00     0.274 A 
ATOM      6  C   LIG d   1       5.488  -1.351  -3.192  0.00  0.00     0.016 A 
ATOM      7  H   LIG d   1       7.047  -2.669  -3.827  0.00  0.00     0.062 H 
ATOM      8  H   LIG d   1       8.606  -0.847  -4.379  0.00  0.00     0.062 H 
ATOM      9  H   LIG d   1       5.655   2.019  -3.178  0.00  0.00     0.069 H 
ATOM     10  H   LIG d   1       4.807  -2.153  -2.949  0.00  0.00     0.069 H 
ENDROOT
BRANCH   3  11
ATOM     11  C   LIG d   1       8.167   1.809  -4.149  0.00  0.00     0.080 A 
ATOM     12  N   LIG d   1       8.821   2.452  -3.184  0.00  0.00    -0.225 NA
ATOM     13  C   LIG d   1       9.659   3.432  -3.464  0.00  0.00     0.156 A 
ATOM     14  S   LIG d   1       9.544   3.505  -5.246  0.00  0.00    -0.060 SA
ATOM     15  C   LIG d   1       8.361   2.180  -5.450  0.00  0.00     0.005 A 
ATOM     16  H   LIG d   1       7.921   1.782  -6.352  0.00  0.00     0.072 H 
BRANCH  13  17
ATOM     17  N   LIG d   1      10.423   4.204  -2.604  0.00  0.00    -0.338 N 
ATOM     18  H   LIG d   1      11.107   3.788  -2.056  0.00  0.00     0.144 HD
ATOM     19  H   LIG d   1      10.275   5.161  -2.550  0.00  0.00     0.144 HD
ENDBRANCH  13  17
ENDBRANCH   3  11
BRANCH   5  20
ATOM     20  N   LIG d   1       3.746   0.266  -2.485  0.00  0.00     0.080 N 
ATOM     21  O   LIG d   1       2.845  -0.525  -2.642  0.00  0.00     0.041 OA
ATOM     22  O   LIG d   1       3.544   1.304  -1.899  0.00  0.00    -0.576 OA
ENDBRANCH   5  20
TORSDOF 3
ENDMDL
MODEL 8
REMARK VINA RESULT:      -4.9     10.237     11.178
REMARK  3 active torsions:
REMARK  status: ('A' for Active; 'I' for Inactive)
REMARK    1  A    between atoms: C_3  and  C_10 
REMARK    2  A    between atoms: C_5  and  N_7 
REMARK    3  A    between atoms: C_13  and  N_15 
ROOT
ATOM      1  C   LIG d   1       9.606   4.298  -4.081  0.00  0.00    -0.055 A 
ATOM      2  C   LIG d   1       9.523   5.413  -4.892  0.00  0.00    -0.052 A 
ATOM      3  C   LIG d   1       9.796   6.675  -4.368  0.00  0.00     0.007 A 
ATOM      4  C   LIG d   1      10.153   6.805  -3.027  0.00  0.00     0.025 A 
ATOM      5  C   LIG d   1      10.234   5.684  -2.225  0.00  0.00     0.274 A 
ATOM      6  C   LIG d   1       9.962   4.434  -2.751  0.00  0.00     0.016 A 
ATOM      7  H   LIG d   1       9.391   3.320  -4.484  0.00  0.00     0.062 H 
ATOM      8  H   LIG d   1       9.245   5.306  -5.931  0.00  0.00     0.062 H 
ATOM      9  H   LIG d   1      10.366   7.780  -2.616  0.00  0.00     0.069 H 
ATOM     10  H   LIG d   1      10.026   3.560  -2.119  0.00  0.00     0.069 H 
ENDROOT
BRANCH   3  11
ATOM     11  C   LIG d   1       9.708   7.875  -5.235  0.00  0.00     0.080 A 
ATOM     12  N   LIG d   1       9.228   7.778  -6.472  0.00  0.00    -0.225 NA
ATOM     13  C   LIG d   1       9.139   8.837  -7.255  0.00  0.00     0.156 A 
ATOM     14  S   LIG d   1       9.794  10.121  -6.197  0.00  0.00    -0.060 SA
ATOM     15  C   LIG d   1      10.125   9.092  -4.772  0.00  0.00     0.005 A 
ATOM     16  H   LIG d   1      10.540   9.359  -3.812  0.00  0.00     0.072 H 
BRANCH  13  17
ATOM     17  N   LIG d   1       8.668   8.930  -8.554  0.00  0.00    -0.338 N 
ATOM     18  H   LIG d   1       7.736   9.142  -8.718  0.00  0.00     0.144 HD
ATOM     19  H   LIG d   1       9.270   8.782  -9.300  0.00  0.00     0.144 HD
ENDBRANCH  13  17
ENDBRANCH   3  11
BRANCH   5  20
ATOM     20  N   LIG d   1      10.613   5.821  -0.801  0.00  0.00     0.080 N 
ATOM     21  O   LIG d   1      11.495   5.133  -0.342  0.00  0.00     0.041 OA
ATOM     22  O   LIG d   1      10.039   6.619  -0.097  0.00  0.00    -0.576 OA
ENDBRANCH   5  20
TORSDOF 3
ENDMDL
MODEL 9
REMARK VINA RESULT:      -4.9      2.620      3.159
REMARK  3 active torsions:
REMARK  status: ('A' for Active; 'I' for Inactive)
REMARK    1  A    between atoms: C_3  and  C_10 
REMARK    2  A    between atoms: C_5  and  N_7 
REMARK    3  A    between atoms: C_13  and  N_15 
ROOT
ATOM      1  C   LIG d   1       3.801  -2.115  -2.278  0.00  0.00    -0.055 A 
ATOM      2  C   LIG d   1       4.328  -2.870  -3.307  0.00  0.00    -0.052 A 
ATOM      3  C   LIG d   1       5.106  -2.260  -4.288  0.00  0.00     0.007 A 
ATOM      4  C   LIG d   1       5.349  -0.888  -4.226  0.00  0.00     0.025 A 
ATOM      5  C   LIG d   1       4.817  -0.143  -3.193  0.00  0.00     0.274 A 
ATOM      6  C   LIG d   1       4.045  -0.754  -2.221  0.00  0.00     0.016 A 
ATOM      7  H   LIG d   1       3.194  -2.585  -1.519  0.00  0.00     0.062 H 
ATOM      8  H   LIG d   1       4.137  -3.933  -3.350  0.00  0.00     0.062 H 
ATOM      9  H   LIG d   1       5.951  -0.411  -4.983  0.00  0.00     0.069 H 
ATOM     10  H   LIG d   1       3.631  -0.166  -1.415  0.00  0.00     0.069 H 
ENDROOT
BRANCH   3  11
ATOM     11  C   LIG d   1       5.676  -3.066  -5.395  0.00  0.00     0.080 A 
ATOM     12  N   LIG d   1       5.230  -2.911  -6.640  0.00  0.00    -0.225 NA
ATOM     13  C   LIG d   1       5.728  -3.618  -7.636  0.00  0.00     0.156 A 
ATOM     14  S   LIG d   1       6.939  -4.625  -6.791  0.00  0.00    -0.060 SA
ATOM     15  C   LIG d   1       6.660  -3.982  -5.146  0.00  0.00     0.005 A 
ATOM     16  H   LIG d   1       7.136  -4.245  -4.214  0.00  0.00     0.072 H 
BRANCH  13  17
ATOM     17  N   LIG d   1       5.398  -3.591  -8.981  0.00  0.00    -0.338 N 
ATOM     18  H   LIG d   1       4.957  -4.352  -9.388  0.00  0.00     0.144 HD
ATOM     19  H   LIG d   1       5.608  -2.809  -9.517  0.00  0.00     0.144 HD
ENDBRANCH  13  17
ENDBRANCH   3  11
BRANCH   5  20
ATOM     20  N   LIG d   1       5.073   1.313  -3.125  0.00  0.00     0.080 N 
ATOM     21  O   LIG d   1       4.148   2.092  -3.149  0.00  0.00     0.041 OA
ATOM     22  O   LIG d   1       6.207   1.724  -3.048  0.00  0.00    -0.576 OA
ENDBRANCH   5  20
TORSDOF 3
ENDMDL
MODEL 10
REMARK VINA RESULT:      -4.7      3.630      5.244
REMARK  3 active torsions:
REMARK  status: ('A' for Active; 'I' for Inactive)
REMARK    1  A    between atoms: C_3  and  C_10 
REMARK    2  A    between atoms: C_5  and  N_7 
REMARK    3  A    between atoms: C_13  and  N_15 
ROOT
ATOM      1  C   LIG d   1       2.245   0.359  -4.700  0.00  0.00    -0.055 A 
ATOM      2  C   LIG d   1       2.722   0.324  -5.995  0.00  0.00    -0.052 A 
ATOM      3  C   LIG d   1       3.933  -0.309  -6.272  0.00  0.00     0.007 A 
ATOM      4  C   LIG d   1       4.655  -0.905  -5.239  0.00  0.00     0.025 A 
ATOM      5  C   LIG d   1       4.168  -0.864  -3.948  0.00  0.00     0.274 A 
ATOM      6  C   LIG d   1       2.966  -0.234  -3.679  0.00  0.00     0.016 A 
ATOM      7  H   LIG d   1       1.310   0.853  -4.482  0.00  0.00     0.062 H 
ATOM      8  H   LIG d   1       2.159   0.788  -6.791  0.00  0.00     0.062 H 
ATOM      9  H   LIG d   1       5.592  -1.397  -5.449  0.00  0.00     0.069 H 
ATOM     10  H   LIG d   1       2.590  -0.205  -2.667  0.00  0.00     0.069 H 
ENDROOT
BRANCH   3  11
ATOM     11  C   LIG d   1       4.450  -0.350  -7.662  0.00  0.00     0.080 A 
ATOM     12  N   LIG d   1       3.965   0.478  -8.585  0.00  0.00    -0.225 NA
ATOM     13  C   LIG d   1       4.417   0.457  -9.824  0.00  0.00     0.156 A 
ATOM     14  S   LIG d   1       5.638  -0.846  -9.740  0.00  0.00    -0.060 SA
ATOM     15  C   LIG d   1       5.425  -1.243  -8.009  0.00  0.00     0.005 A 
ATOM     16  H   LIG d   1       5.928  -1.983  -7.405  0.00  0.00     0.072 H 
BRANCH  13  17
ATOM     17  N   LIG d   1       4.043   1.236 -10.907  0.00  0.00    -0.338 N 
ATOM     18  H   LIG d   1       3.556   2.062 -10.765  0.00  0.00     0.144 HD
ATOM     19  H   LIG d   1       4.267   0.954 -11.808  0.00  0.00     0.144 HD
ENDBRANCH  13  17
ENDBRANCH   3  11
BRANCH   5  20
ATOM     20  N   LIG d   1       4.933  -1.496  -2.851  0.00  0.00     0.080 N 
ATOM     21  O   LIG d   1       4.412  -1.675  -1.774  0.00  0.00     0.041 OA
ATOM     22  O   LIG d   1       6.081  -1.832  -3.029  0.00  0.00    -0.576 OA
ENDBRANCH   5  20
TORSDOF 3
ENDMDL
