MODEL 1
REMARK VINA RESULT:      -6.9      0.000      0.000
REMARK  3 active torsions:
REMARK  status: ('A' for Active; 'I' for Inactive)
REMARK    1  A    between atoms: N_9  and  C_10 
REMARK    2  A    between atoms: C_10  and  N_11 
REMARK    3  A    between atoms: N_11  and  C_12 
ROOT
ATOM      1  C   LIG d   1       2.366   0.349  -6.145  0.00  0.00     0.106 C 
ATOM      2  H   LIG d   1       1.278   0.417  -6.121  0.00  0.00     0.071 H 
ATOM      3  H   LIG d   1       2.661  -0.667  -6.408  0.00  0.00     0.071 H 
ENDROOT
BRANCH   1   4
ATOM      4  N   LIG d   1       2.906   0.689  -4.827  0.00  0.00    -0.227 N 
ATOM      5  C   LIG d   1       3.415  -0.184  -3.897  0.00  0.00     0.091 A 
ATOM      6  C   LIG d   1       3.601  -1.562  -3.864  0.00  0.00    -0.034 A 
ATOM      7  C   LIG d   1       3.811   0.602  -2.800  0.00  0.00     0.113 A 
ATOM      8  C   LIG d   1       4.158  -2.148  -2.761  0.00  0.00    -0.060 A 
ATOM      9  H   LIG d   1       3.302  -2.169  -4.707  0.00  0.00     0.064 H 
ATOM     10  C   LIG d   1       4.546  -1.378  -1.672  0.00  0.00    -0.060 A 
ATOM     11  H   LIG d   1       4.297  -3.218  -2.737  0.00  0.00     0.062 H 
ATOM     12  C   LIG d   1       4.379  -0.023  -1.682  0.00  0.00    -0.032 A 
ATOM     13  H   LIG d   1       4.983  -1.856  -0.810  0.00  0.00     0.062 H 
ATOM     14  H   LIG d   1       4.684   0.565  -0.829  0.00  0.00     0.064 H 
ATOM     15  N   LIG d   1       3.528   1.886  -3.094  0.00  0.00    -0.129 NA
ATOM     16  N   LIG d   1       3.001   1.971  -4.265  0.00  0.00    -0.063 NA
ENDBRANCH   1   4
BRANCH   1  17
ATOM     17  N   LIG d   1       2.891   1.284  -7.144  0.00  0.00    -0.325 N 
ATOM     18  H   LIG d   1       3.043   2.212  -6.908  0.00  0.00     0.148 HD
BRANCH  17  19
ATOM     19  C   LIG d   1       3.173   0.837  -8.438  0.00  0.00     0.029 A 
ATOM     20  C   LIG d   1       3.700   1.714  -9.378  0.00  0.00    -0.040 A 
ATOM     21  C   LIG d   1       3.978   1.269 -10.656  0.00  0.00    -0.047 A 
ATOM     22  H   LIG d   1       3.892   2.742  -9.110  0.00  0.00     0.064 H 
ATOM     23  C   LIG d   1       3.731  -0.048 -11.000  0.00  0.00     0.013 A 
ATOM     24  H   LIG d   1       4.387   1.950 -11.387  0.00  0.00     0.063 H 
ATOM     25  C   LIG d   1       3.206  -0.924 -10.067  0.00  0.00    -0.047 A 
ATOM     26  I   LIG d   1       4.153  -0.718 -12.940  0.00  0.00    -0.044 I 
ATOM     27  C   LIG d   1       2.926  -0.485  -8.787  0.00  0.00    -0.040 A 
ATOM     28  H   LIG d   1       3.018  -1.952 -10.336  0.00  0.00     0.063 H 
ATOM     29  H   LIG d   1       2.517  -1.168  -8.059  0.00  0.00     0.064 H 
ENDBRANCH  17  19
ENDBRANCH   1  17
TORSDOF 3
ENDMDL
MODEL 2
REMARK VINA RESULT:      -6.5      5.570      6.871
REMARK  3 active torsions:
REMARK  status: ('A' for Active; 'I' for Inactive)
REMARK    1  A    between atoms: N_9  and  C_10 
REMARK    2  A    between atoms: C_10  and  N_11 
REMARK    3  A    between atoms: N_11  and  C_12 
ROOT
ATOM      1  C   LIG d   1       7.789   0.613  -4.835  0.00  0.00     0.106 C 
ATOM      2  H   LIG d   1       7.567   1.333  -5.622  0.00  0.00     0.071 H 
ATOM      3  H   LIG d   1       7.900  -0.380  -5.271  0.00  0.00     0.071 H 
ENDROOT
BRANCH   1   4
ATOM      4  N   LIG d   1       6.694   0.600  -3.862  0.00  0.00    -0.227 N 
ATOM      5  C   LIG d   1       5.869  -0.458  -3.565  0.00  0.00     0.091 A 
ATOM      6  C   LIG d   1       5.782  -1.771  -4.016  0.00  0.00    -0.034 A 
ATOM      7  C   LIG d   1       4.983   0.003  -2.576  0.00  0.00     0.113 A 
ATOM      8  C   LIG d   1       4.826  -2.604  -3.503  0.00  0.00    -0.060 A 
ATOM      9  H   LIG d   1       6.464  -2.131  -4.773  0.00  0.00     0.064 H 
ATOM     10  C   LIG d   1       3.944  -2.153  -2.529  0.00  0.00    -0.060 A 
ATOM     11  H   LIG d   1       4.758  -3.622  -3.857  0.00  0.00     0.062 H 
ATOM     12  C   LIG d   1       4.013  -0.871  -2.066  0.00  0.00    -0.032 A 
ATOM     13  H   LIG d   1       3.197  -2.823  -2.135  0.00  0.00     0.062 H 
ATOM     14  H   LIG d   1       3.322  -0.531  -1.310  0.00  0.00     0.064 H 
ATOM     15  N   LIG d   1       5.289   1.290  -2.322  0.00  0.00    -0.129 NA
ATOM     16  N   LIG d   1       6.278   1.668  -3.053  0.00  0.00    -0.063 NA
ENDBRANCH   1   4
BRANCH   1  17
ATOM     17  N   LIG d   1       9.034   0.993  -4.163  0.00  0.00    -0.325 N 
ATOM     18  H   LIG d   1       9.630   0.308  -3.822  0.00  0.00     0.148 HD
BRANCH  17  19
ATOM     19  C   LIG d   1       9.364   2.343  -4.016  0.00  0.00     0.029 A 
ATOM     20  C   LIG d   1      10.080   2.767  -2.904  0.00  0.00    -0.040 A 
ATOM     21  C   LIG d   1      10.404   4.102  -2.760  0.00  0.00    -0.047 A 
ATOM     22  H   LIG d   1      10.382   2.054  -2.150  0.00  0.00     0.064 H 
ATOM     23  C   LIG d   1      10.017   5.016  -3.724  0.00  0.00     0.013 A 
ATOM     24  H   LIG d   1      10.960   4.433  -1.896  0.00  0.00     0.063 H 
ATOM     25  C   LIG d   1       9.303   4.597  -4.833  0.00  0.00    -0.047 A 
ATOM     26  I   LIG d   1      10.511   7.040  -3.503  0.00  0.00    -0.044 I 
ATOM     27  C   LIG d   1       8.977   3.263  -4.981  0.00  0.00    -0.040 A 
ATOM     28  H   LIG d   1       9.006   5.312  -5.586  0.00  0.00     0.063 H 
ATOM     29  H   LIG d   1       8.420   2.937  -5.847  0.00  0.00     0.064 H 
ENDBRANCH  17  19
ENDBRANCH   1  17
TORSDOF 3
ENDMDL
MODEL 3
REMARK VINA RESULT:      -6.5      1.619      1.952
REMARK  3 active torsions:
REMARK  status: ('A' for Active; 'I' for Inactive)
REMARK    1  A    between atoms: N_9  and  C_10 
REMARK    2  A    between atoms: C_10  and  N_11 
REMARK    3  A    between atoms: N_11  and  C_12 
ROOT
ATOM      1  C   LIG d   1       3.656  -0.803  -7.145  0.00  0.00     0.106 C 
ATOM      2  H   LIG d   1       3.791  -1.875  -7.004  0.00  0.00     0.071 H 
ATOM      3  H   LIG d   1       4.535  -0.387  -7.636  0.00  0.00     0.071 H 
ENDROOT
BRANCH   1   4
ATOM      4  N   LIG d   1       3.471  -0.158  -5.843  0.00  0.00    -0.227 N 
ATOM      5  C   LIG d   1       3.820  -0.667  -4.616  0.00  0.00     0.091 A 
ATOM      6  C   LIG d   1       4.425  -1.847  -4.196  0.00  0.00    -0.034 A 
ATOM      7  C   LIG d   1       3.452   0.306  -3.671  0.00  0.00     0.113 A 
ATOM      8  C   LIG d   1       4.649  -2.060  -2.864  0.00  0.00    -0.060 A 
ATOM      9  H   LIG d   1       4.713  -2.596  -4.920  0.00  0.00     0.064 H 
ATOM     10  C   LIG d   1       4.283  -1.105  -1.925  0.00  0.00    -0.060 A 
ATOM     11  H   LIG d   1       5.116  -2.978  -2.540  0.00  0.00     0.062 H 
ATOM     12  C   LIG d   1       3.693   0.063  -2.311  0.00  0.00    -0.032 A 
ATOM     13  H   LIG d   1       4.468  -1.288  -0.878  0.00  0.00     0.062 H 
ATOM     14  H   LIG d   1       3.413   0.799  -1.572  0.00  0.00     0.064 H 
ATOM     15  N   LIG d   1       2.900   1.337  -4.339  0.00  0.00    -0.129 NA
ATOM     16  N   LIG d   1       2.896   1.100  -5.604  0.00  0.00    -0.063 NA
ENDBRANCH   1   4
BRANCH   1  17
ATOM     17  N   LIG d   1       2.474  -0.566  -7.979  0.00  0.00    -0.325 N 
ATOM     18  H   LIG d   1       1.695  -0.128  -7.604  0.00  0.00     0.148 HD
BRANCH  17  19
ATOM     19  C   LIG d   1       2.470  -0.972  -9.316  0.00  0.00     0.029 A 
ATOM     20  C   LIG d   1       3.565  -1.646  -9.842  0.00  0.00    -0.040 A 
ATOM     21  C   LIG d   1       3.559  -2.046 -11.164  0.00  0.00    -0.047 A 
ATOM     22  H   LIG d   1       4.422  -1.855  -9.218  0.00  0.00     0.064 H 
ATOM     23  C   LIG d   1       2.462  -1.778 -11.964  0.00  0.00     0.013 A 
ATOM     24  H   LIG d   1       4.410  -2.570 -11.574  0.00  0.00     0.063 H 
ATOM     25  C   LIG d   1       1.370  -1.107 -11.443  0.00  0.00    -0.047 A 
ATOM     26  I   LIG d   1       2.457  -2.387 -13.968  0.00  0.00    -0.044 I 
ATOM     27  C   LIG d   1       1.371  -0.705 -10.122  0.00  0.00    -0.040 A 
ATOM     28  H   LIG d   1       0.513  -0.903 -12.068  0.00  0.00     0.063 H 
ATOM     29  H   LIG d   1       0.518  -0.182  -9.716  0.00  0.00     0.064 H 
ENDBRANCH  17  19
ENDBRANCH   1  17
TORSDOF 3
ENDMDL
MODEL 4
REMARK VINA RESULT:      -6.4      2.396      2.754
REMARK  3 active torsions:
REMARK  status: ('A' for Active; 'I' for Inactive)
REMARK    1  A    between atoms: N_9  and  C_10 
REMARK    2  A    between atoms: C_10  and  N_11 
REMARK    3  A    between atoms: N_11  and  C_12 
ROOT
ATOM      1  C   LIG d   1       7.121  -0.128  -6.044  0.00  0.00     0.106 C 
ATOM      2  H   LIG d   1       6.895  -1.169  -6.275  0.00  0.00     0.071 H 
ATOM      3  H   LIG d   1       8.201   0.003  -5.980  0.00  0.00     0.071 H 
ENDROOT
BRANCH   1   4
ATOM      4  N   LIG d   1       6.508   0.233  -4.764  0.00  0.00    -0.227 N 
ATOM      5  C   LIG d   1       5.674  -0.549  -4.002  0.00  0.00     0.091 A 
ATOM      6  C   LIG d   1       5.168  -1.837  -4.136  0.00  0.00    -0.034 A 
ATOM      7  C   LIG d   1       5.345   0.219  -2.871  0.00  0.00     0.113 A 
ATOM      8  C   LIG d   1       4.344  -2.348  -3.171  0.00  0.00    -0.060 A 
ATOM      9  H   LIG d   1       5.422  -2.432  -5.001  0.00  0.00     0.064 H 
ATOM     10  C   LIG d   1       4.011  -1.592  -2.054  0.00  0.00    -0.060 A 
ATOM     11  H   LIG d   1       3.949  -3.347  -3.279  0.00  0.00     0.062 H 
ATOM     12  C   LIG d   1       4.498  -0.328  -1.897  0.00  0.00    -0.032 A 
ATOM     13  H   LIG d   1       3.359  -2.010  -1.302  0.00  0.00     0.062 H 
ATOM     14  H   LIG d   1       4.233   0.250  -1.024  0.00  0.00     0.064 H 
ATOM     15  N   LIG d   1       5.967   1.408  -2.990  0.00  0.00    -0.129 NA
ATOM     16  N   LIG d   1       6.650   1.449  -4.079  0.00  0.00    -0.063 NA
ENDBRANCH   1   4
BRANCH   1  17
ATOM     17  N   LIG d   1       6.587   0.733  -7.102  0.00  0.00    -0.325 N 
ATOM     18  H   LIG d   1       6.998   1.592  -7.282  0.00  0.00     0.148 HD
BRANCH  17  19
ATOM     19  C   LIG d   1       5.484   0.316  -7.851  0.00  0.00     0.029 A 
ATOM     20  C   LIG d   1       5.045  -1.000  -7.770  0.00  0.00    -0.040 A 
ATOM     21  C   LIG d   1       3.954  -1.410  -8.512  0.00  0.00    -0.047 A 
ATOM     22  H   LIG d   1       5.556  -1.702  -7.129  0.00  0.00     0.064 H 
ATOM     23  C   LIG d   1       3.298  -0.511  -9.334  0.00  0.00     0.013 A 
ATOM     24  H   LIG d   1       3.612  -2.432  -8.450  0.00  0.00     0.063 H 
ATOM     25  C   LIG d   1       3.733   0.800  -9.418  0.00  0.00    -0.047 A 
ATOM     26  I   LIG d   1       1.644  -1.137 -10.458  0.00  0.00    -0.044 I 
ATOM     27  C   LIG d   1       4.823   1.215  -8.678  0.00  0.00    -0.040 A 
ATOM     28  H   LIG d   1       3.217   1.501 -10.057  0.00  0.00     0.063 H 
ATOM     29  H   LIG d   1       5.162   2.238  -8.743  0.00  0.00     0.064 H 
ENDBRANCH  17  19
ENDBRANCH   1  17
TORSDOF 3
ENDMDL
MODEL 5
REMARK VINA RESULT:      -6.4      2.405      3.083
REMARK  3 active torsions:
REMARK  status: ('A' for Active; 'I' for Inactive)
REMARK    1  A    between atoms: N_9  and  C_10 
REMARK    2  A    between atoms: C_10  and  N_11 
REMARK    3  A    between atoms: N_11  and  C_12 
ROOT
ATOM      1  C   LIG d   1       4.620  -1.308  -6.863  0.00  0.00     0.106 C 
ATOM      2  H   LIG d   1       4.961  -2.091  -7.541  0.00  0.00     0.071 H 
ATOM      3  H   LIG d   1       5.334  -0.485  -6.870  0.00  0.00     0.071 H 
ENDROOT
BRANCH   1   4
ATOM      4  N   LIG d   1       4.509  -1.849  -5.507  0.00  0.00    -0.227 N 
ATOM      5  C   LIG d   1       4.504  -1.134  -4.334  0.00  0.00     0.091 A 
ATOM      6  C   LIG d   1       4.578   0.221  -4.028  0.00  0.00    -0.034 A 
ATOM      7  C   LIG d   1       4.376  -2.079  -3.301  0.00  0.00     0.113 A 
ATOM      8  C   LIG d   1       4.538   0.627  -2.723  0.00  0.00    -0.060 A 
ATOM      9  H   LIG d   1       4.672   0.951  -4.819  0.00  0.00     0.064 H 
ATOM     10  C   LIG d   1       4.417  -0.303  -1.697  0.00  0.00    -0.060 A 
ATOM     11  H   LIG d   1       4.599   1.679  -2.487  0.00  0.00     0.062 H 
ATOM     12  C   LIG d   1       4.337  -1.637  -1.972  0.00  0.00    -0.032 A 
ATOM     13  H   LIG d   1       4.387   0.034  -0.673  0.00  0.00     0.062 H 
ATOM     14  H   LIG d   1       4.243  -2.350  -1.167  0.00  0.00     0.064 H 
ATOM     15  N   LIG d   1       4.319  -3.299  -3.869  0.00  0.00    -0.129 NA
ATOM     16  N   LIG d   1       4.394  -3.201  -5.150  0.00  0.00    -0.063 NA
ENDBRANCH   1   4
BRANCH   1  17
ATOM     17  N   LIG d   1       3.309  -0.820  -7.303  0.00  0.00    -0.325 N 
ATOM     18  H   LIG d   1       2.792  -0.234  -6.728  0.00  0.00     0.148 HD
BRANCH  17  19
ATOM     19  C   LIG d   1       2.805  -1.200  -8.549  0.00  0.00     0.029 A 
ATOM     20  C   LIG d   1       3.126  -2.443  -9.080  0.00  0.00    -0.040 A 
ATOM     21  C   LIG d   1       2.626  -2.815 -10.313  0.00  0.00    -0.047 A 
ATOM     22  H   LIG d   1       3.767  -3.117  -8.531  0.00  0.00     0.064 H 
ATOM     23  C   LIG d   1       1.805  -1.952 -11.017  0.00  0.00     0.013 A 
ATOM     24  H   LIG d   1       2.874  -3.781 -10.727  0.00  0.00     0.063 H 
ATOM     25  C   LIG d   1       1.484  -0.714 -10.491  0.00  0.00    -0.047 A 
ATOM     26  I   LIG d   1       1.049  -2.522 -12.886  0.00  0.00    -0.044 I 
ATOM     27  C   LIG d   1       1.981  -0.336  -9.259  0.00  0.00    -0.040 A 
ATOM     28  H   LIG d   1       0.839  -0.044 -11.041  0.00  0.00     0.063 H 
ATOM     29  H   LIG d   1       1.730   0.630  -8.848  0.00  0.00     0.064 H 
ENDBRANCH  17  19
ENDBRANCH   1  17
TORSDOF 3
ENDMDL
MODEL 6
REMARK VINA RESULT:      -6.3      3.932      4.978
REMARK  3 active torsions:
REMARK  status: ('A' for Active; 'I' for Inactive)
REMARK    1  A    between atoms: N_9  and  C_10 
REMARK    2  A    between atoms: C_10  and  N_11 
REMARK    3  A    between atoms: N_11  and  C_12 
ROOT
ATOM      1  C   LIG d   1       4.614  -1.345  -6.855  0.00  0.00     0.106 C 
ATOM      2  H   LIG d   1       5.669  -1.502  -6.633  0.00  0.00     0.071 H 
ATOM      3  H   LIG d   1       4.514  -0.866  -7.829  0.00  0.00     0.071 H 
ENDROOT
BRANCH   1   4
ATOM      4  N   LIG d   1       4.019  -0.489  -5.827  0.00  0.00    -0.227 N 
ATOM      5  C   LIG d   1       4.251  -0.547  -4.474  0.00  0.00     0.091 A 
ATOM      6  C   LIG d   1       5.057  -1.340  -3.664  0.00  0.00    -0.034 A 
ATOM      7  C   LIG d   1       3.464   0.466  -3.899  0.00  0.00     0.113 A 
ATOM      8  C   LIG d   1       5.073  -1.138  -2.312  0.00  0.00    -0.060 A 
ATOM      9  H   LIG d   1       5.667  -2.117  -4.103  0.00  0.00     0.064 H 
ATOM     10  C   LIG d   1       4.293  -0.142  -1.738  0.00  0.00    -0.060 A 
ATOM     11  H   LIG d   1       5.697  -1.757  -1.686  0.00  0.00     0.062 H 
ATOM     12  C   LIG d   1       3.498   0.653  -2.510  0.00  0.00    -0.032 A 
ATOM     13  H   LIG d   1       4.317   0.004  -0.669  0.00  0.00     0.062 H 
ATOM     14  H   LIG d   1       2.895   1.424  -2.053  0.00  0.00     0.064 H 
ATOM     15  N   LIG d   1       2.795   1.079  -4.896  0.00  0.00    -0.129 NA
ATOM     16  N   LIG d   1       3.094   0.547  -6.029  0.00  0.00    -0.063 NA
ENDBRANCH   1   4
BRANCH   1  17
ATOM     17  N   LIG d   1       3.922  -2.637  -6.874  0.00  0.00    -0.325 N 
ATOM     18  H   LIG d   1       2.988  -2.684  -7.128  0.00  0.00     0.148 HD
BRANCH  17  19
ATOM     19  C   LIG d   1       4.611  -3.802  -6.526  0.00  0.00     0.029 A 
ATOM     20  C   LIG d   1       5.974  -3.754  -6.267  0.00  0.00    -0.040 A 
ATOM     21  C   LIG d   1       6.652  -4.907  -5.922  0.00  0.00    -0.047 A 
ATOM     22  H   LIG d   1       6.505  -2.816  -6.335  0.00  0.00     0.064 H 
ATOM     23  C   LIG d   1       5.973  -6.109  -5.834  0.00  0.00     0.013 A 
ATOM     24  H   LIG d   1       7.712  -4.871  -5.721  0.00  0.00     0.063 H 
ATOM     25  C   LIG d   1       4.615  -6.161  -6.092  0.00  0.00    -0.047 A 
ATOM     26  I   LIG d   1       7.005  -7.856  -5.312  0.00  0.00    -0.044 I 
ATOM     27  C   LIG d   1       3.932  -5.011  -6.437  0.00  0.00    -0.040 A 
ATOM     28  H   LIG d   1       4.087  -7.100  -6.018  0.00  0.00     0.063 H 
ATOM     29  H   LIG d   1       2.872  -5.052  -6.637  0.00  0.00     0.064 H 
ENDBRANCH  17  19
ENDBRANCH   1  17
TORSDOF 3
ENDMDL
MODEL 7
REMARK VINA RESULT:      -6.1      5.609      7.433
REMARK  3 active torsions:
REMARK  status: ('A' for Active; 'I' for Inactive)
REMARK    1  A    between atoms: N_9  and  C_10 
REMARK    2  A    between atoms: C_10  and  N_11 
REMARK    3  A    between atoms: N_11  and  C_12 
ROOT
ATOM      1  C   LIG d   1       7.529  -1.967  -4.470  0.00  0.00     0.106 C 
ATOM      2  H   LIG d   1       7.984  -1.801  -5.447  0.00  0.00     0.071 H 
ATOM      3  H   LIG d   1       6.740  -2.713  -4.558  0.00  0.00     0.071 H 
ENDROOT
BRANCH   1   4
ATOM      4  N   LIG d   1       6.961  -0.710  -3.977  0.00  0.00    -0.227 N 
ATOM      5  C   LIG d   1       5.709  -0.529  -3.439  0.00  0.00     0.091 A 
ATOM      6  C   LIG d   1       4.638  -1.377  -3.178  0.00  0.00    -0.034 A 
ATOM      7  C   LIG d   1       5.620   0.835  -3.111  0.00  0.00     0.113 A 
ATOM      8  C   LIG d   1       3.498  -0.877  -2.612  0.00  0.00    -0.060 A 
ATOM      9  H   LIG d   1       4.704  -2.426  -3.425  0.00  0.00     0.064 H 
ATOM     10  C   LIG d   1       3.401   0.471  -2.290  0.00  0.00    -0.060 A 
ATOM     11  H   LIG d   1       2.666  -1.536  -2.413  0.00  0.00     0.062 H 
ATOM     12  C   LIG d   1       4.440   1.322  -2.532  0.00  0.00    -0.032 A 
ATOM     13  H   LIG d   1       2.494   0.849  -1.844  0.00  0.00     0.062 H 
ATOM     14  H   LIG d   1       4.353   2.368  -2.278  0.00  0.00     0.064 H 
ATOM     15  N   LIG d   1       6.784   1.416  -3.460  0.00  0.00    -0.129 NA
ATOM     16  N   LIG d   1       7.585   0.546  -3.966  0.00  0.00    -0.063 NA
ENDBRANCH   1   4
BRANCH   1  17
ATOM     17  N   LIG d   1       8.549  -2.443  -3.532  0.00  0.00    -0.325 N 
ATOM     18  H   LIG d   1       9.012  -1.813  -2.958  0.00  0.00     0.148 HD
BRANCH  17  19
ATOM     19  C   LIG d   1       8.854  -3.804  -3.464  0.00  0.00     0.029 A 
ATOM     20  C   LIG d   1       9.609  -4.297  -2.407  0.00  0.00    -0.040 A 
ATOM     21  C   LIG d   1       9.909  -5.644  -2.342  0.00  0.00    -0.047 A 
ATOM     22  H   LIG d   1       9.962  -3.627  -1.636  0.00  0.00     0.064 H 
ATOM     23  C   LIG d   1       9.458  -6.502  -3.330  0.00  0.00     0.013 A 
ATOM     24  H   LIG d   1      10.496  -6.028  -1.521  0.00  0.00     0.063 H 
ATOM     25  C   LIG d   1       8.706  -6.015  -4.384  0.00  0.00    -0.047 A 
ATOM     26  I   LIG d   1       9.916  -8.544  -3.228  0.00  0.00    -0.044 I 
ATOM     27  C   LIG d   1       8.403  -4.669  -4.453  0.00  0.00    -0.040 A 
ATOM     28  H   LIG d   1       8.351  -6.687  -5.150  0.00  0.00     0.063 H 
ATOM     29  H   LIG d   1       7.816  -4.289  -5.276  0.00  0.00     0.064 H 
ENDBRANCH  17  19
ENDBRANCH   1  17
TORSDOF 3
ENDMDL
MODEL 8
REMARK VINA RESULT:      -6.1      6.371      7.826
REMARK  3 active torsions:
REMARK  status: ('A' for Active; 'I' for Inactive)
REMARK    1  A    between atoms: N_9  and  C_10 
REMARK    2  A    between atoms: C_10  and  N_11 
REMARK    3  A    between atoms: N_11  and  C_12 
ROOT
ATOM      1  C   LIG d   1       7.866   2.056  -4.225  0.00  0.00     0.106 C 
ATOM      2  H   LIG d   1       7.176   2.787  -3.805  0.00  0.00     0.071 H 
ATOM      3  H   LIG d   1       7.968   2.226  -5.297  0.00  0.00     0.071 H 
ENDROOT
BRANCH   1   4
ATOM      4  N   LIG d   1       7.349   0.705  -3.991  0.00  0.00    -0.227 N 
ATOM      5  C   LIG d   1       6.252   0.364  -3.239  0.00  0.00     0.091 A 
ATOM      6  C   LIG d   1       5.315   1.090  -2.511  0.00  0.00    -0.034 A 
ATOM      7  C   LIG d   1       6.150  -1.036  -3.311  0.00  0.00     0.113 A 
ATOM      8  C   LIG d   1       4.305   0.438  -1.860  0.00  0.00    -0.060 A 
ATOM      9  H   LIG d   1       5.387   2.167  -2.458  0.00  0.00     0.064 H 
ATOM     10  C   LIG d   1       4.203  -0.946  -1.922  0.00  0.00    -0.060 A 
ATOM     11  H   LIG d   1       3.581   1.003  -1.292  0.00  0.00     0.062 H 
ATOM     12  C   LIG d   1       5.106  -1.681  -2.633  0.00  0.00    -0.032 A 
ATOM     13  H   LIG d   1       3.400  -1.446  -1.402  0.00  0.00     0.062 H 
ATOM     14  H   LIG d   1       5.016  -2.756  -2.675  0.00  0.00     0.064 H 
ATOM     15  N   LIG d   1       7.167  -1.481  -4.074  0.00  0.00    -0.129 NA
ATOM     16  N   LIG d   1       7.883  -0.494  -4.486  0.00  0.00    -0.063 NA
ENDBRANCH   1   4
BRANCH   1  17
ATOM     17  N   LIG d   1       9.176   2.196  -3.582  0.00  0.00    -0.325 N 
ATOM     18  H   LIG d   1       9.639   1.411  -3.250  0.00  0.00     0.148 HD
BRANCH  17  19
ATOM     19  C   LIG d   1       9.756   3.459  -3.448  0.00  0.00     0.029 A 
ATOM     20  C   LIG d   1       9.392   4.488  -4.309  0.00  0.00    -0.040 A 
ATOM     21  C   LIG d   1       9.967   5.736  -4.174  0.00  0.00    -0.047 A 
ATOM     22  H   LIG d   1       8.660   4.311  -5.084  0.00  0.00     0.064 H 
ATOM     23  C   LIG d   1      10.905   5.963  -3.182  0.00  0.00     0.013 A 
ATOM     24  H   LIG d   1       9.686   6.536  -4.842  0.00  0.00     0.063 H 
ATOM     25  C   LIG d   1      11.270   4.941  -2.323  0.00  0.00    -0.047 A 
ATOM     26  I   LIG d   1      11.776   7.858  -2.981  0.00  0.00    -0.044 I 
ATOM     27  C   LIG d   1      10.698   3.691  -2.454  0.00  0.00    -0.040 A 
ATOM     28  H   LIG d   1      11.999   5.122  -1.547  0.00  0.00     0.063 H 
ATOM     29  H   LIG d   1      10.982   2.894  -1.783  0.00  0.00     0.064 H 
ENDBRANCH  17  19
ENDBRANCH   1  17
TORSDOF 3
ENDMDL
MODEL 9
REMARK VINA RESULT:      -6.0      5.190      7.139
REMARK  3 active torsions:
REMARK  status: ('A' for Active; 'I' for Inactive)
REMARK    1  A    between atoms: N_9  and  C_10 
REMARK    2  A    between atoms: C_10  and  N_11 
REMARK    3  A    between atoms: N_11  and  C_12 
ROOT
ATOM      1  C   LIG d   1       7.631  -1.441  -4.994  0.00  0.00     0.106 C 
ATOM      2  H   LIG d   1       8.002  -1.368  -3.972  0.00  0.00     0.071 H 
ATOM      3  H   LIG d   1       8.283  -0.875  -5.659  0.00  0.00     0.071 H 
ENDROOT
BRANCH   1   4
ATOM      4  N   LIG d   1       6.273  -0.896  -5.060  0.00  0.00    -0.227 N 
ATOM      5  C   LIG d   1       5.259  -1.102  -4.156  0.00  0.00     0.091 A 
ATOM      6  C   LIG d   1       5.156  -1.812  -2.964  0.00  0.00    -0.034 A 
ATOM      7  C   LIG d   1       4.153  -0.380  -4.639  0.00  0.00     0.113 A 
ATOM      8  C   LIG d   1       3.976  -1.814  -2.273  0.00  0.00    -0.060 A 
ATOM      9  H   LIG d   1       6.005  -2.364  -2.588  0.00  0.00     0.064 H 
ATOM     10  C   LIG d   1       2.878  -1.107  -2.748  0.00  0.00    -0.060 A 
ATOM     11  H   LIG d   1       3.898  -2.368  -1.350  0.00  0.00     0.062 H 
ATOM     12  C   LIG d   1       2.955  -0.399  -3.911  0.00  0.00    -0.032 A 
ATOM     13  H   LIG d   1       1.955  -1.119  -2.190  0.00  0.00     0.062 H 
ATOM     14  H   LIG d   1       2.095   0.147  -4.271  0.00  0.00     0.064 H 
ATOM     15  N   LIG d   1       4.523   0.212  -5.790  0.00  0.00    -0.129 NA
ATOM     16  N   LIG d   1       5.749  -0.067  -6.064  0.00  0.00    -0.063 NA
ENDBRANCH   1   4
BRANCH   1  17
ATOM     17  N   LIG d   1       7.613  -2.847  -5.407  0.00  0.00    -0.325 N 
ATOM     18  H   LIG d   1       7.166  -3.106  -6.227  0.00  0.00     0.148 HD
BRANCH  17  19
ATOM     19  C   LIG d   1       8.243  -3.814  -4.619  0.00  0.00     0.029 A 
ATOM     20  C   LIG d   1       8.241  -5.145  -5.016  0.00  0.00    -0.040 A 
ATOM     21  C   LIG d   1       8.864  -6.098  -4.235  0.00  0.00    -0.047 A 
ATOM     22  H   LIG d   1       7.751  -5.434  -5.934  0.00  0.00     0.064 H 
ATOM     23  C   LIG d   1       9.490  -5.728  -3.058  0.00  0.00     0.013 A 
ATOM     24  H   LIG d   1       8.863  -7.133  -4.542  0.00  0.00     0.063 H 
ATOM     25  C   LIG d   1       9.494  -4.403  -2.659  0.00  0.00    -0.047 A 
ATOM     26  I   LIG d   1      10.434  -7.178  -1.876  0.00  0.00    -0.044 I 
ATOM     27  C   LIG d   1       8.873  -3.446  -3.436  0.00  0.00    -0.040 A 
ATOM     28  H   LIG d   1       9.988  -4.116  -1.743  0.00  0.00     0.063 H 
ATOM     29  H   LIG d   1       8.876  -2.412  -3.125  0.00  0.00     0.064 H 
ENDBRANCH  17  19
ENDBRANCH   1  17
TORSDOF 3
ENDMDL
MODEL 10
REMARK VINA RESULT:      -6.0      5.192      6.241
REMARK  3 active torsions:
REMARK  status: ('A' for Active; 'I' for Inactive)
REMARK    1  A    between atoms: N_9  and  C_10 
REMARK    2  A    between atoms: C_10  and  N_11 
REMARK    3  A    between atoms: N_11  and  C_12 
ROOT
ATOM      1  C   LIG d   1       7.171  -0.130  -5.722  0.00  0.00     0.106 C 
ATOM      2  H   LIG d   1       7.439  -0.899  -6.447  0.00  0.00     0.071 H 
ATOM      3  H   LIG d   1       7.701  -0.311  -4.787  0.00  0.00     0.071 H 
ENDROOT
BRANCH   1   4
ATOM      4  N   LIG d   1       5.727  -0.167  -5.482  0.00  0.00    -0.227 N 
ATOM      5  C   LIG d   1       5.092  -0.649  -4.363  0.00  0.00     0.091 A 
ATOM      6  C   LIG d   1       5.532  -1.206  -3.166  0.00  0.00    -0.034 A 
ATOM      7  C   LIG d   1       3.716  -0.472  -4.588  0.00  0.00     0.113 A 
ATOM      8  C   LIG d   1       4.622  -1.589  -2.220  0.00  0.00    -0.060 A 
ATOM      9  H   LIG d   1       6.588  -1.340  -2.987  0.00  0.00     0.064 H 
ATOM     10  C   LIG d   1       3.261  -1.422  -2.439  0.00  0.00    -0.060 A 
ATOM     11  H   LIG d   1       4.966  -2.025  -1.293  0.00  0.00     0.062 H 
ATOM     12  C   LIG d   1       2.804  -0.873  -3.602  0.00  0.00    -0.032 A 
ATOM     13  H   LIG d   1       2.557  -1.730  -1.682  0.00  0.00     0.062 H 
ATOM     14  H   LIG d   1       1.744  -0.748  -3.762  0.00  0.00     0.064 H 
ATOM     15  N   LIG d   1       3.570   0.086  -5.806  0.00  0.00    -0.129 NA
ATOM     16  N   LIG d   1       4.719   0.276  -6.352  0.00  0.00    -0.063 NA
ENDBRANCH   1   4
BRANCH   1  17
ATOM     17  N   LIG d   1       7.544   1.186  -6.248  0.00  0.00    -0.325 N 
ATOM     18  H   LIG d   1       7.209   1.477  -7.110  0.00  0.00     0.148 HD
BRANCH  17  19
ATOM     19  C   LIG d   1       8.383   2.022  -5.506  0.00  0.00     0.029 A 
ATOM     20  C   LIG d   1       8.425   1.914  -4.122  0.00  0.00    -0.040 A 
ATOM     21  C   LIG d   1       9.256   2.742  -3.391  0.00  0.00    -0.047 A 
ATOM     22  H   LIG d   1       7.808   1.185  -3.617  0.00  0.00     0.064 H 
ATOM     23  C   LIG d   1      10.045   3.676  -4.037  0.00  0.00     0.013 A 
ATOM     24  H   LIG d   1       9.289   2.659  -2.315  0.00  0.00     0.063 H 
ATOM     25  C   LIG d   1      10.006   3.786  -5.416  0.00  0.00    -0.047 A 
ATOM     26  I   LIG d   1      11.304   4.929  -2.925  0.00  0.00    -0.044 I 
ATOM     27  C   LIG d   1       9.177   2.961  -6.151  0.00  0.00    -0.040 A 
ATOM     28  H   LIG d   1      10.627   4.513  -5.918  0.00  0.00     0.063 H 
ATOM     29  H   LIG d   1       9.147   3.047  -7.227  0.00  0.00     0.064 H 
ENDBRANCH  17  19
ENDBRANCH   1  17
TORSDOF 3
ENDMDL
