MODEL 1
REMARK VINA RESULT:      -7.4      0.000      0.000
REMARK  6 active torsions:
REMARK  status: ('A' for Active; 'I' for Inactive)
REMARK    1  A    between atoms: C_1  and  C_2 
REMARK    2  A    between atoms: C_5  and  N_9 
REMARK    3  A    between atoms: C_7  and  C_8 
REMARK       I    between atoms: N_9  and  C_10 
REMARK    4  A    between atoms: C_10  and  C_12 
REMARK    5  A    between atoms: C_12  and  C_13 
REMARK    6  A    between atoms: C_12  and  C_17 
ROOT
ATOM      1  C   LIG d   1       2.493  -0.453  -9.375  0.00  0.00    -0.047 A 
ATOM      2  C   LIG d   1       2.630   0.753  -8.713  0.00  0.00    -0.057 A 
ATOM      3  C   LIG d   1       3.314   0.812  -7.515  0.00  0.00    -0.040 A 
ATOM      4  C   LIG d   1       3.864  -0.343  -6.973  0.00  0.00     0.034 A 
ATOM      5  C   LIG d   1       3.725  -1.554  -7.640  0.00  0.00    -0.037 A 
ATOM      6  C   LIG d   1       3.035  -1.607  -8.836  0.00  0.00    -0.046 A 
ATOM      7  H   LIG d   1       2.202   1.651  -9.134  0.00  0.00     0.062 H 
ATOM      8  H   LIG d   1       3.421   1.755  -6.999  0.00  0.00     0.064 H 
ATOM      9  H   LIG d   1       4.151  -2.453  -7.222  0.00  0.00     0.064 H 
ENDROOT
BRANCH   4  10
ATOM     10  N   LIG d   1       4.558  -0.287  -5.760  0.00  0.00    -0.284 N 
ATOM     11  C   LIG d   1       3.878  -0.197  -4.600  0.00  0.00     0.252 C 
ATOM     12  O   LIG d   1       2.667  -0.247  -4.601  0.00  0.00    -0.273 OA
ATOM     13  H   LIG d   1       5.527  -0.313  -5.754  0.00  0.00     0.155 HD
BRANCH  11  14
ATOM     14  C   LIG d   1       4.624  -0.034  -3.301  0.00  0.00     0.289 C 
ATOM     15 BR   LIG d   1       6.445   0.614  -3.667  0.00  0.00    -0.056 Br
BRANCH  14  16
ATOM     16  C   LIG d   1       3.893   0.977  -2.415  0.00  0.00     0.422 C 
ATOM     17  F   LIG d   1       4.645   1.212  -1.258  0.00  0.00    -0.168 F 
ATOM     18  F   LIG d   1       3.727   2.177  -3.114  0.00  0.00    -0.168 F 
ATOM     19  F   LIG d   1       2.640   0.467  -2.059  0.00  0.00    -0.168 F 
ENDBRANCH  14  16
BRANCH  14  20
ATOM     20  C   LIG d   1       4.698  -1.381  -2.582  0.00  0.00     0.422 C 
ATOM     21  F   LIG d   1       3.673  -2.213  -3.043  0.00  0.00    -0.168 F 
ATOM     22  F   LIG d   1       5.936  -1.981  -2.839  0.00  0.00    -0.168 F 
ATOM     23  F   LIG d   1       4.553  -1.184  -1.204  0.00  0.00    -0.168 F 
ENDBRANCH  14  20
ENDBRANCH  11  14
ENDBRANCH   4  10
BRANCH   6  24
ATOM     24  C   LIG d   1       2.878  -2.920  -9.558  0.00  0.00    -0.039 C 
ATOM     25  H   LIG d   1       3.845  -3.239  -9.946  0.00  0.00     0.028 H 
ATOM     26  H   LIG d   1       2.499  -3.671  -8.865  0.00  0.00     0.028 H 
ATOM     27  H   LIG d   1       2.176  -2.800 -10.382  0.00  0.00     0.028 H 
ENDBRANCH   6  24
BRANCH   1  28
ATOM     28  C   LIG d   1       1.746  -0.514 -10.682  0.00  0.00    -0.040 C 
ATOM     29  H   LIG d   1       2.310   0.014 -11.449  0.00  0.00     0.028 H 
ATOM     30  H   LIG d   1       1.617  -1.556 -10.978  0.00  0.00     0.028 H 
ATOM     31  H   LIG d   1       0.768  -0.048 -10.563  0.00  0.00     0.028 H 
ENDBRANCH   1  28
TORSDOF 6
ENDMDL
MODEL 2
REMARK VINA RESULT:      -7.4      1.617      3.093
REMARK  6 active torsions:
REMARK  status: ('A' for Active; 'I' for Inactive)
REMARK    1  A    between atoms: C_1  and  C_2 
REMARK    2  A    between atoms: C_5  and  N_9 
REMARK    3  A    between atoms: C_7  and  C_8 
REMARK       I    between atoms: N_9  and  C_10 
REMARK    4  A    between atoms: C_10  and  C_12 
REMARK    5  A    between atoms: C_12  and  C_13 
REMARK    6  A    between atoms: C_12  and  C_17 
ROOT
ATOM      1  C   LIG d   1       3.759   0.031  -9.851  0.00  0.00    -0.047 A 
ATOM      2  C   LIG d   1       3.842  -1.193  -9.214  0.00  0.00    -0.057 A 
ATOM      3  C   LIG d   1       3.701  -1.272  -7.842  0.00  0.00    -0.040 A 
ATOM      4  C   LIG d   1       3.476  -0.118  -7.102  0.00  0.00     0.034 A 
ATOM      5  C   LIG d   1       3.394   1.110  -7.744  0.00  0.00    -0.037 A 
ATOM      6  C   LIG d   1       3.541   1.183  -9.116  0.00  0.00    -0.046 A 
ATOM      7  H   LIG d   1       4.016  -2.091  -9.790  0.00  0.00     0.062 H 
ATOM      8  H   LIG d   1       3.765  -2.229  -7.346  0.00  0.00     0.064 H 
ATOM      9  H   LIG d   1       3.220   2.009  -7.172  0.00  0.00     0.064 H 
ENDROOT
BRANCH   4  10
ATOM     10  N   LIG d   1       3.333  -0.194  -5.712  0.00  0.00    -0.284 N 
ATOM     11  C   LIG d   1       4.408  -0.033  -4.915  0.00  0.00     0.252 C 
ATOM     12  O   LIG d   1       5.482   0.259  -5.396  0.00  0.00    -0.273 OA
ATOM     13  H   LIG d   1       2.461  -0.363  -5.323  0.00  0.00     0.155 HD
BRANCH  11  14
ATOM     14  C   LIG d   1       4.274  -0.215  -3.425  0.00  0.00     0.289 C 
ATOM     15 BR   LIG d   1       2.444  -0.795  -2.998  0.00  0.00    -0.056 Br
BRANCH  14  16
ATOM     16  C   LIG d   1       5.268  -1.276  -2.949  0.00  0.00     0.422 C 
ATOM     17  F   LIG d   1       4.827  -1.816  -1.736  0.00  0.00    -0.168 F 
ATOM     18  F   LIG d   1       5.361  -2.293  -3.905  0.00  0.00    -0.168 F 
ATOM     19  F   LIG d   1       6.526  -0.690  -2.768  0.00  0.00    -0.168 F 
ENDBRANCH  14  16
BRANCH  14  20
ATOM     20  C   LIG d   1       4.566   1.110  -2.720  0.00  0.00     0.422 C 
ATOM     21  F   LIG d   1       5.838   1.563  -3.087  0.00  0.00    -0.168 F 
ATOM     22  F   LIG d   1       3.608   2.059  -3.094  0.00  0.00    -0.168 F 
ATOM     23  F   LIG d   1       4.520   0.922  -1.335  0.00  0.00    -0.168 F 
ENDBRANCH  14  20
ENDBRANCH  11  14
ENDBRANCH   4  10
BRANCH   6  24
ATOM     24  C   LIG d   1       3.458   2.515  -9.813  0.00  0.00    -0.039 C 
ATOM     25  H   LIG d   1       3.970   3.270  -9.217  0.00  0.00     0.028 H 
ATOM     26  H   LIG d   1       3.932   2.443 -10.793  0.00  0.00     0.028 H 
ATOM     27  H   LIG d   1       2.412   2.797  -9.937  0.00  0.00     0.028 H 
ENDBRANCH   6  24
BRANCH   1  28
ATOM     28  C   LIG d   1       3.914   0.113 -11.347  0.00  0.00    -0.040 C 
ATOM     29  H   LIG d   1       4.864  -0.331 -11.640  0.00  0.00     0.028 H 
ATOM     30  H   LIG d   1       3.097  -0.428 -11.827  0.00  0.00     0.028 H 
ATOM     31  H   LIG d   1       3.890   1.157 -11.658  0.00  0.00     0.028 H 
ENDBRANCH   1  28
TORSDOF 6
ENDMDL
MODEL 3
REMARK VINA RESULT:      -6.8      1.340      2.005
REMARK  6 active torsions:
REMARK  status: ('A' for Active; 'I' for Inactive)
REMARK    1  A    between atoms: C_1  and  C_2 
REMARK    2  A    between atoms: C_5  and  N_9 
REMARK    3  A    between atoms: C_7  and  C_8 
REMARK       I    between atoms: N_9  and  C_10 
REMARK    4  A    between atoms: C_10  and  C_12 
REMARK    5  A    between atoms: C_12  and  C_13 
REMARK    6  A    between atoms: C_12  and  C_17 
ROOT
ATOM      1  C   LIG d   1       4.043  -0.806  -9.905  0.00  0.00    -0.047 A 
ATOM      2  C   LIG d   1       5.305  -0.709  -9.349  0.00  0.00    -0.057 A 
ATOM      3  C   LIG d   1       5.450  -0.382  -8.015  0.00  0.00    -0.040 A 
ATOM      4  C   LIG d   1       4.326  -0.149  -7.232  0.00  0.00     0.034 A 
ATOM      5  C   LIG d   1       3.060  -0.247  -7.794  0.00  0.00    -0.037 A 
ATOM      6  C   LIG d   1       2.922  -0.570  -9.131  0.00  0.00    -0.046 A 
ATOM      7  H   LIG d   1       6.178  -0.889  -9.958  0.00  0.00     0.062 H 
ATOM      8  H   LIG d   1       6.436  -0.307  -7.581  0.00  0.00     0.064 H 
ATOM      9  H   LIG d   1       2.185  -0.067  -7.189  0.00  0.00     0.064 H 
ENDROOT
BRANCH   4  10
ATOM     10  N   LIG d   1       4.470   0.182  -5.880  0.00  0.00    -0.284 N 
ATOM     11  C   LIG d   1       4.402  -0.781  -4.940  0.00  0.00     0.252 C 
ATOM     12  O   LIG d   1       4.300  -1.944  -5.270  0.00  0.00    -0.273 OA
ATOM     13  H   LIG d   1       4.617   1.105  -5.620  0.00  0.00     0.155 HD
BRANCH  11  14
ATOM     14  C   LIG d   1       4.454  -0.413  -3.480  0.00  0.00     0.289 C 
ATOM     15 BR   LIG d   1       5.884   0.905  -3.187  0.00  0.00    -0.056 Br
BRANCH  14  16
ATOM     16  C   LIG d   1       3.113   0.189  -3.057  0.00  0.00     0.422 C 
ATOM     17  F   LIG d   1       2.563   0.901  -4.128  0.00  0.00    -0.168 F 
ATOM     18  F   LIG d   1       2.238  -0.836  -2.681  0.00  0.00    -0.168 F 
ATOM     19  F   LIG d   1       3.310   1.054  -1.975  0.00  0.00    -0.168 F 
ENDBRANCH  14  16
BRANCH  14  20
ATOM     20  C   LIG d   1       4.737  -1.665  -2.648  0.00  0.00     0.422 C 
ATOM     21  F   LIG d   1       4.549  -1.376  -1.292  0.00  0.00    -0.168 F 
ATOM     22  F   LIG d   1       3.862  -2.688  -3.032  0.00  0.00    -0.168 F 
ATOM     23  F   LIG d   1       6.057  -2.077  -2.858  0.00  0.00    -0.168 F 
ENDBRANCH  14  20
ENDBRANCH  11  14
ENDBRANCH   4  10
BRANCH   6  24
ATOM     24  C   LIG d   1       1.549  -0.670  -9.743  0.00  0.00    -0.039 C 
ATOM     25  H   LIG d   1       0.847  -1.048  -9.000  0.00  0.00     0.028 H 
ATOM     26  H   LIG d   1       1.227   0.317 -10.077  0.00  0.00     0.028 H 
ATOM     27  H   LIG d   1       1.579  -1.350 -10.594  0.00  0.00     0.028 H 
ENDBRANCH   6  24
BRANCH   1  28
ATOM     28  C   LIG d   1       3.888  -1.162 -11.361  0.00  0.00    -0.040 C 
ATOM     29  H   LIG d   1       2.995  -1.772 -11.494  0.00  0.00     0.028 H 
ATOM     30  H   LIG d   1       3.794  -0.249 -11.950  0.00  0.00     0.028 H 
ATOM     31  H   LIG d   1       4.762  -1.721 -11.694  0.00  0.00     0.028 H 
ENDBRANCH   1  28
TORSDOF 6
ENDMDL
MODEL 4
REMARK VINA RESULT:      -6.6      1.746      2.554
REMARK  6 active torsions:
REMARK  status: ('A' for Active; 'I' for Inactive)
REMARK    1  A    between atoms: C_1  and  C_2 
REMARK    2  A    between atoms: C_5  and  N_9 
REMARK    3  A    between atoms: C_7  and  C_8 
REMARK       I    between atoms: N_9  and  C_10 
REMARK    4  A    between atoms: C_10  and  C_12 
REMARK    5  A    between atoms: C_12  and  C_13 
REMARK    6  A    between atoms: C_12  and  C_17 
ROOT
ATOM      1  C   LIG d   1       3.703  -0.087 -10.171  0.00  0.00    -0.047 A 
ATOM      2  C   LIG d   1       4.886   0.336  -9.595  0.00  0.00    -0.057 A 
ATOM      3  C   LIG d   1       4.971   0.498  -8.226  0.00  0.00    -0.040 A 
ATOM      4  C   LIG d   1       3.864   0.237  -7.427  0.00  0.00     0.034 A 
ATOM      5  C   LIG d   1       2.677  -0.186  -8.009  0.00  0.00    -0.037 A 
ATOM      6  C   LIG d   1       2.597  -0.342  -9.380  0.00  0.00    -0.046 A 
ATOM      7  H   LIG d   1       5.747   0.539 -10.216  0.00  0.00     0.062 H 
ATOM      8  H   LIG d   1       5.896   0.828  -7.776  0.00  0.00     0.064 H 
ATOM      9  H   LIG d   1       1.815  -0.390  -7.392  0.00  0.00     0.064 H 
ENDROOT
BRANCH   4  10
ATOM     10  N   LIG d   1       3.946   0.401  -6.040  0.00  0.00    -0.284 N 
ATOM     11  C   LIG d   1       4.397  -0.608  -5.269  0.00  0.00     0.252 C 
ATOM     12  O   LIG d   1       4.809  -1.627  -5.783  0.00  0.00    -0.273 OA
ATOM     13  H   LIG d   1       3.678   1.239  -5.634  0.00  0.00     0.155 HD
BRANCH  11  14
ATOM     14  C   LIG d   1       4.389  -0.471  -3.769  0.00  0.00     0.289 C 
ATOM     15 BR   LIG d   1       4.098  -2.235  -2.951  0.00  0.00    -0.056 Br
BRANCH  14  16
ATOM     16  C   LIG d   1       5.733   0.091  -3.300  0.00  0.00     0.422 C 
ATOM     17  F   LIG d   1       6.589  -0.964  -2.969  0.00  0.00    -0.168 F 
ATOM     18  F   LIG d   1       6.305   0.851  -4.326  0.00  0.00    -0.168 F 
ATOM     19  F   LIG d   1       5.534   0.900  -2.176  0.00  0.00    -0.168 F 
ENDBRANCH  14  16
BRANCH  14  20
ATOM     20  C   LIG d   1       3.266   0.478  -3.348  0.00  0.00     0.422 C 
ATOM     21  F   LIG d   1       3.669   1.801  -3.556  0.00  0.00    -0.168 F 
ATOM     22  F   LIG d   1       2.122   0.214  -4.111  0.00  0.00    -0.168 F 
ATOM     23  F   LIG d   1       2.976   0.287  -1.993  0.00  0.00    -0.168 F 
ENDBRANCH  14  20
ENDBRANCH  11  14
ENDBRANCH   4  10
BRANCH   6  24
ATOM     24  C   LIG d   1       1.308  -0.797 -10.013  0.00  0.00    -0.039 C 
ATOM     25  H   LIG d   1       0.634  -1.166  -9.240  0.00  0.00     0.028 H 
ATOM     26  H   LIG d   1       0.842   0.043 -10.530  0.00  0.00     0.028 H 
ATOM     27  H   LIG d   1       1.514  -1.593 -10.727  0.00  0.00     0.028 H 
ENDBRANCH   6  24
BRANCH   1  28
ATOM     28  C   LIG d   1       3.614  -0.262 -11.665  0.00  0.00    -0.040 C 
ATOM     29  H   LIG d   1       4.617  -0.305 -12.087  0.00  0.00     0.028 H 
ATOM     30  H   LIG d   1       3.085  -1.190 -11.891  0.00  0.00     0.028 H 
ATOM     31  H   LIG d   1       3.073   0.578 -12.098  0.00  0.00     0.028 H 
ENDBRANCH   1  28
TORSDOF 6
ENDMDL
MODEL 5
REMARK VINA RESULT:      -6.5      3.898      5.996
REMARK  6 active torsions:
REMARK  status: ('A' for Active; 'I' for Inactive)
REMARK    1  A    between atoms: C_1  and  C_2 
REMARK    2  A    between atoms: C_5  and  N_9 
REMARK    3  A    between atoms: C_7  and  C_8 
REMARK       I    between atoms: N_9  and  C_10 
REMARK    4  A    between atoms: C_10  and  C_12 
REMARK    5  A    between atoms: C_12  and  C_13 
REMARK    6  A    between atoms: C_12  and  C_17 
ROOT
ATOM      1  C   LIG d   1      10.531   1.460  -4.970  0.00  0.00    -0.047 A 
ATOM      2  C   LIG d   1       9.758   0.686  -5.815  0.00  0.00    -0.057 A 
ATOM      3  C   LIG d   1       8.403   0.550  -5.584  0.00  0.00    -0.040 A 
ATOM      4  C   LIG d   1       7.818   1.192  -4.500  0.00  0.00     0.034 A 
ATOM      5  C   LIG d   1       8.597   1.968  -3.652  0.00  0.00    -0.037 A 
ATOM      6  C   LIG d   1       9.953   2.096  -3.886  0.00  0.00    -0.046 A 
ATOM      7  H   LIG d   1      10.214   0.187  -6.658  0.00  0.00     0.062 H 
ATOM      8  H   LIG d   1       7.799  -0.053  -6.245  0.00  0.00     0.064 H 
ATOM      9  H   LIG d   1       8.146   2.468  -2.809  0.00  0.00     0.064 H 
ENDROOT
BRANCH   4  10
ATOM     10  N   LIG d   1       6.445   1.057  -4.263  0.00  0.00    -0.284 N 
ATOM     11  C   LIG d   1       5.993   0.061  -3.477  0.00  0.00     0.252 C 
ATOM     12  O   LIG d   1       6.778  -0.668  -2.909  0.00  0.00    -0.273 OA
ATOM     13  H   LIG d   1       5.820   1.680  -4.665  0.00  0.00     0.155 HD
BRANCH  11  14
ATOM     14  C   LIG d   1       4.511  -0.148  -3.303  0.00  0.00     0.289 C 
ATOM     15 BR   LIG d   1       3.633  -0.113  -5.063  0.00  0.00    -0.056 Br
BRANCH  14  16
ATOM     16  C   LIG d   1       4.260  -1.501  -2.636  0.00  0.00     0.422 C 
ATOM     17  F   LIG d   1       5.037  -2.481  -3.264  0.00  0.00    -0.168 F 
ATOM     18  F   LIG d   1       4.606  -1.427  -1.283  0.00  0.00    -0.168 F 
ATOM     19  F   LIG d   1       2.906  -1.836  -2.754  0.00  0.00    -0.168 F 
ENDBRANCH  14  16
BRANCH  14  20
ATOM     20  C   LIG d   1       3.938   0.967  -2.426  0.00  0.00     0.422 C 
ATOM     21  F   LIG d   1       2.630   0.641  -2.053  0.00  0.00    -0.168 F 
ATOM     22  F   LIG d   1       4.727   1.112  -1.280  0.00  0.00    -0.168 F 
ATOM     23  F   LIG d   1       3.932   2.169  -3.143  0.00  0.00    -0.168 F 
ENDBRANCH  14  20
ENDBRANCH  11  14
ENDBRANCH   4  10
BRANCH   6  24
ATOM     24  C   LIG d   1      10.801   2.933  -2.964  0.00  0.00    -0.039 C 
ATOM     25  H   LIG d   1      11.646   2.342  -2.611  0.00  0.00     0.028 H 
ATOM     26  H   LIG d   1      11.169   3.807  -3.503  0.00  0.00     0.028 H 
ATOM     27  H   LIG d   1      10.202   3.256  -2.113  0.00  0.00     0.028 H 
ENDBRANCH   6  24
BRANCH   1  28
ATOM     28  C   LIG d   1      12.010   1.605  -5.224  0.00  0.00    -0.040 C 
ATOM     29  H   LIG d   1      12.492   2.021  -4.341  0.00  0.00     0.028 H 
ATOM     30  H   LIG d   1      12.438   0.626  -5.445  0.00  0.00     0.028 H 
ATOM     31  H   LIG d   1      12.169   2.270  -6.072  0.00  0.00     0.028 H 
ENDBRANCH   1  28
TORSDOF 6
ENDMDL
MODEL 6
REMARK VINA RESULT:      -6.5      1.665      2.471
REMARK  6 active torsions:
REMARK  status: ('A' for Active; 'I' for Inactive)
REMARK    1  A    between atoms: C_1  and  C_2 
REMARK    2  A    between atoms: C_5  and  N_9 
REMARK    3  A    between atoms: C_7  and  C_8 
REMARK       I    between atoms: N_9  and  C_10 
REMARK    4  A    between atoms: C_10  and  C_12 
REMARK    5  A    between atoms: C_12  and  C_13 
REMARK    6  A    between atoms: C_12  and  C_17 
ROOT
ATOM      1  C   LIG d   1       3.148  -0.291  -9.965  0.00  0.00    -0.047 A 
ATOM      2  C   LIG d   1       2.128  -0.403  -9.039  0.00  0.00    -0.057 A 
ATOM      3  C   LIG d   1       2.380  -0.177  -7.700  0.00  0.00    -0.040 A 
ATOM      4  C   LIG d   1       3.662   0.162  -7.284  0.00  0.00     0.034 A 
ATOM      5  C   LIG d   1       4.684   0.272  -8.217  0.00  0.00    -0.037 A 
ATOM      6  C   LIG d   1       4.426   0.040  -9.554  0.00  0.00    -0.046 A 
ATOM      7  H   LIG d   1       1.131  -0.667  -9.362  0.00  0.00     0.062 H 
ATOM      8  H   LIG d   1       1.583  -0.264  -6.977  0.00  0.00     0.064 H 
ATOM      9  H   LIG d   1       5.681   0.536  -7.897  0.00  0.00     0.064 H 
ENDROOT
BRANCH   4  10
ATOM     10  N   LIG d   1       3.921   0.391  -5.928  0.00  0.00    -0.284 N 
ATOM     11  C   LIG d   1       4.319  -0.625  -5.138  0.00  0.00     0.252 C 
ATOM     12  O   LIG d   1       4.532  -1.718  -5.617  0.00  0.00    -0.273 OA
ATOM     13  H   LIG d   1       3.814   1.281  -5.558  0.00  0.00     0.155 HD
BRANCH  11  14
ATOM     14  C   LIG d   1       4.500  -0.402  -3.659  0.00  0.00     0.289 C 
ATOM     15 BR   LIG d   1       3.690   1.317  -3.151  0.00  0.00    -0.056 Br
BRANCH  14  16
ATOM     16  C   LIG d   1       3.821  -1.533  -2.884  0.00  0.00     0.422 C 
ATOM     17  F   LIG d   1       2.432  -1.396  -2.984  0.00  0.00    -0.168 F 
ATOM     18  F   LIG d   1       4.208  -2.765  -3.420  0.00  0.00    -0.168 F 
ATOM     19  F   LIG d   1       4.199  -1.470  -1.538  0.00  0.00    -0.168 F 
ENDBRANCH  14  16
BRANCH  14  20
ATOM     20  C   LIG d   1       5.993  -0.380  -3.325  0.00  0.00     0.422 C 
ATOM     21  F   LIG d   1       6.392  -1.648  -2.888  0.00  0.00    -0.168 F 
ATOM     22  F   LIG d   1       6.722  -0.029  -4.467  0.00  0.00    -0.168 F 
ATOM     23  F   LIG d   1       6.231   0.557  -2.313  0.00  0.00    -0.168 F 
ENDBRANCH  14  20
ENDBRANCH  11  14
ENDBRANCH   4  10
BRANCH   6  24
ATOM     24  C   LIG d   1       5.536   0.155 -10.567  0.00  0.00    -0.039 C 
ATOM     25  H   LIG d   1       5.110   0.331 -11.555  0.00  0.00     0.028 H 
ATOM     26  H   LIG d   1       6.187   0.987 -10.298  0.00  0.00     0.028 H 
ATOM     27  H   LIG d   1       6.114  -0.769 -10.579  0.00  0.00     0.028 H 
ENDBRANCH   6  24
BRANCH   1  28
ATOM     28  C   LIG d   1       2.869  -0.539 -11.425  0.00  0.00    -0.040 C 
ATOM     29  H   LIG d   1       2.276   0.282 -11.827  0.00  0.00     0.028 H 
ATOM     30  H   LIG d   1       3.813  -0.606 -11.968  0.00  0.00     0.028 H 
ATOM     31  H   LIG d   1       2.319  -1.473 -11.537  0.00  0.00     0.028 H 
ENDBRANCH   1  28
TORSDOF 6
ENDMDL
MODEL 7
REMARK VINA RESULT:      -6.5      4.279      6.742
REMARK  6 active torsions:
REMARK  status: ('A' for Active; 'I' for Inactive)
REMARK    1  A    between atoms: C_1  and  C_2 
REMARK    2  A    between atoms: C_5  and  N_9 
REMARK    3  A    between atoms: C_7  and  C_8 
REMARK       I    between atoms: N_9  and  C_10 
REMARK    4  A    between atoms: C_10  and  C_12 
REMARK    5  A    between atoms: C_12  and  C_13 
REMARK    6  A    between atoms: C_12  and  C_17 
ROOT
ATOM      1  C   LIG d   1       4.082  -1.720  -3.362  0.00  0.00    -0.047 A 
ATOM      2  C   LIG d   1       4.493  -2.485  -4.437  0.00  0.00    -0.057 A 
ATOM      3  C   LIG d   1       4.743  -1.888  -5.657  0.00  0.00    -0.040 A 
ATOM      4  C   LIG d   1       4.578  -0.516  -5.803  0.00  0.00     0.034 A 
ATOM      5  C   LIG d   1       4.164   0.249  -4.721  0.00  0.00    -0.037 A 
ATOM      6  C   LIG d   1       3.911  -0.355  -3.504  0.00  0.00    -0.046 A 
ATOM      7  H   LIG d   1       4.621  -3.552  -4.323  0.00  0.00     0.062 H 
ATOM      8  H   LIG d   1       5.066  -2.486  -6.496  0.00  0.00     0.064 H 
ATOM      9  H   LIG d   1       4.035   1.315  -4.831  0.00  0.00     0.064 H 
ENDROOT
BRANCH   4  10
ATOM     10  N   LIG d   1       4.830   0.093  -7.037  0.00  0.00    -0.284 N 
ATOM     11  C   LIG d   1       3.837   0.221  -7.939  0.00  0.00     0.252 C 
ATOM     12  O   LIG d   1       2.708  -0.114  -7.650  0.00  0.00    -0.273 OA
ATOM     13  H   LIG d   1       5.719   0.421  -7.244  0.00  0.00     0.155 HD
BRANCH  11  14
ATOM     14  C   LIG d   1       4.129   0.784  -9.306  0.00  0.00     0.289 C 
ATOM     15 BR   LIG d   1       6.015   0.459  -9.758  0.00  0.00    -0.056 Br
BRANCH  14  16
ATOM     16  C   LIG d   1       3.233   0.102 -10.342  0.00  0.00     0.422 C 
ATOM     17  F   LIG d   1       3.612   0.509 -11.625  0.00  0.00    -0.168 F 
ATOM     18  F   LIG d   1       3.367  -1.286 -10.234  0.00  0.00    -0.168 F 
ATOM     19  F   LIG d   1       1.900   0.461 -10.114  0.00  0.00    -0.168 F 
ENDBRANCH  14  16
BRANCH  14  20
ATOM     20  C   LIG d   1       3.857   2.289  -9.308  0.00  0.00     0.422 C 
ATOM     21  F   LIG d   1       5.042   2.978  -9.031  0.00  0.00    -0.168 F 
ATOM     22  F   LIG d   1       3.376   2.675 -10.565  0.00  0.00    -0.168 F 
ATOM     23  F   LIG d   1       2.902   2.592  -8.331  0.00  0.00    -0.168 F 
ENDBRANCH  14  20
ENDBRANCH  11  14
ENDBRANCH   4  10
BRANCH   6  24
ATOM     24  C   LIG d   1       3.456   0.473  -2.331  0.00  0.00    -0.039 C 
ATOM     25  H   LIG d   1       4.321   0.765  -1.735  0.00  0.00     0.028 H 
ATOM     26  H   LIG d   1       2.947   1.367  -2.694  0.00  0.00     0.028 H 
ATOM     27  H   LIG d   1       2.771  -0.111  -1.718  0.00  0.00     0.028 H 
ENDBRANCH   6  24
BRANCH   1  28
ATOM     28  C   LIG d   1       3.810  -2.376  -2.032  0.00  0.00    -0.040 C 
ATOM     29  H   LIG d   1       2.881  -2.942  -2.088  0.00  0.00     0.028 H 
ATOM     30  H   LIG d   1       4.631  -3.050  -1.785  0.00  0.00     0.028 H 
ATOM     31  H   LIG d   1       3.724  -1.611  -1.261  0.00  0.00     0.028 H 
ENDBRANCH   1  28
TORSDOF 6
ENDMDL
MODEL 8
REMARK VINA RESULT:      -6.1      4.013      5.796
REMARK  6 active torsions:
REMARK  status: ('A' for Active; 'I' for Inactive)
REMARK    1  A    between atoms: C_1  and  C_2 
REMARK    2  A    between atoms: C_5  and  N_9 
REMARK    3  A    between atoms: C_7  and  C_8 
REMARK       I    between atoms: N_9  and  C_10 
REMARK    4  A    between atoms: C_10  and  C_12 
REMARK    5  A    between atoms: C_12  and  C_13 
REMARK    6  A    between atoms: C_12  and  C_17 
ROOT
ATOM      1  C   LIG d   1      10.344   2.160  -5.201  0.00  0.00    -0.047 A 
ATOM      2  C   LIG d   1       9.430   1.642  -6.099  0.00  0.00    -0.057 A 
ATOM      3  C   LIG d   1       8.129   1.403  -5.702  0.00  0.00    -0.040 A 
ATOM      4  C   LIG d   1       7.739   1.682  -4.398  0.00  0.00     0.034 A 
ATOM      5  C   LIG d   1       8.661   2.201  -3.498  0.00  0.00    -0.037 A 
ATOM      6  C   LIG d   1       9.962   2.434  -3.900  0.00  0.00    -0.046 A 
ATOM      7  H   LIG d   1       9.732   1.425  -7.113  0.00  0.00     0.062 H 
ATOM      8  H   LIG d   1       7.414   1.000  -6.405  0.00  0.00     0.064 H 
ATOM      9  H   LIG d   1       8.362   2.419  -2.484  0.00  0.00     0.064 H 
ENDROOT
BRANCH   4  10
ATOM     10  N   LIG d   1       6.422   1.441  -3.993  0.00  0.00    -0.284 N 
ATOM     11  C   LIG d   1       6.079   0.233  -3.505  0.00  0.00     0.252 C 
ATOM     12  O   LIG d   1       6.927  -0.618  -3.339  0.00  0.00    -0.273 OA
ATOM     13  H   LIG d   1       5.757   2.143  -4.064  0.00  0.00     0.155 HD
BRANCH  11  14
ATOM     14  C   LIG d   1       4.641  -0.060  -3.163  0.00  0.00     0.289 C 
ATOM     15 BR   LIG d   1       4.538  -1.739  -2.144  0.00  0.00    -0.056 Br
BRANCH  14  16
ATOM     16  C   LIG d   1       4.072   1.082  -2.320  0.00  0.00     0.422 C 
ATOM     17  F   LIG d   1       4.750   1.139  -1.097  0.00  0.00    -0.168 F 
ATOM     18  F   LIG d   1       4.236   2.293  -3.001  0.00  0.00    -0.168 F 
ATOM     19  F   LIG d   1       2.711   0.859  -2.087  0.00  0.00    -0.168 F 
ENDBRANCH  14  16
BRANCH  14  20
ATOM     20  C   LIG d   1       3.827  -0.196  -4.452  0.00  0.00     0.422 C 
ATOM     21  F   LIG d   1       3.189   1.017  -4.730  0.00  0.00    -0.168 F 
ATOM     22  F   LIG d   1       4.681  -0.527  -5.510  0.00  0.00    -0.168 F 
ATOM     23  F   LIG d   1       2.868  -1.202  -4.294  0.00  0.00    -0.168 F 
ENDBRANCH  14  20
ENDBRANCH  11  14
ENDBRANCH   4  10
BRANCH   6  24
ATOM     24  C   LIG d   1      10.964   2.991  -2.923  0.00  0.00    -0.039 C 
ATOM     25  H   LIG d   1      11.772   3.478  -3.469  0.00  0.00     0.028 H 
ATOM     26  H   LIG d   1      10.473   3.719  -2.276  0.00  0.00     0.028 H 
ATOM     27  H   LIG d   1      11.370   2.182  -2.316  0.00  0.00     0.028 H 
ENDBRANCH   6  24
BRANCH   1  28
ATOM     28  C   LIG d   1      11.763   2.419  -5.637  0.00  0.00    -0.040 C 
ATOM     29  H   LIG d   1      11.861   3.453  -5.965  0.00  0.00     0.028 H 
ATOM     30  H   LIG d   1      12.439   2.238  -4.799  0.00  0.00     0.028 H 
ATOM     31  H   LIG d   1      12.019   1.751  -6.459  0.00  0.00     0.028 H 
ENDBRANCH   1  28
TORSDOF 6
ENDMDL
MODEL 9
REMARK VINA RESULT:      -5.9      4.535      6.572
REMARK  6 active torsions:
REMARK  status: ('A' for Active; 'I' for Inactive)
REMARK    1  A    between atoms: C_1  and  C_2 
REMARK    2  A    between atoms: C_5  and  N_9 
REMARK    3  A    between atoms: C_7  and  C_8 
REMARK       I    between atoms: N_9  and  C_10 
REMARK    4  A    between atoms: C_10  and  C_12 
REMARK    5  A    between atoms: C_12  and  C_13 
REMARK    6  A    between atoms: C_12  and  C_17 
ROOT
ATOM      1  C   LIG d   1       4.082  -1.806  -3.652  0.00  0.00    -0.047 A 
ATOM      2  C   LIG d   1       4.902  -2.306  -4.646  0.00  0.00    -0.057 A 
ATOM      3  C   LIG d   1       4.998  -1.652  -5.859  0.00  0.00    -0.040 A 
ATOM      4  C   LIG d   1       4.268  -0.491  -6.079  0.00  0.00     0.034 A 
ATOM      5  C   LIG d   1       3.444   0.009  -5.079  0.00  0.00    -0.037 A 
ATOM      6  C   LIG d   1       3.349  -0.653  -3.869  0.00  0.00    -0.046 A 
ATOM      7  H   LIG d   1       5.470  -3.209  -4.474  0.00  0.00     0.062 H 
ATOM      8  H   LIG d   1       5.640  -2.042  -6.635  0.00  0.00     0.064 H 
ATOM      9  H   LIG d   1       2.876   0.910  -5.247  0.00  0.00     0.064 H 
ENDROOT
BRANCH   4  10
ATOM     10  N   LIG d   1       4.362   0.175  -7.306  0.00  0.00    -0.284 N 
ATOM     11  C   LIG d   1       3.653  -0.263  -8.365  0.00  0.00     0.252 C 
ATOM     12  O   LIG d   1       2.871  -1.180  -8.234  0.00  0.00    -0.273 OA
ATOM     13  H   LIG d   1       4.939   0.950  -7.395  0.00  0.00     0.155 HD
BRANCH  11  14
ATOM     14  C   LIG d   1       3.831   0.389  -9.712  0.00  0.00     0.289 C 
ATOM     15 BR   LIG d   1       2.616  -0.449 -11.011  0.00  0.00    -0.056 Br
BRANCH  14  16
ATOM     16  C   LIG d   1       3.510   1.881  -9.604  0.00  0.00     0.422 C 
ATOM     17  F   LIG d   1       2.224   2.043  -9.077  0.00  0.00    -0.168 F 
ATOM     18  F   LIG d   1       4.440   2.500  -8.763  0.00  0.00    -0.168 F 
ATOM     19  F   LIG d   1       3.568   2.465 -10.875  0.00  0.00    -0.168 F 
ENDBRANCH  14  16
BRANCH  14  20
ATOM     20  C   LIG d   1       5.277   0.211 -10.179  0.00  0.00     0.422 C 
ATOM     21  F   LIG d   1       6.045   1.296  -9.741  0.00  0.00    -0.168 F 
ATOM     22  F   LIG d   1       5.797  -0.974  -9.646  0.00  0.00    -0.168 F 
ATOM     23  F   LIG d   1       5.312   0.149 -11.576  0.00  0.00    -0.168 F 
ENDBRANCH  14  20
ENDBRANCH  11  14
ENDBRANCH   4  10
BRANCH   6  24
ATOM     24  C   LIG d   1       2.452  -0.116  -2.785  0.00  0.00    -0.039 C 
ATOM     25  H   LIG d   1       1.550   0.301  -3.233  0.00  0.00     0.028 H 
ATOM     26  H   LIG d   1       2.180  -0.924  -2.105  0.00  0.00     0.028 H 
ATOM     27  H   LIG d   1       2.976   0.662  -2.231  0.00  0.00     0.028 H 
ENDBRANCH   6  24
BRANCH   1  28
ATOM     28  C   LIG d   1       3.980  -2.522  -2.330  0.00  0.00    -0.040 C 
ATOM     29  H   LIG d   1       4.041  -3.598  -2.492  0.00  0.00     0.028 H 
ATOM     30  H   LIG d   1       4.797  -2.206  -1.681  0.00  0.00     0.028 H 
ATOM     31  H   LIG d   1       3.028  -2.280  -1.858  0.00  0.00     0.028 H 
ENDBRANCH   1  28
TORSDOF 6
ENDMDL
