MODEL 1
REMARK VINA RESULT:      -7.1      0.000      0.000
REMARK  5 active torsions:
REMARK  status: ('A' for Active; 'I' for Inactive)
REMARK    1  A    between atoms: C_1  and  C_2 
REMARK    2  A    between atoms: C_19  and  C_21 
REMARK    3  A    between atoms: C_21  and  N_53 
REMARK    4  A    between atoms: C_22  and  C_23 
REMARK    5  A    between atoms: C_22  and  N_53 
ROOT
ATOM      1  C   LIG d   1       3.824  -0.537  -3.293  0.00  0.00    -0.022 C 
ATOM      2  C   LIG d   1       3.509   0.600  -2.310  0.00  0.00    -0.047 C 
ATOM      3  C   LIG d   1       4.798   1.030  -1.607  0.00  0.00    -0.049 C 
ATOM      4  C   LIG d   1       5.780   1.605  -2.631  0.00  0.00    -0.032 C 
ATOM      5  C   LIG d   1       5.969   0.596  -3.745  0.00  0.00    -0.073 C 
ATOM      6  C   LIG d   1       7.167   0.233  -4.133  0.00  0.00    -0.099 C 
ATOM      7  C   LIG d   1       4.732   0.023  -4.395  0.00  0.00    -0.014 C 
ATOM      8  H   LIG d   1       4.207   0.817  -4.928  0.00  0.00     0.035 H 
ATOM      9  C   LIG d   1       5.097  -1.083  -5.370  0.00  0.00    -0.039 C 
ATOM     10  C   LIG d   1       5.849  -2.221  -4.678  0.00  0.00     0.015 C 
ATOM     11  H   LIG d   1       6.884  -1.974  -4.443  0.00  0.00     0.035 H 
ATOM     12  C   LIG d   1       5.058  -2.727  -3.456  0.00  0.00     0.107 C 
ATOM     13  H   LIG d   1       5.700  -3.407  -2.896  0.00  0.00     0.074 H 
ATOM     14  C   LIG d   1       4.599  -1.621  -2.541  0.00  0.00    -0.009 C 
ATOM     15  O   LIG d   1       3.968  -3.487  -4.048  0.00  0.00    -0.461 OA
ATOM     16  C   LIG d   1       4.488  -4.189  -5.079  0.00  0.00     0.316 C 
ATOM     17  O   LIG d   1       4.049  -5.230  -5.510  0.00  0.00    -0.250 OA
ATOM     18  C   LIG d   1       5.711  -3.464  -5.609  0.00  0.00     0.102 C 
ATOM     19  H   LIG d   1       6.594  -4.099  -5.531  0.00  0.00     0.047 H 
ATOM     20  H   LIG d   1       2.789   0.252  -1.569  0.00  0.00     0.027 H 
ATOM     21  H   LIG d   1       3.091   1.447  -2.854  0.00  0.00     0.027 H 
ATOM     22  H   LIG d   1       5.249   0.167  -1.118  0.00  0.00     0.027 H 
ATOM     23  H   LIG d   1       4.566   1.789  -0.861  0.00  0.00     0.027 H 
ATOM     24  H   LIG d   1       5.380   2.532  -3.042  0.00  0.00     0.031 H 
ATOM     25  H   LIG d   1       6.738   1.801  -2.150  0.00  0.00     0.031 H 
ATOM     26  H   LIG d   1       8.036   0.575  -3.592  0.00  0.00     0.053 H 
ATOM     27  H   LIG d   1       7.284  -0.408  -4.994  0.00  0.00     0.053 H 
ATOM     28  H   LIG d   1       5.726  -0.669  -6.159  0.00  0.00     0.028 H 
ATOM     29  H   LIG d   1       4.184  -1.479  -5.816  0.00  0.00     0.028 H 
ATOM     30  H   LIG d   1       5.470  -1.170  -2.067  0.00  0.00     0.031 H 
ATOM     31  H   LIG d   1       3.957  -2.045  -1.768  0.00  0.00     0.031 H 
ENDROOT
BRANCH  18  32
ATOM     32  C   LIG d   1       5.489  -3.028  -7.058  0.00  0.00    -0.020 C 
ATOM     33  H   LIG d   1       5.823  -1.999  -7.183  0.00  0.00     0.082 H 
ATOM     34  H   LIG d   1       6.058  -3.678  -7.724  0.00  0.00     0.082 H 
BRANCH  32  35
ATOM     35  N   LIG d   1       4.052  -3.126  -7.377  0.00  0.00     0.231 N 
ATOM     36  H   LIG d   1       3.520  -2.538  -6.725  0.00  0.00     0.202 HD
ATOM     37  H   LIG d   1       3.750  -4.102  -7.284  0.00  0.00     0.202 HD
BRANCH  35  38
ATOM     38  C   LIG d   1       3.803  -2.669  -8.757  0.00  0.00    -0.008 C 
ATOM     39  H   LIG d   1       4.596  -3.030  -9.412  0.00  0.00     0.087 H 
ATOM     40  H   LIG d   1       2.844  -3.055  -9.103  0.00  0.00     0.087 H 
BRANCH  38  41
ATOM     41  C   LIG d   1       3.778  -1.163  -8.783  0.00  0.00    -0.003 A 
ATOM     42  C   LIG d   1       2.882  -0.473  -7.987  0.00  0.00    -0.051 A 
ATOM     43  C   LIG d   1       2.858   0.909  -8.011  0.00  0.00    -0.026 A 
ATOM     44  H   LIG d   1       2.200  -1.014  -7.347  0.00  0.00     0.062 H 
ATOM     45  C   LIG d   1       3.731   1.602  -8.832  0.00  0.00     0.123 A 
ATOM     46  H   LIG d   1       2.157   1.447  -7.390  0.00  0.00     0.065 H 
ATOM     47  C   LIG d   1       4.628   0.910  -9.628  0.00  0.00    -0.026 A 
ATOM     48  F   LIG d   1       3.708   2.952  -8.856  0.00  0.00    -0.205 F 
ATOM     49  C   LIG d   1       4.654  -0.471  -9.598  0.00  0.00    -0.051 A 
ATOM     50  H   LIG d   1       5.310   1.449 -10.268  0.00  0.00     0.065 H 
ATOM     51  H   LIG d   1       5.357  -1.011 -10.216  0.00  0.00     0.062 H 
ENDBRANCH  38  41
ENDBRANCH  35  38
ENDBRANCH  32  35
ENDBRANCH  18  32
BRANCH   1  52
ATOM     52  C   LIG d   1       2.534  -1.111  -3.882  0.00  0.00    -0.059 C 
ATOM     53  H   LIG d   1       1.676  -0.591  -3.455  0.00  0.00     0.024 H 
ATOM     54  H   LIG d   1       2.538  -0.976  -4.964  0.00  0.00     0.024 H 
ATOM     55  H   LIG d   1       2.468  -2.173  -3.648  0.00  0.00     0.024 H 
ENDBRANCH   1  52
TORSDOF 5
ENDMDL
MODEL 2
REMARK VINA RESULT:      -7.1      2.255      5.435
REMARK  5 active torsions:
REMARK  status: ('A' for Active; 'I' for Inactive)
REMARK    1  A    between atoms: C_1  and  C_2 
REMARK    2  A    between atoms: C_19  and  C_21 
REMARK    3  A    between atoms: C_21  and  N_53 
REMARK    4  A    between atoms: C_22  and  C_23 
REMARK    5  A    between atoms: C_22  and  N_53 
ROOT
ATOM      1  C   LIG d   1       4.452  -0.888  -9.200  0.00  0.00    -0.022 C 
ATOM      2  C   LIG d   1       3.771   0.213 -10.026  0.00  0.00    -0.047 C 
ATOM      3  C   LIG d   1       2.482   0.645  -9.325  0.00  0.00    -0.049 C 
ATOM      4  C   LIG d   1       2.812   1.267  -7.967  0.00  0.00    -0.032 C 
ATOM      5  C   LIG d   1       3.668   0.297  -7.181  0.00  0.00    -0.073 C 
ATOM      6  C   LIG d   1       3.361  -0.034  -5.950  0.00  0.00    -0.099 C 
ATOM      7  C   LIG d   1       4.888  -0.279  -7.861  0.00  0.00    -0.014 C 
ATOM      8  H   LIG d   1       5.606   0.522  -8.044  0.00  0.00     0.035 H 
ATOM      9  C   LIG d   1       5.534  -1.348  -6.997  0.00  0.00    -0.039 C 
ATOM     10  C   LIG d   1       4.566  -2.493  -6.696  0.00  0.00     0.015 C 
ATOM     11  H   LIG d   1       3.809  -2.235  -5.955  0.00  0.00     0.035 H 
ATOM     12  C   LIG d   1       3.964  -3.049  -8.003  0.00  0.00     0.107 C 
ATOM     13  H   LIG d   1       3.159  -3.735  -7.737  0.00  0.00     0.074 H 
ATOM     14  C   LIG d   1       3.419  -1.980  -8.913  0.00  0.00    -0.009 C 
ATOM     15  O   LIG d   1       5.059  -3.811  -8.584  0.00  0.00    -0.461 OA
ATOM     16  C   LIG d   1       5.663  -4.472  -7.571  0.00  0.00     0.316 C 
ATOM     17  O   LIG d   1       6.279  -5.507  -7.679  0.00  0.00    -0.250 OA
ATOM     18  C   LIG d   1       5.446  -3.710  -6.278  0.00  0.00     0.102 C 
ATOM     19  H   LIG d   1       4.918  -4.331  -5.553  0.00  0.00     0.047 H 
ATOM     20  H   LIG d   1       3.535  -0.169 -11.019  0.00  0.00     0.027 H 
ATOM     21  H   LIG d   1       4.441   1.069 -10.115  0.00  0.00     0.027 H 
ATOM     22  H   LIG d   1       1.840  -0.224  -9.179  0.00  0.00     0.027 H 
ATOM     23  H   LIG d   1       1.963   1.377  -9.944  0.00  0.00     0.027 H 
ATOM     24  H   LIG d   1       3.359   2.199  -8.114  0.00  0.00     0.031 H 
ATOM     25  H   LIG d   1       1.890   1.466  -7.420  0.00  0.00     0.031 H 
ATOM     26  H   LIG d   1       2.433   0.307  -5.516  0.00  0.00     0.053 H 
ATOM     27  H   LIG d   1       4.036  -0.647  -5.372  0.00  0.00     0.053 H 
ATOM     28  H   LIG d   1       5.857  -0.899  -6.058  0.00  0.00     0.028 H 
ATOM     29  H   LIG d   1       6.405  -1.746  -7.518  0.00  0.00     0.028 H 
ATOM     30  H   LIG d   1       2.545  -1.528  -8.444  0.00  0.00     0.031 H 
ATOM     31  H   LIG d   1       3.116  -2.439  -9.855  0.00  0.00     0.031 H 
ENDROOT
BRANCH  18  32
ATOM     32  C   LIG d   1       6.782  -3.235  -5.705  0.00  0.00    -0.020 C 
ATOM     33  H   LIG d   1       7.573  -3.916  -6.016  0.00  0.00     0.082 H 
ATOM     34  H   LIG d   1       7.000  -2.232  -6.075  0.00  0.00     0.082 H 
BRANCH  32  35
ATOM     35  N   LIG d   1       6.697  -3.212  -4.233  0.00  0.00     0.231 N 
ATOM     36  H   LIG d   1       7.186  -4.032  -3.852  0.00  0.00     0.202 HD
ATOM     37  H   LIG d   1       5.710  -3.241  -3.950  0.00  0.00     0.202 HD
BRANCH  35  38
ATOM     38  C   LIG d   1       7.319  -1.985  -3.702  0.00  0.00    -0.008 C 
ATOM     39  H   LIG d   1       7.975  -2.237  -2.870  0.00  0.00     0.087 H 
ATOM     40  H   LIG d   1       7.899  -1.499  -4.487  0.00  0.00     0.087 H 
BRANCH  38  41
ATOM     41  C   LIG d   1       6.238  -1.050  -3.224  0.00  0.00    -0.003 A 
ATOM     42  C   LIG d   1       6.405   0.317  -3.344  0.00  0.00    -0.051 A 
ATOM     43  C   LIG d   1       5.414   1.176  -2.905  0.00  0.00    -0.026 A 
ATOM     44  H   LIG d   1       7.309   0.715  -3.780  0.00  0.00     0.062 H 
ATOM     45  C   LIG d   1       4.255   0.666  -2.345  0.00  0.00     0.123 A 
ATOM     46  H   LIG d   1       5.545   2.244  -2.998  0.00  0.00     0.065 H 
ATOM     47  C   LIG d   1       4.090  -0.703  -2.226  0.00  0.00    -0.026 A 
ATOM     48  F   LIG d   1       3.287   1.504  -1.916  0.00  0.00    -0.205 F 
ATOM     49  C   LIG d   1       5.079  -1.560  -2.671  0.00  0.00    -0.051 A 
ATOM     50  H   LIG d   1       3.186  -1.102  -1.790  0.00  0.00     0.065 H 
ATOM     51  H   LIG d   1       4.947  -2.628  -2.581  0.00  0.00     0.062 H 
ENDBRANCH  38  41
ENDBRANCH  35  38
ENDBRANCH  32  35
ENDBRANCH  18  32
BRANCH   1  52
ATOM     52  C   LIG d   1       5.648  -1.466  -9.957  0.00  0.00    -0.059 C 
ATOM     53  H   LIG d   1       5.406  -2.468 -10.311  0.00  0.00     0.024 H 
ATOM     54  H   LIG d   1       5.883  -0.827 -10.809  0.00  0.00     0.024 H 
ATOM     55  H   LIG d   1       6.510  -1.515  -9.291  0.00  0.00     0.024 H 
ENDBRANCH   1  52
TORSDOF 5
ENDMDL
MODEL 3
REMARK VINA RESULT:      -7.1      1.772      2.505
REMARK  5 active torsions:
REMARK  status: ('A' for Active; 'I' for Inactive)
REMARK    1  A    between atoms: C_1  and  C_2 
REMARK    2  A    between atoms: C_19  and  C_21 
REMARK    3  A    between atoms: C_21  and  N_53 
REMARK    4  A    between atoms: C_22  and  C_23 
REMARK    5  A    between atoms: C_22  and  N_53 
ROOT
ATOM      1  C   LIG d   1       5.297  -0.984  -3.234  0.00  0.00    -0.022 C 
ATOM      2  C   LIG d   1       4.976  -0.411  -1.846  0.00  0.00    -0.047 C 
ATOM      3  C   LIG d   1       4.292   0.948  -2.009  0.00  0.00    -0.049 C 
ATOM      4  C   LIG d   1       2.950   0.772  -2.723  0.00  0.00    -0.032 C 
ATOM      5  C   LIG d   1       3.181   0.019  -4.016  0.00  0.00    -0.073 C 
ATOM      6  C   LIG d   1       2.712   0.467  -5.155  0.00  0.00    -0.099 C 
ATOM      7  C   LIG d   1       3.971  -1.267  -3.952  0.00  0.00    -0.014 C 
ATOM      8  H   LIG d   1       3.403  -2.007  -3.385  0.00  0.00     0.035 H 
ATOM      9  C   LIG d   1       4.246  -1.802  -5.346  0.00  0.00    -0.039 C 
ATOM     10  C   LIG d   1       5.030  -0.798  -6.192  0.00  0.00     0.015 C 
ATOM     11  H   LIG d   1       4.424   0.037  -6.543  0.00  0.00     0.035 H 
ATOM     12  C   LIG d   1       6.305  -0.347  -5.453  0.00  0.00     0.107 C 
ATOM     13  H   LIG d   1       6.738   0.488  -6.004  0.00  0.00     0.074 H 
ATOM     14  C   LIG d   1       6.052   0.083  -4.031  0.00  0.00    -0.009 C 
ATOM     15  O   LIG d   1       7.190  -1.497  -5.568  0.00  0.00    -0.461 OA
ATOM     16  C   LIG d   1       7.055  -1.976  -6.825  0.00  0.00     0.316 C 
ATOM     17  O   LIG d   1       7.898  -2.593  -7.433  0.00  0.00    -0.250 OA
ATOM     18  C   LIG d   1       5.678  -1.615  -7.351  0.00  0.00     0.102 C 
ATOM     19  H   LIG d   1       5.762  -1.003  -8.250  0.00  0.00     0.047 H 
ATOM     20  H   LIG d   1       5.899  -0.288  -1.280  0.00  0.00     0.027 H 
ATOM     21  H   LIG d   1       4.310  -1.092  -1.316  0.00  0.00     0.027 H 
ATOM     22  H   LIG d   1       4.931   1.608  -2.595  0.00  0.00     0.027 H 
ATOM     23  H   LIG d   1       4.124   1.387  -1.025  0.00  0.00     0.027 H 
ATOM     24  H   LIG d   1       2.268   0.206  -2.088  0.00  0.00     0.031 H 
ATOM     25  H   LIG d   1       2.520   1.750  -2.942  0.00  0.00     0.031 H 
ATOM     26  H   LIG d   1       2.238   1.437  -5.198  0.00  0.00     0.053 H 
ATOM     27  H   LIG d   1       2.799  -0.132  -6.048  0.00  0.00     0.053 H 
ATOM     28  H   LIG d   1       3.298  -2.018  -5.839  0.00  0.00     0.028 H 
ATOM     29  H   LIG d   1       4.822  -2.725  -5.265  0.00  0.00     0.028 H 
ATOM     30  H   LIG d   1       5.466   1.001  -4.038  0.00  0.00     0.031 H 
ATOM     31  H   LIG d   1       7.008   0.278  -3.545  0.00  0.00     0.031 H 
ENDROOT
BRANCH  18  32
ATOM     32  C   LIG d   1       4.867  -2.880  -7.636  0.00  0.00    -0.020 C 
ATOM     33  H   LIG d   1       5.435  -3.755  -7.322  0.00  0.00     0.082 H 
ATOM     34  H   LIG d   1       3.927  -2.840  -7.084  0.00  0.00     0.082 H 
BRANCH  32  35
ATOM     35  N   LIG d   1       4.589  -2.962  -9.082  0.00  0.00     0.231 N 
ATOM     36  H   LIG d   1       4.671  -3.939  -9.388  0.00  0.00     0.202 HD
ATOM     37  H   LIG d   1       5.270  -2.385  -9.590  0.00  0.00     0.202 HD
BRANCH  35  38
ATOM     38  C   LIG d   1       3.228  -2.475  -9.371  0.00  0.00    -0.008 C 
ATOM     39  H   LIG d   1       2.846  -2.962 -10.268  0.00  0.00     0.087 H 
ATOM     40  H   LIG d   1       2.572  -2.699  -8.530  0.00  0.00     0.087 H 
BRANCH  38  41
ATOM     41  C   LIG d   1       3.272  -0.984  -9.590  0.00  0.00    -0.003 A 
ATOM     42  C   LIG d   1       2.532  -0.145  -8.778  0.00  0.00    -0.051 A 
ATOM     43  C   LIG d   1       2.572   1.223  -8.979  0.00  0.00    -0.026 A 
ATOM     44  H   LIG d   1       1.922  -0.556  -7.987  0.00  0.00     0.062 H 
ATOM     45  C   LIG d   1       3.352   1.751  -9.993  0.00  0.00     0.123 A 
ATOM     46  H   LIG d   1       1.993   1.878  -8.345  0.00  0.00     0.065 H 
ATOM     47  C   LIG d   1       4.093   0.909 -10.805  0.00  0.00    -0.026 A 
ATOM     48  F   LIG d   1       3.392   3.086 -10.190  0.00  0.00    -0.205 F 
ATOM     49  C   LIG d   1       4.056  -0.457 -10.598  0.00  0.00    -0.051 A 
ATOM     50  H   LIG d   1       4.702   1.319 -11.595  0.00  0.00     0.065 H 
ATOM     51  H   LIG d   1       4.638  -1.114 -11.229  0.00  0.00     0.062 H 
ENDBRANCH  38  41
ENDBRANCH  35  38
ENDBRANCH  32  35
ENDBRANCH  18  32
BRANCH   1  52
ATOM     52  C   LIG d   1       6.137  -2.256  -3.109  0.00  0.00    -0.059 C 
ATOM     53  H   LIG d   1       6.916  -2.254  -3.871  0.00  0.00     0.024 H 
ATOM     54  H   LIG d   1       6.595  -2.293  -2.121  0.00  0.00     0.024 H 
ATOM     55  H   LIG d   1       5.498  -3.129  -3.246  0.00  0.00     0.024 H 
ENDBRANCH   1  52
TORSDOF 5
ENDMDL
MODEL 4
REMARK VINA RESULT:      -7.0      2.492      5.762
REMARK  5 active torsions:
REMARK  status: ('A' for Active; 'I' for Inactive)
REMARK    1  A    between atoms: C_1  and  C_2 
REMARK    2  A    between atoms: C_19  and  C_21 
REMARK    3  A    between atoms: C_21  and  N_53 
REMARK    4  A    between atoms: C_22  and  C_23 
REMARK    5  A    between atoms: C_22  and  N_53 
ROOT
ATOM      1  C   LIG d   1       5.477   1.044  -8.626  0.00  0.00    -0.022 C 
ATOM      2  C   LIG d   1       5.082   2.416  -9.191  0.00  0.00    -0.047 C 
ATOM      3  C   LIG d   1       3.779   2.279  -9.980  0.00  0.00    -0.049 C 
ATOM      4  C   LIG d   1       2.645   1.857  -9.042  0.00  0.00    -0.032 C 
ATOM      5  C   LIG d   1       3.070   0.610  -8.295  0.00  0.00    -0.073 C 
ATOM      6  C   LIG d   1       2.298  -0.447  -8.249  0.00  0.00    -0.099 C 
ATOM      7  C   LIG d   1       4.413   0.625  -7.603  0.00  0.00    -0.014 C 
ATOM      8  H   LIG d   1       4.388   1.351  -6.789  0.00  0.00     0.035 H 
ATOM      9  C   LIG d   1       4.749  -0.747  -7.046  0.00  0.00    -0.039 C 
ATOM     10  C   LIG d   1       4.785  -1.810  -8.145  0.00  0.00     0.015 C 
ATOM     11  H   LIG d   1       3.795  -2.104  -8.495  0.00  0.00     0.035 H 
ATOM     12  C   LIG d   1       5.722  -1.373  -9.289  0.00  0.00     0.107 C 
ATOM     13  H   LIG d   1       5.586  -2.066 -10.120  0.00  0.00     0.074 H 
ATOM     14  C   LIG d   1       5.463   0.030  -9.772  0.00  0.00    -0.009 C 
ATOM     15  O   LIG d   1       7.052  -1.564  -8.730  0.00  0.00    -0.461 OA
ATOM     16  C   LIG d   1       7.029  -2.727  -8.041  0.00  0.00     0.316 C 
ATOM     17  O   LIG d   1       7.986  -3.435  -7.830  0.00  0.00    -0.250 OA
ATOM     18  C   LIG d   1       5.612  -3.002  -7.573  0.00  0.00     0.102 C 
ATOM     19  H   LIG d   1       5.253  -3.947  -7.982  0.00  0.00     0.047 H 
ATOM     20  H   LIG d   1       5.871   2.779  -9.851  0.00  0.00     0.027 H 
ATOM     21  H   LIG d   1       4.939   3.121  -8.372  0.00  0.00     0.027 H 
ATOM     22  H   LIG d   1       3.904   1.527 -10.759  0.00  0.00     0.027 H 
ATOM     23  H   LIG d   1       3.532   3.236 -10.439  0.00  0.00     0.027 H 
ATOM     24  H   LIG d   1       2.442   2.658  -8.330  0.00  0.00     0.031 H 
ATOM     25  H   LIG d   1       1.747   1.647  -9.623  0.00  0.00     0.031 H 
ATOM     26  H   LIG d   1       1.389  -0.477  -8.831  0.00  0.00     0.053 H 
ATOM     27  H   LIG d   1       2.571  -1.288  -7.629  0.00  0.00     0.053 H 
ATOM     28  H   LIG d   1       3.997  -1.025  -6.307  0.00  0.00     0.028 H 
ATOM     29  H   LIG d   1       5.724  -0.704  -6.561  0.00  0.00     0.028 H 
ATOM     30  H   LIG d   1       4.490   0.062 -10.261  0.00  0.00     0.031 H 
ATOM     31  H   LIG d   1       6.232   0.302 -10.496  0.00  0.00     0.031 H 
ENDROOT
BRANCH  18  32
ATOM     32  C   LIG d   1       5.545  -3.017  -6.045  0.00  0.00    -0.020 C 
ATOM     33  H   LIG d   1       4.695  -2.422  -5.713  0.00  0.00     0.082 H 
ATOM     34  H   LIG d   1       5.429  -4.044  -5.697  0.00  0.00     0.082 H 
BRANCH  32  35
ATOM     35  N   LIG d   1       6.792  -2.447  -5.501  0.00  0.00     0.231 N 
ATOM     36  H   LIG d   1       6.830  -1.444  -5.720  0.00  0.00     0.202 HD
ATOM     37  H   LIG d   1       7.596  -2.922  -5.928  0.00  0.00     0.202 HD
BRANCH  35  38
ATOM     38  C   LIG d   1       6.842  -2.628  -4.039  0.00  0.00    -0.008 C 
ATOM     39  H   LIG d   1       6.409  -3.592  -3.773  0.00  0.00     0.087 H 
ATOM     40  H   LIG d   1       7.877  -2.589  -3.699  0.00  0.00     0.087 H 
BRANCH  38  41
ATOM     41  C   LIG d   1       6.055  -1.525  -3.377  0.00  0.00    -0.003 A 
ATOM     42  C   LIG d   1       4.945  -1.832  -2.613  0.00  0.00    -0.051 A 
ATOM     43  C   LIG d   1       4.222  -0.822  -2.006  0.00  0.00    -0.026 A 
ATOM     44  H   LIG d   1       4.641  -2.861  -2.490  0.00  0.00     0.062 H 
ATOM     45  C   LIG d   1       4.610   0.498  -2.165  0.00  0.00     0.123 A 
ATOM     46  H   LIG d   1       3.354  -1.062  -1.410  0.00  0.00     0.065 H 
ATOM     47  C   LIG d   1       5.723   0.803  -2.930  0.00  0.00    -0.026 A 
ATOM     48  F   LIG d   1       3.906   1.486  -1.573  0.00  0.00    -0.205 F 
ATOM     49  C   LIG d   1       6.447  -0.209  -3.531  0.00  0.00    -0.051 A 
ATOM     50  H   LIG d   1       6.028   1.832  -3.054  0.00  0.00     0.065 H 
ATOM     51  H   LIG d   1       7.318   0.029  -4.124  0.00  0.00     0.062 H 
ENDBRANCH  38  41
ENDBRANCH  35  38
ENDBRANCH  32  35
ENDBRANCH  18  32
BRANCH   1  52
ATOM     52  C   LIG d   1       6.863   1.107  -7.981  0.00  0.00    -0.059 C 
ATOM     53  H   LIG d   1       7.552   1.624  -8.650  0.00  0.00     0.024 H 
ATOM     54  H   LIG d   1       6.801   1.648  -7.037  0.00  0.00     0.024 H 
ATOM     55  H   LIG d   1       7.226   0.095  -7.798  0.00  0.00     0.024 H 
ENDBRANCH   1  52
TORSDOF 5
ENDMDL
MODEL 5
REMARK VINA RESULT:      -7.0      4.297      6.631
REMARK  5 active torsions:
REMARK  status: ('A' for Active; 'I' for Inactive)
REMARK    1  A    between atoms: C_1  and  C_2 
REMARK    2  A    between atoms: C_19  and  C_21 
REMARK    3  A    between atoms: C_21  and  N_53 
REMARK    4  A    between atoms: C_22  and  C_23 
REMARK    5  A    between atoms: C_22  and  N_53 
ROOT
ATOM      1  C   LIG d   1       6.100  -0.239  -4.073  0.00  0.00    -0.022 C 
ATOM      2  C   LIG d   1       6.104   1.049  -3.237  0.00  0.00    -0.047 C 
ATOM      3  C   LIG d   1       4.727   1.238  -2.597  0.00  0.00    -0.049 C 
ATOM      4  C   LIG d   1       4.447   0.092  -1.621  0.00  0.00    -0.032 C 
ATOM      5  C   LIG d   1       4.635  -1.223  -2.348  0.00  0.00    -0.073 C 
ATOM      6  C   LIG d   1       3.715  -2.156  -2.309  0.00  0.00    -0.099 C 
ATOM      7  C   LIG d   1       5.917  -1.427  -3.119  0.00  0.00    -0.014 C 
ATOM      8  H   LIG d   1       6.754  -1.460  -2.420  0.00  0.00     0.035 H 
ATOM      9  C   LIG d   1       5.871  -2.720  -3.913  0.00  0.00    -0.039 C 
ATOM     10  C   LIG d   1       4.706  -2.734  -4.904  0.00  0.00     0.015 C 
ATOM     11  H   LIG d   1       3.738  -2.894  -4.430  0.00  0.00     0.035 H 
ATOM     12  C   LIG d   1       4.740  -1.476  -5.795  0.00  0.00     0.107 C 
ATOM     13  H   LIG d   1       3.808  -1.437  -6.359  0.00  0.00     0.074 H 
ATOM     14  C   LIG d   1       4.895  -0.195  -5.016  0.00  0.00    -0.009 C 
ATOM     15  O   LIG d   1       5.836  -1.739  -6.714  0.00  0.00    -0.461 OA
ATOM     16  C   LIG d   1       5.748  -3.039  -7.074  0.00  0.00     0.316 C 
ATOM     17  O   LIG d   1       6.158  -3.508  -8.110  0.00  0.00    -0.250 OA
ATOM     18  C   LIG d   1       5.054  -3.816  -5.972  0.00  0.00     0.102 C 
ATOM     19  H   LIG d   1       4.144  -4.284  -6.350  0.00  0.00     0.047 H 
ATOM     20  H   LIG d   1       6.325   1.901  -3.881  0.00  0.00     0.027 H 
ATOM     21  H   LIG d   1       6.861   0.975  -2.457  0.00  0.00     0.027 H 
ATOM     22  H   LIG d   1       3.964   1.247  -3.374  0.00  0.00     0.027 H 
ATOM     23  H   LIG d   1       4.707   2.186  -2.058  0.00  0.00     0.027 H 
ATOM     24  H   LIG d   1       5.141   0.148  -0.782  0.00  0.00     0.031 H 
ATOM     25  H   LIG d   1       3.423   0.164  -1.255  0.00  0.00     0.031 H 
ATOM     26  H   LIG d   1       2.764  -1.956  -1.838  0.00  0.00     0.053 H 
ATOM     27  H   LIG d   1       3.908  -3.123  -2.747  0.00  0.00     0.053 H 
ATOM     28  H   LIG d   1       5.762  -3.557  -3.224  0.00  0.00     0.028 H 
ATOM     29  H   LIG d   1       6.806  -2.833  -4.462  0.00  0.00     0.028 H 
ATOM     30  H   LIG d   1       3.992  -0.025  -4.430  0.00  0.00     0.031 H 
ATOM     31  H   LIG d   1       5.022   0.631  -5.717  0.00  0.00     0.031 H 
ENDROOT
BRANCH  18  32
ATOM     32  C   LIG d   1       5.995  -4.868  -5.383  0.00  0.00    -0.020 C 
ATOM     33  H   LIG d   1       7.013  -4.480  -5.375  0.00  0.00     0.082 H 
ATOM     34  H   LIG d   1       5.687  -5.101  -4.363  0.00  0.00     0.082 H 
BRANCH  32  35
ATOM     35  N   LIG d   1       5.935  -6.088  -6.210  0.00  0.00     0.231 N 
ATOM     36  H   LIG d   1       6.076  -5.836  -7.195  0.00  0.00     0.202 HD
ATOM     37  H   LIG d   1       5.015  -6.528  -6.097  0.00  0.00     0.202 HD
BRANCH  35  38
ATOM     38  C   LIG d   1       6.984  -7.038  -5.796  0.00  0.00    -0.008 C 
ATOM     39  H   LIG d   1       7.457  -7.470  -6.678  0.00  0.00     0.087 H 
ATOM     40  H   LIG d   1       7.734  -6.520  -5.199  0.00  0.00     0.087 H 
BRANCH  38  41
ATOM     41  C   LIG d   1       6.359  -8.137  -4.974  0.00  0.00    -0.003 A 
ATOM     42  C   LIG d   1       7.122  -8.827  -4.051  0.00  0.00    -0.051 A 
ATOM     43  C   LIG d   1       6.550  -9.835  -3.297  0.00  0.00    -0.026 A 
ATOM     44  H   LIG d   1       8.165  -8.581  -3.919  0.00  0.00     0.062 H 
ATOM     45  C   LIG d   1       5.213 -10.153  -3.467  0.00  0.00     0.123 A 
ATOM     46  H   LIG d   1       7.146 -10.376  -2.577  0.00  0.00     0.065 H 
ATOM     47  C   LIG d   1       4.450  -9.459  -4.392  0.00  0.00    -0.026 A 
ATOM     48  F   LIG d   1       4.653 -11.137  -2.731  0.00  0.00    -0.205 F 
ATOM     49  C   LIG d   1       5.023  -8.448  -5.140  0.00  0.00    -0.051 A 
ATOM     50  H   LIG d   1       3.408  -9.705  -4.524  0.00  0.00     0.065 H 
ATOM     51  H   LIG d   1       4.427  -7.905  -5.858  0.00  0.00     0.062 H 
ENDBRANCH  38  41
ENDBRANCH  35  38
ENDBRANCH  32  35
ENDBRANCH  18  32
BRANCH   1  52
ATOM     52  C   LIG d   1       7.400  -0.367  -4.869  0.00  0.00    -0.059 C 
ATOM     53  H   LIG d   1       7.585   0.558  -5.415  0.00  0.00     0.024 H 
ATOM     54  H   LIG d   1       8.227  -0.556  -4.184  0.00  0.00     0.024 H 
ATOM     55  H   LIG d   1       7.315  -1.195  -5.573  0.00  0.00     0.024 H 
ENDBRANCH   1  52
TORSDOF 5
ENDMDL
MODEL 6
REMARK VINA RESULT:      -7.0      2.790      6.302
REMARK  5 active torsions:
REMARK  status: ('A' for Active; 'I' for Inactive)
REMARK    1  A    between atoms: C_1  and  C_2 
REMARK    2  A    between atoms: C_19  and  C_21 
REMARK    3  A    between atoms: C_21  and  N_53 
REMARK    4  A    between atoms: C_22  and  C_23 
REMARK    5  A    between atoms: C_22  and  N_53 
ROOT
ATOM      1  C   LIG d   1       3.035  -0.261  -8.893  0.00  0.00    -0.022 C 
ATOM      2  C   LIG d   1       1.784  -0.198  -9.781  0.00  0.00    -0.047 C 
ATOM      3  C   LIG d   1       2.043  -0.977 -11.072  0.00  0.00    -0.049 C 
ATOM      4  C   LIG d   1       2.268  -2.456 -10.749  0.00  0.00    -0.032 C 
ATOM      5  C   LIG d   1       3.364  -2.566  -9.710  0.00  0.00    -0.073 C 
ATOM      6  C   LIG d   1       4.383  -3.371  -9.884  0.00  0.00    -0.099 C 
ATOM      7  C   LIG d   1       3.244  -1.719  -8.466  0.00  0.00    -0.014 C 
ATOM      8  H   LIG d   1       2.382  -2.054  -7.887  0.00  0.00     0.035 H 
ATOM      9  C   LIG d   1       4.496  -1.830  -7.614  0.00  0.00    -0.039 C 
ATOM     10  C   LIG d   1       5.742  -1.385  -8.381  0.00  0.00     0.015 C 
ATOM     11  H   LIG d   1       6.080  -2.114  -9.117  0.00  0.00     0.035 H 
ATOM     12  C   LIG d   1       5.537   0.022  -8.977  0.00  0.00     0.107 C 
ATOM     13  H   LIG d   1       6.367   0.226  -9.653  0.00  0.00     0.074 H 
ATOM     14  C   LIG d   1       4.241   0.168  -9.732  0.00  0.00    -0.009 C 
ATOM     15  O   LIG d   1       5.643   0.900  -7.821  0.00  0.00    -0.461 OA
ATOM     16  C   LIG d   1       6.659   0.434  -7.062  0.00  0.00     0.316 C 
ATOM     17  O   LIG d   1       7.332   1.098  -6.308  0.00  0.00    -0.250 OA
ATOM     18  C   LIG d   1       6.822  -1.055  -7.305  0.00  0.00     0.102 C 
ATOM     19  H   LIG d   1       7.820  -1.271  -7.688  0.00  0.00     0.047 H 
ATOM     20  H   LIG d   1       1.560   0.842 -10.022  0.00  0.00     0.027 H 
ATOM     21  H   LIG d   1       0.939  -0.639  -9.252  0.00  0.00     0.027 H 
ATOM     22  H   LIG d   1       2.926  -0.574 -11.567  0.00  0.00     0.027 H 
ATOM     23  H   LIG d   1       1.181  -0.876 -11.732  0.00  0.00     0.027 H 
ATOM     24  H   LIG d   1       1.348  -2.890 -10.357  0.00  0.00     0.031 H 
ATOM     25  H   LIG d   1       2.567  -2.987 -11.654  0.00  0.00     0.031 H 
ATOM     26  H   LIG d   1       4.505  -3.893 -10.822  0.00  0.00     0.053 H 
ATOM     27  H   LIG d   1       5.101  -3.513  -9.090  0.00  0.00     0.053 H 
ATOM     28  H   LIG d   1       4.623  -2.866  -7.300  0.00  0.00     0.028 H 
ATOM     29  H   LIG d   1       4.380  -1.203  -6.729  0.00  0.00     0.028 H 
ATOM     30  H   LIG d   1       4.284  -0.447 -10.631  0.00  0.00     0.031 H 
ATOM     31  H   LIG d   1       4.118   1.211 -10.025  0.00  0.00     0.031 H 
ENDROOT
BRANCH  18  32
ATOM     32  C   LIG d   1       6.557  -1.840  -6.020  0.00  0.00    -0.020 C 
ATOM     33  H   LIG d   1       5.588  -1.552  -5.612  0.00  0.00     0.082 H 
ATOM     34  H   LIG d   1       6.555  -2.908  -6.240  0.00  0.00     0.082 H 
BRANCH  32  35
ATOM     35  N   LIG d   1       7.617  -1.537  -5.041  0.00  0.00     0.231 N 
ATOM     36  H   LIG d   1       7.803  -0.527  -5.044  0.00  0.00     0.202 HD
ATOM     37  H   LIG d   1       8.472  -2.043  -5.300  0.00  0.00     0.202 HD
BRANCH  35  38
ATOM     38  C   LIG d   1       7.199  -1.950  -3.688  0.00  0.00    -0.008 C 
ATOM     39  H   LIG d   1       6.784  -2.957  -3.724  0.00  0.00     0.087 H 
ATOM     40  H   LIG d   1       8.058  -1.936  -3.018  0.00  0.00     0.087 H 
BRANCH  38  41
ATOM     41  C   LIG d   1       6.150  -0.993  -3.181  0.00  0.00    -0.003 A 
ATOM     42  C   LIG d   1       4.969  -1.480  -2.654  0.00  0.00    -0.051 A 
ATOM     43  C   LIG d   1       4.006  -0.603  -2.189  0.00  0.00    -0.026 A 
ATOM     44  H   LIG d   1       4.797  -2.545  -2.605  0.00  0.00     0.062 H 
ATOM     45  C   LIG d   1       4.226   0.762  -2.253  0.00  0.00     0.123 A 
ATOM     46  H   LIG d   1       3.083  -0.984  -1.778  0.00  0.00     0.065 H 
ATOM     47  C   LIG d   1       5.410   1.248  -2.781  0.00  0.00    -0.026 A 
ATOM     48  F   LIG d   1       3.286   1.620  -1.799  0.00  0.00    -0.205 F 
ATOM     49  C   LIG d   1       6.373   0.369  -3.240  0.00  0.00    -0.051 A 
ATOM     50  H   LIG d   1       5.583   2.312  -2.830  0.00  0.00     0.065 H 
ATOM     51  H   LIG d   1       7.299   0.748  -3.648  0.00  0.00     0.062 H 
ENDBRANCH  38  41
ENDBRANCH  35  38
ENDBRANCH  32  35
ENDBRANCH  18  32
BRANCH   1  52
ATOM     52  C   LIG d   1       2.877   0.652  -7.676  0.00  0.00    -0.059 C 
ATOM     53  H   LIG d   1       2.704   1.676  -8.008  0.00  0.00     0.024 H 
ATOM     54  H   LIG d   1       2.029   0.316  -7.078  0.00  0.00     0.024 H 
ATOM     55  H   LIG d   1       3.784   0.614  -7.073  0.00  0.00     0.024 H 
ENDBRANCH   1  52
TORSDOF 5
ENDMDL
MODEL 7
REMARK VINA RESULT:      -7.0      4.040      6.270
REMARK  5 active torsions:
REMARK  status: ('A' for Active; 'I' for Inactive)
REMARK    1  A    between atoms: C_1  and  C_2 
REMARK    2  A    between atoms: C_19  and  C_21 
REMARK    3  A    between atoms: C_21  and  N_53 
REMARK    4  A    between atoms: C_22  and  C_23 
REMARK    5  A    between atoms: C_22  and  N_53 
ROOT
ATOM      1  C   LIG d   1       6.083  -0.189  -4.069  0.00  0.00    -0.022 C 
ATOM      2  C   LIG d   1       6.060   1.081  -3.205  0.00  0.00    -0.047 C 
ATOM      3  C   LIG d   1       4.686   1.218  -2.547  0.00  0.00    -0.049 C 
ATOM      4  C   LIG d   1       4.447   0.045  -1.594  0.00  0.00    -0.032 C 
ATOM      5  C   LIG d   1       4.663  -1.249  -2.350  0.00  0.00    -0.073 C 
ATOM      6  C   LIG d   1       3.769  -2.207  -2.322  0.00  0.00    -0.099 C 
ATOM      7  C   LIG d   1       5.943  -1.401  -3.139  0.00  0.00    -0.014 C 
ATOM      8  H   LIG d   1       6.787  -1.426  -2.448  0.00  0.00     0.035 H 
ATOM      9  C   LIG d   1       5.924  -2.678  -3.960  0.00  0.00    -0.039 C 
ATOM     10  C   LIG d   1       4.749  -2.703  -4.939  0.00  0.00     0.015 C 
ATOM     11  H   LIG d   1       3.791  -2.899  -4.459  0.00  0.00     0.035 H 
ATOM     12  C   LIG d   1       4.739  -1.425  -5.803  0.00  0.00     0.107 C 
ATOM     13  H   LIG d   1       3.800  -1.401  -6.357  0.00  0.00     0.074 H 
ATOM     14  C   LIG d   1       4.868  -0.158  -4.999  0.00  0.00    -0.009 C 
ATOM     15  O   LIG d   1       5.833  -1.639  -6.738  0.00  0.00    -0.461 OA
ATOM     16  C   LIG d   1       5.777  -2.933  -7.125  0.00  0.00     0.316 C 
ATOM     17  O   LIG d   1       6.188  -3.369  -8.175  0.00  0.00    -0.250 OA
ATOM     18  C   LIG d   1       5.115  -3.752  -6.033  0.00  0.00     0.102 C 
ATOM     19  H   LIG d   1       4.215  -4.237  -6.412  0.00  0.00     0.047 H 
ATOM     20  H   LIG d   1       6.252   1.952  -3.833  0.00  0.00     0.027 H 
ATOM     21  H   LIG d   1       6.828   1.012  -2.435  0.00  0.00     0.027 H 
ATOM     22  H   LIG d   1       3.914   1.223  -3.317  0.00  0.00     0.027 H 
ATOM     23  H   LIG d   1       4.645   2.154  -1.989  0.00  0.00     0.027 H 
ATOM     24  H   LIG d   1       5.148   0.102  -0.761  0.00  0.00     0.031 H 
ATOM     25  H   LIG d   1       3.425   0.081  -1.217  0.00  0.00     0.031 H 
ATOM     26  H   LIG d   1       2.818  -2.043  -1.838  0.00  0.00     0.053 H 
ATOM     27  H   LIG d   1       3.985  -3.159  -2.783  0.00  0.00     0.053 H 
ATOM     28  H   LIG d   1       5.844  -3.532  -3.287  0.00  0.00     0.028 H 
ATOM     29  H   LIG d   1       6.856  -2.753  -4.520  0.00  0.00     0.028 H 
ATOM     30  H   LIG d   1       3.966  -0.026  -4.400  0.00  0.00     0.031 H 
ATOM     31  H   LIG d   1       4.965   0.686  -5.682  0.00  0.00     0.031 H 
ENDROOT
BRANCH  18  32
ATOM     32  C   LIG d   1       6.091  -4.790  -5.476  0.00  0.00    -0.020 C 
ATOM     33  H   LIG d   1       6.032  -4.796  -4.388  0.00  0.00     0.082 H 
ATOM     34  H   LIG d   1       5.829  -5.777  -5.860  0.00  0.00     0.082 H 
BRANCH  32  35
ATOM     35  N   LIG d   1       7.460  -4.441  -5.898  0.00  0.00     0.231 N 
ATOM     36  H   LIG d   1       7.829  -3.709  -5.279  0.00  0.00     0.202 HD
ATOM     37  H   LIG d   1       7.439  -4.095  -6.864  0.00  0.00     0.202 HD
BRANCH  35  38
ATOM     38  C   LIG d   1       8.335  -5.626  -5.824  0.00  0.00    -0.008 C 
ATOM     39  H   LIG d   1       7.776  -6.514  -6.118  0.00  0.00     0.087 H 
ATOM     40  H   LIG d   1       9.186  -5.495  -6.493  0.00  0.00     0.087 H 
BRANCH  38  41
ATOM     41  C   LIG d   1       8.829  -5.789  -4.410  0.00  0.00    -0.003 A 
ATOM     42  C   LIG d   1       9.197  -4.678  -3.674  0.00  0.00    -0.051 A 
ATOM     43  C   LIG d   1       9.651  -4.827  -2.377  0.00  0.00    -0.026 A 
ATOM     44  H   LIG d   1       9.132  -3.693  -4.113  0.00  0.00     0.062 H 
ATOM     45  C   LIG d   1       9.737  -6.090  -1.815  0.00  0.00     0.123 A 
ATOM     46  H   LIG d   1       9.940  -3.959  -1.802  0.00  0.00     0.065 H 
ATOM     47  C   LIG d   1       9.366  -7.201  -2.553  0.00  0.00    -0.026 A 
ATOM     48  F   LIG d   1      10.179  -6.237  -0.547  0.00  0.00    -0.205 F 
ATOM     49  C   LIG d   1       8.908  -7.049  -3.847  0.00  0.00    -0.051 A 
ATOM     50  H   LIG d   1       9.432  -8.186  -2.115  0.00  0.00     0.065 H 
ATOM     51  H   LIG d   1       8.616  -7.916  -4.421  0.00  0.00     0.062 H 
ENDBRANCH  38  41
ENDBRANCH  35  38
ENDBRANCH  32  35
ENDBRANCH  18  32
BRANCH   1  52
ATOM     52  C   LIG d   1       7.378  -0.264  -4.880  0.00  0.00    -0.059 C 
ATOM     53  H   LIG d   1       8.160   0.298  -4.369  0.00  0.00     0.024 H 
ATOM     54  H   LIG d   1       7.684  -1.306  -4.978  0.00  0.00     0.024 H 
ATOM     55  H   LIG d   1       7.212   0.161  -5.870  0.00  0.00     0.024 H 
ENDBRANCH   1  52
TORSDOF 5
ENDMDL
MODEL 8
REMARK VINA RESULT:      -6.8      2.101      2.664
REMARK  5 active torsions:
REMARK  status: ('A' for Active; 'I' for Inactive)
REMARK    1  A    between atoms: C_1  and  C_2 
REMARK    2  A    between atoms: C_19  and  C_21 
REMARK    3  A    between atoms: C_21  and  N_53 
REMARK    4  A    between atoms: C_22  and  C_23 
REMARK    5  A    between atoms: C_22  and  N_53 
ROOT
ATOM      1  C   LIG d   1       5.102  -1.810  -3.879  0.00  0.00    -0.022 C 
ATOM      2  C   LIG d   1       4.033  -1.833  -2.776  0.00  0.00    -0.047 C 
ATOM      3  C   LIG d   1       4.505  -0.977  -1.599  0.00  0.00    -0.049 C 
ATOM      4  C   LIG d   1       4.639   0.483  -2.040  0.00  0.00    -0.032 C 
ATOM      5  C   LIG d   1       5.525   0.543  -3.265  0.00  0.00    -0.073 C 
ATOM      6  C   LIG d   1       6.543   1.367  -3.325  0.00  0.00    -0.099 C 
ATOM      7  C   LIG d   1       5.200  -0.376  -4.418  0.00  0.00    -0.014 C 
ATOM      8  H   LIG d   1       4.240  -0.085  -4.848  0.00  0.00     0.035 H 
ATOM      9  C   LIG d   1       6.275  -0.304  -5.488  0.00  0.00    -0.039 C 
ATOM     10  C   LIG d   1       7.648  -0.690  -4.936  0.00  0.00     0.015 C 
ATOM     11  H   LIG d   1       8.098   0.084  -4.315  0.00  0.00     0.035 H 
ATOM     12  C   LIG d   1       7.582  -2.062  -4.235  0.00  0.00     0.107 C 
ATOM     13  H   LIG d   1       8.525  -2.218  -3.711  0.00  0.00     0.074 H 
ATOM     14  C   LIG d   1       6.448  -2.176  -3.250  0.00  0.00    -0.009 C 
ATOM     15  O   LIG d   1       7.495  -3.005  -5.340  0.00  0.00    -0.461 OA
ATOM     16  C   LIG d   1       8.348  -2.574  -6.296  0.00  0.00     0.316 C 
ATOM     17  O   LIG d   1       8.886  -3.275  -7.121  0.00  0.00    -0.250 OA
ATOM     18  C   LIG d   1       8.522  -1.072  -6.170  0.00  0.00     0.102 C 
ATOM     19  H   LIG d   1       9.568  -0.824  -5.988  0.00  0.00     0.047 H 
ATOM     20  H   LIG d   1       3.877  -2.858  -2.441  0.00  0.00     0.027 H 
ATOM     21  H   LIG d   1       3.098  -1.431  -3.166  0.00  0.00     0.027 H 
ATOM     22  H   LIG d   1       5.472  -1.340  -1.251  0.00  0.00     0.027 H 
ATOM     23  H   LIG d   1       3.780  -1.047  -0.789  0.00  0.00     0.027 H 
ATOM     24  H   LIG d   1       3.654   0.884  -2.281  0.00  0.00     0.031 H 
ATOM     25  H   LIG d   1       5.085   1.069  -1.236  0.00  0.00     0.031 H 
ATOM     26  H   LIG d   1       6.822   1.944  -2.455  0.00  0.00     0.053 H 
ATOM     27  H   LIG d   1       7.102   1.469  -4.243  0.00  0.00     0.053 H 
ATOM     28  H   LIG d   1       6.322   0.714  -5.877  0.00  0.00     0.028 H 
ATOM     29  H   LIG d   1       6.014  -0.982  -6.300  0.00  0.00     0.028 H 
ATOM     30  H   LIG d   1       6.640  -1.509  -2.410  0.00  0.00     0.031 H 
ATOM     31  H   LIG d   1       6.401  -3.202  -2.882  0.00  0.00     0.031 H 
ENDROOT
BRANCH  18  32
ATOM     32  C   LIG d   1       8.013  -0.367  -7.428  0.00  0.00    -0.020 C 
ATOM     33  H   LIG d   1       7.388   0.479  -7.142  0.00  0.00     0.082 H 
ATOM     34  H   LIG d   1       8.861  -0.011  -8.013  0.00  0.00     0.082 H 
BRANCH  32  35
ATOM     35  N   LIG d   1       7.222  -1.319  -8.230  0.00  0.00     0.231 N 
ATOM     36  H   LIG d   1       6.412  -1.632  -7.682  0.00  0.00     0.202 HD
ATOM     37  H   LIG d   1       7.807  -2.128  -8.469  0.00  0.00     0.202 HD
BRANCH  35  38
ATOM     38  C   LIG d   1       6.750  -0.675  -9.470  0.00  0.00    -0.008 C 
ATOM     39  H   LIG d   1       7.536  -0.037  -9.874  0.00  0.00     0.087 H 
ATOM     40  H   LIG d   1       6.490  -1.439 -10.203  0.00  0.00     0.087 H 
BRANCH  38  41
ATOM     41  C   LIG d   1       5.535   0.160  -9.162  0.00  0.00    -0.003 A 
ATOM     42  C   LIG d   1       4.424  -0.424  -8.583  0.00  0.00    -0.051 A 
ATOM     43  C   LIG d   1       3.308   0.342  -8.301  0.00  0.00    -0.026 A 
ATOM     44  H   LIG d   1       4.427  -1.479  -8.351  0.00  0.00     0.062 H 
ATOM     45  C   LIG d   1       3.303   1.694  -8.600  0.00  0.00     0.123 A 
ATOM     46  H   LIG d   1       2.439  -0.115  -7.850  0.00  0.00     0.065 H 
ATOM     47  C   LIG d   1       4.417   2.278  -9.179  0.00  0.00    -0.026 A 
ATOM     48  F   LIG d   1       2.214   2.443  -8.324  0.00  0.00    -0.205 F 
ATOM     49  C   LIG d   1       5.533   1.511  -9.455  0.00  0.00    -0.051 A 
ATOM     50  H   LIG d   1       4.415   3.332  -9.411  0.00  0.00     0.065 H 
ATOM     51  H   LIG d   1       6.404   1.968  -9.903  0.00  0.00     0.062 H 
ENDBRANCH  38  41
ENDBRANCH  35  38
ENDBRANCH  32  35
ENDBRANCH  18  32
BRANCH   1  52
ATOM     52  C   LIG d   1       4.744  -2.793  -4.994  0.00  0.00    -0.059 C 
ATOM     53  H   LIG d   1       5.328  -3.706  -4.875  0.00  0.00     0.024 H 
ATOM     54  H   LIG d   1       3.682  -3.032  -4.941  0.00  0.00     0.024 H 
ATOM     55  H   LIG d   1       4.968  -2.343  -5.961  0.00  0.00     0.024 H 
ENDBRANCH   1  52
TORSDOF 5
ENDMDL
MODEL 9
REMARK VINA RESULT:      -6.8      4.208      6.318
REMARK  5 active torsions:
REMARK  status: ('A' for Active; 'I' for Inactive)
REMARK    1  A    between atoms: C_1  and  C_2 
REMARK    2  A    between atoms: C_19  and  C_21 
REMARK    3  A    between atoms: C_21  and  N_53 
REMARK    4  A    between atoms: C_22  and  C_23 
REMARK    5  A    between atoms: C_22  and  N_53 
ROOT
ATOM      1  C   LIG d   1       4.381  -0.443  -2.816  0.00  0.00    -0.022 C 
ATOM      2  C   LIG d   1       3.462   0.675  -2.303  0.00  0.00    -0.047 C 
ATOM      3  C   LIG d   1       3.296   1.733  -3.395  0.00  0.00    -0.049 C 
ATOM      4  C   LIG d   1       2.592   1.120  -4.609  0.00  0.00    -0.032 C 
ATOM      5  C   LIG d   1       3.347  -0.121  -5.035  0.00  0.00    -0.073 C 
ATOM      6  C   LIG d   1       3.711  -0.298  -6.281  0.00  0.00    -0.099 C 
ATOM      7  C   LIG d   1       3.668  -1.150  -3.977  0.00  0.00    -0.014 C 
ATOM      8  H   LIG d   1       2.739  -1.593  -3.615  0.00  0.00     0.035 H 
ATOM      9  C   LIG d   1       4.562  -2.242  -4.538  0.00  0.00    -0.039 C 
ATOM     10  C   LIG d   1       5.878  -1.675  -5.074  0.00  0.00     0.015 C 
ATOM     11  H   LIG d   1       5.769  -1.160  -6.028  0.00  0.00     0.035 H 
ATOM     12  C   LIG d   1       6.573  -0.815  -3.999  0.00  0.00     0.107 C 
ATOM     13  H   LIG d   1       7.406  -0.294  -4.471  0.00  0.00     0.074 H 
ATOM     14  C   LIG d   1       5.659   0.199  -3.361  0.00  0.00    -0.009 C 
ATOM     15  O   LIG d   1       7.100  -1.798  -3.065  0.00  0.00    -0.461 OA
ATOM     16  C   LIG d   1       7.601  -2.815  -3.801  0.00  0.00     0.316 C 
ATOM     17  O   LIG d   1       8.486  -3.562  -3.453  0.00  0.00    -0.250 OA
ATOM     18  C   LIG d   1       6.876  -2.872  -5.133  0.00  0.00     0.102 C 
ATOM     19  H   LIG d   1       7.580  -2.741  -5.955  0.00  0.00     0.047 H 
ATOM     20  H   LIG d   1       3.904   1.132  -1.417  0.00  0.00     0.027 H 
ATOM     21  H   LIG d   1       2.487   0.258  -2.048  0.00  0.00     0.027 H 
ATOM     22  H   LIG d   1       4.277   2.102  -3.694  0.00  0.00     0.027 H 
ATOM     23  H   LIG d   1       2.700   2.560  -3.009  0.00  0.00     0.027 H 
ATOM     24  H   LIG d   1       1.569   0.851  -4.341  0.00  0.00     0.031 H 
ATOM     25  H   LIG d   1       2.580   1.840  -5.427  0.00  0.00     0.031 H 
ATOM     26  H   LIG d   1       3.563   0.492  -7.003  0.00  0.00     0.053 H 
ATOM     27  H   LIG d   1       4.158  -1.232  -6.586  0.00  0.00     0.053 H 
ATOM     28  H   LIG d   1       4.038  -2.750  -5.348  0.00  0.00     0.028 H 
ATOM     29  H   LIG d   1       4.780  -2.963  -3.750  0.00  0.00     0.028 H 
ATOM     30  H   LIG d   1       5.390   0.950  -4.104  0.00  0.00     0.031 H 
ATOM     31  H   LIG d   1       6.188   0.686  -2.542  0.00  0.00     0.031 H 
ENDROOT
BRANCH  18  32
ATOM     32  C   LIG d   1       6.121  -4.194  -5.276  0.00  0.00    -0.020 C 
ATOM     33  H   LIG d   1       5.521  -4.368  -4.384  0.00  0.00     0.082 H 
ATOM     34  H   LIG d   1       5.469  -4.148  -6.149  0.00  0.00     0.082 H 
BRANCH  32  35
ATOM     35  N   LIG d   1       7.094  -5.291  -5.441  0.00  0.00     0.231 N 
ATOM     36  H   LIG d   1       7.327  -5.678  -4.519  0.00  0.00     0.202 HD
ATOM     37  H   LIG d   1       7.944  -4.925  -5.884  0.00  0.00     0.202 HD
BRANCH  35  38
ATOM     38  C   LIG d   1       6.525  -6.357  -6.287  0.00  0.00    -0.008 C 
ATOM     39  H   LIG d   1       5.603  -6.005  -6.750  0.00  0.00     0.087 H 
ATOM     40  H   LIG d   1       7.240  -6.630  -7.063  0.00  0.00     0.087 H 
BRANCH  38  41
ATOM     41  C   LIG d   1       6.227  -7.561  -5.431  0.00  0.00    -0.003 A 
ATOM     42  C   LIG d   1       4.954  -8.100  -5.416  0.00  0.00    -0.051 A 
ATOM     43  C   LIG d   1       4.680  -9.204  -4.631  0.00  0.00    -0.026 A 
ATOM     44  H   LIG d   1       4.173  -7.658  -6.018  0.00  0.00     0.062 H 
ATOM     45  C   LIG d   1       5.680  -9.769  -3.858  0.00  0.00     0.123 A 
ATOM     46  H   LIG d   1       3.685  -9.624  -4.618  0.00  0.00     0.065 H 
ATOM     47  C   LIG d   1       6.955  -9.229  -3.875  0.00  0.00    -0.026 A 
ATOM     48  F   LIG d   1       5.414 -10.848  -3.091  0.00  0.00    -0.205 F 
ATOM     49  C   LIG d   1       7.228  -8.128  -4.665  0.00  0.00    -0.051 A 
ATOM     50  H   LIG d   1       7.736  -9.669  -3.274  0.00  0.00     0.065 H 
ATOM     51  H   LIG d   1       8.223  -7.709  -4.681  0.00  0.00     0.062 H 
ENDBRANCH  38  41
ENDBRANCH  35  38
ENDBRANCH  32  35
ENDBRANCH  18  32
BRANCH   1  52
ATOM     52  C   LIG d   1       4.710  -1.427  -1.692  0.00  0.00    -0.059 C 
ATOM     53  H   LIG d   1       5.549  -2.055  -1.993  0.00  0.00     0.024 H 
ATOM     54  H   LIG d   1       4.975  -0.873  -0.791  0.00  0.00     0.024 H 
ATOM     55  H   LIG d   1       3.841  -2.053  -1.491  0.00  0.00     0.024 H 
ENDBRANCH   1  52
TORSDOF 5
ENDMDL
