MODEL 1
REMARK VINA RESULT:      -4.2      0.000      0.000
REMARK  5 active torsions:
REMARK  status: ('A' for Active; 'I' for Inactive)
REMARK    1  A    between atoms: C_1  and  N_32 
REMARK    2  A    between atoms: C_6  and  O_13 
REMARK    3  A    between atoms: C_7  and  O_11 
REMARK    4  A    between atoms: O_11  and  C_12 
REMARK    5  A    between atoms: O_13  and  C_14 
ROOT
ATOM      1  C   LIG d   1       5.577  -3.911  -5.231  0.00  0.00    -0.028 C 
ATOM      2  C   LIG d   1       4.989  -3.111  -4.069  0.00  0.00     0.013 C 
ATOM      3  C   LIG d   1       5.725  -1.804  -3.918  0.00  0.00    -0.030 A 
ATOM      4  C   LIG d   1       5.134  -0.797  -3.170  0.00  0.00    -0.013 A 
ATOM      5  C   LIG d   1       5.773   0.418  -3.002  0.00  0.00     0.162 A 
ATOM      6  C   LIG d   1       7.018   0.628  -3.588  0.00  0.00     0.162 A 
ATOM      7  C   LIG d   1       7.603  -0.379  -4.335  0.00  0.00    -0.008 A 
ATOM      8  C   LIG d   1       6.955  -1.595  -4.502  0.00  0.00     0.004 A 
ATOM      9  C   LIG d   1       7.633  -2.657  -5.328  0.00  0.00    -0.006 C 
ATOM     10  H   LIG d   1       5.337  -3.418  -6.173  0.00  0.00     0.082 H 
ATOM     11  H   LIG d   1       5.166  -4.920  -5.230  0.00  0.00     0.082 H 
ATOM     12  H   LIG d   1       3.934  -2.913  -4.263  0.00  0.00     0.036 H 
ATOM     13  H   LIG d   1       5.084  -3.686  -3.148  0.00  0.00     0.036 H 
ATOM     14  H   LIG d   1       4.167  -0.962  -2.716  0.00  0.00     0.066 H 
ATOM     15  H   LIG d   1       8.568  -0.218  -4.791  0.00  0.00     0.066 H 
ATOM     16  H   LIG d   1       8.694  -2.686  -5.079  0.00  0.00     0.087 H 
ATOM     17  H   LIG d   1       7.521  -2.417  -6.386  0.00  0.00     0.087 H 
ATOM     18  N   LIG d   1       7.040  -3.974  -5.040  0.00  0.00     0.237 N 
ATOM     19  H   LIG d   1       7.241  -4.226  -4.065  0.00  0.00     0.203 HD
ENDROOT
BRANCH   5  20
ATOM     20  O   LIG d   1       5.189   1.402  -2.266  0.00  0.00    -0.491 OA
BRANCH  20  21
ATOM     21  C   LIG d   1       3.761   1.434  -2.242  0.00  0.00     0.079 C 
ATOM     22  H   LIG d   1       3.370   0.571  -2.780  0.00  0.00     0.066 H 
ATOM     23  H   LIG d   1       3.415   1.407  -1.210  0.00  0.00     0.066 H 
ATOM     24  H   LIG d   1       3.410   2.350  -2.718  0.00  0.00     0.066 H 
ENDBRANCH  20  21
ENDBRANCH   5  20
BRANCH   6  25
ATOM     25  O   LIG d   1       7.657   1.818  -3.428  0.00  0.00    -0.491 OA
BRANCH  25  26
ATOM     26  C   LIG d   1       9.028   1.877  -3.827  0.00  0.00     0.079 C 
ATOM     27  H   LIG d   1       9.208   2.802  -4.375  0.00  0.00     0.066 H 
ATOM     28  H   LIG d   1       9.665   1.849  -2.942  0.00  0.00     0.066 H 
ATOM     29  H   LIG d   1       9.257   1.025  -4.466  0.00  0.00     0.066 H 
ENDBRANCH  25  26
ENDBRANCH   6  25
BRANCH  18  30
ATOM     30  C   LIG d   1       7.625  -5.000  -5.933  0.00  0.00    -0.043 C 
ATOM     31  H   LIG d   1       7.484  -4.718  -6.977  0.00  0.00     0.078 H 
ATOM     32  H   LIG d   1       8.691  -5.091  -5.723  0.00  0.00     0.078 H 
ATOM     33  H   LIG d   1       7.135  -5.955  -5.746  0.00  0.00     0.078 H 
ENDBRANCH  18  30
TORSDOF 5
ENDMDL
MODEL 2
REMARK VINA RESULT:      -4.2      4.589      5.378
REMARK  5 active torsions:
REMARK  status: ('A' for Active; 'I' for Inactive)
REMARK    1  A    between atoms: C_1  and  N_32 
REMARK    2  A    between atoms: C_6  and  O_13 
REMARK    3  A    between atoms: C_7  and  O_11 
REMARK    4  A    between atoms: O_11  and  C_12 
REMARK    5  A    between atoms: O_13  and  C_14 
ROOT
ATOM      1  C   LIG d   1       2.695  -0.604  -3.450  0.00  0.00    -0.028 C 
ATOM      2  C   LIG d   1       2.418   0.408  -4.562  0.00  0.00     0.013 C 
ATOM      3  C   LIG d   1       3.174   0.025  -5.808  0.00  0.00    -0.030 A 
ATOM      4  C   LIG d   1       2.793   0.595  -7.013  0.00  0.00    -0.013 A 
ATOM      5  C   LIG d   1       3.460   0.275  -8.182  0.00  0.00     0.162 A 
ATOM      6  C   LIG d   1       4.521  -0.625  -8.145  0.00  0.00     0.162 A 
ATOM      7  C   LIG d   1       4.897  -1.194  -6.941  0.00  0.00    -0.008 A 
ATOM      8  C   LIG d   1       4.222  -0.870  -5.772  0.00  0.00     0.004 A 
ATOM      9  C   LIG d   1       4.668  -1.520  -4.487  0.00  0.00    -0.006 C 
ATOM     10  H   LIG d   1       2.230  -1.558  -3.699  0.00  0.00     0.082 H 
ATOM     11  H   LIG d   1       2.292  -0.235  -2.507  0.00  0.00     0.082 H 
ATOM     12  H   LIG d   1       1.349   0.425  -4.778  0.00  0.00     0.036 H 
ATOM     13  H   LIG d   1       2.736   1.398  -4.238  0.00  0.00     0.036 H 
ATOM     14  H   LIG d   1       1.969   1.293  -7.040  0.00  0.00     0.066 H 
ATOM     15  H   LIG d   1       5.719  -1.892  -6.910  0.00  0.00     0.066 H 
ATOM     16  H   LIG d   1       5.757  -1.532  -4.448  0.00  0.00     0.087 H 
ATOM     17  H   LIG d   1       4.297  -2.544  -4.454  0.00  0.00     0.087 H 
ATOM     18  N   LIG d   1       4.158  -0.758  -3.335  0.00  0.00     0.237 N 
ATOM     19  H   LIG d   1       4.595   0.173  -3.329  0.00  0.00     0.203 HD
ENDROOT
BRANCH   5  20
ATOM     20  O   LIG d   1       3.082   0.838  -9.361  0.00  0.00    -0.491 OA
BRANCH  20  21
ATOM     21  C   LIG d   1       3.543   2.165  -9.624  0.00  0.00     0.079 C 
ATOM     22  H   LIG d   1       4.007   2.199 -10.609  0.00  0.00     0.066 H 
ATOM     23  H   LIG d   1       2.700   2.854  -9.595  0.00  0.00     0.066 H 
ATOM     24  H   LIG d   1       4.272   2.452  -8.867  0.00  0.00     0.066 H 
ENDBRANCH  20  21
ENDBRANCH   5  20
BRANCH   6  25
ATOM     25  O   LIG d   1       5.185  -0.946  -9.288  0.00  0.00    -0.491 OA
BRANCH  25  26
ATOM     26  C   LIG d   1       6.453  -0.322  -9.498  0.00  0.00     0.079 C 
ATOM     27  H   LIG d   1       6.714  -0.377 -10.555  0.00  0.00     0.066 H 
ATOM     28  H   LIG d   1       6.399   0.723  -9.192  0.00  0.00     0.066 H 
ATOM     29  H   LIG d   1       7.213  -0.835  -8.909  0.00  0.00     0.066 H 
ENDBRANCH  25  26
ENDBRANCH   6  25
BRANCH  18  30
ATOM     30  C   LIG d   1       4.498  -1.457  -2.075  0.00  0.00    -0.043 C 
ATOM     31  H   LIG d   1       5.528  -1.243  -1.789  0.00  0.00     0.078 H 
ATOM     32  H   LIG d   1       3.825  -1.119  -1.287  0.00  0.00     0.078 H 
ATOM     33  H   LIG d   1       4.377  -2.531  -2.220  0.00  0.00     0.078 H 
ENDBRANCH  18  30
TORSDOF 5
ENDMDL
MODEL 3
REMARK VINA RESULT:      -4.2      7.004      7.709
REMARK  5 active torsions:
REMARK  status: ('A' for Active; 'I' for Inactive)
REMARK    1  A    between atoms: C_1  and  N_32 
REMARK    2  A    between atoms: C_6  and  O_13 
REMARK    3  A    between atoms: C_7  and  O_11 
REMARK    4  A    between atoms: O_11  and  C_12 
REMARK    5  A    between atoms: O_13  and  C_14 
ROOT
ATOM      1  C   LIG d   1       2.698  -1.713 -12.725  0.00  0.00    -0.028 C 
ATOM      2  C   LIG d   1       3.504  -0.434 -12.502  0.00  0.00     0.013 C 
ATOM      3  C   LIG d   1       3.379   0.012 -11.068  0.00  0.00    -0.030 A 
ATOM      4  C   LIG d   1       4.297   0.929 -10.579  0.00  0.00    -0.013 A 
ATOM      5  C   LIG d   1       4.220   1.368  -9.270  0.00  0.00     0.162 A 
ATOM      6  C   LIG d   1       3.212   0.886  -8.440  0.00  0.00     0.162 A 
ATOM      7  C   LIG d   1       2.299  -0.031  -8.931  0.00  0.00    -0.008 A 
ATOM      8  C   LIG d   1       2.384  -0.469 -10.245  0.00  0.00     0.004 A 
ATOM      9  C   LIG d   1       1.368  -1.471 -10.730  0.00  0.00    -0.006 C 
ATOM     10  H   LIG d   1       3.174  -2.541 -12.200  0.00  0.00     0.082 H 
ATOM     11  H   LIG d   1       2.646  -1.936 -13.790  0.00  0.00     0.082 H 
ATOM     12  H   LIG d   1       4.554  -0.622 -12.733  0.00  0.00     0.036 H 
ATOM     13  H   LIG d   1       3.127   0.351 -13.157  0.00  0.00     0.036 H 
ATOM     14  H   LIG d   1       5.079   1.303 -11.225  0.00  0.00     0.066 H 
ATOM     15  H   LIG d   1       1.518  -0.407  -8.289  0.00  0.00     0.066 H 
ATOM     16  H   LIG d   1       0.381  -1.194 -10.358  0.00  0.00     0.087 H 
ATOM     17  H   LIG d   1       1.627  -2.460 -10.350  0.00  0.00     0.087 H 
ATOM     18  N   LIG d   1       1.337  -1.484 -12.202  0.00  0.00     0.237 N 
ATOM     19  H   LIG d   1       0.996  -0.575 -12.538  0.00  0.00     0.203 HD
ENDROOT
BRANCH   5  20
ATOM     20  O   LIG d   1       5.123   2.269  -8.796  0.00  0.00    -0.491 OA
BRANCH  20  21
ATOM     21  C   LIG d   1       6.500   1.888  -8.831  0.00  0.00     0.079 C 
ATOM     22  H   LIG d   1       6.579   0.806  -8.719  0.00  0.00     0.066 H 
ATOM     23  H   LIG d   1       6.935   2.188  -9.783  0.00  0.00     0.066 H 
ATOM     24  H   LIG d   1       7.033   2.378  -8.017  0.00  0.00     0.066 H 
ENDBRANCH  20  21
ENDBRANCH   5  20
BRANCH   6  25
ATOM     25  O   LIG d   1       3.125   1.312  -7.151  0.00  0.00    -0.491 OA
BRANCH  25  26
ATOM     26  C   LIG d   1       2.881   0.318  -6.154  0.00  0.00     0.079 C 
ATOM     27  H   LIG d   1       3.572  -0.514  -6.293  0.00  0.00     0.066 H 
ATOM     28  H   LIG d   1       3.028   0.751  -5.165  0.00  0.00     0.066 H 
ATOM     29  H   LIG d   1       1.856  -0.042  -6.245  0.00  0.00     0.066 H 
ENDBRANCH  25  26
ENDBRANCH   6  25
BRANCH  18  30
ATOM     30  C   LIG d   1       0.424  -2.547 -12.680  0.00  0.00    -0.043 C 
ATOM     31  H   LIG d   1      -0.162  -2.944 -11.851  0.00  0.00     0.078 H 
ATOM     32  H   LIG d   1      -0.247  -2.130 -13.431  0.00  0.00     0.078 H 
ATOM     33  H   LIG d   1       1.013  -3.349 -13.125  0.00  0.00     0.078 H 
ENDBRANCH  18  30
TORSDOF 5
ENDMDL
MODEL 4
REMARK VINA RESULT:      -4.2      2.516      4.868
REMARK  5 active torsions:
REMARK  status: ('A' for Active; 'I' for Inactive)
REMARK    1  A    between atoms: C_1  and  N_32 
REMARK    2  A    between atoms: C_6  and  O_13 
REMARK    3  A    between atoms: C_7  and  O_11 
REMARK    4  A    between atoms: O_11  and  C_12 
REMARK    5  A    between atoms: O_13  and  C_14 
ROOT
ATOM      1  C   LIG d   1       8.973   0.444  -5.140  0.00  0.00    -0.028 C 
ATOM      2  C   LIG d   1       8.590  -1.034  -5.063  0.00  0.00     0.013 C 
ATOM      3  C   LIG d   1       7.208  -1.179  -4.479  0.00  0.00    -0.030 A 
ATOM      4  C   LIG d   1       6.543  -2.384  -4.648  0.00  0.00    -0.013 A 
ATOM      5  C   LIG d   1       5.275  -2.563  -4.127  0.00  0.00     0.162 A 
ATOM      6  C   LIG d   1       4.664  -1.526  -3.428  0.00  0.00     0.162 A 
ATOM      7  C   LIG d   1       5.330  -0.324  -3.263  0.00  0.00    -0.008 A 
ATOM      8  C   LIG d   1       6.602  -0.150  -3.790  0.00  0.00     0.004 A 
ATOM      9  C   LIG d   1       7.283   1.179  -3.587  0.00  0.00    -0.006 C 
ATOM     10  H   LIG d   1       8.366   0.940  -5.897  0.00  0.00     0.082 H 
ATOM     11  H   LIG d   1      10.028   0.539  -5.395  0.00  0.00     0.082 H 
ATOM     12  H   LIG d   1       8.607  -1.465  -6.064  0.00  0.00     0.036 H 
ATOM     13  H   LIG d   1       9.305  -1.561  -4.431  0.00  0.00     0.036 H 
ATOM     14  H   LIG d   1       7.019  -3.188  -5.191  0.00  0.00     0.066 H 
ATOM     15  H   LIG d   1       4.858   0.481  -2.723  0.00  0.00     0.066 H 
ATOM     16  H   LIG d   1       7.114   1.518  -2.564  0.00  0.00     0.087 H 
ATOM     17  H   LIG d   1       6.862   1.909  -4.279  0.00  0.00     0.087 H 
ATOM     18  N   LIG d   1       8.731   1.042  -3.812  0.00  0.00     0.237 N 
ATOM     19  H   LIG d   1       9.126   0.427  -3.090  0.00  0.00     0.203 HD
ENDROOT
BRANCH   5  20
ATOM     20  O   LIG d   1       4.627  -3.748  -4.295  0.00  0.00    -0.491 OA
BRANCH  20  21
ATOM     21  C   LIG d   1       4.810  -4.416  -5.545  0.00  0.00     0.079 C 
ATOM     22  H   LIG d   1       3.866  -4.431  -6.090  0.00  0.00     0.066 H 
ATOM     23  H   LIG d   1       5.560  -3.887  -6.132  0.00  0.00     0.066 H 
ATOM     24  H   LIG d   1       5.144  -5.437  -5.365  0.00  0.00     0.066 H 
ENDBRANCH  20  21
ENDBRANCH   5  20
BRANCH   6  25
ATOM     25  O   LIG d   1       3.417  -1.691  -2.910  0.00  0.00    -0.491 OA
BRANCH  25  26
ATOM     26  C   LIG d   1       2.459  -0.667  -3.185  0.00  0.00     0.079 C 
ATOM     27  H   LIG d   1       2.407   0.018  -2.339  0.00  0.00     0.066 H 
ATOM     28  H   LIG d   1       2.760  -0.119  -4.078  0.00  0.00     0.066 H 
ATOM     29  H   LIG d   1       1.481  -1.120  -3.348  0.00  0.00     0.066 H 
ENDBRANCH  25  26
ENDBRANCH   6  25
BRANCH  18  30
ATOM     30  C   LIG d   1       9.385   2.368  -3.725  0.00  0.00    -0.043 C 
ATOM     31  H   LIG d   1       9.754   2.673  -4.704  0.00  0.00     0.078 H 
ATOM     32  H   LIG d   1       8.662   3.100  -3.365  0.00  0.00     0.078 H 
ATOM     33  H   LIG d   1      10.220   2.308  -3.026  0.00  0.00     0.078 H 
ENDBRANCH  18  30
TORSDOF 5
ENDMDL
MODEL 5
REMARK VINA RESULT:      -4.1      3.145      3.746
REMARK  5 active torsions:
REMARK  status: ('A' for Active; 'I' for Inactive)
REMARK    1  A    between atoms: C_1  and  N_32 
REMARK    2  A    between atoms: C_6  and  O_13 
REMARK    3  A    between atoms: C_7  and  O_11 
REMARK    4  A    between atoms: O_11  and  C_12 
REMARK    5  A    between atoms: O_13  and  C_14 
ROOT
ATOM      1  C   LIG d   1       2.922  -0.120  -7.824  0.00  0.00    -0.028 C 
ATOM      2  C   LIG d   1       2.772   0.185  -6.334  0.00  0.00     0.013 C 
ATOM      3  C   LIG d   1       3.932  -0.399  -5.569  0.00  0.00    -0.030 A 
ATOM      4  C   LIG d   1       4.170   0.058  -4.282  0.00  0.00    -0.013 A 
ATOM      5  C   LIG d   1       5.222  -0.451  -3.541  0.00  0.00     0.162 A 
ATOM      6  C   LIG d   1       6.044  -1.429  -4.094  0.00  0.00     0.162 A 
ATOM      7  C   LIG d   1       5.804  -1.880  -5.380  0.00  0.00    -0.008 A 
ATOM      8  C   LIG d   1       4.748  -1.364  -6.119  0.00  0.00     0.004 A 
ATOM      9  C   LIG d   1       4.533  -1.886  -7.516  0.00  0.00    -0.006 C 
ATOM     10  H   LIG d   1       3.757   0.449  -8.232  0.00  0.00     0.082 H 
ATOM     11  H   LIG d   1       2.005   0.147  -8.350  0.00  0.00     0.082 H 
ATOM     12  H   LIG d   1       2.748   1.265  -6.186  0.00  0.00     0.036 H 
ATOM     13  H   LIG d   1       1.843  -0.250  -5.967  0.00  0.00     0.036 H 
ATOM     14  H   LIG d   1       3.531   0.817  -3.854  0.00  0.00     0.066 H 
ATOM     15  H   LIG d   1       6.441  -2.637  -5.810  0.00  0.00     0.066 H 
ATOM     16  H   LIG d   1       4.664  -2.968  -7.521  0.00  0.00     0.087 H 
ATOM     17  H   LIG d   1       5.264  -1.434  -8.186  0.00  0.00     0.087 H 
ATOM     18  N   LIG d   1       3.167  -1.569  -7.965  0.00  0.00     0.237 N 
ATOM     19  H   LIG d   1       2.494  -2.082  -7.382  0.00  0.00     0.203 HD
ENDROOT
BRANCH   5  20
ATOM     20  O   LIG d   1       5.450  -0.000  -2.278  0.00  0.00    -0.491 OA
BRANCH  20  21
ATOM     21  C   LIG d   1       4.507   0.928  -1.740  0.00  0.00     0.079 C 
ATOM     22  H   LIG d   1       3.499   0.626  -2.024  0.00  0.00     0.066 H 
ATOM     23  H   LIG d   1       4.590   0.941  -0.654  0.00  0.00     0.066 H 
ATOM     24  H   LIG d   1       4.714   1.924  -2.131  0.00  0.00     0.066 H 
ENDBRANCH  20  21
ENDBRANCH   5  20
BRANCH   6  25
ATOM     25  O   LIG d   1       7.080  -1.938  -3.375  0.00  0.00    -0.491 OA
BRANCH  25  26
ATOM     26  C   LIG d   1       7.818  -3.009  -3.968  0.00  0.00     0.079 C 
ATOM     27  H   LIG d   1       8.755  -3.147  -3.428  0.00  0.00     0.066 H 
ATOM     28  H   LIG d   1       7.231  -3.926  -3.916  0.00  0.00     0.066 H 
ATOM     29  H   LIG d   1       8.029  -2.770  -5.009  0.00  0.00     0.066 H 
ENDBRANCH  25  26
ENDBRANCH   6  25
BRANCH  18  30
ATOM     30  C   LIG d   1       2.990  -1.979  -9.377  0.00  0.00    -0.043 C 
ATOM     31  H   LIG d   1       3.866  -1.701  -9.964  0.00  0.00     0.078 H 
ATOM     32  H   LIG d   1       2.852  -3.060  -9.420  0.00  0.00     0.078 H 
ATOM     33  H   LIG d   1       2.108  -1.484  -9.783  0.00  0.00     0.078 H 
ENDBRANCH  18  30
TORSDOF 5
ENDMDL
MODEL 6
REMARK VINA RESULT:      -4.1      6.974      7.187
REMARK  5 active torsions:
REMARK  status: ('A' for Active; 'I' for Inactive)
REMARK    1  A    between atoms: C_1  and  N_32 
REMARK    2  A    between atoms: C_6  and  O_13 
REMARK    3  A    between atoms: C_7  and  O_11 
REMARK    4  A    between atoms: O_11  and  C_12 
REMARK    5  A    between atoms: O_13  and  C_14 
ROOT
ATOM      1  C   LIG d   1       1.284  -1.575 -12.136  0.00  0.00    -0.028 C 
ATOM      2  C   LIG d   1       1.336  -1.532 -10.609  0.00  0.00     0.013 C 
ATOM      3  C   LIG d   1       2.353  -0.516 -10.157  0.00  0.00    -0.030 A 
ATOM      4  C   LIG d   1       2.306  -0.074  -8.843  0.00  0.00    -0.013 A 
ATOM      5  C   LIG d   1       3.221   0.856  -8.383  0.00  0.00     0.162 A 
ATOM      6  C   LIG d   1       4.195   1.349  -9.246  0.00  0.00     0.162 A 
ATOM      7  C   LIG d   1       4.238   0.907 -10.557  0.00  0.00    -0.008 A 
ATOM      8  C   LIG d   1       3.315  -0.025 -11.013  0.00  0.00     0.004 A 
ATOM      9  C   LIG d   1       3.403  -0.471 -12.450  0.00  0.00    -0.006 C 
ATOM     10  H   LIG d   1       0.847  -0.651 -12.514  0.00  0.00     0.082 H 
ATOM     11  H   LIG d   1       0.682  -2.424 -12.461  0.00  0.00     0.082 H 
ATOM     12  H   LIG d   1       0.354  -1.259 -10.220  0.00  0.00     0.036 H 
ATOM     13  H   LIG d   1       1.614  -2.514 -10.228  0.00  0.00     0.036 H 
ATOM     14  H   LIG d   1       1.548  -0.457  -8.175  0.00  0.00     0.066 H 
ATOM     15  H   LIG d   1       4.992   1.288 -11.227  0.00  0.00     0.066 H 
ATOM     16  H   LIG d   1       4.448  -0.631 -12.715  0.00  0.00     0.087 H 
ATOM     17  H   LIG d   1       2.985   0.304 -13.093  0.00  0.00     0.087 H 
ATOM     18  N   LIG d   1       2.666  -1.733 -12.630  0.00  0.00     0.237 N 
ATOM     19  H   LIG d   1       3.132  -2.473 -12.092  0.00  0.00     0.203 HD
ENDROOT
BRANCH   5  20
ATOM     20  O   LIG d   1       3.170   1.285  -7.093  0.00  0.00    -0.491 OA
BRANCH  20  21
ATOM     21  C   LIG d   1       2.860   0.310  -6.096  0.00  0.00     0.079 C 
ATOM     22  H   LIG d   1       3.776  -0.187  -5.779  0.00  0.00     0.066 H 
ATOM     23  H   LIG d   1       2.397   0.800  -5.241  0.00  0.00     0.066 H 
ATOM     24  H   LIG d   1       2.170  -0.426  -6.510  0.00  0.00     0.066 H 
ENDBRANCH  20  21
ENDBRANCH   5  20
BRANCH   6  25
ATOM     25  O   LIG d   1       5.101   2.262  -8.805  0.00  0.00    -0.491 OA
BRANCH  25  26
ATOM     26  C   LIG d   1       6.478   1.881  -8.842  0.00  0.00     0.079 C 
ATOM     27  H   LIG d   1       6.634   1.020  -8.191  0.00  0.00     0.066 H 
ATOM     28  H   LIG d   1       6.755   1.620  -9.863  0.00  0.00     0.066 H 
ATOM     29  H   LIG d   1       7.093   2.712  -8.498  0.00  0.00     0.066 H 
ENDBRANCH  25  26
ENDBRANCH   6  25
BRANCH  18  30
ATOM     30  C   LIG d   1       2.653  -2.112 -14.061  0.00  0.00    -0.043 C 
ATOM     31  H   LIG d   1       2.012  -1.435 -14.627  0.00  0.00     0.078 H 
ATOM     32  H   LIG d   1       3.669  -2.061 -14.453  0.00  0.00     0.078 H 
ATOM     33  H   LIG d   1       2.278  -3.131 -14.156  0.00  0.00     0.078 H 
ENDBRANCH  18  30
TORSDOF 5
ENDMDL
MODEL 7
REMARK VINA RESULT:      -4.1     10.394     13.142
REMARK  5 active torsions:
REMARK  status: ('A' for Active; 'I' for Inactive)
REMARK    1  A    between atoms: C_1  and  N_32 
REMARK    2  A    between atoms: C_6  and  O_13 
REMARK    3  A    between atoms: C_7  and  O_11 
REMARK    4  A    between atoms: O_11  and  C_12 
REMARK    5  A    between atoms: O_13  and  C_14 
ROOT
ATOM      1  C   LIG d   1      10.309  12.206  -1.648  0.00  0.00    -0.028 C 
ATOM      2  C   LIG d   1      10.716  12.147  -0.176  0.00  0.00     0.013 C 
ATOM      3  C   LIG d   1      10.902  10.714   0.251  0.00  0.00    -0.030 A 
ATOM      4  C   LIG d   1      11.600  10.459   1.421  0.00  0.00    -0.013 A 
ATOM      5  C   LIG d   1      11.793   9.159   1.852  0.00  0.00     0.162 A 
ATOM      6  C   LIG d   1      11.280   8.102   1.106  0.00  0.00     0.162 A 
ATOM      7  C   LIG d   1      10.586   8.361  -0.062  0.00  0.00    -0.008 A 
ATOM      8  C   LIG d   1      10.398   9.668  -0.491  0.00  0.00     0.004 A 
ATOM      9  C   LIG d   1       9.638   9.895  -1.773  0.00  0.00    -0.006 C 
ATOM     10  H   LIG d   1      11.149  11.903  -2.273  0.00  0.00     0.082 H 
ATOM     11  H   LIG d   1      10.007  13.221  -1.907  0.00  0.00     0.082 H 
ATOM     12  H   LIG d   1      11.651  12.691  -0.037  0.00  0.00     0.036 H 
ATOM     13  H   LIG d   1       9.938  12.607   0.433  0.00  0.00     0.036 H 
ATOM     14  H   LIG d   1      11.998  11.281   1.999  0.00  0.00     0.066 H 
ATOM     15  H   LIG d   1      10.188   7.543  -0.643  0.00  0.00     0.066 H 
ATOM     16  H   LIG d   1       8.775   9.230  -1.804  0.00  0.00     0.087 H 
ATOM     17  H   LIG d   1      10.287   9.677  -2.620  0.00  0.00     0.087 H 
ATOM     18  N   LIG d   1       9.168  11.289  -1.837  0.00  0.00     0.237 N 
ATOM     19  H   LIG d   1       8.482  11.447  -1.089  0.00  0.00     0.203 HD
ENDROOT
BRANCH   5  20
ATOM     20  O   LIG d   1      12.479   8.915   3.002  0.00  0.00    -0.491 OA
BRANCH  20  21
ATOM     21  C   LIG d   1      12.543   9.976   3.957  0.00  0.00     0.079 C 
ATOM     22  H   LIG d   1      13.183  10.770   3.574  0.00  0.00     0.066 H 
ATOM     23  H   LIG d   1      11.542  10.368   4.132  0.00  0.00     0.066 H 
ATOM     24  H   LIG d   1      12.953   9.597   4.893  0.00  0.00     0.066 H 
ENDBRANCH  20  21
ENDBRANCH   5  20
BRANCH   6  25
ATOM     25  O   LIG d   1      11.462   6.820   1.522  0.00  0.00    -0.491 OA
BRANCH  25  26
ATOM     26  C   LIG d   1      11.285   5.790   0.547  0.00  0.00     0.079 C 
ATOM     27  H   LIG d   1      12.093   5.838  -0.183  0.00  0.00     0.066 H 
ATOM     28  H   LIG d   1      11.297   4.818   1.039  0.00  0.00     0.066 H 
ATOM     29  H   LIG d   1      10.330   5.930   0.041  0.00  0.00     0.066 H 
ENDBRANCH  25  26
ENDBRANCH   6  25
BRANCH  18  30
ATOM     30  C   LIG d   1       8.521  11.546  -3.145  0.00  0.00    -0.043 C 
ATOM     31  H   LIG d   1       7.541  12.000  -2.999  0.00  0.00     0.078 H 
ATOM     32  H   LIG d   1       9.150  12.218  -3.728  0.00  0.00     0.078 H 
ATOM     33  H   LIG d   1       8.408  10.601  -3.677  0.00  0.00     0.078 H 
ENDBRANCH  18  30
TORSDOF 5
ENDMDL
MODEL 8
REMARK VINA RESULT:      -4.1      0.881      2.906
REMARK  5 active torsions:
REMARK  status: ('A' for Active; 'I' for Inactive)
REMARK    1  A    between atoms: C_1  and  N_32 
REMARK    2  A    between atoms: C_6  and  O_13 
REMARK    3  A    between atoms: C_7  and  O_11 
REMARK    4  A    between atoms: O_11  and  C_12 
REMARK    5  A    between atoms: O_13  and  C_14 
ROOT
ATOM      1  C   LIG d   1       6.765  -4.148  -5.384  0.00  0.00    -0.028 C 
ATOM      2  C   LIG d   1       7.297  -2.725  -5.554  0.00  0.00     0.013 C 
ATOM      3  C   LIG d   1       6.614  -1.799  -4.581  0.00  0.00    -0.030 A 
ATOM      4  C   LIG d   1       7.191  -0.564  -4.329  0.00  0.00    -0.013 A 
ATOM      5  C   LIG d   1       6.598   0.319  -3.445  0.00  0.00     0.162 A 
ATOM      6  C   LIG d   1       5.413  -0.037  -2.806  0.00  0.00     0.162 A 
ATOM      7  C   LIG d   1       4.842  -1.271  -3.059  0.00  0.00    -0.008 A 
ATOM      8  C   LIG d   1       5.444  -2.154  -3.945  0.00  0.00     0.004 A 
ATOM      9  C   LIG d   1       4.783  -3.488  -4.182  0.00  0.00    -0.006 C 
ATOM     10  H   LIG d   1       7.101  -4.553  -4.430  0.00  0.00     0.082 H 
ATOM     11  H   LIG d   1       7.127  -4.777  -6.198  0.00  0.00     0.082 H 
ATOM     12  H   LIG d   1       8.372  -2.716  -5.369  0.00  0.00     0.036 H 
ATOM     13  H   LIG d   1       7.104  -2.385  -6.571  0.00  0.00     0.036 H 
ATOM     14  H   LIG d   1       8.111  -0.289  -4.825  0.00  0.00     0.066 H 
ATOM     15  H   LIG d   1       3.925  -1.549  -2.564  0.00  0.00     0.066 H 
ATOM     16  H   LIG d   1       3.706  -3.346  -4.271  0.00  0.00     0.087 H 
ATOM     17  H   LIG d   1       4.988  -4.146  -3.338  0.00  0.00     0.087 H 
ATOM     18  N   LIG d   1       5.291  -4.085  -5.429  0.00  0.00     0.237 N 
ATOM     19  H   LIG d   1       5.003  -3.500  -6.223  0.00  0.00     0.203 HD
ENDROOT
BRANCH   5  20
ATOM     20  O   LIG d   1       7.168   1.531  -3.202  0.00  0.00    -0.491 OA
BRANCH  20  21
ATOM     21  C   LIG d   1       8.176   1.969  -4.116  0.00  0.00     0.079 C 
ATOM     22  H   LIG d   1       9.125   1.497  -3.862  0.00  0.00     0.066 H 
ATOM     23  H   LIG d   1       7.891   1.691  -5.130  0.00  0.00     0.066 H 
ATOM     24  H   LIG d   1       8.278   3.052  -4.052  0.00  0.00     0.066 H 
ENDBRANCH  20  21
ENDBRANCH   5  20
BRANCH   6  25
ATOM     25  O   LIG d   1       4.820   0.825  -1.936  0.00  0.00    -0.491 OA
BRANCH  25  26
ATOM     26  C   LIG d   1       3.599   1.435  -2.359  0.00  0.00     0.079 C 
ATOM     27  H   LIG d   1       3.815   2.204  -3.101  0.00  0.00     0.066 H 
ATOM     28  H   LIG d   1       2.948   0.679  -2.798  0.00  0.00     0.066 H 
ATOM     29  H   LIG d   1       3.104   1.888  -1.500  0.00  0.00     0.066 H 
ENDBRANCH  25  26
ENDBRANCH   6  25
BRANCH  18  30
ATOM     30  C   LIG d   1       4.730  -5.444  -5.604  0.00  0.00    -0.043 C 
ATOM     31  H   LIG d   1       3.699  -5.477  -5.251  0.00  0.00     0.078 H 
ATOM     32  H   LIG d   1       4.759  -5.709  -6.661  0.00  0.00     0.078 H 
ATOM     33  H   LIG d   1       5.331  -6.153  -5.035  0.00  0.00     0.078 H 
ENDBRANCH  18  30
TORSDOF 5
ENDMDL
MODEL 9
REMARK VINA RESULT:      -4.1      2.220      3.070
REMARK  5 active torsions:
REMARK  status: ('A' for Active; 'I' for Inactive)
REMARK    1  A    between atoms: C_1  and  N_32 
REMARK    2  A    between atoms: C_6  and  O_13 
REMARK    3  A    between atoms: C_7  and  O_11 
REMARK    4  A    between atoms: O_11  and  C_12 
REMARK    5  A    between atoms: O_13  and  C_14 
ROOT
ATOM      1  C   LIG d   1       8.040  -3.975  -4.864  0.00  0.00    -0.028 C 
ATOM      2  C   LIG d   1       7.871  -2.890  -3.801  0.00  0.00     0.013 C 
ATOM      3  C   LIG d   1       6.472  -2.331  -3.852  0.00  0.00    -0.030 A 
ATOM      4  C   LIG d   1       6.011  -1.605  -2.765  0.00  0.00    -0.013 A 
ATOM      5  C   LIG d   1       4.734  -1.072  -2.769  0.00  0.00     0.162 A 
ATOM      6  C   LIG d   1       3.910  -1.266  -3.874  0.00  0.00     0.162 A 
ATOM      7  C   LIG d   1       4.373  -1.993  -4.956  0.00  0.00    -0.008 A 
ATOM      8  C   LIG d   1       5.654  -2.528  -4.945  0.00  0.00     0.004 A 
ATOM      9  C   LIG d   1       6.109  -3.315  -6.146  0.00  0.00    -0.006 C 
ATOM     10  H   LIG d   1       7.449  -4.849  -4.592  0.00  0.00     0.082 H 
ATOM     11  H   LIG d   1       9.091  -4.253  -4.944  0.00  0.00     0.082 H 
ATOM     12  H   LIG d   1       8.054  -3.317  -2.815  0.00  0.00     0.036 H 
ATOM     13  H   LIG d   1       8.585  -2.088  -3.985  0.00  0.00     0.036 H 
ATOM     14  H   LIG d   1       6.652  -1.455  -1.908  0.00  0.00     0.066 H 
ATOM     15  H   LIG d   1       3.735  -2.145  -5.812  0.00  0.00     0.066 H 
ATOM     16  H   LIG d   1       5.788  -2.805  -7.055  0.00  0.00     0.087 H 
ATOM     17  H   LIG d   1       5.661  -4.308  -6.117  0.00  0.00     0.087 H 
ATOM     18  N   LIG d   1       7.578  -3.420  -6.152  0.00  0.00     0.237 N 
ATOM     19  H   LIG d   1       7.981  -2.484  -6.279  0.00  0.00     0.203 HD
ENDROOT
BRANCH   5  20
ATOM     20  O   LIG d   1       4.288  -0.359  -1.700  0.00  0.00    -0.491 OA
BRANCH  20  21
ATOM     21  C   LIG d   1       4.579   1.040  -1.684  0.00  0.00     0.079 C 
ATOM     22  H   LIG d   1       5.082   1.295  -0.752  0.00  0.00     0.066 H 
ATOM     23  H   LIG d   1       5.225   1.285  -2.526  0.00  0.00     0.066 H 
ATOM     24  H   LIG d   1       3.650   1.605  -1.764  0.00  0.00     0.066 H 
ENDBRANCH  20  21
ENDBRANCH   5  20
BRANCH   6  25
ATOM     25  O   LIG d   1       2.654  -0.745  -3.889  0.00  0.00    -0.491 OA
BRANCH  25  26
ATOM     26  C   LIG d   1       2.430   0.383  -4.737  0.00  0.00     0.079 C 
ATOM     27  H   LIG d   1       3.169   1.155  -4.519  0.00  0.00     0.066 H 
ATOM     28  H   LIG d   1       2.521   0.078  -5.780  0.00  0.00     0.066 H 
ATOM     29  H   LIG d   1       1.430   0.778  -4.560  0.00  0.00     0.066 H 
ENDBRANCH  25  26
ENDBRANCH   6  25
BRANCH  18  30
ATOM     30  C   LIG d   1       8.019  -4.289  -7.267  0.00  0.00    -0.043 C 
ATOM     31  H   LIG d   1       8.781  -4.989  -6.923  0.00  0.00     0.078 H 
ATOM     32  H   LIG d   1       7.162  -4.845  -7.647  0.00  0.00     0.078 H 
ATOM     33  H   LIG d   1       8.430  -3.667  -8.062  0.00  0.00     0.078 H 
ENDBRANCH  18  30
TORSDOF 5
ENDMDL
MODEL 10
REMARK VINA RESULT:      -4.1      6.213      8.483
REMARK  5 active torsions:
REMARK  status: ('A' for Active; 'I' for Inactive)
REMARK    1  A    between atoms: C_1  and  N_32 
REMARK    2  A    between atoms: C_6  and  O_13 
REMARK    3  A    between atoms: C_7  and  O_11 
REMARK    4  A    between atoms: O_11  and  C_12 
REMARK    5  A    between atoms: O_13  and  C_14 
ROOT
ATOM      1  C   LIG d   1       9.818   4.668  -4.805  0.00  0.00    -0.028 C 
ATOM      2  C   LIG d   1       9.224   5.933  -4.185  0.00  0.00     0.013 C 
ATOM      3  C   LIG d   1       9.759   6.125  -2.790  0.00  0.00    -0.030 A 
ATOM      4  C   LIG d   1       9.627   7.371  -2.198  0.00  0.00    -0.013 A 
ATOM      5  C   LIG d   1      10.101   7.593  -0.917  0.00  0.00     0.162 A 
ATOM      6  C   LIG d   1      10.714   6.555  -0.221  0.00  0.00     0.162 A 
ATOM      7  C   LIG d   1      10.846   5.314  -0.816  0.00  0.00    -0.008 A 
ATOM      8  C   LIG d   1      10.370   5.098  -2.102  0.00  0.00     0.004 A 
ATOM      9  C   LIG d   1      10.543   3.729  -2.707  0.00  0.00    -0.006 C 
ATOM     10  H   LIG d   1      10.879   4.821  -5.001  0.00  0.00     0.082 H 
ATOM     11  H   LIG d   1       9.303   4.436  -5.737  0.00  0.00     0.082 H 
ATOM     12  H   LIG d   1       9.490   6.795  -4.797  0.00  0.00     0.036 H 
ATOM     13  H   LIG d   1       8.138   5.841  -4.145  0.00  0.00     0.036 H 
ATOM     14  H   LIG d   1       9.150   8.176  -2.740  0.00  0.00     0.066 H 
ATOM     15  H   LIG d   1      11.322   4.508  -0.278  0.00  0.00     0.066 H 
ATOM     16  H   LIG d   1      10.315   2.972  -1.956  0.00  0.00     0.087 H 
ATOM     17  H   LIG d   1      11.575   3.607  -3.035  0.00  0.00     0.087 H 
ATOM     18  N   LIG d   1       9.624   3.563  -3.845  0.00  0.00     0.237 N 
ATOM     19  H   LIG d   1       8.656   3.582  -3.501  0.00  0.00     0.203 HD
ENDROOT
BRANCH   5  20
ATOM     20  O   LIG d   1       9.967   8.818  -0.341  0.00  0.00    -0.491 OA
BRANCH  20  21
ATOM     21  C   LIG d   1       8.894   9.640  -0.804  0.00  0.00     0.079 C 
ATOM     22  H   LIG d   1       8.313   9.093  -1.547  0.00  0.00     0.066 H 
ATOM     23  H   LIG d   1       8.253   9.906   0.035  0.00  0.00     0.066 H 
ATOM     24  H   LIG d   1       9.299  10.547  -1.253  0.00  0.00     0.066 H 
ENDBRANCH  20  21
ENDBRANCH   5  20
BRANCH   6  25
ATOM     25  O   LIG d   1      11.183   6.761   1.039  0.00  0.00    -0.491 OA
BRANCH  25  26
ATOM     26  C   LIG d   1      10.930   5.736   2.002  0.00  0.00     0.079 C 
ATOM     27  H   LIG d   1       9.918   5.353   1.867  0.00  0.00     0.066 H 
ATOM     28  H   LIG d   1      11.646   4.925   1.865  0.00  0.00     0.066 H 
ATOM     29  H   LIG d   1      11.032   6.147   3.005  0.00  0.00     0.066 H 
ENDBRANCH  25  26
ENDBRANCH   6  25
BRANCH  18  30
ATOM     30  C   LIG d   1       9.872   2.263  -4.511  0.00  0.00    -0.043 C 
ATOM     31  H   LIG d   1      10.666   1.720  -3.998  0.00  0.00     0.078 H 
ATOM     32  H   LIG d   1       8.956   1.672  -4.492  0.00  0.00     0.078 H 
ATOM     33  H   LIG d   1      10.166   2.444  -5.545  0.00  0.00     0.078 H 
ENDBRANCH  18  30
TORSDOF 5
ENDMDL
