MODEL 1
REMARK VINA RESULT:      -7.1      0.000      0.000
REMARK  8 active torsions:
REMARK  status: ('A' for Active; 'I' for Inactive)
REMARK    1  A    between atoms: C_5  and  S_6 
REMARK    2  A    between atoms: S_6  and  N_9 
REMARK    3  A    between atoms: N_9  and  C_10 
REMARK    4  A    between atoms: C_10  and  C_12 
REMARK    5  A    between atoms: C_10  and  C_14 
REMARK    6  A    between atoms: C_12  and  O_13 
REMARK    7  A    between atoms: C_14  and  C_15 
REMARK    8  A    between atoms: C_14  and  C_19 
ROOT
ATOM      1  C   LIG d   1       3.562  -0.353  -4.245  0.00  0.00     0.071 C 
ATOM      2  H   LIG d   1       3.567  -1.400  -4.550  0.00  0.00     0.051 H 
ENDROOT
BRANCH   1   3
ATOM      3  N   LIG d   1       4.660   0.354  -4.907  0.00  0.00    -0.183 N 
ATOM      4  H   LIG d   1       4.982   1.195  -4.547  0.00  0.00     0.148 HD
BRANCH   3   5
ATOM      5  S   LIG d   1       5.352  -0.281  -6.271  0.00  0.00     0.065 S 
ATOM      6  O   LIG d   1       5.526  -1.671  -6.028  0.00  0.00    -0.152 OA
ATOM      7  O   LIG d   1       6.432   0.574  -6.616  0.00  0.00    -0.152 OA
BRANCH   5   8
ATOM      8  C   LIG d   1       4.167  -0.143  -7.568  0.00  0.00     0.144 A 
ATOM      9  C   LIG d   1       3.645   0.974  -8.132  0.00  0.00    -0.027 A 
ATOM     10  C   LIG d   1       2.719   0.842  -9.150  0.00  0.00    -0.034 A 
ATOM     11  H   LIG d   1       3.954   1.953  -7.795  0.00  0.00     0.064 H 
ATOM     12  C   LIG d   1       2.358  -0.402  -9.552  0.00  0.00     0.080 A 
ATOM     13  H   LIG d   1       2.288   1.716  -9.615  0.00  0.00     0.064 H 
ATOM     14  S   LIG d   1       3.342  -1.437  -8.480  0.00  0.00    -0.057 SA
ATOM     15 CL   LIG d   1       1.232  -0.867 -10.789  0.00  0.00    -0.076 Cl
ENDBRANCH   5   8
ENDBRANCH   3   5
ENDBRANCH   1   3
BRANCH   1  16
ATOM     16  C   LIG d   1       2.231   0.287  -4.641  0.00  0.00     0.062 C 
ATOM     17  H   LIG d   1       1.786  -0.277  -5.460  0.00  0.00     0.057 H 
ATOM     18  H   LIG d   1       1.555   0.278  -3.785  0.00  0.00     0.057 H 
BRANCH  16  19
ATOM     19  O   LIG d   1       2.455   1.636  -5.057  0.00  0.00    -0.393 OA
ATOM     20  H   LIG d   1       1.686   2.213  -4.953  0.00  0.00     0.209 HD
ENDBRANCH  16  19
ENDBRANCH   1  16
BRANCH   1  21
ATOM     21  C   LIG d   1       3.740  -0.264  -2.727  0.00  0.00     0.168 C 
ATOM     22  H   LIG d   1       2.776  -0.063  -2.260  0.00  0.00     0.049 H 
BRANCH  21  23
ATOM     23  C   LIG d   1       4.297  -1.587  -2.200  0.00  0.00     0.403 C 
ATOM     24  F   LIG d   1       3.281  -2.548  -2.186  0.00  0.00    -0.170 F 
ATOM     25  F   LIG d   1       5.336  -2.020  -3.032  0.00  0.00    -0.170 F 
ATOM     26  F   LIG d   1       4.785  -1.404  -0.901  0.00  0.00    -0.170 F 
ENDBRANCH  21  23
BRANCH  21  27
ATOM     27  C   LIG d   1       4.713   0.868  -2.394  0.00  0.00     0.403 C 
ATOM     28  F   LIG d   1       4.723   1.085  -1.012  0.00  0.00    -0.170 F 
ATOM     29  F   LIG d   1       5.999   0.517  -2.820  0.00  0.00    -0.170 F 
ATOM     30  F   LIG d   1       4.310   2.038  -3.047  0.00  0.00    -0.170 F 
ENDBRANCH  21  27
ENDBRANCH   1  21
TORSDOF 8
ENDMDL
MODEL 2
REMARK VINA RESULT:      -6.8      1.652      2.354
REMARK  8 active torsions:
REMARK  status: ('A' for Active; 'I' for Inactive)
REMARK    1  A    between atoms: C_5  and  S_6 
REMARK    2  A    between atoms: S_6  and  N_9 
REMARK    3  A    between atoms: N_9  and  C_10 
REMARK    4  A    between atoms: C_10  and  C_12 
REMARK    5  A    between atoms: C_10  and  C_14 
REMARK    6  A    between atoms: C_12  and  O_13 
REMARK    7  A    between atoms: C_14  and  C_15 
REMARK    8  A    between atoms: C_14  and  C_19 
ROOT
ATOM      1  C   LIG d   1       4.302  -1.002  -4.766  0.00  0.00     0.071 C 
ATOM      2  H   LIG d   1       5.142  -0.330  -4.938  0.00  0.00     0.051 H 
ENDROOT
BRANCH   1   3
ATOM      3  N   LIG d   1       3.314  -0.833  -5.834  0.00  0.00    -0.183 N 
ATOM      4  H   LIG d   1       2.415  -1.176  -5.721  0.00  0.00     0.148 HD
BRANCH   3   5
ATOM      5  S   LIG d   1       3.735  -0.057  -7.235  0.00  0.00     0.065 S 
ATOM      6  O   LIG d   1       5.125  -0.286  -7.424  0.00  0.00    -0.152 OA
ATOM      7  O   LIG d   1       3.181   1.248  -7.159  0.00  0.00    -0.152 OA
BRANCH   5   8
ATOM      8  C   LIG d   1       2.907  -0.880  -8.555  0.00  0.00     0.144 A 
ATOM      9  C   LIG d   1       1.931  -0.414  -9.373  0.00  0.00    -0.027 A 
ATOM     10  C   LIG d   1       1.422  -1.246 -10.352  0.00  0.00    -0.034 A 
ATOM     11  H   LIG d   1       1.561   0.595  -9.264  0.00  0.00     0.064 H 
ATOM     12  C   LIG d   1       1.914  -2.504 -10.465  0.00  0.00     0.080 A 
ATOM     13  H   LIG d   1       0.644  -0.899 -11.016  0.00  0.00     0.064 H 
ATOM     14  S   LIG d   1       3.134  -2.543  -9.162  0.00  0.00    -0.057 SA
ATOM     15 CL   LIG d   1       1.472  -3.755 -11.586  0.00  0.00    -0.076 Cl
ENDBRANCH   5   8
ENDBRANCH   3   5
ENDBRANCH   1   3
BRANCH   1  16
ATOM     16  C   LIG d   1       4.800  -2.449  -4.755  0.00  0.00     0.062 C 
ATOM     17  H   LIG d   1       5.783  -2.498  -5.222  0.00  0.00     0.057 H 
ATOM     18  H   LIG d   1       4.868  -2.802  -3.726  0.00  0.00     0.057 H 
BRANCH  16  19
ATOM     19  O   LIG d   1       3.885  -3.273  -5.482  0.00  0.00    -0.393 OA
ATOM     20  H   LIG d   1       4.050  -3.298  -6.434  0.00  0.00     0.209 HD
ENDBRANCH  16  19
ENDBRANCH   1  16
BRANCH   1  21
ATOM     21  C   LIG d   1       3.655  -0.676  -3.417  0.00  0.00     0.168 C 
ATOM     22  H   LIG d   1       2.612  -0.989  -3.429  0.00  0.00     0.049 H 
BRANCH  21  23
ATOM     23  C   LIG d   1       4.398  -1.415  -2.304  0.00  0.00     0.403 C 
ATOM     24  F   LIG d   1       4.384  -0.640  -1.139  0.00  0.00    -0.170 F 
ATOM     25  F   LIG d   1       3.767  -2.640  -2.056  0.00  0.00    -0.170 F 
ATOM     26  F   LIG d   1       5.721  -1.645  -2.697  0.00  0.00    -0.170 F 
ENDBRANCH  21  23
BRANCH  21  27
ATOM     27  C   LIG d   1       3.732   0.832  -3.168  0.00  0.00     0.403 C 
ATOM     28  F   LIG d   1       3.236   1.120  -1.892  0.00  0.00    -0.170 F 
ATOM     29  F   LIG d   1       5.065   1.251  -3.256  0.00  0.00    -0.170 F 
ATOM     30  F   LIG d   1       2.969   1.504  -4.128  0.00  0.00    -0.170 F 
ENDBRANCH  21  27
ENDBRANCH   1  21
TORSDOF 8
ENDMDL
MODEL 3
REMARK VINA RESULT:      -6.8      0.864      2.241
REMARK  8 active torsions:
REMARK  status: ('A' for Active; 'I' for Inactive)
REMARK    1  A    between atoms: C_5  and  S_6 
REMARK    2  A    between atoms: S_6  and  N_9 
REMARK    3  A    between atoms: N_9  and  C_10 
REMARK    4  A    between atoms: C_10  and  C_12 
REMARK    5  A    between atoms: C_10  and  C_14 
REMARK    6  A    between atoms: C_12  and  O_13 
REMARK    7  A    between atoms: C_14  and  C_15 
REMARK    8  A    between atoms: C_14  and  C_19 
ROOT
ATOM      1  C   LIG d   1       4.028  -0.304  -4.537  0.00  0.00     0.071 C 
ATOM      2  H   LIG d   1       3.737  -1.307  -4.850  0.00  0.00     0.051 H 
ENDROOT
BRANCH   1   3
ATOM      3  N   LIG d   1       5.028   0.226  -5.467  0.00  0.00    -0.183 N 
ATOM      4  H   LIG d   1       5.447   1.083  -5.291  0.00  0.00     0.148 HD
BRANCH   3   5
ATOM      5  S   LIG d   1       5.442  -0.636  -6.819  0.00  0.00     0.065 S 
ATOM      6  O   LIG d   1       5.440  -2.006  -6.442  0.00  0.00    -0.152 OA
ATOM      7  O   LIG d   1       6.584   0.001  -7.374  0.00  0.00    -0.152 OA
BRANCH   5   8
ATOM      8  C   LIG d   1       4.136  -0.433  -7.985  0.00  0.00     0.144 A 
ATOM      9  C   LIG d   1       3.376   0.661  -8.234  0.00  0.00    -0.027 A 
ATOM     10  C   LIG d   1       2.397   0.590  -9.208  0.00  0.00    -0.034 A 
ATOM     11  H   LIG d   1       3.538   1.576  -7.684  0.00  0.00     0.064 H 
ATOM     12  C   LIG d   1       2.226  -0.572  -9.884  0.00  0.00     0.080 A 
ATOM     13  H   LIG d   1       1.778   1.448  -9.426  0.00  0.00     0.064 H 
ATOM     14  S   LIG d   1       3.471  -1.617  -9.145  0.00  0.00    -0.057 SA
ATOM     15 CL   LIG d   1       1.090  -0.949 -11.142  0.00  0.00    -0.076 Cl
ENDBRANCH   5   8
ENDBRANCH   3   5
ENDBRANCH   1   3
BRANCH   1  16
ATOM     16  C   LIG d   1       2.800   0.607  -4.535  0.00  0.00     0.062 C 
ATOM     17  H   LIG d   1       2.636   0.993  -3.529  0.00  0.00     0.057 H 
ATOM     18  H   LIG d   1       2.962   1.438  -5.222  0.00  0.00     0.057 H 
BRANCH  16  19
ATOM     19  O   LIG d   1       1.653  -0.138  -4.951  0.00  0.00    -0.393 OA
ATOM     20  H   LIG d   1       1.030  -0.332  -4.237  0.00  0.00     0.209 HD
ENDBRANCH  16  19
ENDBRANCH   1  16
BRANCH   1  21
ATOM     21  C   LIG d   1       4.622  -0.364  -3.128  0.00  0.00     0.168 C 
ATOM     22  H   LIG d   1       5.710  -0.378  -3.193  0.00  0.00     0.049 H 
BRANCH  21  23
ATOM     23  C   LIG d   1       4.175   0.865  -2.334  0.00  0.00     0.403 C 
ATOM     24  F   LIG d   1       4.799   0.864  -1.082  0.00  0.00    -0.170 F 
ATOM     25  F   LIG d   1       4.530   2.025  -3.031  0.00  0.00    -0.170 F 
ATOM     26  F   LIG d   1       2.787   0.830  -2.163  0.00  0.00    -0.170 F 
ENDBRANCH  21  23
BRANCH  21  27
ATOM     27  C   LIG d   1       4.136  -1.631  -2.423  0.00  0.00     0.403 C 
ATOM     28  F   LIG d   1       4.612  -1.646  -1.108  0.00  0.00    -0.170 F 
ATOM     29  F   LIG d   1       2.737  -1.651  -2.414  0.00  0.00    -0.170 F 
ATOM     30  F   LIG d   1       4.613  -2.756  -3.104  0.00  0.00    -0.170 F 
ENDBRANCH  21  27
ENDBRANCH   1  21
TORSDOF 8
ENDMDL
MODEL 4
REMARK VINA RESULT:      -6.8      2.732      3.480
REMARK  8 active torsions:
REMARK  status: ('A' for Active; 'I' for Inactive)
REMARK    1  A    between atoms: C_5  and  S_6 
REMARK    2  A    between atoms: S_6  and  N_9 
REMARK    3  A    between atoms: N_9  and  C_10 
REMARK    4  A    between atoms: C_10  and  C_12 
REMARK    5  A    between atoms: C_10  and  C_14 
REMARK    6  A    between atoms: C_12  and  O_13 
REMARK    7  A    between atoms: C_14  and  C_15 
REMARK    8  A    between atoms: C_14  and  C_19 
ROOT
ATOM      1  C   LIG d   1       3.754  -0.361  -4.441  0.00  0.00     0.071 C 
ATOM      2  H   LIG d   1       3.723  -1.408  -4.743  0.00  0.00     0.051 H 
ENDROOT
BRANCH   1   3
ATOM      3  N   LIG d   1       4.926   0.285  -5.037  0.00  0.00    -0.183 N 
ATOM      4  H   LIG d   1       5.231   1.142  -4.701  0.00  0.00     0.148 HD
BRANCH   3   5
ATOM      5  S   LIG d   1       5.730  -0.449  -6.285  0.00  0.00     0.065 S 
ATOM      6  O   LIG d   1       7.070   0.022  -6.237  0.00  0.00    -0.152 OA
ATOM      7  O   LIG d   1       4.912  -0.302  -7.437  0.00  0.00    -0.152 OA
BRANCH   5   8
ATOM      8  C   LIG d   1       5.789  -2.173  -5.925  0.00  0.00     0.144 A 
ATOM      9  C   LIG d   1       6.742  -2.875  -5.265  0.00  0.00    -0.027 A 
ATOM     10  C   LIG d   1       6.576  -4.237  -5.098  0.00  0.00    -0.034 A 
ATOM     11  H   LIG d   1       7.615  -2.376  -4.871  0.00  0.00     0.064 H 
ATOM     12  C   LIG d   1       5.465  -4.830  -5.600  0.00  0.00     0.080 A 
ATOM     13  H   LIG d   1       7.321  -4.820  -4.576  0.00  0.00     0.064 H 
ATOM     14  S   LIG d   1       4.609  -3.448  -6.337  0.00  0.00    -0.057 SA
ATOM     15 CL   LIG d   1       4.997  -6.501  -5.542  0.00  0.00    -0.076 Cl
ENDBRANCH   5   8
ENDBRANCH   3   5
ENDBRANCH   1   3
BRANCH   1  16
ATOM     16  C   LIG d   1       2.485   0.346  -4.917  0.00  0.00     0.062 C 
ATOM     17  H   LIG d   1       1.801  -0.384  -5.347  0.00  0.00     0.057 H 
ATOM     18  H   LIG d   1       2.004   0.839  -4.071  0.00  0.00     0.057 H 
BRANCH  16  19
ATOM     19  O   LIG d   1       2.824   1.321  -5.905  0.00  0.00    -0.393 OA
ATOM     20  H   LIG d   1       3.715   1.684  -5.811  0.00  0.00     0.209 HD
ENDBRANCH  16  19
ENDBRANCH   1  16
BRANCH   1  21
ATOM     21  C   LIG d   1       3.845  -0.274  -2.915  0.00  0.00     0.168 C 
ATOM     22  H   LIG d   1       2.843  -0.301  -2.489  0.00  0.00     0.049 H 
BRANCH  21  23
ATOM     23  C   LIG d   1       4.657  -1.456  -2.384  0.00  0.00     0.403 C 
ATOM     24  F   LIG d   1       4.484  -1.557  -1.000  0.00  0.00    -0.170 F 
ATOM     25  F   LIG d   1       4.218  -2.635  -2.996  0.00  0.00    -0.170 F 
ATOM     26  F   LIG d   1       6.012  -1.258  -2.672  0.00  0.00    -0.170 F 
ENDBRANCH  21  23
BRANCH  21  27
ATOM     27  C   LIG d   1       4.532   1.035  -2.520  0.00  0.00     0.403 C 
ATOM     28  F   LIG d   1       5.803   1.091  -3.102  0.00  0.00    -0.170 F 
ATOM     29  F   LIG d   1       3.766   2.117  -2.969  0.00  0.00    -0.170 F 
ATOM     30  F   LIG d   1       4.654   1.097  -1.128  0.00  0.00    -0.170 F 
ENDBRANCH  21  27
ENDBRANCH   1  21
TORSDOF 8
ENDMDL
MODEL 5
REMARK VINA RESULT:      -6.6      3.250      4.288
REMARK  8 active torsions:
REMARK  status: ('A' for Active; 'I' for Inactive)
REMARK    1  A    between atoms: C_5  and  S_6 
REMARK    2  A    between atoms: S_6  and  N_9 
REMARK    3  A    between atoms: N_9  and  C_10 
REMARK    4  A    between atoms: C_10  and  C_12 
REMARK    5  A    between atoms: C_10  and  C_14 
REMARK    6  A    between atoms: C_12  and  O_13 
REMARK    7  A    between atoms: C_14  and  C_15 
REMARK    8  A    between atoms: C_14  and  C_19 
ROOT
ATOM      1  C   LIG d   1       3.706  -0.327  -4.394  0.00  0.00     0.071 C 
ATOM      2  H   LIG d   1       3.649  -1.373  -4.697  0.00  0.00     0.051 H 
ENDROOT
BRANCH   1   3
ATOM      3  N   LIG d   1       4.880   0.296  -5.010  0.00  0.00    -0.183 N 
ATOM      4  H   LIG d   1       5.207   1.146  -4.679  0.00  0.00     0.148 HD
BRANCH   3   5
ATOM      5  S   LIG d   1       5.647  -0.451  -6.274  0.00  0.00     0.065 S 
ATOM      6  O   LIG d   1       6.505   0.519  -6.858  0.00  0.00    -0.152 OA
ATOM      7  O   LIG d   1       4.643  -1.127  -7.016  0.00  0.00    -0.152 OA
BRANCH   5   8
ATOM      8  C   LIG d   1       6.689  -1.696  -5.587  0.00  0.00     0.144 A 
ATOM      9  C   LIG d   1       6.421  -3.006  -5.364  0.00  0.00    -0.027 A 
ATOM     10  C   LIG d   1       7.402  -3.807  -4.810  0.00  0.00    -0.034 A 
ATOM     11  H   LIG d   1       5.457  -3.419  -5.622  0.00  0.00     0.064 H 
ATOM     12  C   LIG d   1       8.603  -3.257  -4.505  0.00  0.00     0.080 A 
ATOM     13  H   LIG d   1       7.214  -4.853  -4.622  0.00  0.00     0.064 H 
ATOM     14  S   LIG d   1       8.370  -1.559  -5.005  0.00  0.00    -0.057 SA
ATOM     15 CL   LIG d   1      10.004  -4.009  -3.807  0.00  0.00    -0.076 Cl
ENDBRANCH   5   8
ENDBRANCH   3   5
ENDBRANCH   1   3
BRANCH   1  16
ATOM     16  C   LIG d   1       2.443   0.406  -4.847  0.00  0.00     0.062 C 
ATOM     17  H   LIG d   1       1.683  -0.322  -5.132  0.00  0.00     0.057 H 
ATOM     18  H   LIG d   1       2.067   1.021  -4.029  0.00  0.00     0.057 H 
BRANCH  16  19
ATOM     19  O   LIG d   1       2.750   1.238  -5.968  0.00  0.00    -0.393 OA
ATOM     20  H   LIG d   1       3.268   2.023  -5.744  0.00  0.00     0.209 HD
ENDBRANCH  16  19
ENDBRANCH   1  16
BRANCH   1  21
ATOM     21  C   LIG d   1       3.826  -0.245  -2.871  0.00  0.00     0.168 C 
ATOM     22  H   LIG d   1       2.830  -0.252  -2.427  0.00  0.00     0.049 H 
BRANCH  21  23
ATOM     23  C   LIG d   1       4.622  -1.444  -2.356  0.00  0.00     0.403 C 
ATOM     24  F   LIG d   1       5.984  -1.242  -2.606  0.00  0.00    -0.170 F 
ATOM     25  F   LIG d   1       4.418  -1.584  -0.978  0.00  0.00    -0.170 F 
ATOM     26  F   LIG d   1       4.194  -2.605  -3.010  0.00  0.00    -0.170 F 
ENDBRANCH  21  23
BRANCH  21  27
ATOM     27  C   LIG d   1       4.546   1.049  -2.486  0.00  0.00     0.403 C 
ATOM     28  F   LIG d   1       5.823   1.061  -3.057  0.00  0.00    -0.170 F 
ATOM     29  F   LIG d   1       3.815   2.146  -2.955  0.00  0.00    -0.170 F 
ATOM     30  F   LIG d   1       4.658   1.125  -1.094  0.00  0.00    -0.170 F 
ENDBRANCH  21  27
ENDBRANCH   1  21
TORSDOF 8
ENDMDL
MODEL 6
REMARK VINA RESULT:      -6.6      3.457      4.176
REMARK  8 active torsions:
REMARK  status: ('A' for Active; 'I' for Inactive)
REMARK    1  A    between atoms: C_5  and  S_6 
REMARK    2  A    between atoms: S_6  and  N_9 
REMARK    3  A    between atoms: N_9  and  C_10 
REMARK    4  A    between atoms: C_10  and  C_12 
REMARK    5  A    between atoms: C_10  and  C_14 
REMARK    6  A    between atoms: C_12  and  O_13 
REMARK    7  A    between atoms: C_14  and  C_15 
REMARK    8  A    between atoms: C_14  and  C_19 
ROOT
ATOM      1  C   LIG d   1       3.694  -0.322  -4.288  0.00  0.00     0.071 C 
ATOM      2  H   LIG d   1       3.677  -1.364  -4.606  0.00  0.00     0.051 H 
ENDROOT
BRANCH   1   3
ATOM      3  N   LIG d   1       4.846   0.354  -4.890  0.00  0.00    -0.183 N 
ATOM      4  H   LIG d   1       5.128   1.220  -4.557  0.00  0.00     0.148 HD
BRANCH   3   5
ATOM      5  S   LIG d   1       5.665  -0.359  -6.140  0.00  0.00     0.065 S 
ATOM      6  O   LIG d   1       5.332   0.372  -7.313  0.00  0.00    -0.152 OA
ATOM      7  O   LIG d   1       5.444  -1.758  -6.025  0.00  0.00    -0.152 OA
BRANCH   5   8
ATOM      8  C   LIG d   1       7.383  -0.096  -5.854  0.00  0.00     0.144 A 
ATOM      9  C   LIG d   1       8.113   1.033  -6.022  0.00  0.00    -0.027 A 
ATOM     10  C   LIG d   1       9.465   1.008  -5.730  0.00  0.00    -0.034 A 
ATOM     11  H   LIG d   1       7.645   1.941  -6.373  0.00  0.00     0.064 H 
ATOM     12  C   LIG d   1      10.019  -0.146  -5.286  0.00  0.00     0.080 A 
ATOM     13  H   LIG d   1      10.069   1.895  -5.856  0.00  0.00     0.064 H 
ATOM     14  S   LIG d   1       8.615  -1.248  -5.268  0.00  0.00    -0.057 SA
ATOM     15 CL   LIG d   1      11.668  -0.469  -4.848  0.00  0.00    -0.076 Cl
ENDBRANCH   5   8
ENDBRANCH   3   5
ENDBRANCH   1   3
BRANCH   1  16
ATOM     16  C   LIG d   1       2.405   0.369  -4.737  0.00  0.00     0.062 C 
ATOM     17  H   LIG d   1       1.731  -0.367  -5.174  0.00  0.00     0.057 H 
ATOM     18  H   LIG d   1       1.925   0.836  -3.876  0.00  0.00     0.057 H 
BRANCH  16  19
ATOM     19  O   LIG d   1       2.714   1.369  -5.710  0.00  0.00    -0.393 OA
ATOM     20  H   LIG d   1       2.165   2.163  -5.646  0.00  0.00     0.209 HD
ENDBRANCH  16  19
ENDBRANCH   1  16
BRANCH   1  21
ATOM     21  C   LIG d   1       3.803  -0.256  -2.763  0.00  0.00     0.168 C 
ATOM     22  H   LIG d   1       2.808  -0.162  -2.331  0.00  0.00     0.049 H 
BRANCH  21  23
ATOM     23  C   LIG d   1       4.466  -1.533  -2.244  0.00  0.00     0.403 C 
ATOM     24  F   LIG d   1       3.606  -2.619  -2.444  0.00  0.00    -0.170 F 
ATOM     25  F   LIG d   1       5.662  -1.753  -2.936  0.00  0.00    -0.170 F 
ATOM     26  F   LIG d   1       4.736  -1.397  -0.878  0.00  0.00    -0.170 F 
ENDBRANCH  21  23
BRANCH  21  27
ATOM     27  C   LIG d   1       4.649   0.955  -2.365  0.00  0.00     0.403 C 
ATOM     28  F   LIG d   1       4.141   2.103  -2.982  0.00  0.00    -0.170 F 
ATOM     29  F   LIG d   1       4.608   1.115  -0.975  0.00  0.00    -0.170 F 
ATOM     30  F   LIG d   1       5.972   0.755  -2.772  0.00  0.00    -0.170 F 
ENDBRANCH  21  27
ENDBRANCH   1  21
TORSDOF 8
ENDMDL
MODEL 7
REMARK VINA RESULT:      -6.5      3.337      4.655
REMARK  8 active torsions:
REMARK  status: ('A' for Active; 'I' for Inactive)
REMARK    1  A    between atoms: C_5  and  S_6 
REMARK    2  A    between atoms: S_6  and  N_9 
REMARK    3  A    between atoms: N_9  and  C_10 
REMARK    4  A    between atoms: C_10  and  C_12 
REMARK    5  A    between atoms: C_10  and  C_14 
REMARK    6  A    between atoms: C_12  and  O_13 
REMARK    7  A    between atoms: C_14  and  C_15 
REMARK    8  A    between atoms: C_14  and  C_19 
ROOT
ATOM      1  C   LIG d   1       3.996  -0.315  -4.547  0.00  0.00     0.071 C 
ATOM      2  H   LIG d   1       3.696  -1.324  -4.830  0.00  0.00     0.051 H 
ENDROOT
BRANCH   1   3
ATOM      3  N   LIG d   1       4.993   0.182  -5.497  0.00  0.00    -0.183 N 
ATOM      4  H   LIG d   1       5.256   1.115  -5.480  0.00  0.00     0.148 HD
BRANCH   3   5
ATOM      5  S   LIG d   1       5.671  -0.849  -6.602  0.00  0.00     0.065 S 
ATOM      6  O   LIG d   1       6.620  -0.088  -7.337  0.00  0.00    -0.152 OA
ATOM      7  O   LIG d   1       4.598  -1.538  -7.227  0.00  0.00    -0.152 OA
BRANCH   5   8
ATOM      8  C   LIG d   1       6.584  -2.054  -5.697  0.00  0.00     0.144 A 
ATOM      9  C   LIG d   1       6.508  -3.406  -5.759  0.00  0.00    -0.027 A 
ATOM     10  C   LIG d   1       7.333  -4.162  -4.946  0.00  0.00    -0.034 A 
ATOM     11  H   LIG d   1       5.818  -3.885  -6.437  0.00  0.00     0.064 H 
ATOM     12  C   LIG d   1       8.192  -3.528  -4.111  0.00  0.00     0.080 A 
ATOM     13  H   LIG d   1       7.292  -5.241  -4.976  0.00  0.00     0.064 H 
ATOM     14  S   LIG d   1       7.849  -1.812  -4.461  0.00  0.00    -0.057 SA
ATOM     15 CL   LIG d   1       9.330  -4.209  -2.990  0.00  0.00    -0.076 Cl
ENDBRANCH   5   8
ENDBRANCH   3   5
ENDBRANCH   1   3
BRANCH   1  16
ATOM     16  C   LIG d   1       2.773   0.604  -4.562  0.00  0.00     0.062 C 
ATOM     17  H   LIG d   1       2.637   1.045  -3.575  0.00  0.00     0.057 H 
ATOM     18  H   LIG d   1       2.924   1.396  -5.296  0.00  0.00     0.057 H 
BRANCH  16  19
ATOM     19  O   LIG d   1       1.612  -0.153  -4.910  0.00  0.00    -0.393 OA
ATOM     20  H   LIG d   1       0.911   0.370  -5.323  0.00  0.00     0.209 HD
ENDBRANCH  16  19
ENDBRANCH   1  16
BRANCH   1  21
ATOM     21  C   LIG d   1       4.599  -0.339  -3.140  0.00  0.00     0.168 C 
ATOM     22  H   LIG d   1       5.686  -0.330  -3.211  0.00  0.00     0.049 H 
BRANCH  21  23
ATOM     23  C   LIG d   1       4.128   0.891  -2.363  0.00  0.00     0.403 C 
ATOM     24  F   LIG d   1       4.771   0.933  -1.122  0.00  0.00    -0.170 F 
ATOM     25  F   LIG d   1       4.436   2.048  -3.088  0.00  0.00    -0.170 F 
ATOM     26  F   LIG d   1       2.743   0.819  -2.169  0.00  0.00    -0.170 F 
ENDBRANCH  21  23
BRANCH  21  27
ATOM     27  C   LIG d   1       4.145  -1.606  -2.413  0.00  0.00     0.403 C 
ATOM     28  F   LIG d   1       2.748  -1.674  -2.420  0.00  0.00    -0.170 F 
ATOM     29  F   LIG d   1       4.669  -2.729  -3.064  0.00  0.00    -0.170 F 
ATOM     30  F   LIG d   1       4.604  -1.577  -1.092  0.00  0.00    -0.170 F 
ENDBRANCH  21  27
ENDBRANCH   1  21
TORSDOF 8
ENDMDL
MODEL 8
REMARK VINA RESULT:      -6.5      2.984      3.995
REMARK  8 active torsions:
REMARK  status: ('A' for Active; 'I' for Inactive)
REMARK    1  A    between atoms: C_5  and  S_6 
REMARK    2  A    between atoms: S_6  and  N_9 
REMARK    3  A    between atoms: N_9  and  C_10 
REMARK    4  A    between atoms: C_10  and  C_12 
REMARK    5  A    between atoms: C_10  and  C_14 
REMARK    6  A    between atoms: C_12  and  O_13 
REMARK    7  A    between atoms: C_14  and  C_15 
REMARK    8  A    between atoms: C_14  and  C_19 
ROOT
ATOM      1  C   LIG d   1       3.983  -0.431  -4.657  0.00  0.00     0.071 C 
ATOM      2  H   LIG d   1       3.672  -1.472  -4.743  0.00  0.00     0.051 H 
ENDROOT
BRANCH   1   3
ATOM      3  N   LIG d   1       4.880  -0.097  -5.766  0.00  0.00    -0.183 N 
ATOM      4  H   LIG d   1       5.408   0.716  -5.734  0.00  0.00     0.148 HD
BRANCH   3   5
ATOM      5  S   LIG d   1       4.991  -1.105  -7.075  0.00  0.00     0.065 S 
ATOM      6  O   LIG d   1       6.166  -0.727  -7.780  0.00  0.00    -0.152 OA
ATOM      7  O   LIG d   1       3.708  -1.123  -7.684  0.00  0.00    -0.152 OA
BRANCH   5   8
ATOM      8  C   LIG d   1       5.276  -2.731  -6.457  0.00  0.00     0.144 A 
ATOM      9  C   LIG d   1       6.308  -3.190  -5.707  0.00  0.00    -0.027 A 
ATOM     10  C   LIG d   1       6.324  -4.521  -5.332  0.00  0.00    -0.034 A 
ATOM     11  H   LIG d   1       7.102  -2.525  -5.403  0.00  0.00     0.064 H 
ATOM     12  C   LIG d   1       5.308  -5.327  -5.726  0.00  0.00     0.080 A 
ATOM     13  H   LIG d   1       7.135  -4.912  -4.735  0.00  0.00     0.064 H 
ATOM     14  S   LIG d   1       4.282  -4.200  -6.656  0.00  0.00    -0.057 SA
ATOM     15 CL   LIG d   1       5.067  -7.016  -5.410  0.00  0.00    -0.076 Cl
ENDBRANCH   5   8
ENDBRANCH   3   5
ENDBRANCH   1   3
BRANCH   1  16
ATOM     16  C   LIG d   1       2.752   0.475  -4.705  0.00  0.00     0.062 C 
ATOM     17  H   LIG d   1       1.850  -0.135  -4.679  0.00  0.00     0.057 H 
ATOM     18  H   LIG d   1       2.762   1.146  -3.845  0.00  0.00     0.057 H 
BRANCH  16  19
ATOM     19  O   LIG d   1       2.773   1.244  -5.910  0.00  0.00    -0.393 OA
ATOM     20  H   LIG d   1       2.801   2.200  -5.766  0.00  0.00     0.209 HD
ENDBRANCH  16  19
ENDBRANCH   1  16
BRANCH   1  21
ATOM     21  C   LIG d   1       4.716  -0.227  -3.329  0.00  0.00     0.168 C 
ATOM     22  H   LIG d   1       5.697   0.207  -3.519  0.00  0.00     0.049 H 
BRANCH  21  23
ATOM     23  C   LIG d   1       3.905   0.716  -2.439  0.00  0.00     0.403 C 
ATOM     24  F   LIG d   1       4.547   0.860  -1.205  0.00  0.00    -0.170 F 
ATOM     25  F   LIG d   1       3.800   1.967  -3.058  0.00  0.00    -0.170 F 
ATOM     26  F   LIG d   1       2.625   0.185  -2.241  0.00  0.00    -0.170 F 
ENDBRANCH  21  23
BRANCH  21  27
ATOM     27  C   LIG d   1       4.882  -1.575  -2.626  0.00  0.00     0.403 C 
ATOM     28  F   LIG d   1       4.092  -2.536  -3.266  0.00  0.00    -0.170 F 
ATOM     29  F   LIG d   1       6.225  -1.965  -2.678  0.00  0.00    -0.170 F 
ATOM     30  F   LIG d   1       4.482  -1.458  -1.291  0.00  0.00    -0.170 F 
ENDBRANCH  21  27
ENDBRANCH   1  21
TORSDOF 8
ENDMDL
MODEL 9
REMARK VINA RESULT:      -6.4      3.393      4.154
REMARK  8 active torsions:
REMARK  status: ('A' for Active; 'I' for Inactive)
REMARK    1  A    between atoms: C_5  and  S_6 
REMARK    2  A    between atoms: S_6  and  N_9 
REMARK    3  A    between atoms: N_9  and  C_10 
REMARK    4  A    between atoms: C_10  and  C_12 
REMARK    5  A    between atoms: C_10  and  C_14 
REMARK    6  A    between atoms: C_12  and  O_13 
REMARK    7  A    between atoms: C_14  and  C_15 
REMARK    8  A    between atoms: C_14  and  C_19 
ROOT
ATOM      1  C   LIG d   1       3.913  -0.350  -4.358  0.00  0.00     0.071 C 
ATOM      2  H   LIG d   1       3.964  -1.402  -4.637  0.00  0.00     0.051 H 
ENDROOT
BRANCH   1   3
ATOM      3  N   LIG d   1       5.097   0.348  -4.863  0.00  0.00    -0.183 N 
ATOM      4  H   LIG d   1       5.355   1.203  -4.484  0.00  0.00     0.148 HD
BRANCH   3   5
ATOM      5  S   LIG d   1       5.997  -0.323  -6.080  0.00  0.00     0.065 S 
ATOM      6  O   LIG d   1       5.318  -0.031  -7.294  0.00  0.00    -0.152 OA
ATOM      7  O   LIG d   1       6.301  -1.651  -5.677  0.00  0.00    -0.152 OA
BRANCH   5   8
ATOM      8  C   LIG d   1       7.528   0.548  -6.138  0.00  0.00     0.144 A 
ATOM      9  C   LIG d   1       8.012   1.481  -5.281  0.00  0.00    -0.027 A 
ATOM     10  C   LIG d   1       9.254   2.037  -5.527  0.00  0.00    -0.034 A 
ATOM     11  H   LIG d   1       7.438   1.780  -4.417  0.00  0.00     0.064 H 
ATOM     12  C   LIG d   1       9.950   1.633  -6.618  0.00  0.00     0.080 A 
ATOM     13  H   LIG d   1       9.662   2.782  -4.860  0.00  0.00     0.064 H 
ATOM     14  S   LIG d   1       8.843   0.431  -7.338  0.00  0.00    -0.057 SA
ATOM     15 CL   LIG d   1      11.512   2.150  -7.171  0.00  0.00    -0.076 Cl
ENDBRANCH   5   8
ENDBRANCH   3   5
ENDBRANCH   1   3
BRANCH   1  16
ATOM     16  C   LIG d   1       2.655   0.278  -4.962  0.00  0.00     0.062 C 
ATOM     17  H   LIG d   1       1.783  -0.027  -4.383  0.00  0.00     0.057 H 
ATOM     18  H   LIG d   1       2.745   1.364  -4.939  0.00  0.00     0.057 H 
BRANCH  16  19
ATOM     19  O   LIG d   1       2.506  -0.160  -6.314  0.00  0.00    -0.393 OA
ATOM     20  H   LIG d   1       2.781   0.493  -6.972  0.00  0.00     0.209 HD
ENDBRANCH  16  19
ENDBRANCH   1  16
BRANCH   1  21
ATOM     21  C   LIG d   1       3.861  -0.229  -2.833  0.00  0.00     0.168 C 
ATOM     22  H   LIG d   1       2.836  -0.031  -2.519  0.00  0.00     0.049 H 
BRANCH  21  23
ATOM     23  C   LIG d   1       4.344  -1.536  -2.201  0.00  0.00     0.403 C 
ATOM     24  F   LIG d   1       4.749  -1.295  -0.884  0.00  0.00    -0.170 F 
ATOM     25  F   LIG d   1       3.302  -2.470  -2.206  0.00  0.00    -0.170 F 
ATOM     26  F   LIG d   1       5.423  -2.038  -2.937  0.00  0.00    -0.170 F 
ENDBRANCH  21  23
BRANCH  21  27
ATOM     27  C   LIG d   1       4.764   0.920  -2.382  0.00  0.00     0.403 C 
ATOM     28  F   LIG d   1       4.409   2.088  -3.065  0.00  0.00    -0.170 F 
ATOM     29  F   LIG d   1       4.612   1.120  -1.005  0.00  0.00    -0.170 F 
ATOM     30  F   LIG d   1       6.098   0.603  -2.662  0.00  0.00    -0.170 F 
ENDBRANCH  21  27
ENDBRANCH   1  21
TORSDOF 8
ENDMDL
MODEL 10
REMARK VINA RESULT:      -6.3      1.576      2.955
REMARK  8 active torsions:
REMARK  status: ('A' for Active; 'I' for Inactive)
REMARK    1  A    between atoms: C_5  and  S_6 
REMARK    2  A    between atoms: S_6  and  N_9 
REMARK    3  A    between atoms: N_9  and  C_10 
REMARK    4  A    between atoms: C_10  and  C_12 
REMARK    5  A    between atoms: C_10  and  C_14 
REMARK    6  A    between atoms: C_12  and  O_13 
REMARK    7  A    between atoms: C_14  and  C_15 
REMARK    8  A    between atoms: C_14  and  C_19 
ROOT
ATOM      1  C   LIG d   1       5.933  -0.889  -3.728  0.00  0.00     0.071 C 
ATOM      2  H   LIG d   1       6.605  -0.040  -3.857  0.00  0.00     0.051 H 
ENDROOT
BRANCH   1   3
ATOM      3  N   LIG d   1       5.225  -1.147  -4.984  0.00  0.00    -0.183 N 
ATOM      4  H   LIG d   1       4.384  -1.628  -4.976  0.00  0.00     0.148 HD
BRANCH   3   5
ATOM      5  S   LIG d   1       5.863  -0.619  -6.418  0.00  0.00     0.065 S 
ATOM      6  O   LIG d   1       6.740  -1.641  -6.873  0.00  0.00    -0.152 OA
ATOM      7  O   LIG d   1       6.296   0.717  -6.203  0.00  0.00    -0.152 OA
BRANCH   5   8
ATOM      8  C   LIG d   1       4.540  -0.538  -7.579  0.00  0.00     0.144 A 
ATOM      9  C   LIG d   1       3.250  -0.173  -7.378  0.00  0.00    -0.027 A 
ATOM     10  C   LIG d   1       2.375  -0.185  -8.449  0.00  0.00    -0.034 A 
ATOM     11  H   LIG d   1       2.912   0.127  -6.397  0.00  0.00     0.064 H 
ATOM     12  C   LIG d   1       2.834  -0.561  -9.668  0.00  0.00     0.080 A 
ATOM     13  H   LIG d   1       1.342   0.101  -8.316  0.00  0.00     0.064 H 
ATOM     14  S   LIG d   1       4.550  -0.916  -9.323  0.00  0.00    -0.057 SA
ATOM     15 CL   LIG d   1       1.976  -0.671 -11.173  0.00  0.00    -0.076 Cl
ENDBRANCH   5   8
ENDBRANCH   3   5
ENDBRANCH   1   3
BRANCH   1  16
ATOM     16  C   LIG d   1       6.743  -2.125  -3.335  0.00  0.00     0.062 C 
ATOM     17  H   LIG d   1       7.806  -1.890  -3.370  0.00  0.00     0.057 H 
ATOM     18  H   LIG d   1       6.472  -2.431  -2.324  0.00  0.00     0.057 H 
BRANCH  16  19
ATOM     19  O   LIG d   1       6.460  -3.190  -4.246  0.00  0.00    -0.393 OA
ATOM     20  H   LIG d   1       6.911  -4.019  -4.034  0.00  0.00     0.209 HD
ENDBRANCH  16  19
ENDBRANCH   1  16
BRANCH   1  21
ATOM     21  C   LIG d   1       4.919  -0.572  -2.627  0.00  0.00     0.168 C 
ATOM     22  H   LIG d   1       5.345  -0.826  -1.657  0.00  0.00     0.049 H 
BRANCH  21  23
ATOM     23  C   LIG d   1       4.579   0.919  -2.660  0.00  0.00     0.403 C 
ATOM     24  F   LIG d   1       4.136   1.325  -1.397  0.00  0.00    -0.170 F 
ATOM     25  F   LIG d   1       5.719   1.650  -3.012  0.00  0.00    -0.170 F 
ATOM     26  F   LIG d   1       3.570   1.146  -3.604  0.00  0.00    -0.170 F 
ENDBRANCH  21  23
BRANCH  21  27
ATOM     27  C   LIG d   1       3.647  -1.391  -2.855  0.00  0.00     0.403 C 
ATOM     28  F   LIG d   1       3.476  -1.616  -4.225  0.00  0.00    -0.170 F 
ATOM     29  F   LIG d   1       3.757  -2.617  -2.191  0.00  0.00    -0.170 F 
ATOM     30  F   LIG d   1       2.544  -0.689  -2.358  0.00  0.00    -0.170 F 
ENDBRANCH  21  27
ENDBRANCH   1  21
TORSDOF 8
ENDMDL
