MODEL 1
REMARK VINA RESULT:      -5.0      0.000      0.000
REMARK  2 active torsions:
REMARK  status: ('A' for Active; 'I' for Inactive)
REMARK    1  A    between atoms: C_1  and  N_11 
REMARK    2  A    between atoms: CA_3  and  C_8 
ROOT
ATOM      1  C   LIG d   1       4.356  -2.021  -4.462  0.00  0.00     0.076 A 
ATOM      2  C   LIG d   1       4.150  -1.565  -5.766  0.00  0.00     0.136 A 
ATOM      3  CA  LIG d   1       3.749  -0.247  -5.963  0.00  0.00     0.250 A 
ATOM      4  C   LIG d   1       3.750   0.166  -3.689  0.00  0.00     0.296 A 
ATOM      5  C   LIG d   1       4.144  -1.133  -3.409  0.00  0.00     0.147 A 
ATOM      6 CL   LIG d   1       4.377  -1.646  -1.768  0.00  0.00    -0.074 Cl
ATOM      7 CL   LIG d   1       3.491   1.281  -2.382  0.00  0.00    -0.010 Cl
ATOM      8 CL   LIG d   1       4.391  -2.626  -7.119  0.00  0.00    -0.075 Cl
ATOM      9  N   LIG d   1       3.541   0.643  -4.942  0.00  0.00    -0.191 N 
ATOM     10  H   LIG d   1       3.245   1.611  -5.114  0.00  0.00     0.455 HD
ENDROOT
BRANCH   1  11
ATOM     11  N   LIG d   1       4.759  -3.333  -4.219  0.00  0.00    -0.355 N 
ATOM     12  H   LIG d   1       5.396  -3.522  -3.512  0.00  0.00     0.142 HD
ATOM     13  H   LIG d   1       4.400  -4.057  -4.755  0.00  0.00     0.142 HD
ENDBRANCH   1  11
BRANCH   3  14
ATOM     14  C   LIG d   1       3.527   0.252  -7.338  0.00  0.00     0.139 C 
ATOM     15  O   LIG d   1       4.352   0.972  -7.864  0.00  0.00    -0.540 OA
ATOM     16  OXT LIG d   1       2.410  -0.092  -8.007  0.00  0.00    -0.540 OA
ENDBRANCH   3  14
TORSDOF 2
ENDMDL
MODEL 2
REMARK VINA RESULT:      -4.9      3.487      3.954
REMARK  2 active torsions:
REMARK  status: ('A' for Active; 'I' for Inactive)
REMARK    1  A    between atoms: C_1  and  N_11 
REMARK    2  A    between atoms: CA_3  and  C_8 
ROOT
ATOM      1  C   LIG d   1       6.354  -1.375  -3.684  0.00  0.00     0.076 A 
ATOM      2  C   LIG d   1       7.306  -0.460  -4.139  0.00  0.00     0.136 A 
ATOM      3  CA  LIG d   1       7.106   0.896  -3.898  0.00  0.00     0.250 A 
ATOM      4  C   LIG d   1       5.113   0.478  -2.804  0.00  0.00     0.296 A 
ATOM      5  C   LIG d   1       5.237  -0.887  -3.009  0.00  0.00     0.147 A 
ATOM      6 CL   LIG d   1       4.017  -1.976  -2.428  0.00  0.00    -0.074 Cl
ATOM      7 CL   LIG d   1       3.726   1.093  -1.958  0.00  0.00    -0.010 Cl
ATOM      8 CL   LIG d   1       8.716  -1.006  -4.991  0.00  0.00    -0.075 Cl
ATOM      9  N   LIG d   1       6.017   1.395  -3.232  0.00  0.00    -0.191 N 
ATOM     10  H   LIG d   1       5.893   2.401  -3.067  0.00  0.00     0.455 HD
ENDROOT
BRANCH   1  11
ATOM     11  N   LIG d   1       6.515  -2.742  -3.902  0.00  0.00    -0.355 N 
ATOM     12  H   LIG d   1       7.297  -3.068  -4.375  0.00  0.00     0.142 HD
ATOM     13  H   LIG d   1       5.848  -3.367  -3.580  0.00  0.00     0.142 HD
ENDBRANCH   1  11
BRANCH   3  14
ATOM     14  C   LIG d   1       8.105   1.879  -4.373  0.00  0.00     0.139 C 
ATOM     15  O   LIG d   1       8.037   2.315  -5.504  0.00  0.00    -0.540 OA
ATOM     16  OXT LIG d   1       9.088   2.290  -3.550  0.00  0.00    -0.540 OA
ENDBRANCH   3  14
TORSDOF 2
ENDMDL
MODEL 3
REMARK VINA RESULT:      -4.9      9.489     10.807
REMARK  2 active torsions:
REMARK  status: ('A' for Active; 'I' for Inactive)
REMARK    1  A    between atoms: C_1  and  N_11 
REMARK    2  A    between atoms: CA_3  and  C_8 
ROOT
ATOM      1  C   LIG d   1       9.713   6.200  -2.737  0.00  0.00     0.076 A 
ATOM      2  C   LIG d   1      10.189   6.542  -1.470  0.00  0.00     0.136 A 
ATOM      3  CA  LIG d   1      10.891   5.591  -0.734  0.00  0.00     0.250 A 
ATOM      4  C   LIG d   1      10.669   4.024  -2.419  0.00  0.00     0.296 A 
ATOM      5  C   LIG d   1       9.957   4.912  -3.210  0.00  0.00     0.147 A 
ATOM      6 CL   LIG d   1       9.382   4.428  -4.774  0.00  0.00    -0.074 Cl
ATOM      7 CL   LIG d   1      10.983   2.419  -3.006  0.00  0.00    -0.010 Cl
ATOM      8 CL   LIG d   1       9.911   8.128  -0.822  0.00  0.00    -0.075 Cl
ATOM      9  N   LIG d   1      11.146   4.322  -1.185  0.00  0.00    -0.191 N 
ATOM     10  H   LIG d   1      11.666   3.638  -0.622  0.00  0.00     0.455 HD
ENDROOT
BRANCH   1  11
ATOM     11  N   LIG d   1       9.006   7.121  -3.507  0.00  0.00    -0.355 N 
ATOM     12  H   LIG d   1       8.337   6.814  -4.138  0.00  0.00     0.142 HD
ATOM     13  H   LIG d   1       9.182   8.070  -3.410  0.00  0.00     0.142 HD
ENDBRANCH   1  11
BRANCH   3  14
ATOM     14  C   LIG d   1      11.403   5.937   0.610  0.00  0.00     0.139 C 
ATOM     15  O   LIG d   1      12.470   6.505   0.726  0.00  0.00    -0.540 OA
ATOM     16  OXT LIG d   1      10.685   5.623   1.705  0.00  0.00    -0.540 OA
ENDBRANCH   3  14
TORSDOF 2
ENDMDL
MODEL 4
REMARK VINA RESULT:      -4.9      2.909      4.093
REMARK  2 active torsions:
REMARK  status: ('A' for Active; 'I' for Inactive)
REMARK    1  A    between atoms: C_1  and  N_11 
REMARK    2  A    between atoms: CA_3  and  C_8 
ROOT
ATOM      1  C   LIG d   1       4.791  -2.047  -4.726  0.00  0.00     0.076 A 
ATOM      2  C   LIG d   1       4.357  -1.073  -3.824  0.00  0.00     0.136 A 
ATOM      3  CA  LIG d   1       5.026   0.146  -3.774  0.00  0.00     0.250 A 
ATOM      4  C   LIG d   1       6.496  -0.515  -5.432  0.00  0.00     0.296 A 
ATOM      5  C   LIG d   1       5.886  -1.755  -5.537  0.00  0.00     0.147 A 
ATOM      6 CL   LIG d   1       6.475  -2.929  -6.671  0.00  0.00    -0.074 Cl
ATOM      7 CL   LIG d   1       7.856  -0.142  -6.446  0.00  0.00    -0.010 Cl
ATOM      8 CL   LIG d   1       3.003  -1.379  -2.781  0.00  0.00    -0.075 Cl
ATOM      9  N   LIG d   1       6.100   0.454  -4.568  0.00  0.00    -0.191 N 
ATOM     10  H   LIG d   1       6.577   1.362  -4.512  0.00  0.00     0.455 HD
ENDROOT
BRANCH   1  11
ATOM     11  N   LIG d   1       4.149  -3.280  -4.809  0.00  0.00    -0.355 N 
ATOM     12  H   LIG d   1       4.135  -3.764  -5.650  0.00  0.00     0.142 HD
ATOM     13  H   LIG d   1       3.720  -3.658  -4.026  0.00  0.00     0.142 HD
ENDBRANCH   1  11
BRANCH   3  14
ATOM     14  C   LIG d   1       4.579   1.189  -2.825  0.00  0.00     0.139 C 
ATOM     15  O   LIG d   1       5.006   1.199  -1.688  0.00  0.00    -0.540 OA
ATOM     16  OXT LIG d   1       3.699   2.128  -3.222  0.00  0.00    -0.540 OA
ENDBRANCH   3  14
TORSDOF 2
ENDMDL
MODEL 5
REMARK VINA RESULT:      -4.8      2.792      4.168
REMARK  2 active torsions:
REMARK  status: ('A' for Active; 'I' for Inactive)
REMARK    1  A    between atoms: C_1  and  N_11 
REMARK    2  A    between atoms: CA_3  and  C_8 
ROOT
ATOM      1  C   LIG d   1       6.521  -1.728  -3.838  0.00  0.00     0.076 A 
ATOM      2  C   LIG d   1       5.413  -0.897  -3.660  0.00  0.00     0.136 A 
ATOM      3  CA  LIG d   1       4.153  -1.366  -4.021  0.00  0.00     0.250 A 
ATOM      4  C   LIG d   1       5.029  -3.392  -4.708  0.00  0.00     0.296 A 
ATOM      5  C   LIG d   1       6.316  -2.996  -4.379  0.00  0.00     0.147 A 
ATOM      6 CL   LIG d   1       7.656  -4.069  -4.631  0.00  0.00    -0.074 Cl
ATOM      7 CL   LIG d   1       4.766  -4.974  -5.376  0.00  0.00    -0.010 Cl
ATOM      8 CL   LIG d   1       5.605   0.697  -2.997  0.00  0.00    -0.075 Cl
ATOM      9  N   LIG d   1       3.931  -2.611  -4.548  0.00  0.00    -0.191 N 
ATOM     10  H   LIG d   1       2.991  -2.933  -4.807  0.00  0.00     0.455 HD
ENDROOT
BRANCH   1  11
ATOM     11  N   LIG d   1       7.800  -1.299  -3.489  0.00  0.00    -0.355 N 
ATOM     12  H   LIG d   1       8.020  -0.355  -3.524  0.00  0.00     0.142 HD
ATOM     13  H   LIG d   1       8.468  -1.943  -3.209  0.00  0.00     0.142 HD
ENDBRANCH   1  11
BRANCH   3  14
ATOM     14  C   LIG d   1       2.969  -0.498  -3.838  0.00  0.00     0.139 C 
ATOM     15  O   LIG d   1       2.304  -0.584  -2.826  0.00  0.00    -0.540 OA
ATOM     16  OXT LIG d   1       2.630   0.388  -4.794  0.00  0.00    -0.540 OA
ENDBRANCH   3  14
TORSDOF 2
ENDMDL
MODEL 6
REMARK VINA RESULT:      -4.6      9.862     10.988
REMARK  2 active torsions:
REMARK  status: ('A' for Active; 'I' for Inactive)
REMARK    1  A    between atoms: C_1  and  N_11 
REMARK    2  A    between atoms: CA_3  and  C_8 
ROOT
ATOM      1  C   LIG d   1      10.711   5.614  -0.974  0.00  0.00     0.076 A 
ATOM      2  C   LIG d   1      10.505   6.947  -0.612  0.00  0.00     0.136 A 
ATOM      3  CA  LIG d   1       9.872   7.800  -1.511  0.00  0.00     0.250 A 
ATOM      4  C   LIG d   1       9.648   6.105  -3.067  0.00  0.00     0.296 A 
ATOM      5  C   LIG d   1      10.276   5.196  -2.230  0.00  0.00     0.147 A 
ATOM      6 CL   LIG d   1      10.512   3.553  -2.738  0.00  0.00    -0.074 Cl
ATOM      7 CL   LIG d   1       9.097   5.588  -4.631  0.00  0.00    -0.010 Cl
ATOM      8 CL   LIG d   1      11.031   7.531   0.937  0.00  0.00    -0.075 Cl
ATOM      9  N   LIG d   1       9.432   7.406  -2.747  0.00  0.00    -0.191 N 
ATOM     10  H   LIG d   1       8.967   8.055  -3.393  0.00  0.00     0.455 HD
ENDROOT
BRANCH   1  11
ATOM     11  N   LIG d   1      11.340   4.727  -0.104  0.00  0.00    -0.355 N 
ATOM     12  H   LIG d   1      11.254   3.770  -0.241  0.00  0.00     0.142 HD
ATOM     13  H   LIG d   1      11.867   5.064   0.637  0.00  0.00     0.142 HD
ENDBRANCH   1  11
BRANCH   3  14
ATOM     14  C   LIG d   1       9.646   9.215  -1.142  0.00  0.00     0.139 C 
ATOM     15  O   LIG d   1      10.528  10.033  -1.305  0.00  0.00    -0.540 OA
ATOM     16  OXT LIG d   1       8.460   9.596  -0.629  0.00  0.00    -0.540 OA
ENDBRANCH   3  14
TORSDOF 2
ENDMDL
MODEL 7
REMARK VINA RESULT:      -4.6      2.726      3.708
REMARK  2 active torsions:
REMARK  status: ('A' for Active; 'I' for Inactive)
REMARK    1  A    between atoms: C_1  and  N_11 
REMARK    2  A    between atoms: CA_3  and  C_8 
ROOT
ATOM      1  C   LIG d   1       4.640  -0.963  -5.677  0.00  0.00     0.076 A 
ATOM      2  C   LIG d   1       4.677  -2.255  -6.205  0.00  0.00     0.136 A 
ATOM      3  CA  LIG d   1       4.585  -3.340  -5.337  0.00  0.00     0.250 A 
ATOM      4  C   LIG d   1       4.425  -1.946  -3.500  0.00  0.00     0.296 A 
ATOM      5  C   LIG d   1       4.517  -0.815  -4.297  0.00  0.00     0.147 A 
ATOM      6 CL   LIG d   1       4.474   0.767  -3.584  0.00  0.00    -0.074 Cl
ATOM      7 CL   LIG d   1       4.265  -1.769  -1.780  0.00  0.00    -0.010 Cl
ATOM      8 CL   LIG d   1       4.835  -2.505  -7.915  0.00  0.00    -0.075 Cl
ATOM      9  N   LIG d   1       4.458  -3.215  -3.979  0.00  0.00    -0.191 N 
ATOM     10  H   LIG d   1       4.392  -4.032  -3.360  0.00  0.00     0.455 HD
ENDROOT
BRANCH   1  11
ATOM     11  N   LIG d   1       4.728   0.151  -6.509  0.00  0.00    -0.355 N 
ATOM     12  H   LIG d   1       3.979   0.394  -7.075  0.00  0.00     0.142 HD
ATOM     13  H   LIG d   1       5.537   0.685  -6.521  0.00  0.00     0.142 HD
ENDBRANCH   1  11
BRANCH   3  14
ATOM     14  C   LIG d   1       4.622  -4.716  -5.880  0.00  0.00     0.139 C 
ATOM     15  O   LIG d   1       5.688  -5.270  -6.057  0.00  0.00    -0.540 OA
ATOM     16  OXT LIG d   1       3.474  -5.354  -6.175  0.00  0.00    -0.540 OA
ENDBRANCH   3  14
TORSDOF 2
ENDMDL
MODEL 8
REMARK VINA RESULT:      -4.5      3.376      4.661
REMARK  2 active torsions:
REMARK  status: ('A' for Active; 'I' for Inactive)
REMARK    1  A    between atoms: C_1  and  N_11 
REMARK    2  A    between atoms: CA_3  and  C_8 
ROOT
ATOM      1  C   LIG d   1       4.114  -0.428  -5.831  0.00  0.00     0.076 A 
ATOM      2  C   LIG d   1       3.873  -0.304  -4.461  0.00  0.00     0.136 A 
ATOM      3  CA  LIG d   1       4.957  -0.189  -3.594  0.00  0.00     0.250 A 
ATOM      4  C   LIG d   1       6.460  -0.313  -5.346  0.00  0.00     0.296 A 
ATOM      5  C   LIG d   1       5.435  -0.437  -6.272  0.00  0.00     0.147 A 
ATOM      6 CL   LIG d   1       5.795  -0.596  -7.962  0.00  0.00    -0.074 Cl
ATOM      7 CL   LIG d   1       8.109  -0.316  -5.890  0.00  0.00    -0.010 Cl
ATOM      8 CL   LIG d   1       2.249  -0.293  -3.849  0.00  0.00    -0.075 Cl
ATOM      9  N   LIG d   1       6.262  -0.190  -4.009  0.00  0.00    -0.191 N 
ATOM     10  H   LIG d   1       7.044  -0.105  -3.349  0.00  0.00     0.455 HD
ENDROOT
BRANCH   1  11
ATOM     11  N   LIG d   1       3.059  -0.544  -6.733  0.00  0.00    -0.355 N 
ATOM     12  H   LIG d   1       2.362   0.131  -6.754  0.00  0.00     0.142 HD
ATOM     13  H   LIG d   1       3.022  -1.297  -7.342  0.00  0.00     0.142 HD
ENDBRANCH   1  11
BRANCH   3  14
ATOM     14  C   LIG d   1       4.720  -0.057  -2.139  0.00  0.00     0.139 C 
ATOM     15  O   LIG d   1       4.424  -1.034  -1.481  0.00  0.00    -0.540 OA
ATOM     16  OXT LIG d   1       4.833   1.147  -1.546  0.00  0.00    -0.540 OA
ENDBRANCH   3  14
TORSDOF 2
ENDMDL
MODEL 9
REMARK VINA RESULT:      -4.4      8.931     10.052
REMARK  2 active torsions:
REMARK  status: ('A' for Active; 'I' for Inactive)
REMARK    1  A    between atoms: C_1  and  N_11 
REMARK    2  A    between atoms: CA_3  and  C_8 
ROOT
ATOM      1  C   LIG d   1       9.908   7.214  -2.313  0.00  0.00     0.076 A 
ATOM      2  C   LIG d   1       9.864   6.010  -3.018  0.00  0.00     0.136 A 
ATOM      3  CA  LIG d   1      10.237   4.835  -2.370  0.00  0.00     0.250 A 
ATOM      4  C   LIG d   1      10.681   5.976  -0.409  0.00  0.00     0.296 A 
ATOM      5  C   LIG d   1      10.331   7.188  -0.985  0.00  0.00     0.147 A 
ATOM      6 CL   LIG d   1      10.413   8.655  -0.061  0.00  0.00    -0.074 Cl
ATOM      7 CL   LIG d   1      11.202   5.936   1.247  0.00  0.00    -0.010 Cl
ATOM      8 CL   LIG d   1       9.352   5.978  -4.677  0.00  0.00    -0.075 Cl
ATOM      9  N   LIG d   1      10.650   4.788  -1.065  0.00  0.00    -0.191 N 
ATOM     10  H   LIG d   1      10.921   3.908  -0.610  0.00  0.00     0.455 HD
ENDROOT
BRANCH   1  11
ATOM     11  N   LIG d   1       9.543   8.413  -2.922  0.00  0.00    -0.355 N 
ATOM     12  H   LIG d   1       8.772   8.442  -3.510  0.00  0.00     0.142 HD
ATOM     13  H   LIG d   1      10.057   9.218  -2.756  0.00  0.00     0.142 HD
ENDBRANCH   1  11
BRANCH   3  14
ATOM     14  C   LIG d   1      10.196   3.551  -3.103  0.00  0.00     0.139 C 
ATOM     15  O   LIG d   1      11.191   3.140  -3.665  0.00  0.00    -0.540 OA
ATOM     16  OXT LIG d   1       9.056   2.836  -3.146  0.00  0.00    -0.540 OA
ENDBRANCH   3  14
TORSDOF 2
ENDMDL
