MODEL 1
REMARK VINA RESULT:      -6.4      0.000      0.000
REMARK  1 active torsions:
REMARK  status: ('A' for Active; 'I' for Inactive)
REMARK    1  A    between atoms: C_3  and  C_6 
REMARK       I    between atoms: C_6  and  N_8 
ROOT
ATOM      1  C   UNK d   1       4.315  -1.941  -4.000  0.00  0.00     0.282 C 
ATOM      2  O   UNK d   1       4.031  -3.013  -3.498  0.00  0.00    -0.267 OA
ATOM      3  N   UNK d   1       4.737  -1.886  -5.279  0.00  0.00    -0.291 N 
ATOM      4  C   UNK d   1       4.983  -3.125  -6.007  0.00  0.00     0.031 C 
ATOM      5  C   UNK d   1       4.233  -3.129  -7.326  0.00  0.00     0.031 C 
ATOM      6  N   UNK d   1       4.182  -1.837  -7.953  0.00  0.00    -0.286 N 
ATOM      7  C   UNK d   1       4.497  -0.559  -7.344  0.00  0.00     0.118 C 
ATOM      8  H   UNK d   1       5.340  -0.160  -7.909  0.00  0.00     0.061 H 
ATOM      9  C   UNK d   1       4.941  -0.593  -5.911  0.00  0.00     0.042 C 
ATOM     10  C   UNK d   1       3.358   0.400  -7.585  0.00  0.00     0.235 C 
ATOM     11  O   UNK d   1       2.900   1.093  -6.700  0.00  0.00    -0.274 OA
ATOM     12  H   UNK d   1       6.051  -3.222  -6.202  0.00  0.00     0.048 H 
ATOM     13  H   UNK d   1       4.651  -3.969  -5.403  0.00  0.00     0.048 H 
ATOM     14  H   UNK d   1       4.715  -3.838  -8.000  0.00  0.00     0.048 H 
ATOM     15  H   UNK d   1       3.211  -3.462  -7.145  0.00  0.00     0.048 H 
ATOM     16  H   UNK d   1       6.002  -0.345  -5.867  0.00  0.00     0.049 H 
ATOM     17  H   UNK d   1       4.384   0.159  -5.353  0.00  0.00     0.049 H 
ATOM     18  N   GLY d   2       2.873   0.441  -8.860  0.00  0.00    -0.305 N 
ATOM     19  CA  GLY d   2       3.545  -0.415  -9.856  0.00  0.00     0.088 C 
ATOM     20  C   GLY d   2       3.747  -1.788  -9.252  0.00  0.00     0.233 C 
ATOM     21  O   GLY d   2       3.533  -2.799  -9.888  0.00  0.00    -0.274 OA
ATOM     22  H   GLY d   2       2.120   1.003  -9.100  0.00  0.00     0.149 HD
ATOM     23  HA1 GLY d   2       2.924  -0.494 -10.749  0.00  0.00     0.056 H 
ATOM     24  HA2 GLY d   2       4.511   0.017 -10.117  0.00  0.00     0.056 H 
ENDROOT
BRANCH   1  25
ATOM     25  C   UNK d   1       4.200  -0.710  -3.212  0.00  0.00     0.189 A 
ATOM     26  C   UNK d   1       5.028  -0.328  -2.195  0.00  0.00    -0.011 A 
ATOM     27  C   UNK d   1       4.551   0.908  -1.730  0.00  0.00    -0.023 A 
ATOM     28  H   UNK d   1       5.884  -0.870  -1.823  0.00  0.00     0.066 H 
ATOM     29  C   UNK d   1       3.463   1.218  -2.469  0.00  0.00     0.093 A 
ATOM     30  H   UNK d   1       4.972   1.499  -0.930  0.00  0.00     0.065 H 
ATOM     31  O   UNK d   1       3.254   0.241  -3.360  0.00  0.00    -0.458 OA
ATOM     32  H   UNK d   1       2.860   2.108  -2.358  0.00  0.00     0.103 H 
ENDBRANCH   1  25
TORSDOF 1
ENDMDL
MODEL 2
REMARK VINA RESULT:      -6.0      2.445      3.216
REMARK  1 active torsions:
REMARK  status: ('A' for Active; 'I' for Inactive)
REMARK    1  A    between atoms: C_3  and  C_6 
REMARK       I    between atoms: C_6  and  N_8 
ROOT
ATOM      1  C   UNK d   1       2.869  -0.021  -4.954  0.00  0.00     0.282 C 
ATOM      2  O   UNK d   1       1.759   0.478  -4.959  0.00  0.00    -0.267 OA
ATOM      3  N   UNK d   1       3.497  -0.281  -6.119  0.00  0.00    -0.291 N 
ATOM      4  C   UNK d   1       2.783  -0.094  -7.375  0.00  0.00     0.031 C 
ATOM      5  C   UNK d   1       3.583   0.787  -8.319  0.00  0.00     0.031 C 
ATOM      6  N   UNK d   1       5.000   0.564  -8.237  0.00  0.00    -0.286 N 
ATOM      7  C   UNK d   1       5.711  -0.155  -7.197  0.00  0.00     0.118 C 
ATOM      8  H   UNK d   1       6.191  -0.998  -7.695  0.00  0.00     0.061 H 
ATOM      9  C   UNK d   1       4.874  -0.747  -6.101  0.00  0.00     0.042 C 
ATOM     10  C   UNK d   1       6.837   0.704  -6.680  0.00  0.00     0.235 C 
ATOM     11  O   UNK d   1       7.048   0.847  -5.494  0.00  0.00    -0.274 OA
ATOM     12  H   UNK d   1       2.618  -1.063  -7.844  0.00  0.00     0.048 H 
ATOM     13  H   UNK d   1       1.821   0.377  -7.176  0.00  0.00     0.048 H 
ATOM     14  H   UNK d   1       3.247   0.600  -9.339  0.00  0.00     0.048 H 
ATOM     15  H   UNK d   1       3.385   1.830  -8.074  0.00  0.00     0.048 H 
ATOM     16  H   UNK d   1       4.878  -1.832  -6.204  0.00  0.00     0.049 H 
ATOM     17  H   UNK d   1       5.319  -0.485  -5.141  0.00  0.00     0.049 H 
ATOM     18  N   GLY d   2       7.606   1.313  -7.630  0.00  0.00    -0.305 N 
ATOM     19  CA  GLY d   2       7.279   1.024  -9.038  0.00  0.00     0.088 C 
ATOM     20  C   GLY d   2       5.779   1.127  -9.215  0.00  0.00     0.233 C 
ATOM     21  O   GLY d   2       5.289   1.681 -10.176  0.00  0.00    -0.274 OA
ATOM     22  H   GLY d   2       8.331   1.911  -7.390  0.00  0.00     0.149 HD
ATOM     23  HA1 GLY d   2       7.775   1.749  -9.686  0.00  0.00     0.056 H 
ATOM     24  HA2 GLY d   2       7.611   0.017  -9.292  0.00  0.00     0.056 H 
ENDROOT
BRANCH   1  25
ATOM     25  C   UNK d   1       3.524  -0.339  -3.681  0.00  0.00     0.189 A 
ATOM     26  C   UNK d   1       3.525  -1.556  -3.062  0.00  0.00    -0.011 A 
ATOM     27  C   UNK d   1       4.268  -1.406  -1.880  0.00  0.00    -0.023 A 
ATOM     28  H   UNK d   1       3.048  -2.459  -3.414  0.00  0.00     0.066 H 
ATOM     29  C   UNK d   1       4.676  -0.120  -1.827  0.00  0.00     0.093 A 
ATOM     30  H   UNK d   1       4.471  -2.174  -1.148  0.00  0.00     0.065 H 
ATOM     31  O   UNK d   1       4.226   0.521  -2.913  0.00  0.00    -0.458 OA
ATOM     32  H   UNK d   1       5.267   0.321  -1.037  0.00  0.00     0.103 H 
ENDBRANCH   1  25
TORSDOF 1
ENDMDL
MODEL 3
REMARK VINA RESULT:      -5.7      2.296      5.470
REMARK  1 active torsions:
REMARK  status: ('A' for Active; 'I' for Inactive)
REMARK    1  A    between atoms: C_3  and  C_6 
REMARK       I    between atoms: C_6  and  N_8 
ROOT
ATOM      1  C   UNK d   1       6.181   0.356  -8.087  0.00  0.00     0.282 C 
ATOM      2  O   UNK d   1       7.365   0.615  -8.195  0.00  0.00    -0.267 OA
ATOM      3  N   UNK d   1       5.767  -0.547  -7.176  0.00  0.00    -0.291 N 
ATOM      4  C   UNK d   1       6.755  -1.308  -6.421  0.00  0.00     0.031 C 
ATOM      5  C   UNK d   1       6.491  -1.199  -4.931  0.00  0.00     0.031 C 
ATOM      6  N   UNK d   1       5.092  -1.172  -4.604  0.00  0.00    -0.286 N 
ATOM      7  C   UNK d   1       3.988  -0.950  -5.517  0.00  0.00     0.118 C 
ATOM      8  H   UNK d   1       3.386  -1.859  -5.482  0.00  0.00     0.061 H 
ATOM      9  C   UNK d   1       4.344  -0.747  -6.960  0.00  0.00     0.042 C 
ATOM     10  C   UNK d   1       3.102   0.141  -4.969  0.00  0.00     0.235 C 
ATOM     11  O   UNK d   1       2.698   1.052  -5.660  0.00  0.00    -0.274 OA
ATOM     12  H   UNK d   1       6.706  -2.355  -6.719  0.00  0.00     0.048 H 
ATOM     13  H   UNK d   1       7.750  -0.920  -6.638  0.00  0.00     0.048 H 
ATOM     14  H   UNK d   1       6.962  -2.046  -4.430  0.00  0.00     0.048 H 
ATOM     15  H   UNK d   1       6.948  -0.281  -4.562  0.00  0.00     0.048 H 
ATOM     16  H   UNK d   1       4.023  -1.621  -7.526  0.00  0.00     0.049 H 
ATOM     17  H   UNK d   1       3.809   0.126  -7.333  0.00  0.00     0.049 H 
ATOM     18  N   GLY d   2       2.783   0.041  -3.645  0.00  0.00    -0.305 N 
ATOM     19  CA  GLY d   2       3.297  -1.138  -2.923  0.00  0.00     0.088 C 
ATOM     20  C   GLY d   2       4.756  -1.324  -3.283  0.00  0.00     0.233 C 
ATOM     21  O   GLY d   2       5.587  -1.596  -2.444  0.00  0.00    -0.274 OA
ATOM     22  H   GLY d   2       2.247   0.715  -3.199  0.00  0.00     0.149 HD
ATOM     23  HA1 GLY d   2       3.202  -0.979  -1.848  0.00  0.00     0.056 H 
ATOM     24  HA2 GLY d   2       2.730  -2.022  -3.216  0.00  0.00     0.056 H 
ENDROOT
BRANCH   1  25
ATOM     25  C   UNK d   1       5.203   1.025  -8.952  0.00  0.00     0.189 A 
ATOM     26  C   UNK d   1       4.882   0.664 -10.229  0.00  0.00    -0.011 A 
ATOM     27  C   UNK d   1       3.908   1.573 -10.672  0.00  0.00    -0.023 A 
ATOM     28  H   UNK d   1       5.295  -0.161 -10.789  0.00  0.00     0.066 H 
ATOM     29  C   UNK d   1       3.686   2.442  -9.662  0.00  0.00     0.093 A 
ATOM     30  H   UNK d   1       3.429   1.580 -11.640  0.00  0.00     0.065 H 
ATOM     31  O   UNK d   1       4.468   2.109  -8.627  0.00  0.00    -0.458 OA
ATOM     32  H   UNK d   1       2.992   3.271  -9.685  0.00  0.00     0.103 H 
ENDBRANCH   1  25
TORSDOF 1
ENDMDL
MODEL 4
REMARK VINA RESULT:      -5.5      3.569      4.736
REMARK  1 active torsions:
REMARK  status: ('A' for Active; 'I' for Inactive)
REMARK    1  A    between atoms: C_3  and  C_6 
REMARK       I    between atoms: C_6  and  N_8 
ROOT
ATOM      1  C   UNK d   1       4.640  -0.584  -5.586  0.00  0.00     0.282 C 
ATOM      2  O   UNK d   1       3.691  -0.551  -6.348  0.00  0.00    -0.267 OA
ATOM      3  N   UNK d   1       5.886  -0.359  -6.049  0.00  0.00    -0.291 N 
ATOM      4  C   UNK d   1       6.103  -0.217  -7.483  0.00  0.00     0.031 C 
ATOM      5  C   UNK d   1       6.859   1.064  -7.786  0.00  0.00     0.031 C 
ATOM      6  N   UNK d   1       7.853   1.382  -6.798  0.00  0.00    -0.286 N 
ATOM      7  C   UNK d   1       7.987   0.799  -5.477  0.00  0.00     0.118 C 
ATOM      8  H   UNK d   1       8.963   0.312  -5.464  0.00  0.00     0.061 H 
ATOM      9  C   UNK d   1       6.992  -0.264  -5.111  0.00  0.00     0.042 C 
ATOM     10  C   UNK d   1       8.072   1.903  -4.453  0.00  0.00     0.235 C 
ATOM     11  O   UNK d   1       7.425   1.884  -3.427  0.00  0.00    -0.274 OA
ATOM     12  H   UNK d   1       6.678  -1.068  -7.846  0.00  0.00     0.048 H 
ATOM     13  H   UNK d   1       5.139  -0.192  -7.992  0.00  0.00     0.048 H 
ATOM     14  H   UNK d   1       7.339   0.964  -8.760  0.00  0.00     0.048 H 
ATOM     15  H   UNK d   1       6.147   1.887  -7.833  0.00  0.00     0.048 H 
ATOM     16  H   UNK d   1       7.504  -1.225  -5.075  0.00  0.00     0.049 H 
ATOM     17  H   UNK d   1       6.592  -0.043  -4.122  0.00  0.00     0.049 H 
ATOM     18  N   GLY d   2       8.924   2.927  -4.752  0.00  0.00    -0.305 N 
ATOM     19  CA  GLY d   2       9.690   2.813  -6.007  0.00  0.00     0.088 C 
ATOM     20  C   GLY d   2       8.748   2.374  -7.107  0.00  0.00     0.233 C 
ATOM     21  O   GLY d   2       8.783   2.875  -8.211  0.00  0.00    -0.274 OA
ATOM     22  H   GLY d   2       9.018   3.697  -4.169  0.00  0.00     0.149 HD
ATOM     23  HA1 GLY d   2      10.125   3.781  -6.260  0.00  0.00     0.056 H 
ATOM     24  HA2 GLY d   2      10.483   2.074  -5.885  0.00  0.00     0.056 H 
ENDROOT
BRANCH   1  25
ATOM     25  C   UNK d   1       4.427  -0.869  -4.163  0.00  0.00     0.189 A 
ATOM     26  C   UNK d   1       4.196  -2.100  -3.618  0.00  0.00    -0.011 A 
ATOM     27  C   UNK d   1       4.053  -1.908  -2.235  0.00  0.00    -0.023 A 
ATOM     28  H   UNK d   1       4.137  -3.039  -4.148  0.00  0.00     0.066 H 
ATOM     29  C   UNK d   1       4.193  -0.585  -2.001  0.00  0.00     0.093 A 
ATOM     30  H   UNK d   1       3.863  -2.672  -1.497  0.00  0.00     0.065 H 
ATOM     31  O   UNK d   1       4.418   0.038  -3.165  0.00  0.00    -0.458 OA
ATOM     32  H   UNK d   1       4.133  -0.107  -1.033  0.00  0.00     0.103 H 
ENDBRANCH   1  25
TORSDOF 1
ENDMDL
MODEL 5
REMARK VINA RESULT:      -5.4      2.364      4.737
REMARK  1 active torsions:
REMARK  status: ('A' for Active; 'I' for Inactive)
REMARK    1  A    between atoms: C_3  and  C_6 
REMARK       I    between atoms: C_6  and  N_8 
ROOT
ATOM      1  C   UNK d   1       4.133  -0.132  -6.338  0.00  0.00     0.282 C 
ATOM      2  O   UNK d   1       3.842   0.383  -5.274  0.00  0.00    -0.267 OA
ATOM      3  N   UNK d   1       4.717  -1.347  -6.363  0.00  0.00    -0.291 N 
ATOM      4  C   UNK d   1       5.122  -1.973  -5.111  0.00  0.00     0.031 C 
ATOM      5  C   UNK d   1       4.554  -3.377  -5.005  0.00  0.00     0.031 C 
ATOM      6  N   UNK d   1       4.518  -4.070  -6.263  0.00  0.00    -0.286 N 
ATOM      7  C   UNK d   1       4.681  -3.490  -7.583  0.00  0.00     0.118 C 
ATOM      8  H   UNK d   1       5.569  -3.961  -8.007  0.00  0.00     0.061 H 
ATOM      9  C   UNK d   1       4.933  -2.011  -7.637  0.00  0.00     0.042 C 
ATOM     10  C   UNK d   1       3.534  -3.925  -8.461  0.00  0.00     0.235 C 
ATOM     11  O   UNK d   1       2.927  -3.144  -9.163  0.00  0.00    -0.274 OA
ATOM     12  H   UNK d   1       6.210  -2.023  -5.069  0.00  0.00     0.048 H 
ATOM     13  H   UNK d   1       4.758  -1.375  -4.275  0.00  0.00     0.048 H 
ATOM     14  H   UNK d   1       5.158  -3.945  -4.297  0.00  0.00     0.048 H 
ATOM     15  H   UNK d   1       3.537  -3.312  -4.620  0.00  0.00     0.048 H 
ATOM     16  H   UNK d   1       5.964  -1.844  -7.949  0.00  0.00     0.049 H 
ATOM     17  H   UNK d   1       4.267  -1.570  -8.379  0.00  0.00     0.049 H 
ATOM     18  N   GLY d   2       3.221  -5.253  -8.418  0.00  0.00    -0.305 N 
ATOM     19  CA  GLY d   2       4.063  -6.109  -7.561  0.00  0.00     0.088 C 
ATOM     20  C   GLY d   2       4.256  -5.415  -6.229  0.00  0.00     0.233 C 
ATOM     21  O   GLY d   2       4.183  -6.021  -5.181  0.00  0.00    -0.274 OA
ATOM     22  H   GLY d   2       2.477  -5.617  -8.923  0.00  0.00     0.149 HD
ATOM     23  HA1 GLY d   2       3.571  -7.069  -7.406  0.00  0.00     0.056 H 
ATOM     24  HA2 GLY d   2       5.031  -6.264  -8.038  0.00  0.00     0.056 H 
ENDROOT
BRANCH   1  25
ATOM     25  C   UNK d   1       3.849   0.570  -7.594  0.00  0.00     0.189 A 
ATOM     26  C   UNK d   1       2.694   0.487  -8.317  0.00  0.00    -0.011 A 
ATOM     27  C   UNK d   1       2.856   1.319  -9.436  0.00  0.00    -0.023 A 
ATOM     28  H   UNK d   1       1.823  -0.103  -8.074  0.00  0.00     0.066 H 
ATOM     29  C   UNK d   1       4.091   1.860  -9.352  0.00  0.00     0.093 A 
ATOM     30  H   UNK d   1       2.133   1.491 -10.219  0.00  0.00     0.065 H 
ATOM     31  O   UNK d   1       4.687   1.407  -8.242  0.00  0.00    -0.458 OA
ATOM     32  H   UNK d   1       4.528   2.546 -10.065  0.00  0.00     0.103 H 
ENDBRANCH   1  25
TORSDOF 1
ENDMDL
MODEL 6
REMARK VINA RESULT:      -5.3      2.472      4.303
REMARK  1 active torsions:
REMARK  status: ('A' for Active; 'I' for Inactive)
REMARK    1  A    between atoms: C_3  and  C_6 
REMARK       I    between atoms: C_6  and  N_8 
ROOT
ATOM      1  C   UNK d   1       4.280  -0.464  -5.626  0.00  0.00     0.282 C 
ATOM      2  O   UNK d   1       4.029   0.204  -6.612  0.00  0.00    -0.267 OA
ATOM      3  N   UNK d   1       4.569  -1.774  -5.756  0.00  0.00    -0.291 N 
ATOM      4  C   UNK d   1       4.443  -2.411  -7.060  0.00  0.00     0.031 C 
ATOM      5  C   UNK d   1       5.724  -3.138  -7.428  0.00  0.00     0.031 C 
ATOM      6  N   UNK d   1       6.367  -3.757  -6.302  0.00  0.00    -0.286 N 
ATOM      7  C   UNK d   1       6.090  -3.517  -4.899  0.00  0.00     0.118 C 
ATOM      8  H   UNK d   1       5.751  -4.472  -4.495  0.00  0.00     0.061 H 
ATOM      9  C   UNK d   1       5.002  -2.530  -4.592  0.00  0.00     0.042 C 
ATOM     10  C   UNK d   1       7.382  -3.211  -4.183  0.00  0.00     0.235 C 
ATOM     11  O   UNK d   1       7.487  -2.282  -3.409  0.00  0.00    -0.274 OA
ATOM     12  H   UNK d   1       3.621  -3.125  -7.034  0.00  0.00     0.048 H 
ATOM     13  H   UNK d   1       4.234  -1.651  -7.813  0.00  0.00     0.048 H 
ATOM     14  H   UNK d   1       5.492  -3.899  -8.174  0.00  0.00     0.048 H 
ATOM     15  H   UNK d   1       6.417  -2.421  -7.868  0.00  0.00     0.048 H 
ATOM     16  H   UNK d   1       4.145  -3.069  -4.186  0.00  0.00     0.049 H 
ATOM     17  H   UNK d   1       5.365  -1.833  -3.837  0.00  0.00     0.049 H 
ATOM     18  N   GLY d   2       8.428  -4.043  -4.460  0.00  0.00    -0.305 N 
ATOM     19  CA  GLY d   2       8.163  -5.163  -5.382  0.00  0.00     0.088 C 
ATOM     20  C   GLY d   2       7.385  -4.636  -6.569  0.00  0.00     0.233 C 
ATOM     21  O   GLY d   2       7.650  -4.974  -7.703  0.00  0.00    -0.274 OA
ATOM     22  H   GLY d   2       9.306  -3.903  -4.073  0.00  0.00     0.149 HD
ATOM     23  HA1 GLY d   2       9.107  -5.590  -5.722  0.00  0.00     0.056 H 
ATOM     24  HA2 GLY d   2       7.577  -5.927  -4.870  0.00  0.00     0.056 H 
ENDROOT
BRANCH   1  25
ATOM     25  C   UNK d   1       4.266   0.156  -4.297  0.00  0.00     0.189 A 
ATOM     26  C   UNK d   1       3.179   0.274  -3.479  0.00  0.00    -0.011 A 
ATOM     27  C   UNK d   1       3.619   0.925  -2.315  0.00  0.00    -0.023 A 
ATOM     28  H   UNK d   1       2.176  -0.070  -3.685  0.00  0.00     0.066 H 
ATOM     29  C   UNK d   1       4.935   1.180  -2.476  0.00  0.00     0.093 A 
ATOM     30  H   UNK d   1       3.017   1.179  -1.455  0.00  0.00     0.065 H 
ATOM     31  O   UNK d   1       5.322   0.716  -3.671  0.00  0.00    -0.458 OA
ATOM     32  H   UNK d   1       5.573   1.678  -1.759  0.00  0.00     0.103 H 
ENDBRANCH   1  25
TORSDOF 1
ENDMDL
MODEL 7
REMARK VINA RESULT:      -5.3      2.859      5.746
REMARK  1 active torsions:
REMARK  status: ('A' for Active; 'I' for Inactive)
REMARK    1  A    between atoms: C_3  and  C_6 
REMARK       I    between atoms: C_6  and  N_8 
ROOT
ATOM      1  C   UNK d   1       7.554   1.160  -6.293  0.00  0.00     0.282 C 
ATOM      2  O   UNK d   1       8.371   1.991  -5.944  0.00  0.00    -0.267 OA
ATOM      3  N   UNK d   1       6.961   0.369  -5.376  0.00  0.00    -0.291 N 
ATOM      4  C   UNK d   1       7.406   0.421  -3.990  0.00  0.00     0.031 C 
ATOM      5  C   UNK d   1       6.231   0.650  -3.057  0.00  0.00     0.031 C 
ATOM      6  N   UNK d   1       5.033  -0.021  -3.481  0.00  0.00    -0.286 N 
ATOM      7  C   UNK d   1       4.776  -0.609  -4.782  0.00  0.00     0.118 C 
ATOM      8  H   UNK d   1       4.617  -1.672  -4.601  0.00  0.00     0.061 H 
ATOM      9  C   UNK d   1       5.889  -0.523  -5.785  0.00  0.00     0.042 C 
ATOM     10  C   UNK d   1       3.464  -0.088  -5.311  0.00  0.00     0.235 C 
ATOM     11  O   UNK d   1       3.340   0.310  -6.451  0.00  0.00    -0.274 OA
ATOM     12  H   UNK d   1       7.891  -0.520  -3.731  0.00  0.00     0.048 H 
ATOM     13  H   UNK d   1       8.121   1.236  -3.871  0.00  0.00     0.048 H 
ATOM     14  H   UNK d   1       6.504   0.305  -2.060  0.00  0.00     0.048 H 
ATOM     15  H   UNK d   1       6.026   1.720  -3.010  0.00  0.00     0.048 H 
ATOM     16  H   UNK d   1       6.301  -1.521  -5.937  0.00  0.00     0.049 H 
ATOM     17  H   UNK d   1       5.480  -0.167  -6.731  0.00  0.00     0.049 H 
ATOM     18  N   GLY d   2       2.422  -0.092  -4.429  0.00  0.00    -0.305 N 
ATOM     19  CA  GLY d   2       2.686  -0.644  -3.088  0.00  0.00     0.088 C 
ATOM     20  C   GLY d   2       3.997  -0.077  -2.584  0.00  0.00     0.233 C 
ATOM     21  O   GLY d   2       4.125   0.308  -1.442  0.00  0.00    -0.274 OA
ATOM     22  H   GLY d   2       1.549   0.256  -4.672  0.00  0.00     0.149 HD
ATOM     23  HA1 GLY d   2       1.880  -0.361  -2.410  0.00  0.00     0.056 H 
ATOM     24  HA2 GLY d   2       2.754  -1.730  -3.146  0.00  0.00     0.056 H 
ENDROOT
BRANCH   1  25
ATOM     25  C   UNK d   1       7.215   1.017  -7.713  0.00  0.00     0.189 A 
ATOM     26  C   UNK d   1       7.964   0.374  -8.656  0.00  0.00    -0.011 A 
ATOM     27  C   UNK d   1       7.265   0.480  -9.869  0.00  0.00    -0.023 A 
ATOM     28  H   UNK d   1       8.910  -0.123  -8.499  0.00  0.00     0.066 H 
ATOM     29  C   UNK d   1       6.138   1.182  -9.617  0.00  0.00     0.093 A 
ATOM     30  H   UNK d   1       7.572   0.081 -10.824  0.00  0.00     0.065 H 
ATOM     31  O   UNK d   1       6.111   1.504  -8.318  0.00  0.00    -0.458 OA
ATOM     32  H   UNK d   1       5.383   1.441 -10.345  0.00  0.00     0.103 H 
ENDBRANCH   1  25
TORSDOF 1
ENDMDL
MODEL 8
REMARK VINA RESULT:      -5.3      1.697      6.066
REMARK  1 active torsions:
REMARK  status: ('A' for Active; 'I' for Inactive)
REMARK    1  A    between atoms: C_3  and  C_6 
REMARK       I    between atoms: C_6  and  N_8 
ROOT
ATOM      1  C   UNK d   1       2.996  -1.105  -8.288  0.00  0.00     0.282 C 
ATOM      2  O   UNK d   1       2.008  -0.571  -8.757  0.00  0.00    -0.267 OA
ATOM      3  N   UNK d   1       3.552  -0.621  -7.159  0.00  0.00    -0.291 N 
ATOM      4  C   UNK d   1       3.048   0.621  -6.587  0.00  0.00     0.031 C 
ATOM      5  C   UNK d   1       2.700   0.433  -5.121  0.00  0.00     0.031 C 
ATOM      6  N   UNK d   1       3.603  -0.448  -4.433  0.00  0.00    -0.286 N 
ATOM      7  C   UNK d   1       4.569  -1.349  -5.033  0.00  0.00     0.118 C 
ATOM      8  H   UNK d   1       5.545  -1.014  -4.683  0.00  0.00     0.061 H 
ATOM      9  C   UNK d   1       4.645  -1.345  -6.532  0.00  0.00     0.042 C 
ATOM     10  C   UNK d   1       4.384  -2.730  -4.456  0.00  0.00     0.235 C 
ATOM     11  O   UNK d   1       4.350  -3.722  -5.154  0.00  0.00    -0.274 OA
ATOM     12  H   UNK d   1       3.810   1.394  -6.679  0.00  0.00     0.048 H 
ATOM     13  H   UNK d   1       2.155   0.931  -7.130  0.00  0.00     0.048 H 
ATOM     14  H   UNK d   1       2.707   1.408  -4.633  0.00  0.00     0.048 H 
ATOM     15  H   UNK d   1       1.695   0.017  -5.052  0.00  0.00     0.048 H 
ATOM     16  H   UNK d   1       5.587  -0.887  -6.833  0.00  0.00     0.049 H 
ATOM     17  H   UNK d   1       4.629  -2.376  -6.886  0.00  0.00     0.049 H 
ATOM     18  N   GLY d   2       4.256  -2.797  -3.099  0.00  0.00    -0.305 N 
ATOM     19  CA  GLY d   2       4.360  -1.527  -2.357  0.00  0.00     0.088 C 
ATOM     20  C   GLY d   2       3.520  -0.485  -3.065  0.00  0.00     0.233 C 
ATOM     21  O   GLY d   2       2.808   0.281  -2.452  0.00  0.00    -0.274 OA
ATOM     22  H   GLY d   2       4.100  -3.639  -2.643  0.00  0.00     0.149 HD
ATOM     23  HA1 GLY d   2       3.991  -1.665  -1.340  0.00  0.00     0.056 H 
ATOM     24  HA2 GLY d   2       5.401  -1.203  -2.330  0.00  0.00     0.056 H 
ENDROOT
BRANCH   1  25
ATOM     25  C   UNK d   1       3.584  -2.273  -8.952  0.00  0.00     0.189 A 
ATOM     26  C   UNK d   1       4.483  -2.245  -9.979  0.00  0.00    -0.011 A 
ATOM     27  C   UNK d   1       4.772  -3.581 -10.299  0.00  0.00    -0.023 A 
ATOM     28  H   UNK d   1       4.894  -1.365 -10.451  0.00  0.00     0.066 H 
ATOM     29  C   UNK d   1       4.040  -4.356  -9.470  0.00  0.00     0.093 A 
ATOM     30  H   UNK d   1       5.449  -3.925 -11.067  0.00  0.00     0.065 H 
ATOM     31  O   UNK d   1       3.324  -3.565  -8.660  0.00  0.00    -0.458 OA
ATOM     32  H   UNK d   1       4.031  -5.436  -9.462  0.00  0.00     0.103 H 
ENDBRANCH   1  25
TORSDOF 1
ENDMDL
MODEL 9
REMARK VINA RESULT:      -5.3      3.415      5.978
REMARK  1 active torsions:
REMARK  status: ('A' for Active; 'I' for Inactive)
REMARK    1  A    between atoms: C_3  and  C_6 
REMARK       I    between atoms: C_6  and  N_8 
ROOT
ATOM      1  C   UNK d   1       6.846  -3.130  -6.169  0.00  0.00     0.282 C 
ATOM      2  O   UNK d   1       7.171  -2.766  -7.285  0.00  0.00    -0.267 OA
ATOM      3  N   UNK d   1       7.025  -2.311  -5.114  0.00  0.00    -0.291 N 
ATOM      4  C   UNK d   1       7.734  -1.051  -5.296  0.00  0.00     0.031 C 
ATOM      5  C   UNK d   1       6.914   0.108  -4.759  0.00  0.00     0.031 C 
ATOM      6  N   UNK d   1       6.178  -0.222  -3.570  0.00  0.00    -0.286 N 
ATOM      7  C   UNK d   1       5.923  -1.549  -3.043  0.00  0.00     0.118 C 
ATOM      8  H   UNK d   1       6.396  -1.575  -2.061  0.00  0.00     0.061 H 
ATOM      9  C   UNK d   1       6.508  -2.698  -3.812  0.00  0.00     0.042 C 
ATOM     10  C   UNK d   1       4.445  -1.705  -2.785  0.00  0.00     0.235 C 
ATOM     11  O   UNK d   1       3.830  -2.691  -3.134  0.00  0.00    -0.274 OA
ATOM     12  H   UNK d   1       8.685  -1.093  -4.767  0.00  0.00     0.048 H 
ATOM     13  H   UNK d   1       7.922  -0.894  -6.359  0.00  0.00     0.048 H 
ATOM     14  H   UNK d   1       7.585   0.942  -4.547  0.00  0.00     0.048 H 
ATOM     15  H   UNK d   1       6.206   0.420  -5.526  0.00  0.00     0.048 H 
ATOM     16  H   UNK d   1       7.320  -3.132  -3.228  0.00  0.00     0.049 H 
ATOM     17  H   UNK d   1       5.736  -3.454  -3.953  0.00  0.00     0.049 H 
ATOM     18  N   GLY d   2       3.842  -0.669  -2.133  0.00  0.00    -0.305 N 
ATOM     19  CA  GLY d   2       4.706   0.452  -1.718  0.00  0.00     0.088 C 
ATOM     20  C   GLY d   2       5.610   0.816  -2.877  0.00  0.00     0.233 C 
ATOM     21  O   GLY d   2       5.823   1.971  -3.178  0.00  0.00    -0.274 OA
ATOM     22  H   GLY d   2       2.888  -0.667  -1.954  0.00  0.00     0.149 HD
ATOM     23  HA1 GLY d   2       4.089   1.310  -1.451  0.00  0.00     0.056 H 
ATOM     24  HA2 GLY d   2       5.310   0.151  -0.862  0.00  0.00     0.056 H 
ENDROOT
BRANCH   1  25
ATOM     25  C   UNK d   1       6.261  -4.461  -5.974  0.00  0.00     0.189 A 
ATOM     26  C   UNK d   1       6.955  -5.629  -5.837  0.00  0.00    -0.011 A 
ATOM     27  C   UNK d   1       6.001  -6.647  -5.671  0.00  0.00    -0.023 A 
ATOM     28  H   UNK d   1       8.028  -5.748  -5.851  0.00  0.00     0.066 H 
ATOM     29  C   UNK d   1       4.784  -6.063  -5.721  0.00  0.00     0.093 A 
ATOM     30  H   UNK d   1       6.202  -7.698  -5.534  0.00  0.00     0.065 H 
ATOM     31  O   UNK d   1       4.944  -4.746  -5.904  0.00  0.00    -0.458 OA
ATOM     32  H   UNK d   1       3.836  -6.574  -5.630  0.00  0.00     0.103 H 
ENDBRANCH   1  25
TORSDOF 1
ENDMDL
MODEL 10
REMARK VINA RESULT:      -5.1      9.559     10.713
REMARK  1 active torsions:
REMARK  status: ('A' for Active; 'I' for Inactive)
REMARK    1  A    between atoms: C_3  and  C_6 
REMARK       I    between atoms: C_6  and  N_8 
ROOT
ATOM      1  C   UNK d   1      10.278   5.149  -2.584  0.00  0.00     0.282 C 
ATOM      2  O   UNK d   1       9.661   4.107  -2.709  0.00  0.00    -0.267 OA
ATOM      3  N   UNK d   1      10.593   5.880  -3.671  0.00  0.00    -0.291 N 
ATOM      4  C   UNK d   1      10.314   5.348  -4.999  0.00  0.00     0.031 C 
ATOM      5  C   UNK d   1       9.517   6.346  -5.820  0.00  0.00     0.031 C 
ATOM      6  N   UNK d   1       9.895   7.710  -5.576  0.00  0.00    -0.286 N 
ATOM      7  C   UNK d   1      10.699   8.209  -4.476  0.00  0.00     0.118 C 
ATOM      8  H   UNK d   1      11.584   8.652  -4.933  0.00  0.00     0.061 H 
ATOM      9  C   UNK d   1      11.207   7.187  -3.502  0.00  0.00     0.042 C 
ATOM     10  C   UNK d   1       9.974   9.351  -3.809  0.00  0.00     0.235 C 
ATOM     11  O   UNK d   1       9.868   9.431  -2.603  0.00  0.00    -0.274 OA
ATOM     12  H   UNK d   1      11.255   5.137  -5.507  0.00  0.00     0.048 H 
ATOM     13  H   UNK d   1       9.743   4.425  -4.904  0.00  0.00     0.048 H 
ATOM     14  H   UNK d   1       9.655   6.117  -6.877  0.00  0.00     0.048 H 
ATOM     15  H   UNK d   1       8.461   6.233  -5.575  0.00  0.00     0.048 H 
ATOM     16  H   UNK d   1      12.285   7.087  -3.629  0.00  0.00     0.049 H 
ATOM     17  H   UNK d   1      11.006   7.538  -2.490  0.00  0.00     0.049 H 
ATOM     18  N   GLY d   2       9.443  10.290  -4.645  0.00  0.00    -0.305 N 
ATOM     19  CA  GLY d   2       9.679  10.106  -6.089  0.00  0.00     0.088 C 
ATOM     20  C   GLY d   2       9.410   8.658  -6.440  0.00  0.00     0.233 C 
ATOM     21  O   GLY d   2       8.796   8.350  -7.439  0.00  0.00    -0.274 OA
ATOM     22  H   GLY d   2       8.931  11.041  -4.307  0.00  0.00     0.149 HD
ATOM     23  HA1 GLY d   2       9.006  10.751  -6.656  0.00  0.00     0.056 H 
ATOM     24  HA2 GLY d   2      10.714  10.355  -6.326  0.00  0.00     0.056 H 
ENDROOT
BRANCH   1  25
ATOM     25  C   UNK d   1      10.680   5.607  -1.250  0.00  0.00     0.189 A 
ATOM     26  C   UNK d   1      11.757   5.161  -0.540  0.00  0.00    -0.011 A 
ATOM     27  C   UNK d   1      11.762   5.869   0.673  0.00  0.00    -0.023 A 
ATOM     28  H   UNK d   1      12.469   4.412  -0.851  0.00  0.00     0.066 H 
ATOM     29  C   UNK d   1      10.696   6.699   0.653  0.00  0.00     0.093 A 
ATOM     30  H   UNK d   1      12.479   5.766   1.473  0.00  0.00     0.065 H 
ATOM     31  O   UNK d   1      10.046   6.538  -0.507  0.00  0.00    -0.458 OA
ATOM     32  H   UNK d   1      10.413   7.380   1.443  0.00  0.00     0.103 H 
ENDBRANCH   1  25
TORSDOF 1
ENDMDL
