MODEL 1
REMARK VINA RESULT:      -4.0      0.000      0.000
REMARK  8 active torsions:
REMARK  status: ('A' for Active; 'I' for Inactive)
REMARK    1  A    between atoms: C_1  and  C_2 
REMARK    2  A    between atoms: C_2  and  C_4 
REMARK    3  A    between atoms: C_2  and  O_11 
REMARK    4  A    between atoms: C_4  and  O_6 
REMARK    5  A    between atoms: O_6  and  C_7 
REMARK    6  A    between atoms: C_7  and  C_8 
REMARK    7  A    between atoms: C_7  and  C_9 
REMARK    8  A    between atoms: C_7  and  C_10 
ROOT
ATOM      1  C   LIG d   1       4.205  -0.298  -2.662  0.00  0.00     0.105 C 
ENDROOT
BRANCH   1   2
ATOM      2  O   LIG d   1       5.158  -0.274  -3.757  0.00  0.00    -0.457 OA
BRANCH   2   3
ATOM      3  C   LIG d   1       4.712  -0.662  -4.962  0.00  0.00     0.336 C 
ATOM      4  O   LIG d   1       4.080   0.105  -5.648  0.00  0.00    -0.248 OA
BRANCH   3   5
ATOM      5  C   LIG d   1       4.992  -2.058  -5.454  0.00  0.00     0.149 C 
ATOM      6  H   LIG d   1       5.098  -2.047  -6.539  0.00  0.00     0.071 H 
BRANCH   5   7
ATOM      7  C   LIG d   1       6.286  -2.573  -4.820  0.00  0.00    -0.029 C 
ATOM      8  H   LIG d   1       6.120  -3.571  -4.416  0.00  0.00     0.026 H 
ATOM      9  H   LIG d   1       7.070  -2.612  -5.576  0.00  0.00     0.026 H 
ATOM     10  H   LIG d   1       6.588  -1.902  -4.017  0.00  0.00     0.026 H 
ENDBRANCH   5   7
BRANCH   5  11
ATOM     11  O   LIG d   1       3.909  -2.918  -5.091  0.00  0.00    -0.381 OA
ATOM     12  H   LIG d   1       3.562  -3.445  -5.824  0.00  0.00     0.210 HD
ENDBRANCH   5  11
ENDBRANCH   3   5
ENDBRANCH   2   3
ENDBRANCH   1   2
BRANCH   1  13
ATOM     13  C   LIG d   1       4.449   0.903  -1.746  0.00  0.00    -0.025 C 
ATOM     14  H   LIG d   1       3.567   1.543  -1.744  0.00  0.00     0.027 H 
ATOM     15  H   LIG d   1       4.647   0.553  -0.733  0.00  0.00     0.027 H 
ATOM     16  H   LIG d   1       5.307   1.468  -2.109  0.00  0.00     0.027 H 
ENDBRANCH   1  13
BRANCH   1  17
ATOM     17  C   LIG d   1       2.782  -0.231  -3.222  0.00  0.00    -0.025 C 
ATOM     18  H   LIG d   1       2.127  -0.869  -2.628  0.00  0.00     0.027 H 
ATOM     19  H   LIG d   1       2.423   0.797  -3.181  0.00  0.00     0.027 H 
ATOM     20  H   LIG d   1       2.783  -0.574  -4.257  0.00  0.00     0.027 H 
ENDBRANCH   1  17
BRANCH   1  21
ATOM     21  C   LIG d   1       4.377  -1.591  -1.863  0.00  0.00    -0.025 C 
ATOM     22  H   LIG d   1       3.398  -1.975  -1.576  0.00  0.00     0.027 H 
ATOM     23  H   LIG d   1       4.892  -2.332  -2.476  0.00  0.00     0.027 H 
ATOM     24  H   LIG d   1       4.966  -1.389  -0.968  0.00  0.00     0.027 H 
ENDBRANCH   1  21
TORSDOF 8
ENDMDL
MODEL 2
REMARK VINA RESULT:      -4.0      0.072      1.365
REMARK  8 active torsions:
REMARK  status: ('A' for Active; 'I' for Inactive)
REMARK    1  A    between atoms: C_1  and  C_2 
REMARK    2  A    between atoms: C_2  and  C_4 
REMARK    3  A    between atoms: C_2  and  O_11 
REMARK    4  A    between atoms: C_4  and  O_6 
REMARK    5  A    between atoms: O_6  and  C_7 
REMARK    6  A    between atoms: C_7  and  C_8 
REMARK    7  A    between atoms: C_7  and  C_9 
REMARK    8  A    between atoms: C_7  and  C_10 
ROOT
ATOM      1  C   LIG d   1       4.207  -0.297  -2.693  0.00  0.00     0.105 C 
ENDROOT
BRANCH   1   2
ATOM      2  O   LIG d   1       5.187  -0.303  -3.764  0.00  0.00    -0.457 OA
BRANCH   2   3
ATOM      3  C   LIG d   1       4.766  -0.709  -4.972  0.00  0.00     0.336 C 
ATOM      4  O   LIG d   1       4.174   0.056  -5.695  0.00  0.00    -0.248 OA
BRANCH   3   5
ATOM      5  C   LIG d   1       5.025  -2.124  -5.423  0.00  0.00     0.149 C 
ATOM      6  H   LIG d   1       5.166  -2.141  -6.504  0.00  0.00     0.071 H 
BRANCH   5   7
ATOM      7  C   LIG d   1       6.284  -2.656  -4.735  0.00  0.00    -0.029 C 
ATOM      8  H   LIG d   1       6.015  -3.101  -3.778  0.00  0.00     0.026 H 
ATOM      9  H   LIG d   1       6.752  -3.410  -5.368  0.00  0.00     0.026 H 
ATOM     10  H   LIG d   1       6.982  -1.836  -4.571  0.00  0.00     0.026 H 
ENDBRANCH   5   7
BRANCH   5  11
ATOM     11  O   LIG d   1       3.909  -2.947  -5.075  0.00  0.00    -0.381 OA
ATOM     12  H   LIG d   1       3.427  -3.299  -5.835  0.00  0.00     0.210 HD
ENDBRANCH   5  11
ENDBRANCH   3   5
ENDBRANCH   2   3
ENDBRANCH   1   2
BRANCH   1  13
ATOM     13  C   LIG d   1       2.801  -0.199  -3.287  0.00  0.00    -0.025 C 
ATOM     14  H   LIG d   1       2.512   0.850  -3.362  0.00  0.00     0.027 H 
ATOM     15  H   LIG d   1       2.793  -0.650  -4.279  0.00  0.00     0.027 H 
ATOM     16  H   LIG d   1       2.097  -0.725  -2.643  0.00  0.00     0.027 H 
ENDBRANCH   1  13
BRANCH   1  17
ATOM     17  C   LIG d   1       4.330  -1.589  -1.882  0.00  0.00    -0.025 C 
ATOM     18  H   LIG d   1       5.000  -2.278  -2.396  0.00  0.00     0.027 H 
ATOM     19  H   LIG d   1       4.731  -1.361  -0.894  0.00  0.00     0.027 H 
ATOM     20  H   LIG d   1       3.347  -2.047  -1.779  0.00  0.00     0.027 H 
ENDBRANCH   1  17
BRANCH   1  21
ATOM     21  C   LIG d   1       4.459   0.904  -1.778  0.00  0.00    -0.025 C 
ATOM     22  H   LIG d   1       4.669   0.554  -0.768  0.00  0.00     0.027 H 
ATOM     23  H   LIG d   1       5.311   1.473  -2.150  0.00  0.00     0.027 H 
ATOM     24  H   LIG d   1       3.574   1.542  -1.765  0.00  0.00     0.027 H 
ENDBRANCH   1  21
TORSDOF 8
ENDMDL
MODEL 3
REMARK VINA RESULT:      -3.9      1.567      2.598
REMARK  8 active torsions:
REMARK  status: ('A' for Active; 'I' for Inactive)
REMARK    1  A    between atoms: C_1  and  C_2 
REMARK    2  A    between atoms: C_2  and  C_4 
REMARK    3  A    between atoms: C_2  and  O_11 
REMARK    4  A    between atoms: C_4  and  O_6 
REMARK    5  A    between atoms: O_6  and  C_7 
REMARK    6  A    between atoms: C_7  and  C_8 
REMARK    7  A    between atoms: C_7  and  C_9 
REMARK    8  A    between atoms: C_7  and  C_10 
ROOT
ATOM      1  C   LIG d   1       3.838  -0.807  -2.911  0.00  0.00     0.105 C 
ENDROOT
BRANCH   1   2
ATOM      2  O   LIG d   1       4.718  -0.806  -4.065  0.00  0.00    -0.457 OA
BRANCH   2   3
ATOM      3  C   LIG d   1       5.881  -0.147  -3.944  0.00  0.00     0.336 C 
ATOM      4  O   LIG d   1       5.952   1.017  -4.258  0.00  0.00    -0.248 OA
BRANCH   3   5
ATOM      5  C   LIG d   1       7.101  -0.861  -3.421  0.00  0.00     0.149 C 
ATOM      6  H   LIG d   1       7.079  -0.868  -2.331  0.00  0.00     0.071 H 
BRANCH   5   7
ATOM      7  C   LIG d   1       7.111  -2.301  -3.941  0.00  0.00    -0.029 C 
ATOM      8  H   LIG d   1       8.116  -2.562  -4.269  0.00  0.00     0.026 H 
ATOM      9  H   LIG d   1       6.802  -2.977  -3.143  0.00  0.00     0.026 H 
ATOM     10  H   LIG d   1       6.420  -2.388  -4.779  0.00  0.00     0.026 H 
ENDBRANCH   5   7
BRANCH   5  11
ATOM     11  O   LIG d   1       8.278  -0.185  -3.870  0.00  0.00    -0.381 OA
ATOM     12  H   LIG d   1       8.107   0.521  -4.508  0.00  0.00     0.210 HD
ENDBRANCH   5  11
ENDBRANCH   3   5
ENDBRANCH   2   3
ENDBRANCH   1   2
BRANCH   1  13
ATOM     13  C   LIG d   1       2.411  -0.479  -3.356  0.00  0.00    -0.025 C 
ATOM     14  H   LIG d   1       1.739  -1.274  -3.034  0.00  0.00     0.027 H 
ATOM     15  H   LIG d   1       2.099   0.465  -2.909  0.00  0.00     0.027 H 
ATOM     16  H   LIG d   1       2.381  -0.395  -4.442  0.00  0.00     0.027 H 
ENDBRANCH   1  13
BRANCH   1  17
ATOM     17  C   LIG d   1       3.862  -2.188  -2.252  0.00  0.00    -0.025 C 
ATOM     18  H   LIG d   1       3.951  -2.074  -1.171  0.00  0.00     0.027 H 
ATOM     19  H   LIG d   1       2.939  -2.719  -2.487  0.00  0.00     0.027 H 
ATOM     20  H   LIG d   1       4.713  -2.755  -2.629  0.00  0.00     0.027 H 
ENDBRANCH   1  17
BRANCH   1  21
ATOM     21  C   LIG d   1       4.313   0.244  -1.906  0.00  0.00    -0.025 C 
ATOM     22  H   LIG d   1       4.993  -0.217  -1.190  0.00  0.00     0.027 H 
ATOM     23  H   LIG d   1       4.829   1.046  -2.434  0.00  0.00     0.027 H 
ATOM     24  H   LIG d   1       3.452   0.655  -1.376  0.00  0.00     0.027 H 
ENDBRANCH   1  21
TORSDOF 8
ENDMDL
MODEL 4
REMARK VINA RESULT:      -3.8      1.797      2.362
REMARK  8 active torsions:
REMARK  status: ('A' for Active; 'I' for Inactive)
REMARK    1  A    between atoms: C_1  and  C_2 
REMARK    2  A    between atoms: C_2  and  C_4 
REMARK    3  A    between atoms: C_2  and  O_11 
REMARK    4  A    between atoms: C_4  and  O_6 
REMARK    5  A    between atoms: O_6  and  C_7 
REMARK    6  A    between atoms: C_7  and  C_8 
REMARK    7  A    between atoms: C_7  and  C_9 
REMARK    8  A    between atoms: C_7  and  C_10 
ROOT
ATOM      1  C   LIG d   1       3.849   0.037  -3.029  0.00  0.00     0.105 C 
ENDROOT
BRANCH   1   2
ATOM      2  O   LIG d   1       4.695   0.285  -4.182  0.00  0.00    -0.457 OA
BRANCH   2   3
ATOM      3  C   LIG d   1       5.656  -0.617  -4.437  0.00  0.00     0.336 C 
ATOM      4  O   LIG d   1       5.360  -1.723  -4.821  0.00  0.00    -0.248 OA
BRANCH   3   5
ATOM      5  C   LIG d   1       7.104  -0.251  -4.238  0.00  0.00     0.149 C 
ATOM      6  H   LIG d   1       7.633  -0.326  -5.188  0.00  0.00     0.071 H 
BRANCH   5   7
ATOM      7  C   LIG d   1       7.201   1.183  -3.711  0.00  0.00    -0.029 C 
ATOM      8  H   LIG d   1       8.164   1.327  -3.223  0.00  0.00     0.026 H 
ATOM      9  H   LIG d   1       7.107   1.882  -4.542  0.00  0.00     0.026 H 
ATOM     10  H   LIG d   1       6.400   1.361  -2.995  0.00  0.00     0.026 H 
ENDBRANCH   5   7
BRANCH   5  11
ATOM     11  O   LIG d   1       7.696  -1.146  -3.292  0.00  0.00    -0.381 OA
ATOM     12  H   LIG d   1       8.419  -1.676  -3.651  0.00  0.00     0.210 HD
ENDBRANCH   5  11
ENDBRANCH   3   5
ENDBRANCH   2   3
ENDBRANCH   1   2
BRANCH   1  13
ATOM     13  C   LIG d   1       3.641   1.343  -2.259  0.00  0.00    -0.025 C 
ATOM     14  H   LIG d   1       3.667   1.140  -1.188  0.00  0.00     0.027 H 
ATOM     15  H   LIG d   1       4.433   2.047  -2.515  0.00  0.00     0.027 H 
ATOM     16  H   LIG d   1       2.675   1.771  -2.524  0.00  0.00     0.027 H 
ENDBRANCH   1  13
BRANCH   1  17
ATOM     17  C   LIG d   1       2.495  -0.501  -3.496  0.00  0.00    -0.025 C 
ATOM     18  H   LIG d   1       1.942   0.293  -3.998  0.00  0.00     0.027 H 
ATOM     19  H   LIG d   1       2.652  -1.329  -4.187  0.00  0.00     0.027 H 
ATOM     20  H   LIG d   1       1.927  -0.851  -2.634  0.00  0.00     0.027 H 
ENDBRANCH   1  17
BRANCH   1  21
ATOM     21  C   LIG d   1       4.519  -0.991  -2.116  0.00  0.00    -0.025 C 
ATOM     22  H   LIG d   1       5.429  -1.360  -2.589  0.00  0.00     0.027 H 
ATOM     23  H   LIG d   1       4.769  -0.524  -1.163  0.00  0.00     0.027 H 
ATOM     24  H   LIG d   1       3.836  -1.824  -1.943  0.00  0.00     0.027 H 
ENDBRANCH   1  21
TORSDOF 8
ENDMDL
MODEL 5
REMARK VINA RESULT:      -3.6      1.308      2.266
REMARK  8 active torsions:
REMARK  status: ('A' for Active; 'I' for Inactive)
REMARK    1  A    between atoms: C_1  and  C_2 
REMARK    2  A    between atoms: C_2  and  C_4 
REMARK    3  A    between atoms: C_2  and  O_11 
REMARK    4  A    between atoms: C_4  and  O_6 
REMARK    5  A    between atoms: O_6  and  C_7 
REMARK    6  A    between atoms: C_7  and  C_8 
REMARK    7  A    between atoms: C_7  and  C_9 
REMARK    8  A    between atoms: C_7  and  C_10 
ROOT
ATOM      1  C   LIG d   1       3.855  -0.028  -2.999  0.00  0.00     0.105 C 
ENDROOT
BRANCH   1   2
ATOM      2  O   LIG d   1       4.583   0.127  -4.246  0.00  0.00    -0.457 OA
BRANCH   2   3
ATOM      3  C   LIG d   1       4.333  -0.769  -5.213  0.00  0.00     0.336 C 
ATOM      4  O   LIG d   1       4.483  -1.949  -4.997  0.00  0.00    -0.248 OA
BRANCH   3   5
ATOM      5  C   LIG d   1       3.873  -0.304  -6.570  0.00  0.00     0.149 C 
ATOM      6  H   LIG d   1       4.324   0.662  -6.796  0.00  0.00     0.071 H 
BRANCH   5   7
ATOM      7  C   LIG d   1       4.295  -1.325  -7.630  0.00  0.00    -0.029 C 
ATOM      8  H   LIG d   1       3.670  -2.214  -7.547  0.00  0.00     0.026 H 
ATOM      9  H   LIG d   1       4.176  -0.889  -8.621  0.00  0.00     0.026 H 
ATOM     10  H   LIG d   1       5.338  -1.598  -7.475  0.00  0.00     0.026 H 
ENDBRANCH   5   7
BRANCH   5  11
ATOM     11  O   LIG d   1       2.449  -0.177  -6.573  0.00  0.00    -0.381 OA
ATOM     12  H   LIG d   1       2.134   0.723  -6.732  0.00  0.00     0.210 HD
ENDBRANCH   5  11
ENDBRANCH   3   5
ENDBRANCH   2   3
ENDBRANCH   1   2
BRANCH   1  13
ATOM     13  C   LIG d   1       4.621  -0.978  -2.076  0.00  0.00    -0.025 C 
ATOM     14  H   LIG d   1       3.921  -1.667  -1.604  0.00  0.00     0.027 H 
ATOM     15  H   LIG d   1       5.349  -1.542  -2.658  0.00  0.00     0.027 H 
ATOM     16  H   LIG d   1       5.137  -0.401  -1.309  0.00  0.00     0.027 H 
ENDBRANCH   1  13
BRANCH   1  17
ATOM     17  C   LIG d   1       3.708   1.335  -2.320  0.00  0.00    -0.025 C 
ATOM     18  H   LIG d   1       4.691   1.792  -2.206  0.00  0.00     0.027 H 
ATOM     19  H   LIG d   1       3.077   1.980  -2.932  0.00  0.00     0.027 H 
ATOM     20  H   LIG d   1       3.251   1.204  -1.340  0.00  0.00     0.027 H 
ENDBRANCH   1  17
BRANCH   1  21
ATOM     21  C   LIG d   1       2.468  -0.607  -3.287  0.00  0.00    -0.025 C 
ATOM     22  H   LIG d   1       2.476  -1.681  -3.103  0.00  0.00     0.027 H 
ATOM     23  H   LIG d   1       1.733  -0.132  -2.636  0.00  0.00     0.027 H 
ATOM     24  H   LIG d   1       2.205  -0.419  -4.329  0.00  0.00     0.027 H 
ENDBRANCH   1  21
TORSDOF 8
ENDMDL
MODEL 6
REMARK VINA RESULT:      -3.6      1.295      2.444
REMARK  8 active torsions:
REMARK  status: ('A' for Active; 'I' for Inactive)
REMARK    1  A    between atoms: C_1  and  C_2 
REMARK    2  A    between atoms: C_2  and  C_4 
REMARK    3  A    between atoms: C_2  and  O_11 
REMARK    4  A    between atoms: C_4  and  O_6 
REMARK    5  A    between atoms: O_6  and  C_7 
REMARK    6  A    between atoms: C_7  and  C_8 
REMARK    7  A    between atoms: C_7  and  C_9 
REMARK    8  A    between atoms: C_7  and  C_10 
ROOT
ATOM      1  C   LIG d   1       3.829  -0.251  -3.208  0.00  0.00     0.105 C 
ENDROOT
BRANCH   1   2
ATOM      2  O   LIG d   1       5.007  -0.289  -4.056  0.00  0.00    -0.457 OA
BRANCH   2   3
ATOM      3  C   LIG d   1       5.530  -1.497  -4.318  0.00  0.00     0.336 C 
ATOM      4  O   LIG d   1       5.049  -2.190  -5.183  0.00  0.00    -0.248 OA
BRANCH   3   5
ATOM      5  C   LIG d   1       6.713  -1.993  -3.527  0.00  0.00     0.149 C 
ATOM      6  H   LIG d   1       6.365  -2.461  -2.606  0.00  0.00     0.071 H 
BRANCH   5   7
ATOM      7  C   LIG d   1       7.491  -3.015  -4.358  0.00  0.00    -0.029 C 
ATOM      8  H   LIG d   1       8.532  -3.028  -4.038  0.00  0.00     0.026 H 
ATOM      9  H   LIG d   1       7.055  -4.004  -4.218  0.00  0.00     0.026 H 
ATOM     10  H   LIG d   1       7.438  -2.742  -5.411  0.00  0.00     0.026 H 
ENDBRANCH   5   7
BRANCH   5  11
ATOM     11  O   LIG d   1       7.567  -0.891  -3.207  0.00  0.00    -0.381 OA
ATOM     12  H   LIG d   1       7.103  -0.049  -3.109  0.00  0.00     0.210 HD
ENDBRANCH   5  11
ENDBRANCH   3   5
ENDBRANCH   2   3
ENDBRANCH   1   2
BRANCH   1  13
ATOM     13  C   LIG d   1       3.701  -1.575  -2.453  0.00  0.00    -0.025 C 
ATOM     14  H   LIG d   1       2.652  -1.873  -2.420  0.00  0.00     0.027 H 
ATOM     15  H   LIG d   1       4.281  -2.343  -2.964  0.00  0.00     0.027 H 
ATOM     16  H   LIG d   1       4.076  -1.452  -1.438  0.00  0.00     0.027 H 
ENDBRANCH   1  13
BRANCH   1  17
ATOM     17  C   LIG d   1       3.960   0.898  -2.206  0.00  0.00    -0.025 C 
ATOM     18  H   LIG d   1       5.002   1.212  -2.147  0.00  0.00     0.027 H 
ATOM     19  H   LIG d   1       3.345   1.737  -2.532  0.00  0.00     0.027 H 
ATOM     20  H   LIG d   1       3.626   0.562  -1.224  0.00  0.00     0.027 H 
ENDBRANCH   1  17
BRANCH   1  21
ATOM     21  C   LIG d   1       2.585  -0.034  -4.072  0.00  0.00    -0.025 C 
ATOM     22  H   LIG d   1       2.574  -0.763  -4.883  0.00  0.00     0.027 H 
ATOM     23  H   LIG d   1       1.691  -0.157  -3.461  0.00  0.00     0.027 H 
ATOM     24  H   LIG d   1       2.603   0.973  -4.489  0.00  0.00     0.027 H 
ENDBRANCH   1  21
TORSDOF 8
ENDMDL
MODEL 7
REMARK VINA RESULT:      -3.4      1.531      3.769
REMARK  8 active torsions:
REMARK  status: ('A' for Active; 'I' for Inactive)
REMARK    1  A    between atoms: C_1  and  C_2 
REMARK    2  A    between atoms: C_2  and  C_4 
REMARK    3  A    between atoms: C_2  and  O_11 
REMARK    4  A    between atoms: C_4  and  O_6 
REMARK    5  A    between atoms: O_6  and  C_7 
REMARK    6  A    between atoms: C_7  and  C_8 
REMARK    7  A    between atoms: C_7  and  C_9 
REMARK    8  A    between atoms: C_7  and  C_10 
ROOT
ATOM      1  C   LIG d   1       5.186  -2.104  -4.601  0.00  0.00     0.105 C 
ENDROOT
BRANCH   1   2
ATOM      2  O   LIG d   1       3.888  -1.529  -4.297  0.00  0.00    -0.457 OA
BRANCH   2   3
ATOM      3  C   LIG d   1       3.677  -1.138  -3.031  0.00  0.00     0.336 C 
ATOM      4  O   LIG d   1       3.660  -1.954  -2.140  0.00  0.00    -0.248 OA
BRANCH   3   5
ATOM      5  C   LIG d   1       3.452   0.320  -2.721  0.00  0.00     0.149 C 
ATOM      6  H   LIG d   1       2.452   0.454  -2.308  0.00  0.00     0.071 H 
BRANCH   5   7
ATOM      7  C   LIG d   1       4.492   0.791  -1.701  0.00  0.00    -0.029 C 
ATOM      8  H   LIG d   1       5.430   0.263  -1.869  0.00  0.00     0.026 H 
ATOM      9  H   LIG d   1       4.653   1.863  -1.816  0.00  0.00     0.026 H 
ATOM     10  H   LIG d   1       4.132   0.584  -0.694  0.00  0.00     0.026 H 
ENDBRANCH   5   7
BRANCH   5  11
ATOM     11  O   LIG d   1       3.580   1.087  -3.920  0.00  0.00    -0.381 OA
ATOM     12  H   LIG d   1       3.520   2.042  -3.785  0.00  0.00     0.210 HD
ENDBRANCH   5  11
ENDBRANCH   3   5
ENDBRANCH   2   3
ENDBRANCH   1   2
BRANCH   1  13
ATOM     13  C   LIG d   1       5.718  -1.504  -5.904  0.00  0.00    -0.025 C 
ATOM     14  H   LIG d   1       4.917  -0.961  -6.406  0.00  0.00     0.027 H 
ATOM     15  H   LIG d   1       6.537  -0.821  -5.681  0.00  0.00     0.027 H 
ATOM     16  H   LIG d   1       6.077  -2.304  -6.551  0.00  0.00     0.027 H 
ENDBRANCH   1  13
BRANCH   1  17
ATOM     17  C   LIG d   1       6.160  -1.796  -3.462  0.00  0.00    -0.025 C 
ATOM     18  H   LIG d   1       6.980  -2.515  -3.480  0.00  0.00     0.027 H 
ATOM     19  H   LIG d   1       6.558  -0.789  -3.585  0.00  0.00     0.027 H 
ATOM     20  H   LIG d   1       5.637  -1.866  -2.508  0.00  0.00     0.027 H 
ENDBRANCH   1  17
BRANCH   1  21
ATOM     21  C   LIG d   1       5.048  -3.620  -4.757  0.00  0.00    -0.025 C 
ATOM     22  H   LIG d   1       6.038  -4.071  -4.820  0.00  0.00     0.027 H 
ATOM     23  H   LIG d   1       4.517  -4.028  -3.897  0.00  0.00     0.027 H 
ATOM     24  H   LIG d   1       4.490  -3.842  -5.667  0.00  0.00     0.027 H 
ENDBRANCH   1  21
TORSDOF 8
ENDMDL
MODEL 8
REMARK VINA RESULT:      -3.3      9.528     10.621
REMARK  8 active torsions:
REMARK  status: ('A' for Active; 'I' for Inactive)
REMARK    1  A    between atoms: C_1  and  C_2 
REMARK    2  A    between atoms: C_2  and  C_4 
REMARK    3  A    between atoms: C_2  and  O_11 
REMARK    4  A    between atoms: C_4  and  O_6 
REMARK    5  A    between atoms: O_6  and  C_7 
REMARK    6  A    between atoms: C_7  and  C_8 
REMARK    7  A    between atoms: C_7  and  C_9 
REMARK    8  A    between atoms: C_7  and  C_10 
ROOT
ATOM      1  C   LIG d   1      11.166   6.507   0.359  0.00  0.00     0.105 C 
ENDROOT
BRANCH   1   2
ATOM      2  O   LIG d   1      10.044   6.193  -0.508  0.00  0.00    -0.457 OA
BRANCH   2   3
ATOM      3  C   LIG d   1       9.560   7.191  -1.264  0.00  0.00     0.336 C 
ATOM      4  O   LIG d   1       8.645   7.866  -0.858  0.00  0.00    -0.248 OA
BRANCH   3   5
ATOM      5  C   LIG d   1      10.154   7.463  -2.622  0.00  0.00     0.149 C 
ATOM      6  H   LIG d   1      11.237   7.557  -2.533  0.00  0.00     0.071 H 
BRANCH   5   7
ATOM      7  C   LIG d   1       9.817   6.308  -3.567  0.00  0.00    -0.029 C 
ATOM      8  H   LIG d   1       8.736   6.235  -3.680  0.00  0.00     0.026 H 
ATOM      9  H   LIG d   1      10.273   6.491  -4.540  0.00  0.00     0.026 H 
ATOM     10  H   LIG d   1      10.204   5.377  -3.155  0.00  0.00     0.026 H 
ENDBRANCH   5   7
BRANCH   5  11
ATOM     11  O   LIG d   1       9.612   8.679  -3.143  0.00  0.00    -0.381 OA
ATOM     12  H   LIG d   1      10.274   9.361  -3.322  0.00  0.00     0.210 HD
ENDBRANCH   5  11
ENDBRANCH   3   5
ENDBRANCH   2   3
ENDBRANCH   1   2
BRANCH   1  13
ATOM     13  C   LIG d   1      11.220   8.017   0.596  0.00  0.00    -0.025 C 
ATOM     14  H   LIG d   1      10.205   8.405   0.693  0.00  0.00     0.027 H 
ATOM     15  H   LIG d   1      11.776   8.222   1.511  0.00  0.00     0.027 H 
ATOM     16  H   LIG d   1      11.715   8.500  -0.246  0.00  0.00     0.027 H 
ENDBRANCH   1  13
BRANCH   1  17
ATOM     17  C   LIG d   1      10.995   5.785   1.697  0.00  0.00    -0.025 C 
ATOM     18  H   LIG d   1       9.940   5.777   1.973  0.00  0.00     0.027 H 
ATOM     19  H   LIG d   1      11.355   4.761   1.606  0.00  0.00     0.027 H 
ATOM     20  H   LIG d   1      11.567   6.305   2.465  0.00  0.00     0.027 H 
ENDBRANCH   1  17
BRANCH   1  21
ATOM     21  C   LIG d   1      12.467   6.049  -0.304  0.00  0.00    -0.025 C 
ATOM     22  H   LIG d   1      12.297   5.108  -0.827  0.00  0.00     0.027 H 
ATOM     23  H   LIG d   1      12.798   6.805  -1.016  0.00  0.00     0.027 H 
ATOM     24  H   LIG d   1      13.233   5.908   0.458  0.00  0.00     0.027 H 
ENDBRANCH   1  21
TORSDOF 8
ENDMDL
MODEL 9
REMARK VINA RESULT:      -3.2      9.756     10.891
REMARK  8 active torsions:
REMARK  status: ('A' for Active; 'I' for Inactive)
REMARK    1  A    between atoms: C_1  and  C_2 
REMARK    2  A    between atoms: C_2  and  C_4 
REMARK    3  A    between atoms: C_2  and  O_11 
REMARK    4  A    between atoms: C_4  and  O_6 
REMARK    5  A    between atoms: O_6  and  C_7 
REMARK    6  A    between atoms: C_7  and  C_8 
REMARK    7  A    between atoms: C_7  and  C_9 
REMARK    8  A    between atoms: C_7  and  C_10 
ROOT
ATOM      1  C   LIG d   1       9.988   8.765  -0.693  0.00  0.00     0.105 C 
ENDROOT
BRANCH   1   2
ATOM      2  O   LIG d   1       9.550   7.419  -0.371  0.00  0.00    -0.457 OA
BRANCH   2   3
ATOM      3  C   LIG d   1      10.227   6.406  -0.935  0.00  0.00     0.336 C 
ATOM      4  O   LIG d   1       9.917   6.010  -2.033  0.00  0.00    -0.248 OA
BRANCH   3   5
ATOM      5  C   LIG d   1      11.368   5.758  -0.194  0.00  0.00     0.149 C 
ATOM      6  H   LIG d   1      12.287   6.310  -0.387  0.00  0.00     0.071 H 
BRANCH   5   7
ATOM      7  C   LIG d   1      11.072   5.767   1.308  0.00  0.00    -0.029 C 
ATOM      8  H   LIG d   1      11.414   4.833   1.751  0.00  0.00     0.026 H 
ATOM      9  H   LIG d   1      11.593   6.603   1.775  0.00  0.00     0.026 H 
ATOM     10  H   LIG d   1       9.999   5.874   1.465  0.00  0.00     0.026 H 
ENDBRANCH   5   7
BRANCH   5  11
ATOM     11  O   LIG d   1      11.520   4.408  -0.641  0.00  0.00    -0.381 OA
ATOM     12  H   LIG d   1      12.436   4.101  -0.660  0.00  0.00     0.210 HD
ENDBRANCH   5  11
ENDBRANCH   3   5
ENDBRANCH   2   3
ENDBRANCH   1   2
BRANCH   1  13
ATOM     13  C   LIG d   1      10.760   8.747  -2.014  0.00  0.00    -0.025 C 
ATOM     14  H   LIG d   1      10.731   9.740  -2.464  0.00  0.00     0.027 H 
ATOM     15  H   LIG d   1      11.795   8.463  -1.827  0.00  0.00     0.027 H 
ATOM     16  H   LIG d   1      10.303   8.027  -2.692  0.00  0.00     0.027 H 
ENDBRANCH   1  13
BRANCH   1  17
ATOM     17  C   LIG d   1       8.769   9.680  -0.826  0.00  0.00    -0.025 C 
ATOM     18  H   LIG d   1       8.925  10.375  -1.653  0.00  0.00     0.027 H 
ATOM     19  H   LIG d   1       7.881   9.078  -1.020  0.00  0.00     0.027 H 
ATOM     20  H   LIG d   1       8.633  10.240   0.098  0.00  0.00     0.027 H 
ENDBRANCH   1  17
BRANCH   1  21
ATOM     21  C   LIG d   1      10.897   9.286   0.421  0.00  0.00    -0.025 C 
ATOM     22  H   LIG d   1      11.931   9.289   0.075  0.00  0.00     0.027 H 
ATOM     23  H   LIG d   1      10.601  10.300   0.689  0.00  0.00     0.027 H 
ATOM     24  H   LIG d   1      10.809   8.640   1.295  0.00  0.00     0.027 H 
ENDBRANCH   1  21
TORSDOF 8
ENDMDL
MODEL 10
REMARK VINA RESULT:      -3.2      9.866     10.929
REMARK  8 active torsions:
REMARK  status: ('A' for Active; 'I' for Inactive)
REMARK    1  A    between atoms: C_1  and  C_2 
REMARK    2  A    between atoms: C_2  and  C_4 
REMARK    3  A    between atoms: C_2  and  O_11 
REMARK    4  A    between atoms: C_4  and  O_6 
REMARK    5  A    between atoms: O_6  and  C_7 
REMARK    6  A    between atoms: C_7  and  C_8 
REMARK    7  A    between atoms: C_7  and  C_9 
REMARK    8  A    between atoms: C_7  and  C_10 
ROOT
ATOM      1  C   LIG d   1       9.982   8.454  -0.804  0.00  0.00     0.105 C 
ENDROOT
BRANCH   1   2
ATOM      2  O   LIG d   1       9.616   7.060  -0.634  0.00  0.00    -0.457 OA
BRANCH   2   3
ATOM      3  C   LIG d   1      10.557   6.240  -0.140  0.00  0.00     0.336 C 
ATOM      4  O   LIG d   1      10.630   6.053   1.052  0.00  0.00    -0.248 OA
BRANCH   3   5
ATOM      5  C   LIG d   1      11.526   5.557  -1.070  0.00  0.00     0.149 C 
ATOM      6  H   LIG d   1      11.401   5.952  -2.079  0.00  0.00     0.071 H 
BRANCH   5   7
ATOM      7  C   LIG d   1      12.958   5.815  -0.595  0.00  0.00    -0.029 C 
ATOM      8  H   LIG d   1      13.400   4.880  -0.254  0.00  0.00     0.026 H 
ATOM      9  H   LIG d   1      13.547   6.217  -1.419  0.00  0.00     0.026 H 
ATOM     10  H   LIG d   1      12.944   6.531   0.225  0.00  0.00     0.026 H 
ENDBRANCH   5   7
BRANCH   5  11
ATOM     11  O   LIG d   1      11.271   4.150  -1.075  0.00  0.00    -0.381 OA
ATOM     12  H   LIG d   1      10.398   3.907  -0.740  0.00  0.00     0.210 HD
ENDBRANCH   5  11
ENDBRANCH   3   5
ENDBRANCH   2   3
ENDBRANCH   1   2
BRANCH   1  13
ATOM     13  C   LIG d   1       8.727   9.325  -0.717  0.00  0.00    -0.025 C 
ATOM     14  H   LIG d   1       7.907   8.832  -1.239  0.00  0.00     0.027 H 
ATOM     15  H   LIG d   1       8.456   9.470   0.329  0.00  0.00     0.027 H 
ATOM     16  H   LIG d   1       8.923  10.292  -1.178  0.00  0.00     0.027 H 
ENDBRANCH   1  13
BRANCH   1  17
ATOM     17  C   LIG d   1      10.964   8.863   0.296  0.00  0.00    -0.025 C 
ATOM     18  H   LIG d   1      10.936   9.945   0.425  0.00  0.00     0.027 H 
ATOM     19  H   LIG d   1      10.684   8.378   1.232  0.00  0.00     0.027 H 
ATOM     20  H   LIG d   1      11.971   8.556   0.016  0.00  0.00     0.027 H 
ENDBRANCH   1  17
BRANCH   1  21
ATOM     21  C   LIG d   1      10.641   8.647  -2.171  0.00  0.00    -0.025 C 
ATOM     22  H   LIG d   1      10.973   7.682  -2.554  0.00  0.00     0.027 H 
ATOM     23  H   LIG d   1       9.922   9.083  -2.864  0.00  0.00     0.027 H 
ATOM     24  H   LIG d   1      11.498   9.313  -2.071  0.00  0.00     0.027 H 
ENDBRANCH   1  21
TORSDOF 8
ENDMDL
