MODEL 1
REMARK VINA RESULT:      -5.3      0.000      0.000
REMARK  6 active torsions:
REMARK  status: ('A' for Active; 'I' for Inactive)
REMARK    1  A    between atoms: C_1  and  C_2 
REMARK    2  A    between atoms: C_2  and  C_4 
REMARK    3  A    between atoms: C_2  and  O_20 
REMARK    4  A    between atoms: C_4  and  C_6 
REMARK    5  A    between atoms: C_4  and  O_19 
REMARK    6  A    between atoms: C_16  and  N_18 
ROOT
ATOM      1  C   LIG d   1       9.970   9.771  -2.420  0.00  0.00     0.091 A 
ATOM      2  C   LIG d   1      10.168  10.267  -1.134  0.00  0.00     0.054 A 
ATOM      3  N   LIG d   1      10.397   9.450  -0.126  0.00  0.00    -0.232 NA
ATOM      4  C   LIG d   1      10.441   8.135  -0.339  0.00  0.00     0.187 A 
ATOM      5  C   LIG d   1      10.239   7.637  -1.647  0.00  0.00     0.172 A 
ATOM      6  N   LIG d   1      10.009   8.474  -2.649  0.00  0.00    -0.239 NA
ATOM      7  C   LIG d   1      10.293   6.179  -1.850  0.00  0.00     0.280 A 
ATOM      8  O   LIG d   1      10.128   5.688  -2.951  0.00  0.00    -0.265 OA
ATOM      9  N   LIG d   1      10.533   5.406  -0.766  0.00  0.00    -0.293 N 
ATOM     10  H   LIG d   1      10.581   4.312  -0.871  0.00  0.00     0.172 HD
ATOM     11  C   LIG d   1      10.715   5.974   0.461  0.00  0.00     0.195 A 
ATOM     12  N   LIG d   1      10.667   7.267   0.664  0.00  0.00    -0.195 NA
ATOM     13  H   LIG d   1      10.132  11.333  -0.962  0.00  0.00     0.085 H 
ENDROOT
BRANCH   1  14
ATOM     14  C   LIG d   1       9.710  10.725  -3.557  0.00  0.00     0.124 C 
ATOM     15  H   LIG d   1      10.657  11.039  -4.019  0.00  0.00     0.069 H 
BRANCH  14  16
ATOM     16  C   LIG d   1       8.906  11.922  -3.045  0.00  0.00     0.084 C 
ATOM     17  H   LIG d   1       9.136  12.135  -1.990  0.00  0.00     0.062 H 
BRANCH  16  18
ATOM     18  C   LIG d   1       9.184  13.139  -3.930  0.00  0.00    -0.036 C 
ATOM     19  H   LIG d   1      10.187  13.530  -3.709  0.00  0.00     0.025 H 
ATOM     20  H   LIG d   1       8.434  13.918  -3.727  0.00  0.00     0.025 H 
ATOM     21  H   LIG d   1       9.130  12.843  -4.988  0.00  0.00     0.025 H 
ENDBRANCH  16  18
BRANCH  16  22
ATOM     22  O   LIG d   1       7.512  11.611  -3.085  0.00  0.00    -0.389 OA
ATOM     23  H   LIG d   1       7.180  10.564  -3.050  0.00  0.00     0.210 HD
ENDBRANCH  16  22
ENDBRANCH  14  16
BRANCH  14  24
ATOM     24  O   LIG d   1       8.969  10.055  -4.579  0.00  0.00    -0.383 OA
ATOM     25  H   LIG d   1       8.103   9.433  -4.311  0.00  0.00     0.210 HD
ENDBRANCH  14  24
ENDBRANCH   1  14
BRANCH  11  26
ATOM     26  N   LIG d   1      10.956   5.152   1.531  0.00  0.00    -0.329 N 
ATOM     27  H   LIG d   1      10.725   4.079   1.463  0.00  0.00     0.145 HD
ATOM     28  H   LIG d   1      11.380   5.566   2.458  0.00  0.00     0.145 HD
ENDBRANCH  11  26
TORSDOF 6
ENDMDL
MODEL 2
REMARK VINA RESULT:      -5.3     11.227     13.835
REMARK  6 active torsions:
REMARK  status: ('A' for Active; 'I' for Inactive)
REMARK    1  A    between atoms: C_1  and  C_2 
REMARK    2  A    between atoms: C_2  and  C_4 
REMARK    3  A    between atoms: C_2  and  O_20 
REMARK    4  A    between atoms: C_4  and  C_6 
REMARK    5  A    between atoms: C_4  and  O_19 
REMARK    6  A    between atoms: C_16  and  N_18 
ROOT
ATOM      1  C   LIG d   1       5.156  -3.405  -5.995  0.00  0.00     0.091 A 
ATOM      2  C   LIG d   1       5.431  -2.310  -6.808  0.00  0.00     0.054 A 
ATOM      3  N   LIG d   1       5.182  -1.084  -6.393  0.00  0.00    -0.232 NA
ATOM      4  C   LIG d   1       4.662  -0.890  -5.181  0.00  0.00     0.187 A 
ATOM      5  C   LIG d   1       4.384  -2.008  -4.359  0.00  0.00     0.172 A 
ATOM      6  N   LIG d   1       4.641  -3.234  -4.794  0.00  0.00    -0.239 NA
ATOM      7  C   LIG d   1       3.809  -1.762  -3.026  0.00  0.00     0.280 A 
ATOM      8  O   LIG d   1       3.549  -2.680  -2.271  0.00  0.00    -0.265 OA
ATOM      9  N   LIG d   1       3.582  -0.476  -2.671  0.00  0.00    -0.293 N 
ATOM     10  H   LIG d   1       3.154  -0.245  -1.685  0.00  0.00     0.172 HD
ATOM     11  C   LIG d   1       3.880   0.541  -3.530  0.00  0.00     0.195 A 
ATOM     12  N   LIG d   1       4.387   0.344  -4.722  0.00  0.00    -0.195 NA
ATOM     13  H   LIG d   1       5.852  -2.467  -7.791  0.00  0.00     0.085 H 
ENDROOT
BRANCH   1  14
ATOM     14  C   LIG d   1       5.449  -4.798  -6.492  0.00  0.00     0.124 C 
ATOM     15  H   LIG d   1       6.293  -4.783  -7.197  0.00  0.00     0.069 H 
BRANCH  14  16
ATOM     16  C   LIG d   1       4.189  -5.387  -7.128  0.00  0.00     0.084 C 
ATOM     17  H   LIG d   1       3.958  -4.895  -8.085  0.00  0.00     0.062 H 
BRANCH  16  18
ATOM     18  C   LIG d   1       4.368  -6.896  -7.311  0.00  0.00    -0.036 C 
ATOM     19  H   LIG d   1       4.764  -7.333  -6.383  0.00  0.00     0.025 H 
ATOM     20  H   LIG d   1       5.073  -7.084  -8.135  0.00  0.00     0.025 H 
ATOM     21  H   LIG d   1       3.397  -7.355  -7.548  0.00  0.00     0.025 H 
ENDBRANCH  16  18
BRANCH  16  22
ATOM     22  O   LIG d   1       3.066  -5.139  -6.281  0.00  0.00    -0.389 OA
ATOM     23  H   LIG d   1       2.140  -4.723  -6.701  0.00  0.00     0.210 HD
ENDBRANCH  16  22
ENDBRANCH  14  16
BRANCH  14  24
ATOM     24  O   LIG d   1       5.857  -5.618  -5.395  0.00  0.00    -0.383 OA
ATOM     25  H   LIG d   1       6.628  -6.388  -5.541  0.00  0.00     0.210 HD
ENDBRANCH  14  24
ENDBRANCH   1  14
BRANCH  11  26
ATOM     26  N   LIG d   1       3.634   1.828  -3.129  0.00  0.00    -0.329 N 
ATOM     27  H   LIG d   1       3.621   2.078  -2.058  0.00  0.00     0.145 HD
ATOM     28  H   LIG d   1       3.450   2.612  -3.879  0.00  0.00     0.145 HD
ENDBRANCH  11  26
TORSDOF 6
ENDMDL
MODEL 3
REMARK VINA RESULT:      -5.3     10.848     13.035
REMARK  6 active torsions:
REMARK  status: ('A' for Active; 'I' for Inactive)
REMARK    1  A    between atoms: C_1  and  C_2 
REMARK    2  A    between atoms: C_2  and  C_4 
REMARK    3  A    between atoms: C_2  and  O_20 
REMARK    4  A    between atoms: C_4  and  C_6 
REMARK    5  A    between atoms: C_4  and  O_19 
REMARK    6  A    between atoms: C_16  and  N_18 
ROOT
ATOM      1  C   LIG d   1       4.477  -0.731  -5.455  0.00  0.00     0.091 A 
ATOM      2  C   LIG d   1       4.654  -1.980  -6.041  0.00  0.00     0.054 A 
ATOM      3  N   LIG d   1       4.293  -2.195  -7.290  0.00  0.00    -0.232 NA
ATOM      4  C   LIG d   1       3.754  -1.204  -8.001  0.00  0.00     0.187 A 
ATOM      5  C   LIG d   1       3.576   0.064  -7.399  0.00  0.00     0.172 A 
ATOM      6  N   LIG d   1       3.945   0.261  -6.141  0.00  0.00    -0.239 NA
ATOM      7  C   LIG d   1       2.977   1.138  -8.209  0.00  0.00     0.280 A 
ATOM      8  O   LIG d   1       2.799   2.251  -7.750  0.00  0.00    -0.265 OA
ATOM      9  N   LIG d   1       2.633   0.841  -9.484  0.00  0.00    -0.293 N 
ATOM     10  H   LIG d   1       2.182   1.613 -10.126  0.00  0.00     0.172 HD
ATOM     11  C   LIG d   1       2.840  -0.412  -9.982  0.00  0.00     0.195 A 
ATOM     12  N   LIG d   1       3.367  -1.383  -9.277  0.00  0.00    -0.195 NA
ATOM     13  H   LIG d   1       5.091  -2.783  -5.465  0.00  0.00     0.085 H 
ENDROOT
BRANCH   1  14
ATOM     14  C   LIG d   1       4.897  -0.510  -4.024  0.00  0.00     0.124 C 
ATOM     15  H   LIG d   1       5.614  -1.283  -3.711  0.00  0.00     0.069 H 
BRANCH  14  16
ATOM     16  C   LIG d   1       3.658  -0.490  -3.126  0.00  0.00     0.084 C 
ATOM     17  H   LIG d   1       3.686  -1.308  -2.390  0.00  0.00     0.062 H 
BRANCH  16  18
ATOM     18  C   LIG d   1       3.549   0.871  -2.437  0.00  0.00    -0.036 C 
ATOM     19  H   LIG d   1       4.476   1.076  -1.883  0.00  0.00     0.025 H 
ATOM     20  H   LIG d   1       2.699   0.862  -1.740  0.00  0.00     0.025 H 
ATOM     21  H   LIG d   1       3.394   1.654  -3.194  0.00  0.00     0.025 H 
ENDBRANCH  16  18
BRANCH  16  22
ATOM     22  O   LIG d   1       2.492  -0.718  -3.919  0.00  0.00    -0.389 OA
ATOM     23  H   LIG d   1       1.496  -0.702  -3.453  0.00  0.00     0.210 HD
ENDBRANCH  16  22
ENDBRANCH  14  16
BRANCH  14  24
ATOM     24  O   LIG d   1       5.582   0.740  -3.917  0.00  0.00    -0.383 OA
ATOM     25  H   LIG d   1       5.329   1.438  -3.107  0.00  0.00     0.210 HD
ENDBRANCH  14  24
ENDBRANCH   1  14
BRANCH  11  26
ATOM     26  N   LIG d   1       2.477  -0.668 -11.278  0.00  0.00    -0.329 N 
ATOM     27  H   LIG d   1       1.498  -0.332 -11.651  0.00  0.00     0.145 HD
ATOM     28  H   LIG d   1       3.164  -1.208 -11.945  0.00  0.00     0.145 HD
ENDBRANCH  11  26
TORSDOF 6
ENDMDL
MODEL 4
REMARK VINA RESULT:      -5.2     11.344     13.451
REMARK  6 active torsions:
REMARK  status: ('A' for Active; 'I' for Inactive)
REMARK    1  A    between atoms: C_1  and  C_2 
REMARK    2  A    between atoms: C_2  and  C_4 
REMARK    3  A    between atoms: C_2  and  O_20 
REMARK    4  A    between atoms: C_4  and  C_6 
REMARK    5  A    between atoms: C_4  and  O_19 
REMARK    6  A    between atoms: C_16  and  N_18 
ROOT
ATOM      1  C   LIG d   1       4.664  -2.389  -3.438  0.00  0.00     0.091 A 
ATOM      2  C   LIG d   1       5.981  -1.947  -3.527  0.00  0.00     0.054 A 
ATOM      3  N   LIG d   1       6.810  -2.477  -4.403  0.00  0.00    -0.232 NA
ATOM      4  C   LIG d   1       6.383  -3.445  -5.215  0.00  0.00     0.187 A 
ATOM      5  C   LIG d   1       5.044  -3.889  -5.120  0.00  0.00     0.172 A 
ATOM      6  N   LIG d   1       4.224  -3.345  -4.231  0.00  0.00    -0.239 NA
ATOM      7  C   LIG d   1       4.602  -4.960  -6.029  0.00  0.00     0.280 A 
ATOM      8  O   LIG d   1       3.463  -5.386  -5.998  0.00  0.00    -0.265 OA
ATOM      9  N   LIG d   1       5.512  -5.453  -6.901  0.00  0.00    -0.293 N 
ATOM     10  H   LIG d   1       5.226  -6.254  -7.600  0.00  0.00     0.172 HD
ATOM     11  C   LIG d   1       6.785  -4.964  -6.923  0.00  0.00     0.195 A 
ATOM     12  N   LIG d   1       7.200  -4.015  -6.119  0.00  0.00    -0.195 NA
ATOM     13  H   LIG d   1       6.326  -1.163  -2.869  0.00  0.00     0.085 H 
ENDROOT
BRANCH   1  14
ATOM     14  C   LIG d   1       3.734  -1.768  -2.427  0.00  0.00     0.124 C 
ATOM     15  H   LIG d   1       3.119  -2.543  -1.946  0.00  0.00     0.069 H 
BRANCH  14  16
ATOM     16  C   LIG d   1       2.872  -0.706  -3.112  0.00  0.00     0.084 C 
ATOM     17  H   LIG d   1       1.808  -0.834  -2.863  0.00  0.00     0.062 H 
BRANCH  16  18
ATOM     18  C   LIG d   1       3.369   0.686  -2.718  0.00  0.00    -0.036 C 
ATOM     19  H   LIG d   1       4.063   1.058  -3.486  0.00  0.00     0.025 H 
ATOM     20  H   LIG d   1       3.890   0.629  -1.751  0.00  0.00     0.025 H 
ATOM     21  H   LIG d   1       2.513   1.372  -2.635  0.00  0.00     0.025 H 
ENDBRANCH  16  18
BRANCH  16  22
ATOM     22  O   LIG d   1       2.962  -0.861  -4.529  0.00  0.00    -0.389 OA
ATOM     23  H   LIG d   1       2.069  -0.724  -5.157  0.00  0.00     0.210 HD
ENDBRANCH  16  22
ENDBRANCH  14  16
BRANCH  14  24
ATOM     24  O   LIG d   1       4.500  -1.161  -1.385  0.00  0.00    -0.383 OA
ATOM     25  H   LIG d   1       4.016  -0.474  -0.676  0.00  0.00     0.210 HD
ENDBRANCH  14  24
ENDBRANCH   1  14
BRANCH  11  26
ATOM     26  N   LIG d   1       7.673  -5.492  -7.823  0.00  0.00    -0.329 N 
ATOM     27  H   LIG d   1       8.311  -6.340  -7.533  0.00  0.00     0.145 HD
ATOM     28  H   LIG d   1       7.747  -5.069  -8.836  0.00  0.00     0.145 HD
ENDBRANCH  11  26
TORSDOF 6
ENDMDL
MODEL 5
REMARK VINA RESULT:      -5.1      1.835      2.764
REMARK  6 active torsions:
REMARK  status: ('A' for Active; 'I' for Inactive)
REMARK    1  A    between atoms: C_1  and  C_2 
REMARK    2  A    between atoms: C_2  and  C_4 
REMARK    3  A    between atoms: C_2  and  O_20 
REMARK    4  A    between atoms: C_4  and  C_6 
REMARK    5  A    between atoms: C_4  and  O_19 
REMARK    6  A    between atoms: C_16  and  N_18 
ROOT
ATOM      1  C   LIG d   1      10.147   8.919  -3.482  0.00  0.00     0.091 A 
ATOM      2  C   LIG d   1      10.367   8.190  -4.647  0.00  0.00     0.054 A 
ATOM      3  N   LIG d   1      10.590   6.893  -4.596  0.00  0.00    -0.232 NA
ATOM      4  C   LIG d   1      10.603   6.270  -3.417  0.00  0.00     0.187 A 
ATOM      5  C   LIG d   1      10.378   7.016  -2.237  0.00  0.00     0.172 A 
ATOM      6  N   LIG d   1      10.157   8.322  -2.307  0.00  0.00    -0.239 NA
ATOM      7  C   LIG d   1      10.400   6.300  -0.950  0.00  0.00     0.280 A 
ATOM      8  O   LIG d   1      10.213   6.884   0.101  0.00  0.00    -0.265 OA
ATOM      9  N   LIG d   1      10.634   4.968  -0.980  0.00  0.00    -0.293 N 
ATOM     10  H   LIG d   1      10.660   4.393  -0.043  0.00  0.00     0.172 HD
ATOM     11  C   LIG d   1      10.842   4.330  -2.168  0.00  0.00     0.195 A 
ATOM     12  N   LIG d   1      10.832   4.948  -3.323  0.00  0.00    -0.195 NA
ATOM     13  H   LIG d   1      10.356   8.695  -5.602  0.00  0.00     0.085 H 
ENDROOT
BRANCH   1  14
ATOM     14  C   LIG d   1       9.894  10.403  -3.564  0.00  0.00     0.124 C 
ATOM     15  H   LIG d   1      10.755  10.913  -4.020  0.00  0.00     0.069 H 
BRANCH  14  16
ATOM     16  C   LIG d   1       9.589  10.946  -2.166  0.00  0.00     0.084 C 
ATOM     17  H   LIG d   1      10.180  10.424  -1.398  0.00  0.00     0.062 H 
BRANCH  16  18
ATOM     18  C   LIG d   1       9.851  12.453  -2.137  0.00  0.00    -0.036 C 
ATOM     19  H   LIG d   1       8.896  12.988  -2.026  0.00  0.00     0.025 H 
ATOM     20  H   LIG d   1      10.336  12.759  -3.076  0.00  0.00     0.025 H 
ATOM     21  H   LIG d   1      10.508  12.695  -1.289  0.00  0.00     0.025 H 
ENDBRANCH  16  18
BRANCH  16  22
ATOM     22  O   LIG d   1       8.221  10.693  -1.845  0.00  0.00    -0.389 OA
ATOM     23  H   LIG d   1       7.862   9.659  -1.742  0.00  0.00     0.210 HD
ENDBRANCH  16  22
ENDBRANCH  14  16
BRANCH  14  24
ATOM     24  O   LIG d   1       8.781  10.649  -4.424  0.00  0.00    -0.383 OA
ATOM     25  H   LIG d   1       8.898  11.300  -5.303  0.00  0.00     0.210 HD
ENDBRANCH  14  24
ENDBRANCH   1  14
BRANCH  11  26
ATOM     26  N   LIG d   1      11.076   2.979  -2.151  0.00  0.00    -0.329 N 
ATOM     27  H   LIG d   1      11.063   2.407  -3.090  0.00  0.00     0.145 HD
ATOM     28  H   LIG d   1      11.278   2.468  -1.198  0.00  0.00     0.145 HD
ENDBRANCH  11  26
TORSDOF 6
ENDMDL
MODEL 6
REMARK VINA RESULT:      -5.1      1.972      2.947
REMARK  6 active torsions:
REMARK  status: ('A' for Active; 'I' for Inactive)
REMARK    1  A    between atoms: C_1  and  C_2 
REMARK    2  A    between atoms: C_2  and  C_4 
REMARK    3  A    between atoms: C_2  and  O_20 
REMARK    4  A    between atoms: C_4  and  C_6 
REMARK    5  A    between atoms: C_4  and  O_19 
REMARK    6  A    between atoms: C_16  and  N_18 
ROOT
ATOM      1  C   LIG d   1       9.990   9.139  -2.290  0.00  0.00     0.091 A 
ATOM      2  C   LIG d   1      10.113   8.691  -3.602  0.00  0.00     0.054 A 
ATOM      3  N   LIG d   1      10.392   7.428  -3.857  0.00  0.00    -0.232 NA
ATOM      4  C   LIG d   1      10.557   6.571  -2.849  0.00  0.00     0.187 A 
ATOM      5  C   LIG d   1      10.430   7.033  -1.519  0.00  0.00     0.172 A 
ATOM      6  N   LIG d   1      10.150   8.307  -1.281  0.00  0.00    -0.239 NA
ATOM      7  C   LIG d   1      10.618   6.063  -0.427  0.00  0.00     0.280 A 
ATOM      8  O   LIG d   1      10.521   6.397   0.739  0.00  0.00    -0.265 OA
ATOM      9  N   LIG d   1      10.901   4.785  -0.769  0.00  0.00    -0.293 N 
ATOM     10  H   LIG d   1      11.050   4.026   0.013  0.00  0.00     0.172 HD
ATOM     11  C   LIG d   1      11.006   4.428  -2.082  0.00  0.00     0.195 A 
ATOM     12  N   LIG d   1      10.848   5.276  -3.068  0.00  0.00    -0.195 NA
ATOM     13  H   LIG d   1       9.981   9.386  -4.418  0.00  0.00     0.085 H 
ENDROOT
BRANCH   1  14
ATOM     14  C   LIG d   1       9.671  10.588  -2.022  0.00  0.00     0.124 C 
ATOM     15  H   LIG d   1      10.130  11.230  -2.788  0.00  0.00     0.069 H 
BRANCH  14  16
ATOM     16  C   LIG d   1      10.141  10.961  -0.614  0.00  0.00     0.084 C 
ATOM     17  H   LIG d   1      10.969  10.315  -0.286  0.00  0.00     0.062 H 
BRANCH  16  18
ATOM     18  C   LIG d   1      10.546  12.436  -0.587  0.00  0.00    -0.036 C 
ATOM     19  H   LIG d   1      10.145  12.909   0.321  0.00  0.00     0.025 H 
ATOM     20  H   LIG d   1      10.140  12.944  -1.475  0.00  0.00     0.025 H 
ATOM     21  H   LIG d   1      11.643  12.516  -0.588  0.00  0.00     0.025 H 
ENDBRANCH  16  18
BRANCH  16  22
ATOM     22  O   LIG d   1       9.081  10.740   0.316  0.00  0.00    -0.389 OA
ATOM     23  H   LIG d   1       8.486   9.817   0.265  0.00  0.00     0.210 HD
ENDBRANCH  16  22
ENDBRANCH  14  16
BRANCH  14  24
ATOM     24  O   LIG d   1       8.260  10.791  -2.122  0.00  0.00    -0.383 OA
ATOM     25  H   LIG d   1       7.868  11.712  -2.578  0.00  0.00     0.210 HD
ENDBRANCH  14  24
ENDBRANCH   1  14
BRANCH  11  26
ATOM     26  N   LIG d   1      11.295   3.122  -2.383  0.00  0.00    -0.329 N 
ATOM     27  H   LIG d   1      12.018   2.564  -1.770  0.00  0.00     0.145 HD
ATOM     28  H   LIG d   1      10.803   2.633  -3.236  0.00  0.00     0.145 HD
ENDBRANCH  11  26
TORSDOF 6
ENDMDL
MODEL 7
REMARK VINA RESULT:      -5.0     10.072     11.385
REMARK  6 active torsions:
REMARK  status: ('A' for Active; 'I' for Inactive)
REMARK    1  A    between atoms: C_1  and  C_2 
REMARK    2  A    between atoms: C_2  and  C_4 
REMARK    3  A    between atoms: C_2  and  O_20 
REMARK    4  A    between atoms: C_4  and  C_6 
REMARK    5  A    between atoms: C_4  and  O_19 
REMARK    6  A    between atoms: C_16  and  N_18 
ROOT
ATOM      1  C   LIG d   1       4.249  -0.536  -6.529  0.00  0.00     0.091 A 
ATOM      2  C   LIG d   1       4.472  -1.839  -6.964  0.00  0.00     0.054 A 
ATOM      3  N   LIG d   1       5.378  -2.598  -6.382  0.00  0.00    -0.232 NA
ATOM      4  C   LIG d   1       6.089  -2.113  -5.363  0.00  0.00     0.187 A 
ATOM      5  C   LIG d   1       5.858  -0.788  -4.925  0.00  0.00     0.172 A 
ATOM      6  N   LIG d   1       4.942  -0.039  -5.524  0.00  0.00    -0.239 NA
ATOM      7  C   LIG d   1       6.660  -0.281  -3.798  0.00  0.00     0.280 A 
ATOM      8  O   LIG d   1       6.509   0.849  -3.374  0.00  0.00    -0.265 OA
ATOM      9  N   LIG d   1       7.570  -1.120  -3.252  0.00  0.00    -0.293 N 
ATOM     10  H   LIG d   1       8.191  -0.784  -2.409  0.00  0.00     0.172 HD
ATOM     11  C   LIG d   1       7.726  -2.384  -3.741  0.00  0.00     0.195 A 
ATOM     12  N   LIG d   1       7.027  -2.853  -4.745  0.00  0.00    -0.195 NA
ATOM     13  H   LIG d   1       3.896  -2.231  -7.790  0.00  0.00     0.085 H 
ENDROOT
BRANCH   1  14
ATOM     14  C   LIG d   1       3.207   0.313  -7.211  0.00  0.00     0.124 C 
ATOM     15  H   LIG d   1       2.320  -0.290  -7.452  0.00  0.00     0.069 H 
BRANCH  14  16
ATOM     16  C   LIG d   1       3.812   0.955  -8.461  0.00  0.00     0.084 C 
ATOM     17  H   LIG d   1       3.933   0.218  -9.270  0.00  0.00     0.062 H 
BRANCH  16  18
ATOM     18  C   LIG d   1       2.936   2.127  -8.907  0.00  0.00    -0.036 C 
ATOM     19  H   LIG d   1       2.272   2.423  -8.082  0.00  0.00     0.025 H 
ATOM     20  H   LIG d   1       2.331   1.823  -9.774  0.00  0.00     0.025 H 
ATOM     21  H   LIG d   1       3.575   2.978  -9.186  0.00  0.00     0.025 H 
ENDBRANCH  16  18
BRANCH  16  22
ATOM     22  O   LIG d   1       5.127   1.428  -8.165  0.00  0.00    -0.389 OA
ATOM     23  H   LIG d   1       5.278   2.179  -7.376  0.00  0.00     0.210 HD
ENDBRANCH  16  22
ENDBRANCH  14  16
BRANCH  14  24
ATOM     24  O   LIG d   1       2.766   1.336  -6.316  0.00  0.00    -0.383 OA
ATOM     25  H   LIG d   1       2.968   1.247  -5.239  0.00  0.00     0.210 HD
ENDBRANCH  14  24
ENDBRANCH   1  14
BRANCH  11  26
ATOM     26  N   LIG d   1       8.660  -3.199  -3.157  0.00  0.00    -0.329 N 
ATOM     27  H   LIG d   1       9.597  -3.428  -3.685  0.00  0.00     0.145 HD
ATOM     28  H   LIG d   1       8.472  -3.625  -2.160  0.00  0.00     0.145 HD
ENDBRANCH  11  26
TORSDOF 6
ENDMDL
MODEL 8
REMARK VINA RESULT:      -5.0      4.004      6.032
REMARK  6 active torsions:
REMARK  status: ('A' for Active; 'I' for Inactive)
REMARK    1  A    between atoms: C_1  and  C_2 
REMARK    2  A    between atoms: C_2  and  C_4 
REMARK    3  A    between atoms: C_2  and  O_20 
REMARK    4  A    between atoms: C_4  and  C_6 
REMARK    5  A    between atoms: C_4  and  O_19 
REMARK    6  A    between atoms: C_16  and  N_18 
ROOT
ATOM      1  C   LIG d   1       9.235  11.251  -4.496  0.00  0.00     0.091 A 
ATOM      2  C   LIG d   1       9.617  12.255  -5.380  0.00  0.00     0.054 A 
ATOM      3  N   LIG d   1       9.982  11.964  -6.612  0.00  0.00    -0.232 NA
ATOM      4  C   LIG d   1       9.985  10.694  -7.017  0.00  0.00     0.187 A 
ATOM      5  C   LIG d   1       9.596   9.678  -6.114  0.00  0.00     0.172 A 
ATOM      6  N   LIG d   1       9.232   9.990  -4.877  0.00  0.00    -0.239 NA
ATOM      7  C   LIG d   1       9.610   8.284  -6.590  0.00  0.00     0.280 A 
ATOM      8  O   LIG d   1       9.286   7.364  -5.863  0.00  0.00    -0.265 OA
ATOM      9  N   LIG d   1       9.996   8.065  -7.869  0.00  0.00    -0.293 N 
ATOM     10  H   LIG d   1      10.022   7.040  -8.268  0.00  0.00     0.172 HD
ATOM     11  C   LIG d   1      10.357   9.108  -8.670  0.00  0.00     0.195 A 
ATOM     12  N   LIG d   1      10.356  10.354  -8.265  0.00  0.00    -0.195 NA
ATOM     13  H   LIG d   1       9.615  13.284  -5.051  0.00  0.00     0.085 H 
ENDROOT
BRANCH   1  14
ATOM     14  C   LIG d   1       8.822  11.608  -3.091  0.00  0.00     0.124 C 
ATOM     15  H   LIG d   1       9.231  12.589  -2.809  0.00  0.00     0.069 H 
BRANCH  14  16
ATOM     16  C   LIG d   1       9.276  10.507  -2.131  0.00  0.00     0.084 C 
ATOM     17  H   LIG d   1       9.613   9.614  -2.678  0.00  0.00     0.062 H 
BRANCH  16  18
ATOM     18  C   LIG d   1      10.382  11.048  -1.222  0.00  0.00    -0.036 C 
ATOM     19  H   LIG d   1      10.102  12.048  -0.861  0.00  0.00     0.025 H 
ATOM     20  H   LIG d   1      11.323  11.112  -1.788  0.00  0.00     0.025 H 
ATOM     21  H   LIG d   1      10.515  10.372  -0.364  0.00  0.00     0.025 H 
ENDBRANCH  16  18
BRANCH  16  22
ATOM     22  O   LIG d   1       8.169  10.083  -1.335  0.00  0.00    -0.389 OA
ATOM     23  H   LIG d   1       7.233  10.660  -1.340  0.00  0.00     0.210 HD
ENDBRANCH  16  22
ENDBRANCH  14  16
BRANCH  14  24
ATOM     24  O   LIG d   1       7.400  11.735  -3.031  0.00  0.00    -0.383 OA
ATOM     25  H   LIG d   1       6.882  11.669  -2.063  0.00  0.00     0.210 HD
ENDBRANCH  14  24
ENDBRANCH   1  14
BRANCH  11  26
ATOM     26  N   LIG d   1      10.741   8.840  -9.958  0.00  0.00    -0.329 N 
ATOM     27  H   LIG d   1      10.515   9.558 -10.760  0.00  0.00     0.145 HD
ATOM     28  H   LIG d   1      11.277   7.908 -10.189  0.00  0.00     0.145 HD
ENDBRANCH  11  26
TORSDOF 6
ENDMDL
MODEL 9
REMARK VINA RESULT:      -4.8      3.195      6.046
REMARK  6 active torsions:
REMARK  status: ('A' for Active; 'I' for Inactive)
REMARK    1  A    between atoms: C_1  and  C_2 
REMARK    2  A    between atoms: C_2  and  C_4 
REMARK    3  A    between atoms: C_2  and  O_20 
REMARK    4  A    between atoms: C_4  and  C_6 
REMARK    5  A    between atoms: C_4  and  O_19 
REMARK    6  A    between atoms: C_16  and  N_18 
ROOT
ATOM      1  C   LIG d   1       9.657  10.612  -2.264  0.00  0.00     0.091 A 
ATOM      2  C   LIG d   1       9.707  12.002  -2.235  0.00  0.00     0.054 A 
ATOM      3  N   LIG d   1       9.712  12.699  -3.354  0.00  0.00    -0.232 NA
ATOM      4  C   LIG d   1       9.669  12.065  -4.526  0.00  0.00     0.187 A 
ATOM      5  C   LIG d   1       9.619  10.652  -4.549  0.00  0.00     0.172 A 
ATOM      6  N   LIG d   1       9.615   9.968  -3.413  0.00  0.00    -0.239 NA
ATOM      7  C   LIG d   1       9.573   9.980  -5.859  0.00  0.00     0.280 A 
ATOM      8  O   LIG d   1       9.528   8.768  -5.947  0.00  0.00    -0.265 OA
ATOM      9  N   LIG d   1       9.581  10.763  -6.962  0.00  0.00    -0.293 N 
ATOM     10  H   LIG d   1       9.548  10.305  -7.962  0.00  0.00     0.172 HD
ATOM     11  C   LIG d   1       9.632  12.121  -6.846  0.00  0.00     0.195 A 
ATOM     12  N   LIG d   1       9.679  12.738  -5.691  0.00  0.00    -0.195 NA
ATOM     13  H   LIG d   1       9.742  12.515  -1.285  0.00  0.00     0.085 H 
ENDROOT
BRANCH   1  14
ATOM     14  C   LIG d   1       9.652   9.837  -0.971  0.00  0.00     0.124 C 
ATOM     15  H   LIG d   1      10.606   9.970  -0.441  0.00  0.00     0.069 H 
BRANCH  14  16
ATOM     16  C   LIG d   1       9.368   8.362  -1.263  0.00  0.00     0.084 C 
ATOM     17  H   LIG d   1       9.465   8.141  -2.337  0.00  0.00     0.062 H 
BRANCH  16  18
ATOM     18  C   LIG d   1      10.308   7.487  -0.431  0.00  0.00    -0.036 C 
ATOM     19  H   LIG d   1       9.723   6.723   0.101  0.00  0.00     0.025 H 
ATOM     20  H   LIG d   1      10.841   8.114   0.299  0.00  0.00     0.025 H 
ATOM     21  H   LIG d   1      11.035   6.997  -1.094  0.00  0.00     0.025 H 
ENDBRANCH  16  18
BRANCH  16  22
ATOM     22  O   LIG d   1       8.013   8.062  -0.924  0.00  0.00    -0.389 OA
ATOM     23  H   LIG d   1       7.213   8.776  -1.168  0.00  0.00     0.210 HD
ENDBRANCH  16  22
ENDBRANCH  14  16
BRANCH  14  24
ATOM     24  O   LIG d   1       8.638  10.356  -0.109  0.00  0.00    -0.383 OA
ATOM     25  H   LIG d   1       7.634  10.567  -0.506  0.00  0.00     0.210 HD
ENDBRANCH  14  24
ENDBRANCH   1  14
BRANCH  11  26
ATOM     26  N   LIG d   1       9.639  12.876  -7.990  0.00  0.00    -0.329 N 
ATOM     27  H   LIG d   1      10.506  13.510  -8.226  0.00  0.00     0.145 HD
ATOM     28  H   LIG d   1       8.778  12.846  -8.674  0.00  0.00     0.145 HD
ENDBRANCH  11  26
TORSDOF 6
ENDMDL
