MODEL 1
REMARK VINA RESULT:      -7.1      0.000      0.000
REMARK  9 active torsions:
REMARK  status: ('A' for Active; 'I' for Inactive)
REMARK    1  A    between atoms: C_1  and  O_2 
REMARK    2  A    between atoms: O_2  and  C_3 
REMARK    3  A    between atoms: C_8  and  C_9 
REMARK    4  A    between atoms: N_21  and  C_24 
REMARK    5  A    between atoms: C_24  and  C_25 
REMARK    6  A    between atoms: C_28  and  O_33 
REMARK    7  A    between atoms: C_29  and  O_31 
REMARK    8  A    between atoms: O_31  and  C_32 
REMARK    9  A    between atoms: O_33  and  C_34 
ROOT
ATOM      1  C   LIG d   1       6.701   0.293  -3.977  0.00  0.00     0.068 A 
ATOM      2  C   LIG d   1       6.967   1.570  -3.601  0.00  0.00     0.104 A 
ATOM      3  O   LIG d   1       8.070   2.226  -3.946  0.00  0.00    -0.462 OA
ATOM      4  C   LIG d   1       9.026   1.665  -4.711  0.00  0.00     0.146 A 
ATOM      5  C   LIG d   1       8.896   0.347  -5.180  0.00  0.00     0.065 A 
ATOM      6  C   LIG d   1       7.685  -0.411  -4.817  0.00  0.00     0.200 A 
ATOM      7  O   LIG d   1       7.509  -1.558  -5.190  0.00  0.00    -0.286 OA
ATOM      8  C   LIG d   1       9.894  -0.222  -5.971  0.00  0.00    -0.044 A 
ATOM      9  C   LIG d   1      11.004   0.506  -6.290  0.00  0.00    -0.019 A 
ATOM     10  C   LIG d   1      11.145   1.816  -5.831  0.00  0.00     0.130 A 
ATOM     11  C   LIG d   1      10.163   2.394  -5.047  0.00  0.00     0.051 A 
ATOM     12  C   LIG d   1      10.301   3.811  -4.552  0.00  0.00     0.034 C 
ATOM     13  N   LIG d   1      11.703   4.237  -4.662  0.00  0.00    -0.262 N 
ATOM     14  C   LIG d   1      12.223   3.931  -6.005  0.00  0.00     0.144 C 
ATOM     15  O   LIG d   1      12.265   2.511  -6.165  0.00  0.00    -0.476 OA
ATOM     16  H   LIG d   1       6.241   2.081  -2.986  0.00  0.00     0.104 H 
ATOM     17  H   LIG d   1       9.790  -1.235  -6.329  0.00  0.00     0.063 H 
ATOM     18  H   LIG d   1      11.777   0.065  -6.902  0.00  0.00     0.065 H 
ATOM     19  H   LIG d   1       9.668   4.475  -5.161  0.00  0.00     0.048 H 
ATOM     20  H   LIG d   1       9.984   3.865  -3.501  0.00  0.00     0.048 H 
ATOM     21  H   LIG d   1      11.560   4.374  -6.764  0.00  0.00     0.087 H 
ATOM     22  H   LIG d   1      13.234   4.351  -6.112  0.00  0.00     0.087 H 
ENDROOT
BRANCH  13  23
ATOM     23  C   LIG d   1      11.845   5.666  -4.356  0.00  0.00     0.028 C 
ATOM     24  H   LIG d   1      12.881   5.982  -4.549  0.00  0.00     0.048 H 
ATOM     25  H   LIG d   1      11.159   6.247  -4.990  0.00  0.00     0.048 H 
BRANCH  23  26
ATOM     26  C   LIG d   1      11.511   5.905  -2.905  0.00  0.00    -0.030 A 
ATOM     27  C   LIG d   1      10.422   6.687  -2.568  0.00  0.00    -0.012 A 
ATOM     28  C   LIG d   1      10.114   6.908  -1.235  0.00  0.00     0.162 A 
ATOM     29  H   LIG d   1       9.811   7.126  -3.343  0.00  0.00     0.066 H 
ATOM     30  C   LIG d   1      10.902   6.341  -0.239  0.00  0.00     0.162 A 
ATOM     31  C   LIG d   1      11.993   5.557  -0.584  0.00  0.00    -0.016 A 
ATOM     32  C   LIG d   1      12.295   5.342  -1.916  0.00  0.00    -0.054 A 
ATOM     33  H   LIG d   1      12.606   5.116   0.188  0.00  0.00     0.066 H 
ATOM     34  H   LIG d   1      13.142   4.727  -2.183  0.00  0.00     0.062 H 
BRANCH  28  35
ATOM     35  O   LIG d   1       9.043   7.677  -0.902  0.00  0.00    -0.491 OA
BRANCH  35  36
ATOM     36  C   LIG d   1       9.233   9.093  -0.915  0.00  0.00     0.079 C 
ATOM     37  H   LIG d   1       8.258   9.593  -1.011  0.00  0.00     0.066 H 
ATOM     38  H   LIG d   1       9.873   9.370  -1.766  0.00  0.00     0.066 H 
ATOM     39  H   LIG d   1       9.715   9.408   0.023  0.00  0.00     0.066 H 
ENDBRANCH  35  36
ENDBRANCH  28  35
BRANCH  30  40
ATOM     40  O   LIG d   1      10.604   6.554   1.071  0.00  0.00    -0.491 OA
BRANCH  40  41
ATOM     41  C   LIG d   1      10.916   5.503   1.987  0.00  0.00     0.079 C 
ATOM     42  H   LIG d   1      10.159   5.476   2.785  0.00  0.00     0.066 H 
ATOM     43  H   LIG d   1      11.908   5.683   2.427  0.00  0.00     0.066 H 
ATOM     44  H   LIG d   1      10.921   4.541   1.454  0.00  0.00     0.066 H 
ENDBRANCH  40  41
ENDBRANCH  30  40
ENDBRANCH  23  26
ENDBRANCH  13  23
BRANCH   1  45
ATOM     45  C   LIG d   1       5.447  -0.376  -3.554  0.00  0.00     0.030 A 
ATOM     46  C   LIG d   1       4.312  -0.323  -4.369  0.00  0.00     0.128 A 
ATOM     47  C   LIG d   1       3.147  -0.954  -3.968  0.00  0.00    -0.019 A 
ATOM     48  C   LIG d   1       3.102  -1.624  -2.760  0.00  0.00    -0.058 A 
ATOM     49  H   LIG d   1       2.270  -0.918  -4.598  0.00  0.00     0.065 H 
ATOM     50  C   LIG d   1       4.222  -1.674  -1.948  0.00  0.00    -0.061 A 
ATOM     51  H   LIG d   1       2.190  -2.112  -2.449  0.00  0.00     0.062 H 
ATOM     52  C   LIG d   1       5.392  -1.054  -2.338  0.00  0.00    -0.050 A 
ATOM     53  H   LIG d   1       4.180  -2.200  -1.005  0.00  0.00     0.062 H 
ATOM     54  H   LIG d   1       6.262  -1.095  -1.701  0.00  0.00     0.062 H 
BRANCH  46  55
ATOM     55  O   LIG d   1       4.356   0.341  -5.554  0.00  0.00    -0.494 OA
BRANCH  55  56
ATOM     56  C   LIG d   1       3.950  -0.382  -6.719  0.00  0.00     0.079 C 
ATOM     57  H   LIG d   1       4.824  -0.566  -7.359  0.00  0.00     0.066 H 
ATOM     58  H   LIG d   1       3.207   0.208  -7.274  0.00  0.00     0.066 H 
ATOM     59  H   LIG d   1       3.506  -1.342  -6.417  0.00  0.00     0.066 H 
ENDBRANCH  55  56
ENDBRANCH  46  55
ENDBRANCH   1  45
TORSDOF 9
ENDMDL
MODEL 2
REMARK VINA RESULT:      -6.7      6.861     13.641
REMARK  9 active torsions:
REMARK  status: ('A' for Active; 'I' for Inactive)
REMARK    1  A    between atoms: C_1  and  O_2 
REMARK    2  A    between atoms: O_2  and  C_3 
REMARK    3  A    between atoms: C_8  and  C_9 
REMARK    4  A    between atoms: N_21  and  C_24 
REMARK    5  A    between atoms: C_24  and  C_25 
REMARK    6  A    between atoms: C_28  and  O_33 
REMARK    7  A    between atoms: C_29  and  O_31 
REMARK    8  A    between atoms: O_31  and  C_32 
REMARK    9  A    between atoms: O_33  and  C_34 
ROOT
ATOM      1  C   LIG d   1       4.604  -0.980  -6.643  0.00  0.00     0.068 A 
ATOM      2  C   LIG d   1       4.623  -2.309  -6.917  0.00  0.00     0.104 A 
ATOM      3  O   LIG d   1       3.924  -2.870  -7.900  0.00  0.00    -0.462 OA
ATOM      4  C   LIG d   1       3.131  -2.150  -8.714  0.00  0.00     0.146 A 
ATOM      5  C   LIG d   1       3.004  -0.760  -8.557  0.00  0.00     0.065 A 
ATOM      6  C   LIG d   1       3.765  -0.103  -7.478  0.00  0.00     0.200 A 
ATOM      7  O   LIG d   1       3.701   1.099  -7.287  0.00  0.00    -0.286 OA
ATOM      8  C   LIG d   1       2.178  -0.025  -9.407  0.00  0.00    -0.044 A 
ATOM      9  C   LIG d   1       1.486  -0.662 -10.397  0.00  0.00    -0.019 A 
ATOM     10  C   LIG d   1       1.602  -2.043 -10.564  0.00  0.00     0.130 A 
ATOM     11  C   LIG d   1       2.420  -2.783  -9.729  0.00  0.00     0.051 A 
ATOM     12  C   LIG d   1       2.559  -4.273  -9.905  0.00  0.00     0.034 C 
ATOM     13  N   LIG d   1       1.450  -4.779 -10.726  0.00  0.00    -0.262 N 
ATOM     14  C   LIG d   1       1.304  -3.961 -11.941  0.00  0.00     0.144 C 
ATOM     15  O   LIG d   1       0.897  -2.645 -11.558  0.00  0.00    -0.476 OA
ATOM     16  H   LIG d   1       5.241  -2.947  -6.302  0.00  0.00     0.104 H 
ATOM     17  H   LIG d   1       2.084   1.043  -9.283  0.00  0.00     0.063 H 
ATOM     18  H   LIG d   1       0.846  -0.094 -11.055  0.00  0.00     0.065 H 
ATOM     19  H   LIG d   1       3.515  -4.496 -10.405  0.00  0.00     0.048 H 
ATOM     20  H   LIG d   1       2.538  -4.763  -8.921  0.00  0.00     0.048 H 
ATOM     21  H   LIG d   1       2.268  -3.915 -12.470  0.00  0.00     0.087 H 
ATOM     22  H   LIG d   1       0.546  -4.411 -12.598  0.00  0.00     0.087 H 
ENDROOT
BRANCH  13  23
ATOM     23  C   LIG d   1       1.648  -6.194 -11.065  0.00  0.00     0.028 C 
ATOM     24  H   LIG d   1       1.862  -6.287 -12.140  0.00  0.00     0.048 H 
ATOM     25  H   LIG d   1       2.493  -6.596 -10.486  0.00  0.00     0.048 H 
BRANCH  23  26
ATOM     26  C   LIG d   1       0.399  -6.970 -10.734  0.00  0.00    -0.030 A 
ATOM     27  C   LIG d   1      -0.564  -6.410  -9.914  0.00  0.00    -0.012 A 
ATOM     28  C   LIG d   1      -1.712  -7.122  -9.609  0.00  0.00     0.162 A 
ATOM     29  H   LIG d   1      -0.420  -5.418  -9.511  0.00  0.00     0.066 H 
ATOM     30  C   LIG d   1      -1.895  -8.399 -10.129  0.00  0.00     0.162 A 
ATOM     31  C   LIG d   1      -0.927  -8.954 -10.951  0.00  0.00    -0.016 A 
ATOM     32  C   LIG d   1       0.218  -8.239 -11.251  0.00  0.00    -0.054 A 
ATOM     33  H   LIG d   1      -1.067  -9.946 -11.357  0.00  0.00     0.066 H 
ATOM     34  H   LIG d   1       0.969  -8.671 -11.896  0.00  0.00     0.062 H 
BRANCH  28  35
ATOM     35  O   LIG d   1      -2.660  -6.573  -8.802  0.00  0.00    -0.491 OA
BRANCH  35  36
ATOM     36  C   LIG d   1      -3.521  -5.593  -9.386  0.00  0.00     0.079 C 
ATOM     37  H   LIG d   1      -3.155  -5.335 -10.391  0.00  0.00     0.066 H 
ATOM     38  H   LIG d   1      -3.530  -4.691  -8.756  0.00  0.00     0.066 H 
ATOM     39  H   LIG d   1      -4.541  -5.998  -9.460  0.00  0.00     0.066 H 
ENDBRANCH  35  36
ENDBRANCH  28  35
BRANCH  30  40
ATOM     40  O   LIG d   1      -3.021  -9.102  -9.832  0.00  0.00    -0.491 OA
BRANCH  40  41
ATOM     41  C   LIG d   1      -3.054 -10.474 -10.230  0.00  0.00     0.079 C 
ATOM     42  H   LIG d   1      -2.025 -10.844 -10.354  0.00  0.00     0.066 H 
ATOM     43  H   LIG d   1      -3.596 -10.566 -11.183  0.00  0.00     0.066 H 
ATOM     44  H   LIG d   1      -3.566 -11.068  -9.458  0.00  0.00     0.066 H 
ENDBRANCH  40  41
ENDBRANCH  30  40
ENDBRANCH  23  26
ENDBRANCH  13  23
BRANCH   1  45
ATOM     45  C   LIG d   1       5.411  -0.424  -5.530  0.00  0.00     0.030 A 
ATOM     46  C   LIG d   1       4.837  -0.246  -4.268  0.00  0.00     0.128 A 
ATOM     47  C   LIG d   1       5.598   0.270  -3.232  0.00  0.00    -0.019 A 
ATOM     48  C   LIG d   1       6.919   0.618  -3.450  0.00  0.00    -0.058 A 
ATOM     49  H   LIG d   1       5.159   0.406  -2.255  0.00  0.00     0.065 H 
ATOM     50  C   LIG d   1       7.488   0.447  -4.700  0.00  0.00    -0.061 A 
ATOM     51  H   LIG d   1       7.508   1.023  -2.641  0.00  0.00     0.062 H 
ATOM     52  C   LIG d   1       6.743  -0.071  -5.739  0.00  0.00    -0.050 A 
ATOM     53  H   LIG d   1       8.520   0.721  -4.862  0.00  0.00     0.062 H 
ATOM     54  H   LIG d   1       7.190  -0.202  -6.712  0.00  0.00     0.062 H 
BRANCH  46  55
ATOM     55  O   LIG d   1       3.537  -0.582  -4.057  0.00  0.00    -0.494 OA
BRANCH  55  56
ATOM     56  C   LIG d   1       3.249  -1.360  -2.892  0.00  0.00     0.079 C 
ATOM     57  H   LIG d   1       3.792  -2.314  -2.945  0.00  0.00     0.066 H 
ATOM     58  H   LIG d   1       2.168  -1.555  -2.842  0.00  0.00     0.066 H 
ATOM     59  H   LIG d   1       3.564  -0.807  -1.995  0.00  0.00     0.066 H 
ENDBRANCH  55  56
ENDBRANCH  46  55
ENDBRANCH   1  45
TORSDOF 9
ENDMDL
MODEL 3
REMARK VINA RESULT:      -6.6      6.450     13.063
REMARK  9 active torsions:
REMARK  status: ('A' for Active; 'I' for Inactive)
REMARK    1  A    between atoms: C_1  and  O_2 
REMARK    2  A    between atoms: O_2  and  C_3 
REMARK    3  A    between atoms: C_8  and  C_9 
REMARK    4  A    between atoms: N_21  and  C_24 
REMARK    5  A    between atoms: C_24  and  C_25 
REMARK    6  A    between atoms: C_28  and  O_33 
REMARK    7  A    between atoms: C_29  and  O_31 
REMARK    8  A    between atoms: O_31  and  C_32 
REMARK    9  A    between atoms: O_33  and  C_34 
ROOT
ATOM      1  C   LIG d   1       3.877  -0.605  -5.899  0.00  0.00     0.068 A 
ATOM      2  C   LIG d   1       4.182  -1.883  -6.240  0.00  0.00     0.104 A 
ATOM      3  O   LIG d   1       3.916  -2.413  -7.430  0.00  0.00    -0.462 OA
ATOM      4  C   LIG d   1       3.315  -1.710  -8.407  0.00  0.00     0.146 A 
ATOM      5  C   LIG d   1       2.936  -0.372  -8.208  0.00  0.00     0.065 A 
ATOM      6  C   LIG d   1       3.215   0.249  -6.901  0.00  0.00     0.200 A 
ATOM      7  O   LIG d   1       2.914   1.406  -6.661  0.00  0.00    -0.286 OA
ATOM      8  C   LIG d   1       2.313   0.345  -9.229  0.00  0.00    -0.044 A 
ATOM      9  C   LIG d   1       2.067  -0.258 -10.429  0.00  0.00    -0.019 A 
ATOM     10  C   LIG d   1       2.438  -1.587 -10.640  0.00  0.00     0.130 A 
ATOM     11  C   LIG d   1       3.059  -2.309  -9.637  0.00  0.00     0.051 A 
ATOM     12  C   LIG d   1       3.470  -3.742  -9.857  0.00  0.00     0.034 C 
ATOM     13  N   LIG d   1       2.761  -4.286 -11.023  0.00  0.00    -0.262 N 
ATOM     14  C   LIG d   1       2.876  -3.362 -12.163  0.00  0.00     0.144 C 
ATOM     15  O   LIG d   1       2.176  -2.157 -11.846  0.00  0.00    -0.476 OA
ATOM     16  H   LIG d   1       4.668  -2.504  -5.502  0.00  0.00     0.104 H 
ATOM     17  H   LIG d   1       2.024   1.374  -9.071  0.00  0.00     0.063 H 
ATOM     18  H   LIG d   1       1.584   0.297 -11.219  0.00  0.00     0.065 H 
ATOM     19  H   LIG d   1       4.556  -3.789 -10.035  0.00  0.00     0.048 H 
ATOM     20  H   LIG d   1       3.220  -4.337  -8.966  0.00  0.00     0.048 H 
ATOM     21  H   LIG d   1       3.938  -3.141 -12.349  0.00  0.00     0.087 H 
ATOM     22  H   LIG d   1       2.437  -3.827 -13.058  0.00  0.00     0.087 H 
ENDROOT
BRANCH  13  23
ATOM     23  C   LIG d   1       3.267  -5.620 -11.373  0.00  0.00     0.028 C 
ATOM     24  H   LIG d   1       3.640  -5.611 -12.407  0.00  0.00     0.048 H 
ATOM     25  H   LIG d   1       4.084  -5.894 -10.689  0.00  0.00     0.048 H 
BRANCH  23  26
ATOM     26  C   LIG d   1       2.153  -6.628 -11.252  0.00  0.00    -0.030 A 
ATOM     27  C   LIG d   1       1.165  -6.453 -10.300  0.00  0.00    -0.012 A 
ATOM     28  C   LIG d   1       0.140  -7.379 -10.187  0.00  0.00     0.162 A 
ATOM     29  H   LIG d   1       1.193  -5.596  -9.644  0.00  0.00     0.066 H 
ATOM     30  C   LIG d   1       0.108  -8.482 -11.034  0.00  0.00     0.162 A 
ATOM     31  C   LIG d   1       1.100  -8.651 -11.986  0.00  0.00    -0.016 A 
ATOM     32  C   LIG d   1       2.120  -7.724 -12.093  0.00  0.00    -0.054 A 
ATOM     33  H   LIG d   1       1.076  -9.507 -12.645  0.00  0.00     0.066 H 
ATOM     34  H   LIG d   1       2.890  -7.854 -12.838  0.00  0.00     0.062 H 
BRANCH  28  35
ATOM     35  O   LIG d   1      -0.832  -7.209  -9.251  0.00  0.00    -0.491 OA
BRANCH  35  36
ATOM     36  C   LIG d   1      -1.751  -6.135  -9.458  0.00  0.00     0.079 C 
ATOM     37  H   LIG d   1      -1.194  -5.212  -9.675  0.00  0.00     0.066 H 
ATOM     38  H   LIG d   1      -2.358  -5.992  -8.552  0.00  0.00     0.066 H 
ATOM     39  H   LIG d   1      -2.410  -6.373 -10.306  0.00  0.00     0.066 H 
ENDBRANCH  35  36
ENDBRANCH  28  35
BRANCH  30  40
ATOM     40  O   LIG d   1      -0.897  -9.394 -10.927  0.00  0.00    -0.491 OA
BRANCH  40  41
ATOM     41  C   LIG d   1      -0.574 -10.754 -11.227  0.00  0.00     0.079 C 
ATOM     42  H   LIG d   1      -0.363 -10.851 -12.302  0.00  0.00     0.066 H 
ATOM     43  H   LIG d   1      -1.422 -11.400 -10.958  0.00  0.00     0.066 H 
ATOM     44  H   LIG d   1       0.314 -11.055 -10.651  0.00  0.00     0.066 H 
ENDBRANCH  40  41
ENDBRANCH  30  40
ENDBRANCH  23  26
ENDBRANCH  13  23
BRANCH   1  45
ATOM     45  C   LIG d   1       4.205  -0.081  -4.551  0.00  0.00     0.030 A 
ATOM     46  C   LIG d   1       5.503   0.350  -4.262  0.00  0.00     0.128 A 
ATOM     47  C   LIG d   1       5.800   0.842  -3.002  0.00  0.00    -0.019 A 
ATOM     48  C   LIG d   1       4.817   0.895  -2.030  0.00  0.00    -0.058 A 
ATOM     49  H   LIG d   1       6.801   1.180  -2.776  0.00  0.00     0.065 H 
ATOM     50  C   LIG d   1       3.533   0.464  -2.312  0.00  0.00    -0.061 A 
ATOM     51  H   LIG d   1       5.054   1.276  -1.048  0.00  0.00     0.062 H 
ATOM     52  C   LIG d   1       3.222  -0.023  -3.565  0.00  0.00    -0.050 A 
ATOM     53  H   LIG d   1       2.771   0.509  -1.548  0.00  0.00     0.062 H 
ATOM     54  H   LIG d   1       2.220  -0.359  -3.781  0.00  0.00     0.062 H 
BRANCH  46  55
ATOM     55  O   LIG d   1       6.469   0.292  -5.216  0.00  0.00    -0.494 OA
BRANCH  55  56
ATOM     56  C   LIG d   1       7.627  -0.491  -4.920  0.00  0.00     0.079 C 
ATOM     57  H   LIG d   1       7.465  -1.048  -3.986  0.00  0.00     0.066 H 
ATOM     58  H   LIG d   1       8.497   0.172  -4.805  0.00  0.00     0.066 H 
ATOM     59  H   LIG d   1       7.811  -1.199  -5.742  0.00  0.00     0.066 H 
ENDBRANCH  55  56
ENDBRANCH  46  55
ENDBRANCH   1  45
TORSDOF 9
ENDMDL
MODEL 4
REMARK VINA RESULT:      -6.5      1.387      2.305
REMARK  9 active torsions:
REMARK  status: ('A' for Active; 'I' for Inactive)
REMARK    1  A    between atoms: C_1  and  O_2 
REMARK    2  A    between atoms: O_2  and  C_3 
REMARK    3  A    between atoms: C_8  and  C_9 
REMARK    4  A    between atoms: N_21  and  C_24 
REMARK    5  A    between atoms: C_24  and  C_25 
REMARK    6  A    between atoms: C_28  and  O_33 
REMARK    7  A    between atoms: C_29  and  O_31 
REMARK    8  A    between atoms: O_31  and  C_32 
REMARK    9  A    between atoms: O_33  and  C_34 
ROOT
ATOM      1  C   LIG d   1       6.536   0.664  -4.164  0.00  0.00     0.068 A 
ATOM      2  C   LIG d   1       7.321   1.408  -3.343  0.00  0.00     0.104 A 
ATOM      3  O   LIG d   1       8.335   2.154  -3.770  0.00  0.00    -0.462 OA
ATOM      4  C   LIG d   1       8.667   2.233  -5.071  0.00  0.00     0.146 A 
ATOM      5  C   LIG d   1       7.949   1.520  -6.046  0.00  0.00     0.065 A 
ATOM      6  C   LIG d   1       6.817   0.682  -5.610  0.00  0.00     0.200 A 
ATOM      7  O   LIG d   1       6.152   0.038  -6.403  0.00  0.00    -0.286 OA
ATOM      8  C   LIG d   1       8.303   1.610  -7.392  0.00  0.00    -0.044 A 
ATOM      9  C   LIG d   1       9.357   2.395  -7.764  0.00  0.00    -0.019 A 
ATOM     10  C   LIG d   1      10.079   3.109  -6.806  0.00  0.00     0.130 A 
ATOM     11  C   LIG d   1       9.736   3.030  -5.469  0.00  0.00     0.051 A 
ATOM     12  C   LIG d   1      10.504   3.803  -4.427  0.00  0.00     0.034 C 
ATOM     13  N   LIG d   1      11.797   4.228  -4.981  0.00  0.00    -0.262 N 
ATOM     14  C   LIG d   1      11.602   4.865  -6.294  0.00  0.00     0.144 C 
ATOM     15  O   LIG d   1      11.123   3.879  -7.212  0.00  0.00    -0.476 OA
ATOM     16  H   LIG d   1       7.109   1.391  -2.284  0.00  0.00     0.104 H 
ATOM     17  H   LIG d   1       7.748   1.061  -8.137  0.00  0.00     0.063 H 
ATOM     18  H   LIG d   1       9.632   2.464  -8.806  0.00  0.00     0.065 H 
ATOM     19  H   LIG d   1       9.926   4.690  -4.127  0.00  0.00     0.048 H 
ATOM     20  H   LIG d   1      10.675   3.164  -3.548  0.00  0.00     0.048 H 
ATOM     21  H   LIG d   1      10.866   5.678  -6.201  0.00  0.00     0.087 H 
ATOM     22  H   LIG d   1      12.558   5.275  -6.649  0.00  0.00     0.087 H 
ENDROOT
BRANCH  13  23
ATOM     23  C   LIG d   1      12.495   5.131  -4.057  0.00  0.00     0.028 C 
ATOM     24  H   LIG d   1      13.165   4.547  -3.408  0.00  0.00     0.048 H 
ATOM     25  H   LIG d   1      13.085   5.861  -4.632  0.00  0.00     0.048 H 
BRANCH  23  26
ATOM     26  C   LIG d   1      11.485   5.859  -3.207  0.00  0.00    -0.030 A 
ATOM     27  C   LIG d   1      11.361   5.550  -1.866  0.00  0.00    -0.012 A 
ATOM     28  C   LIG d   1      10.433   6.218  -1.084  0.00  0.00     0.162 A 
ATOM     29  H   LIG d   1      11.987   4.786  -1.427  0.00  0.00     0.066 H 
ATOM     30  C   LIG d   1       9.629   7.201  -1.651  0.00  0.00     0.162 A 
ATOM     31  C   LIG d   1       9.759   7.508  -2.997  0.00  0.00    -0.016 A 
ATOM     32  C   LIG d   1      10.686   6.836  -3.772  0.00  0.00    -0.054 A 
ATOM     33  H   LIG d   1       9.135   8.270  -3.439  0.00  0.00     0.066 H 
ATOM     34  H   LIG d   1      10.790   7.079  -4.819  0.00  0.00     0.062 H 
BRANCH  28  35
ATOM     35  O   LIG d   1      10.309   5.914   0.236  0.00  0.00    -0.491 OA
BRANCH  35  36
ATOM     36  C   LIG d   1      11.254   6.506   1.130  0.00  0.00     0.079 C 
ATOM     37  H   LIG d   1      11.033   7.577   1.242  0.00  0.00     0.066 H 
ATOM     38  H   LIG d   1      12.270   6.382   0.724  0.00  0.00     0.066 H 
ATOM     39  H   LIG d   1      11.190   6.013   2.111  0.00  0.00     0.066 H 
ENDBRANCH  35  36
ENDBRANCH  28  35
BRANCH  30  40
ATOM     40  O   LIG d   1       8.716   7.860  -0.887  0.00  0.00    -0.491 OA
BRANCH  40  41
ATOM     41  C   LIG d   1       8.836   9.283  -0.815  0.00  0.00     0.079 C 
ATOM     42  H   LIG d   1       8.702   9.609   0.226  0.00  0.00     0.066 H 
ATOM     43  H   LIG d   1       8.066   9.747  -1.449  0.00  0.00     0.066 H 
ATOM     44  H   LIG d   1       9.833   9.585  -1.169  0.00  0.00     0.066 H 
ENDBRANCH  40  41
ENDBRANCH  30  40
ENDBRANCH  23  26
ENDBRANCH  13  23
BRANCH   1  45
ATOM     45  C   LIG d   1       5.420  -0.146  -3.617  0.00  0.00     0.030 A 
ATOM     46  C   LIG d   1       5.592  -1.514  -3.388  0.00  0.00     0.128 A 
ATOM     47  C   LIG d   1       4.547  -2.262  -2.873  0.00  0.00    -0.019 A 
ATOM     48  C   LIG d   1       3.334  -1.659  -2.597  0.00  0.00    -0.058 A 
ATOM     49  H   LIG d   1       4.678  -3.319  -2.691  0.00  0.00     0.065 H 
ATOM     50  C   LIG d   1       3.159  -0.306  -2.827  0.00  0.00    -0.061 A 
ATOM     51  H   LIG d   1       2.520  -2.247  -2.199  0.00  0.00     0.062 H 
ATOM     52  C   LIG d   1       4.194   0.453  -3.335  0.00  0.00    -0.050 A 
ATOM     53  H   LIG d   1       2.208   0.158  -2.609  0.00  0.00     0.062 H 
ATOM     54  H   LIG d   1       4.053   1.507  -3.514  0.00  0.00     0.062 H 
BRANCH  46  55
ATOM     55  O   LIG d   1       6.783  -2.106  -3.665  0.00  0.00    -0.494 OA
BRANCH  55  56
ATOM     56  C   LIG d   1       6.763  -3.212  -4.571  0.00  0.00     0.079 C 
ATOM     57  H   LIG d   1       7.662  -3.826  -4.421  0.00  0.00     0.066 H 
ATOM     58  H   LIG d   1       6.743  -2.837  -5.605  0.00  0.00     0.066 H 
ATOM     59  H   LIG d   1       5.866  -3.821  -4.385  0.00  0.00     0.066 H 
ENDBRANCH  55  56
ENDBRANCH  46  55
ENDBRANCH   1  45
TORSDOF 9
ENDMDL
MODEL 5
REMARK VINA RESULT:      -6.4      2.078      8.860
REMARK  9 active torsions:
REMARK  status: ('A' for Active; 'I' for Inactive)
REMARK    1  A    between atoms: C_1  and  O_2 
REMARK    2  A    between atoms: O_2  and  C_3 
REMARK    3  A    between atoms: C_8  and  C_9 
REMARK    4  A    between atoms: N_21  and  C_24 
REMARK    5  A    between atoms: C_24  and  C_25 
REMARK    6  A    between atoms: C_28  and  O_33 
REMARK    7  A    between atoms: C_29  and  O_31 
REMARK    8  A    between atoms: O_31  and  C_32 
REMARK    9  A    between atoms: O_33  and  C_34 
ROOT
ATOM      1  C   LIG d   1      10.120   6.520  -2.632  0.00  0.00     0.068 A 
ATOM      2  C   LIG d   1       9.923   5.242  -2.221  0.00  0.00     0.104 A 
ATOM      3  O   LIG d   1       9.751   4.218  -3.051  0.00  0.00    -0.462 OA
ATOM      4  C   LIG d   1       9.762   4.372  -4.388  0.00  0.00     0.146 A 
ATOM      5  C   LIG d   1       9.955   5.637  -4.969  0.00  0.00     0.065 A 
ATOM      6  C   LIG d   1      10.148   6.796  -4.079  0.00  0.00     0.200 A 
ATOM      7  O   LIG d   1      10.321   7.920  -4.516  0.00  0.00    -0.286 OA
ATOM      8  C   LIG d   1       9.962   5.783  -6.356  0.00  0.00    -0.044 A 
ATOM      9  C   LIG d   1       9.780   4.690  -7.154  0.00  0.00    -0.019 A 
ATOM     10  C   LIG d   1       9.588   3.428  -6.590  0.00  0.00     0.130 A 
ATOM     11  C   LIG d   1       9.580   3.269  -5.217  0.00  0.00     0.051 A 
ATOM     12  C   LIG d   1       9.381   1.909  -4.597  0.00  0.00     0.034 C 
ATOM     13  N   LIG d   1       8.811   0.991  -5.593  0.00  0.00    -0.262 N 
ATOM     14  C   LIG d   1       9.580   1.062  -6.846  0.00  0.00     0.144 C 
ATOM     15  O   LIG d   1       9.407   2.363  -7.414  0.00  0.00    -0.476 OA
ATOM     16  H   LIG d   1       9.904   5.046  -1.159  0.00  0.00     0.104 H 
ATOM     17  H   LIG d   1      10.111   6.757  -6.798  0.00  0.00     0.063 H 
ATOM     18  H   LIG d   1       9.786   4.804  -8.228  0.00  0.00     0.065 H 
ATOM     19  H   LIG d   1      10.350   1.518  -4.251  0.00  0.00     0.048 H 
ATOM     20  H   LIG d   1       8.694   1.993  -3.742  0.00  0.00     0.048 H 
ATOM     21  H   LIG d   1      10.645   0.886  -6.633  0.00  0.00     0.087 H 
ATOM     22  H   LIG d   1       9.214   0.296  -7.545  0.00  0.00     0.087 H 
ENDROOT
BRANCH  13  23
ATOM     23  C   LIG d   1       8.768  -0.384  -5.079  0.00  0.00     0.028 C 
ATOM     24  H   LIG d   1       9.152  -1.074  -5.844  0.00  0.00     0.048 H 
ATOM     25  H   LIG d   1       9.389  -0.457  -4.174  0.00  0.00     0.048 H 
BRANCH  23  26
ATOM     26  C   LIG d   1       7.345  -0.750  -4.742  0.00  0.00    -0.030 A 
ATOM     27  C   LIG d   1       6.301  -0.191  -5.457  0.00  0.00    -0.012 A 
ATOM     28  C   LIG d   1       4.993  -0.527  -5.148  0.00  0.00     0.162 A 
ATOM     29  H   LIG d   1       6.506   0.508  -6.254  0.00  0.00     0.066 H 
ATOM     30  C   LIG d   1       4.733  -1.427  -4.120  0.00  0.00     0.162 A 
ATOM     31  C   LIG d   1       5.783  -1.985  -3.408  0.00  0.00    -0.016 A 
ATOM     32  C   LIG d   1       7.087  -1.645  -3.721  0.00  0.00    -0.054 A 
ATOM     33  H   LIG d   1       5.583  -2.684  -2.610  0.00  0.00     0.066 H 
ATOM     34  H   LIG d   1       7.904  -2.083  -3.169  0.00  0.00     0.062 H 
BRANCH  28  35
ATOM     35  O   LIG d   1       3.965   0.022  -5.849  0.00  0.00    -0.491 OA
BRANCH  35  36
ATOM     36  C   LIG d   1       3.770  -0.444  -7.186  0.00  0.00     0.079 C 
ATOM     37  H   LIG d   1       2.696  -0.437  -7.424  0.00  0.00     0.066 H 
ATOM     38  H   LIG d   1       4.159  -1.469  -7.278  0.00  0.00     0.066 H 
ATOM     39  H   LIG d   1       4.305   0.215  -7.887  0.00  0.00     0.066 H 
ENDBRANCH  35  36
ENDBRANCH  28  35
BRANCH  30  40
ATOM     40  O   LIG d   1       3.449  -1.760  -3.814  0.00  0.00    -0.491 OA
BRANCH  40  41
ATOM     41  C   LIG d   1       2.776  -0.938  -2.858  0.00  0.00     0.079 C 
ATOM     42  H   LIG d   1       2.054  -0.290  -3.377  0.00  0.00     0.066 H 
ATOM     43  H   LIG d   1       3.512  -0.317  -2.327  0.00  0.00     0.066 H 
ATOM     44  H   LIG d   1       2.245  -1.575  -2.136  0.00  0.00     0.066 H 
ENDBRANCH  40  41
ENDBRANCH  30  40
ENDBRANCH  23  26
ENDBRANCH  13  23
BRANCH   1  45
ATOM     45  C   LIG d   1      10.304   7.614  -1.647  0.00  0.00     0.030 A 
ATOM     46  C   LIG d   1      11.576   7.892  -1.136  0.00  0.00     0.128 A 
ATOM     47  C   LIG d   1      11.740   8.916  -0.220  0.00  0.00    -0.019 A 
ATOM     48  C   LIG d   1      10.647   9.655   0.197  0.00  0.00    -0.058 A 
ATOM     49  H   LIG d   1      12.722   9.137   0.173  0.00  0.00     0.065 H 
ATOM     50  C   LIG d   1       9.387   9.378  -0.303  0.00  0.00    -0.061 A 
ATOM     51  H   LIG d   1      10.779  10.450   0.915  0.00  0.00     0.062 H 
ATOM     52  C   LIG d   1       9.210   8.363  -1.220  0.00  0.00    -0.050 A 
ATOM     53  H   LIG d   1       8.538   9.959   0.028  0.00  0.00     0.062 H 
ATOM     54  H   LIG d   1       8.225   8.150  -1.607  0.00  0.00     0.062 H 
BRANCH  46  55
ATOM     55  O   LIG d   1      12.647   7.162  -1.543  0.00  0.00    -0.494 OA
BRANCH  55  56
ATOM     56  C   LIG d   1      13.276   6.331  -0.563  0.00  0.00     0.079 C 
ATOM     57  H   LIG d   1      12.985   5.284  -0.728  0.00  0.00     0.066 H 
ATOM     58  H   LIG d   1      12.958   6.647   0.441  0.00  0.00     0.066 H 
ATOM     59  H   LIG d   1      14.368   6.427  -0.649  0.00  0.00     0.066 H 
ENDBRANCH  55  56
ENDBRANCH  46  55
ENDBRANCH   1  45
TORSDOF 9
ENDMDL
MODEL 6
REMARK VINA RESULT:      -6.3      2.140      8.602
REMARK  9 active torsions:
REMARK  status: ('A' for Active; 'I' for Inactive)
REMARK    1  A    between atoms: C_1  and  O_2 
REMARK    2  A    between atoms: O_2  and  C_3 
REMARK    3  A    between atoms: C_8  and  C_9 
REMARK    4  A    between atoms: N_21  and  C_24 
REMARK    5  A    between atoms: C_24  and  C_25 
REMARK    6  A    between atoms: C_28  and  O_33 
REMARK    7  A    between atoms: C_29  and  O_31 
REMARK    8  A    between atoms: O_31  and  C_32 
REMARK    9  A    between atoms: O_33  and  C_34 
ROOT
ATOM      1  C   LIG d   1      11.006   6.591  -1.995  0.00  0.00     0.068 A 
ATOM      2  C   LIG d   1      10.848   5.270  -1.726  0.00  0.00     0.104 A 
ATOM      3  O   LIG d   1      10.479   4.372  -2.635  0.00  0.00    -0.462 OA
ATOM      4  C   LIG d   1      10.230   4.709  -3.913  0.00  0.00     0.146 A 
ATOM      5  C   LIG d   1      10.349   6.039  -4.347  0.00  0.00     0.065 A 
ATOM      6  C   LIG d   1      10.756   7.063  -3.368  0.00  0.00     0.200 A 
ATOM      7  O   LIG d   1      10.879   8.236  -3.677  0.00  0.00    -0.286 OA
ATOM      8  C   LIG d   1      10.087   6.375  -5.676  0.00  0.00    -0.044 A 
ATOM      9  C   LIG d   1       9.710   5.405  -6.559  0.00  0.00    -0.019 A 
ATOM     10  C   LIG d   1       9.588   4.079  -6.141  0.00  0.00     0.130 A 
ATOM     11  C   LIG d   1       9.847   3.731  -4.828  0.00  0.00     0.051 A 
ATOM     12  C   LIG d   1       9.726   2.301  -4.367  0.00  0.00     0.034 C 
ATOM     13  N   LIG d   1       8.937   1.534  -5.341  0.00  0.00    -0.262 N 
ATOM     14  C   LIG d   1       9.445   1.770  -6.703  0.00  0.00     0.144 C 
ATOM     15  O   LIG d   1       9.209   3.138  -7.046  0.00  0.00    -0.476 OA
ATOM     16  H   LIG d   1      11.034   4.930  -0.718  0.00  0.00     0.104 H 
ATOM     17  H   LIG d   1      10.180   7.400  -6.004  0.00  0.00     0.063 H 
ATOM     18  H   LIG d   1       9.507   5.665  -7.587  0.00  0.00     0.065 H 
ATOM     19  H   LIG d   1      10.730   1.858  -4.279  0.00  0.00     0.048 H 
ATOM     20  H   LIG d   1       9.227   2.272  -3.388  0.00  0.00     0.048 H 
ATOM     21  H   LIG d   1      10.524   1.557  -6.734  0.00  0.00     0.087 H 
ATOM     22  H   LIG d   1       8.920   1.111  -7.409  0.00  0.00     0.087 H 
ENDROOT
BRANCH  13  23
ATOM     23  C   LIG d   1       8.948   0.102  -5.017  0.00  0.00     0.028 C 
ATOM     24  H   LIG d   1       8.945  -0.485  -5.947  0.00  0.00     0.048 H 
ATOM     25  H   LIG d   1       9.851  -0.136  -4.435  0.00  0.00     0.048 H 
BRANCH  23  26
ATOM     26  C   LIG d   1       7.724  -0.239  -4.206  0.00  0.00    -0.030 A 
ATOM     27  C   LIG d   1       6.975   0.771  -3.630  0.00  0.00    -0.012 A 
ATOM     28  C   LIG d   1       5.850   0.460  -2.884  0.00  0.00     0.162 A 
ATOM     29  H   LIG d   1       7.268   1.802  -3.762  0.00  0.00     0.066 H 
ATOM     30  C   LIG d   1       5.476  -0.870  -2.717  0.00  0.00     0.162 A 
ATOM     31  C   LIG d   1       6.230  -1.877  -3.297  0.00  0.00    -0.016 A 
ATOM     32  C   LIG d   1       7.352  -1.560  -4.040  0.00  0.00    -0.054 A 
ATOM     33  H   LIG d   1       5.941  -2.910  -3.169  0.00  0.00     0.066 H 
ATOM     34  H   LIG d   1       7.937  -2.345  -4.495  0.00  0.00     0.062 H 
BRANCH  28  35
ATOM     35  O   LIG d   1       5.112   1.451  -2.317  0.00  0.00    -0.491 OA
BRANCH  35  36
ATOM     36  C   LIG d   1       3.926   1.853  -3.006  0.00  0.00     0.079 C 
ATOM     37  H   LIG d   1       3.213   2.283  -2.288  0.00  0.00     0.066 H 
ATOM     38  H   LIG d   1       3.472   0.978  -3.495  0.00  0.00     0.066 H 
ATOM     39  H   LIG d   1       4.181   2.607  -3.767  0.00  0.00     0.066 H 
ENDBRANCH  35  36
ENDBRANCH  28  35
BRANCH  30  40
ATOM     40  O   LIG d   1       4.371  -1.180  -1.986  0.00  0.00    -0.491 OA
BRANCH  40  41
ATOM     41  C   LIG d   1       3.206  -1.584  -2.708  0.00  0.00     0.079 C 
ATOM     42  H   LIG d   1       3.508  -2.058  -3.654  0.00  0.00     0.066 H 
ATOM     43  H   LIG d   1       2.584  -0.702  -2.920  0.00  0.00     0.066 H 
ATOM     44  H   LIG d   1       2.631  -2.302  -2.106  0.00  0.00     0.066 H 
ENDBRANCH  40  41
ENDBRANCH  30  40
ENDBRANCH  23  26
ENDBRANCH  13  23
BRANCH   1  45
ATOM     45  C   LIG d   1      11.421   7.537  -0.930  0.00  0.00     0.030 A 
ATOM     46  C   LIG d   1      10.468   8.330  -0.285  0.00  0.00     0.128 A 
ATOM     47  C   LIG d   1      10.863   9.207   0.711  0.00  0.00    -0.019 A 
ATOM     48  C   LIG d   1      12.198   9.305   1.058  0.00  0.00    -0.058 A 
ATOM     49  H   LIG d   1      10.128   9.819   1.214  0.00  0.00     0.065 H 
ATOM     50  C   LIG d   1      13.144   8.525   0.417  0.00  0.00    -0.061 A 
ATOM     51  H   LIG d   1      12.502   9.993   1.832  0.00  0.00     0.062 H 
ATOM     52  C   LIG d   1      12.764   7.643  -0.574  0.00  0.00    -0.050 A 
ATOM     53  H   LIG d   1      14.186   8.608   0.693  0.00  0.00     0.062 H 
ATOM     54  H   LIG d   1      13.505   7.037  -1.071  0.00  0.00     0.062 H 
BRANCH  46  55
ATOM     55  O   LIG d   1       9.157   8.236  -0.631  0.00  0.00    -0.494 OA
BRANCH  55  56
ATOM     56  C   LIG d   1       8.440   9.462  -0.794  0.00  0.00     0.079 C 
ATOM     57  H   LIG d   1       7.704   9.567   0.016  0.00  0.00     0.066 H 
ATOM     58  H   LIG d   1       7.921   9.456  -1.763  0.00  0.00     0.066 H 
ATOM     59  H   LIG d   1       9.145  10.306  -0.761  0.00  0.00     0.066 H 
ENDBRANCH  55  56
ENDBRANCH  46  55
ENDBRANCH   1  45
TORSDOF 9
ENDMDL
MODEL 7
REMARK VINA RESULT:      -6.2      2.209      9.069
REMARK  9 active torsions:
REMARK  status: ('A' for Active; 'I' for Inactive)
REMARK    1  A    between atoms: C_1  and  O_2 
REMARK    2  A    between atoms: O_2  and  C_3 
REMARK    3  A    between atoms: C_8  and  C_9 
REMARK    4  A    between atoms: N_21  and  C_24 
REMARK    5  A    between atoms: C_24  and  C_25 
REMARK    6  A    between atoms: C_28  and  O_33 
REMARK    7  A    between atoms: C_29  and  O_31 
REMARK    8  A    between atoms: O_31  and  C_32 
REMARK    9  A    between atoms: O_33  and  C_34 
ROOT
ATOM      1  C   LIG d   1      10.121   7.572  -2.315  0.00  0.00     0.068 A 
ATOM      2  C   LIG d   1       9.924   6.279  -1.951  0.00  0.00     0.104 A 
ATOM      3  O   LIG d   1       9.781   5.282  -2.820  0.00  0.00    -0.462 OA
ATOM      4  C   LIG d   1       9.824   5.480  -4.150  0.00  0.00     0.146 A 
ATOM      5  C   LIG d   1      10.022   6.765  -4.684  0.00  0.00     0.065 A 
ATOM      6  C   LIG d   1      10.184   7.895  -3.751  0.00  0.00     0.200 A 
ATOM      7  O   LIG d   1      10.358   9.035  -4.147  0.00  0.00    -0.286 OA
ATOM      8  C   LIG d   1      10.063   6.957  -6.065  0.00  0.00    -0.044 A 
ATOM      9  C   LIG d   1       9.909   5.890  -6.902  0.00  0.00    -0.019 A 
ATOM     10  C   LIG d   1       9.713   4.609  -6.385  0.00  0.00     0.130 A 
ATOM     11  C   LIG d   1       9.671   4.404  -5.018  0.00  0.00     0.051 A 
ATOM     12  C   LIG d   1       9.467   3.023  -4.449  0.00  0.00     0.034 C 
ATOM     13  N   LIG d   1       8.929   2.135  -5.489  0.00  0.00    -0.262 N 
ATOM     14  C   LIG d   1       9.729   2.252  -6.719  0.00  0.00     0.144 C 
ATOM     15  O   LIG d   1       9.561   3.570  -7.249  0.00  0.00    -0.476 OA
ATOM     16  H   LIG d   1       9.880   6.048  -0.897  0.00  0.00     0.104 H 
ATOM     17  H   LIG d   1      10.215   7.946  -6.470  0.00  0.00     0.063 H 
ATOM     18  H   LIG d   1       9.941   6.039  -7.972  0.00  0.00     0.065 H 
ATOM     19  H   LIG d   1      10.430   2.627  -4.092  0.00  0.00     0.048 H 
ATOM     20  H   LIG d   1       8.759   3.073  -3.609  0.00  0.00     0.048 H 
ATOM     21  H   LIG d   1      10.790   2.076  -6.485  0.00  0.00     0.087 H 
ATOM     22  H   LIG d   1       9.387   1.507  -7.452  0.00  0.00     0.087 H 
ENDROOT
BRANCH  13  23
ATOM     23  C   LIG d   1       8.884   0.743  -5.022  0.00  0.00     0.028 C 
ATOM     24  H   LIG d   1       9.376   0.092  -5.760  0.00  0.00     0.048 H 
ATOM     25  H   LIG d   1       9.405   0.663  -4.056  0.00  0.00     0.048 H 
BRANCH  23  26
ATOM     26  C   LIG d   1       7.449   0.316  -4.854  0.00  0.00    -0.030 A 
ATOM     27  C   LIG d   1       6.892   0.248  -3.591  0.00  0.00    -0.012 A 
ATOM     28  C   LIG d   1       5.572  -0.145  -3.435  0.00  0.00     0.162 A 
ATOM     29  H   LIG d   1       7.486   0.501  -2.725  0.00  0.00     0.066 H 
ATOM     30  C   LIG d   1       4.810  -0.470  -4.553  0.00  0.00     0.162 A 
ATOM     31  C   LIG d   1       5.374  -0.399  -5.817  0.00  0.00    -0.016 A 
ATOM     32  C   LIG d   1       6.692  -0.007  -5.965  0.00  0.00    -0.054 A 
ATOM     33  H   LIG d   1       4.784  -0.651  -6.686  0.00  0.00     0.066 H 
ATOM     34  H   LIG d   1       7.128   0.052  -6.951  0.00  0.00     0.062 H 
BRANCH  28  35
ATOM     35  O   LIG d   1       5.023  -0.213  -2.193  0.00  0.00    -0.491 OA
BRANCH  35  36
ATOM     36  C   LIG d   1       4.507   1.002  -1.645  0.00  0.00     0.079 C 
ATOM     37  H   LIG d   1       3.706   0.769  -0.928  0.00  0.00     0.066 H 
ATOM     38  H   LIG d   1       4.104   1.628  -2.455  0.00  0.00     0.066 H 
ATOM     39  H   LIG d   1       5.313   1.545  -1.130  0.00  0.00     0.066 H 
ENDBRANCH  35  36
ENDBRANCH  28  35
BRANCH  30  40
ATOM     40  O   LIG d   1       3.514  -0.857  -4.405  0.00  0.00    -0.491 OA
BRANCH  40  41
ATOM     41  C   LIG d   1       2.510   0.126  -4.668  0.00  0.00     0.079 C 
ATOM     42  H   LIG d   1       2.356   0.210  -5.754  0.00  0.00     0.066 H 
ATOM     43  H   LIG d   1       2.834   1.097  -4.266  0.00  0.00     0.066 H 
ATOM     44  H   LIG d   1       1.568  -0.175  -4.187  0.00  0.00     0.066 H 
ENDBRANCH  40  41
ENDBRANCH  30  40
ENDBRANCH  23  26
ENDBRANCH  13  23
BRANCH   1  45
ATOM     45  C   LIG d   1      10.272   8.633  -1.290  0.00  0.00     0.030 A 
ATOM     46  C   LIG d   1      11.527   8.898  -0.734  0.00  0.00     0.128 A 
ATOM     47  C   LIG d   1      11.660   9.893   0.220  0.00  0.00    -0.019 A 
ATOM     48  C   LIG d   1      10.553  10.614   0.628  0.00  0.00    -0.058 A 
ATOM     49  H   LIG d   1      12.629  10.103   0.649  0.00  0.00     0.065 H 
ATOM     50  C   LIG d   1       9.309  10.351   0.082  0.00  0.00    -0.061 A 
ATOM     51  H   LIG d   1      10.661  11.387   1.374  0.00  0.00     0.062 H 
ATOM     52  C   LIG d   1       9.163   9.365  -0.873  0.00  0.00    -0.050 A 
ATOM     53  H   LIG d   1       8.449  10.918   0.406  0.00  0.00     0.062 H 
ATOM     54  H   LIG d   1       8.191   9.162  -1.295  0.00  0.00     0.062 H 
BRANCH  46  55
ATOM     55  O   LIG d   1      12.613   8.184  -1.131  0.00  0.00    -0.494 OA
BRANCH  55  56
ATOM     56  C   LIG d   1      13.867   8.871  -1.157  0.00  0.00     0.079 C 
ATOM     57  H   LIG d   1      13.692   9.950  -1.269  0.00  0.00     0.066 H 
ATOM     58  H   LIG d   1      14.465   8.506  -2.005  0.00  0.00     0.066 H 
ATOM     59  H   LIG d   1      14.408   8.681  -0.218  0.00  0.00     0.066 H 
ENDBRANCH  55  56
ENDBRANCH  46  55
ENDBRANCH   1  45
TORSDOF 9
ENDMDL
MODEL 8
REMARK VINA RESULT:      -6.1      6.263     11.028
REMARK  9 active torsions:
REMARK  status: ('A' for Active; 'I' for Inactive)
REMARK    1  A    between atoms: C_1  and  O_2 
REMARK    2  A    between atoms: O_2  and  C_3 
REMARK    3  A    between atoms: C_8  and  C_9 
REMARK    4  A    between atoms: N_21  and  C_24 
REMARK    5  A    between atoms: C_24  and  C_25 
REMARK    6  A    between atoms: C_28  and  O_33 
REMARK    7  A    between atoms: C_29  and  O_31 
REMARK    8  A    between atoms: O_31  and  C_32 
REMARK    9  A    between atoms: O_33  and  C_34 
ROOT
ATOM      1  C   LIG d   1       5.656  -1.868  -4.076  0.00  0.00     0.068 A 
ATOM      2  C   LIG d   1       5.074  -3.090  -4.180  0.00  0.00     0.104 A 
ATOM      3  O   LIG d   1       5.691  -4.162  -4.669  0.00  0.00    -0.462 OA
ATOM      4  C   LIG d   1       6.962  -4.117  -5.107  0.00  0.00     0.146 A 
ATOM      5  C   LIG d   1       7.700  -2.922  -5.066  0.00  0.00     0.065 A 
ATOM      6  C   LIG d   1       7.049  -1.713  -4.530  0.00  0.00     0.200 A 
ATOM      7  O   LIG d   1       7.631  -0.644  -4.465  0.00  0.00    -0.286 OA
ATOM      8  C   LIG d   1       9.017  -2.889  -5.524  0.00  0.00    -0.044 A 
ATOM      9  C   LIG d   1       9.592  -4.025  -6.016  0.00  0.00    -0.019 A 
ATOM     10  C   LIG d   1       8.871  -5.219  -6.062  0.00  0.00     0.130 A 
ATOM     11  C   LIG d   1       7.565  -5.266  -5.610  0.00  0.00     0.051 A 
ATOM     12  C   LIG d   1       6.779  -6.552  -5.648  0.00  0.00     0.034 C 
ATOM     13  N   LIG d   1       7.428  -7.500  -6.563  0.00  0.00    -0.262 N 
ATOM     14  C   LIG d   1       8.867  -7.591  -6.264  0.00  0.00     0.144 C 
ATOM     15  O   LIG d   1       9.474  -6.331  -6.561  0.00  0.00    -0.476 OA
ATOM     16  H   LIG d   1       4.053  -3.198  -3.845  0.00  0.00     0.104 H 
ATOM     17  H   LIG d   1       9.580  -1.968  -5.490  0.00  0.00     0.063 H 
ATOM     18  H   LIG d   1      10.612  -4.000  -6.371  0.00  0.00     0.065 H 
ATOM     19  H   LIG d   1       6.739  -6.988  -4.638  0.00  0.00     0.048 H 
ATOM     20  H   LIG d   1       5.757  -6.347  -5.998  0.00  0.00     0.048 H 
ATOM     21  H   LIG d   1       9.005  -7.831  -5.199  0.00  0.00     0.087 H 
ATOM     22  H   LIG d   1       9.321  -8.380  -6.880  0.00  0.00     0.087 H 
ENDROOT
BRANCH  13  23
ATOM     23  C   LIG d   1       6.792  -8.822  -6.491  0.00  0.00     0.028 C 
ATOM     24  H   LIG d   1       5.800  -8.778  -6.965  0.00  0.00     0.048 H 
ATOM     25  H   LIG d   1       7.418  -9.560  -7.014  0.00  0.00     0.048 H 
BRANCH  23  26
ATOM     26  C   LIG d   1       6.639  -9.228  -5.047  0.00  0.00    -0.030 A 
ATOM     27  C   LIG d   1       5.394  -9.578  -4.557  0.00  0.00    -0.012 A 
ATOM     28  C   LIG d   1       5.252  -9.950  -3.230  0.00  0.00     0.162 A 
ATOM     29  H   LIG d   1       4.533  -9.560  -5.208  0.00  0.00     0.066 H 
ATOM     30  C   LIG d   1       6.364  -9.972  -2.394  0.00  0.00     0.162 A 
ATOM     31  C   LIG d   1       7.609  -9.621  -2.891  0.00  0.00    -0.016 A 
ATOM     32  C   LIG d   1       7.743  -9.249  -4.216  0.00  0.00    -0.054 A 
ATOM     33  H   LIG d   1       8.473  -9.638  -2.244  0.00  0.00     0.066 H 
ATOM     34  H   LIG d   1       8.715  -8.980  -4.604  0.00  0.00     0.062 H 
BRANCH  28  35
ATOM     35  O   LIG d   1       4.029 -10.294  -2.746  0.00  0.00    -0.491 OA
BRANCH  35  36
ATOM     36  C   LIG d   1       3.143 -10.970  -3.642  0.00  0.00     0.079 C 
ATOM     37  H   LIG d   1       2.894 -11.960  -3.234  0.00  0.00     0.066 H 
ATOM     38  H   LIG d   1       3.632 -11.089  -4.621  0.00  0.00     0.066 H 
ATOM     39  H   LIG d   1       2.223 -10.380  -3.763  0.00  0.00     0.066 H 
ENDBRANCH  35  36
ENDBRANCH  28  35
BRANCH  30  40
ATOM     40  O   LIG d   1       6.229 -10.337  -1.090  0.00  0.00    -0.491 OA
BRANCH  40  41
ATOM     41  C   LIG d   1       6.531 -11.696  -0.763  0.00  0.00     0.079 C 
ATOM     42  H   LIG d   1       5.793 -12.359  -1.238  0.00  0.00     0.066 H 
ATOM     43  H   LIG d   1       6.494 -11.825   0.329  0.00  0.00     0.066 H 
ATOM     44  H   LIG d   1       7.538 -11.946  -1.127  0.00  0.00     0.066 H 
ENDBRANCH  40  41
ENDBRANCH  30  40
ENDBRANCH  23  26
ENDBRANCH  13  23
BRANCH   1  45
ATOM     45  C   LIG d   1       4.906  -0.716  -3.519  0.00  0.00     0.030 A 
ATOM     46  C   LIG d   1       4.112   0.075  -4.354  0.00  0.00     0.128 A 
ATOM     47  C   LIG d   1       3.412   1.146  -3.825  0.00  0.00    -0.019 A 
ATOM     48  C   LIG d   1       3.506   1.438  -2.476  0.00  0.00    -0.058 A 
ATOM     49  H   LIG d   1       2.795   1.758  -4.467  0.00  0.00     0.065 H 
ATOM     50  C   LIG d   1       4.295   0.659  -1.648  0.00  0.00    -0.061 A 
ATOM     51  H   LIG d   1       2.962   2.276  -2.069  0.00  0.00     0.062 H 
ATOM     52  C   LIG d   1       4.994  -0.415  -2.161  0.00  0.00    -0.050 A 
ATOM     53  H   LIG d   1       4.364   0.892  -0.596  0.00  0.00     0.062 H 
ATOM     54  H   LIG d   1       5.609  -1.019  -1.512  0.00  0.00     0.062 H 
BRANCH  46  55
ATOM     55  O   LIG d   1       4.025  -0.208  -5.680  0.00  0.00    -0.494 OA
BRANCH  55  56
ATOM     56  C   LIG d   1       2.881   0.291  -6.377  0.00  0.00     0.079 C 
ATOM     57  H   LIG d   1       3.190   0.685  -7.355  0.00  0.00     0.066 H 
ATOM     58  H   LIG d   1       2.416   1.095  -5.788  0.00  0.00     0.066 H 
ATOM     59  H   LIG d   1       2.156  -0.524  -6.521  0.00  0.00     0.066 H 
ENDBRANCH  55  56
ENDBRANCH  46  55
ENDBRANCH   1  45
TORSDOF 9
ENDMDL
MODEL 9
REMARK VINA RESULT:      -5.9      8.557     13.731
REMARK  9 active torsions:
REMARK  status: ('A' for Active; 'I' for Inactive)
REMARK    1  A    between atoms: C_1  and  O_2 
REMARK    2  A    between atoms: O_2  and  C_3 
REMARK    3  A    between atoms: C_8  and  C_9 
REMARK    4  A    between atoms: N_21  and  C_24 
REMARK    5  A    between atoms: C_24  and  C_25 
REMARK    6  A    between atoms: C_28  and  O_33 
REMARK    7  A    between atoms: C_29  and  O_31 
REMARK    8  A    between atoms: O_31  and  C_32 
REMARK    9  A    between atoms: O_33  and  C_34 
ROOT
ATOM      1  C   LIG d   1       3.015  -1.526  -9.665  0.00  0.00     0.068 A 
ATOM      2  C   LIG d   1       4.017  -2.383  -9.343  0.00  0.00     0.104 A 
ATOM      3  O   LIG d   1       3.909  -3.706  -9.419  0.00  0.00    -0.462 OA
ATOM      4  C   LIG d   1       2.778  -4.309  -9.829  0.00  0.00     0.146 A 
ATOM      5  C   LIG d   1       1.650  -3.556 -10.196  0.00  0.00     0.065 A 
ATOM      6  C   LIG d   1       1.733  -2.086 -10.125  0.00  0.00     0.200 A 
ATOM      7  O   LIG d   1       0.792  -1.374 -10.430  0.00  0.00    -0.286 OA
ATOM      8  C   LIG d   1       0.483  -4.194 -10.618  0.00  0.00    -0.044 A 
ATOM      9  C   LIG d   1       0.437  -5.557 -10.673  0.00  0.00    -0.019 A 
ATOM     10  C   LIG d   1       1.550  -6.316 -10.310  0.00  0.00     0.130 A 
ATOM     11  C   LIG d   1       2.714  -5.697  -9.892  0.00  0.00     0.051 A 
ATOM     12  C   LIG d   1       3.925  -6.507  -9.506  0.00  0.00     0.034 C 
ATOM     13  N   LIG d   1       3.528  -7.899  -9.251  0.00  0.00    -0.262 N 
ATOM     14  C   LIG d   1       2.698  -8.401 -10.359  0.00  0.00     0.144 C 
ATOM     15  O   LIG d   1       1.468  -7.672 -10.374  0.00  0.00    -0.476 OA
ATOM     16  H   LIG d   1       4.956  -1.966  -9.007  0.00  0.00     0.104 H 
ATOM     17  H   LIG d   1      -0.381  -3.611 -10.900  0.00  0.00     0.063 H 
ATOM     18  H   LIG d   1      -0.467  -6.050 -10.999  0.00  0.00     0.065 H 
ATOM     19  H   LIG d   1       4.661  -6.481 -10.325  0.00  0.00     0.048 H 
ATOM     20  H   LIG d   1       4.376  -6.083  -8.597  0.00  0.00     0.048 H 
ATOM     21  H   LIG d   1       3.231  -8.255 -11.311  0.00  0.00     0.087 H 
ATOM     22  H   LIG d   1       2.498  -9.472 -10.212  0.00  0.00     0.087 H 
ENDROOT
BRANCH  13  23
ATOM     23  C   LIG d   1       4.704  -8.754  -9.046  0.00  0.00     0.028 C 
ATOM     24  H   LIG d   1       4.739  -9.525  -9.829  0.00  0.00     0.048 H 
ATOM     25  H   LIG d   1       5.616  -8.141  -9.092  0.00  0.00     0.048 H 
BRANCH  23  26
ATOM     26  C   LIG d   1       4.613  -9.417  -7.695  0.00  0.00    -0.030 A 
ATOM     27  C   LIG d   1       4.346 -10.771  -7.607  0.00  0.00    -0.012 A 
ATOM     28  C   LIG d   1       4.262 -11.382  -6.367  0.00  0.00     0.162 A 
ATOM     29  H   LIG d   1       4.202 -11.352  -8.506  0.00  0.00     0.066 H 
ATOM     30  C   LIG d   1       4.448 -10.630  -5.211  0.00  0.00     0.162 A 
ATOM     31  C   LIG d   1       4.717  -9.274  -5.305  0.00  0.00    -0.016 A 
ATOM     32  C   LIG d   1       4.798  -8.670  -6.546  0.00  0.00    -0.054 A 
ATOM     33  H   LIG d   1       4.861  -8.688  -4.409  0.00  0.00     0.066 H 
ATOM     34  H   LIG d   1       5.012  -7.614  -6.619  0.00  0.00     0.062 H 
BRANCH  28  35
ATOM     35  O   LIG d   1       3.999 -12.713  -6.279  0.00  0.00    -0.491 OA
BRANCH  35  36
ATOM     36  C   LIG d   1       2.663 -13.130  -6.565  0.00  0.00     0.079 C 
ATOM     37  H   LIG d   1       2.366 -13.919  -5.859  0.00  0.00     0.066 H 
ATOM     38  H   LIG d   1       2.613 -13.520  -7.593  0.00  0.00     0.066 H 
ATOM     39  H   LIG d   1       1.981 -12.272  -6.466  0.00  0.00     0.066 H 
ENDBRANCH  35  36
ENDBRANCH  28  35
BRANCH  30  40
ATOM     40  O   LIG d   1       4.367 -11.225  -3.990  0.00  0.00    -0.491 OA
BRANCH  40  41
ATOM     41  C   LIG d   1       3.241 -10.887  -3.177  0.00  0.00     0.079 C 
ATOM     42  H   LIG d   1       2.785  -9.959  -3.551  0.00  0.00     0.066 H 
ATOM     43  H   LIG d   1       3.571 -10.742  -2.137  0.00  0.00     0.066 H 
ATOM     44  H   LIG d   1       2.503 -11.701  -3.216  0.00  0.00     0.066 H 
ENDBRANCH  40  41
ENDBRANCH  30  40
ENDBRANCH  23  26
ENDBRANCH  13  23
BRANCH   1  45
ATOM     45  C   LIG d   1       3.208  -0.059  -9.556  0.00  0.00     0.030 A 
ATOM     46  C   LIG d   1       2.908   0.602  -8.361  0.00  0.00     0.128 A 
ATOM     47  C   LIG d   1       3.095   1.970  -8.267  0.00  0.00    -0.019 A 
ATOM     48  C   LIG d   1       3.566   2.682  -9.355  0.00  0.00    -0.058 A 
ATOM     49  H   LIG d   1       2.868   2.484  -7.343  0.00  0.00     0.065 H 
ATOM     50  C   LIG d   1       3.859   2.031 -10.540  0.00  0.00    -0.061 A 
ATOM     51  H   LIG d   1       3.707   3.750  -9.278  0.00  0.00     0.062 H 
ATOM     52  C   LIG d   1       3.682   0.667 -10.647  0.00  0.00    -0.050 A 
ATOM     53  H   LIG d   1       4.226   2.594 -11.386  0.00  0.00     0.062 H 
ATOM     54  H   LIG d   1       3.911   0.163 -11.573  0.00  0.00     0.062 H 
BRANCH  46  55
ATOM     55  O   LIG d   1       2.440  -0.098  -7.295  0.00  0.00    -0.494 OA
BRANCH  55  56
ATOM     56  C   LIG d   1       3.244  -0.095  -6.113  0.00  0.00     0.079 C 
ATOM     57  H   LIG d   1       2.597   0.005  -5.230  0.00  0.00     0.066 H 
ATOM     58  H   LIG d   1       3.946   0.750  -6.151  0.00  0.00     0.066 H 
ATOM     59  H   LIG d   1       3.808  -1.038  -6.051  0.00  0.00     0.066 H 
ENDBRANCH  55  56
ENDBRANCH  46  55
ENDBRANCH   1  45
TORSDOF 9
ENDMDL
