MODEL 1
REMARK VINA RESULT:      -8.1      0.000      0.000
REMARK  3 active torsions:
REMARK  status: ('A' for Active; 'I' for Inactive)
REMARK    1  A    between atoms: C_1  and  C_2 
REMARK    2  A    between atoms: C_3  and  C_28 
REMARK    3  A    between atoms: N_14  and  C_17 
ROOT
ATOM      1  C   LIG d   1      10.707   6.381  -4.446  0.00  0.00    -0.030 A 
ATOM      2  C   LIG d   1      10.781   6.483  -3.092  0.00  0.00     0.037 A 
ATOM      3  C   LIG d   1      10.285   5.441  -2.282  0.00  0.00     0.340 A 
ATOM      4  O   LIG d   1      10.358   5.546  -1.071  0.00  0.00    -0.245 OA
ATOM      5  O   LIG d   1       9.735   4.338  -2.811  0.00  0.00    -0.421 OA
ATOM      6  C   LIG d   1       9.633   4.172  -4.148  0.00  0.00     0.147 A 
ATOM      7  C   LIG d   1      10.101   5.175  -5.015  0.00  0.00     0.021 A 
ATOM      8  C   LIG d   1       9.989   5.009  -6.399  0.00  0.00    -0.047 A 
ATOM      9  C   LIG d   1       9.421   3.875  -6.902  0.00  0.00    -0.019 A 
ATOM     10  C   LIG d   1       8.950   2.877  -6.047  0.00  0.00     0.130 A 
ATOM     11  C   LIG d   1       9.065   3.020  -4.675  0.00  0.00     0.051 A 
ATOM     12  C   LIG d   1       8.569   1.946  -3.742  0.00  0.00     0.035 C 
ATOM     13  N   LIG d   1       7.662   1.043  -4.465  0.00  0.00    -0.259 N 
ATOM     14  C   LIG d   1       8.278   0.614  -5.731  0.00  0.00     0.144 C 
ATOM     15  O   LIG d   1       8.389   1.762  -6.585  0.00  0.00    -0.476 OA
ATOM     16  H   LIG d   1      10.350   5.776  -7.069  0.00  0.00     0.063 H 
ATOM     17  H   LIG d   1       9.334   3.749  -7.971  0.00  0.00     0.065 H 
ATOM     18  H   LIG d   1       9.417   1.377  -3.359  0.00  0.00     0.048 H 
ATOM     19  H   LIG d   1       8.036   2.406  -2.910  0.00  0.00     0.048 H 
ATOM     20  H   LIG d   1       9.263   0.189  -5.533  0.00  0.00     0.087 H 
ATOM     21  H   LIG d   1       7.645  -0.133  -6.211  0.00  0.00     0.087 H 
ENDROOT
BRANCH  13  22
ATOM     22  C   LIG d   1       7.298  -0.114  -3.636  0.00  0.00     0.039 C 
ATOM     23  H   LIG d   1       7.909  -0.114  -2.733  0.00  0.00     0.051 H 
ATOM     24  C   LIG d   1       5.845  -0.013  -3.254  0.00  0.00    -0.027 A 
ATOM     25  C   LIG d   1       4.999  -1.099  -3.269  0.00  0.00    -0.043 A 
ATOM     26  C   LIG d   1       5.361   1.231  -2.872  0.00  0.00    -0.057 A 
ATOM     27  C   LIG d   1       5.452  -2.475  -3.679  0.00  0.00    -0.027 C 
ATOM     28  C   LIG d   1       3.670  -0.940  -2.897  0.00  0.00    -0.058 A 
ATOM     29  C   LIG d   1       6.975  -2.575  -3.633  0.00  0.00    -0.047 C 
ATOM     30  H   LIG d   1       5.108  -2.680  -4.692  0.00  0.00     0.031 H 
ATOM     31  H   LIG d   1       5.024  -3.212  -2.999  0.00  0.00     0.031 H 
ATOM     32  C   LIG d   1       7.560  -1.397  -4.422  0.00  0.00    -0.033 C 
ATOM     33  H   LIG d   1       7.296  -3.513  -4.084  0.00  0.00     0.027 H 
ATOM     34  H   LIG d   1       7.316  -2.528  -2.598  0.00  0.00     0.027 H 
ATOM     35  H   LIG d   1       7.078  -1.335  -5.398  0.00  0.00     0.028 H 
ATOM     36  H   LIG d   1       8.634  -1.537  -4.550  0.00  0.00     0.028 H 
ATOM     37  C   LIG d   1       3.191   0.296  -2.518  0.00  0.00    -0.061 A 
ATOM     38  H   LIG d   1       3.006  -1.791  -2.906  0.00  0.00     0.062 H 
ATOM     39  C   LIG d   1       4.040   1.386  -2.505  0.00  0.00    -0.061 A 
ATOM     40  H   LIG d   1       2.156   0.411  -2.230  0.00  0.00     0.062 H 
ATOM     41  H   LIG d   1       3.670   2.358  -2.211  0.00  0.00     0.062 H 
ATOM     42  H   LIG d   1       6.024   2.083  -2.862  0.00  0.00     0.062 H 
ENDBRANCH  13  22
BRANCH   1  43
ATOM     43  C   LIG d   1      11.227   7.480  -5.335  0.00  0.00    -0.039 C 
ATOM     44  H   LIG d   1      10.671   7.484  -6.271  0.00  0.00     0.028 H 
ATOM     45  H   LIG d   1      11.105   8.440  -4.834  0.00  0.00     0.028 H 
ATOM     46  H   LIG d   1      12.284   7.310  -5.540  0.00  0.00     0.028 H 
ENDBRANCH   1  43
BRANCH   2  47
ATOM     47  C   LIG d   1      11.391   7.707  -2.460  0.00  0.00    -0.033 C 
ATOM     48  H   LIG d   1      12.147   8.122  -3.127  0.00  0.00     0.028 H 
ATOM     49  H   LIG d   1      10.614   8.451  -2.284  0.00  0.00     0.028 H 
ATOM     50  H   LIG d   1      11.855   7.433  -1.512  0.00  0.00     0.028 H 
ENDBRANCH   2  47
TORSDOF 3
ENDMDL
MODEL 2
REMARK VINA RESULT:      -7.3      5.194     10.350
REMARK  3 active torsions:
REMARK  status: ('A' for Active; 'I' for Inactive)
REMARK    1  A    between atoms: C_1  and  C_2 
REMARK    2  A    between atoms: C_3  and  C_28 
REMARK    3  A    between atoms: N_14  and  C_17 
ROOT
ATOM      1  C   LIG d   1       4.275  -8.132  -7.748  0.00  0.00    -0.030 A 
ATOM      2  C   LIG d   1       4.601  -8.905  -6.679  0.00  0.00     0.037 A 
ATOM      3  C   LIG d   1       4.941  -8.298  -5.452  0.00  0.00     0.340 A 
ATOM      4  O   LIG d   1       5.231  -9.004  -4.503  0.00  0.00    -0.245 OA
ATOM      5  O   LIG d   1       4.954  -6.965  -5.305  0.00  0.00    -0.421 OA
ATOM      6  C   LIG d   1       4.638  -6.140  -6.326  0.00  0.00     0.147 A 
ATOM      7  C   LIG d   1       4.296  -6.677  -7.580  0.00  0.00     0.021 A 
ATOM      8  C   LIG d   1       3.977  -5.824  -8.642  0.00  0.00    -0.047 A 
ATOM      9  C   LIG d   1       4.003  -4.472  -8.457  0.00  0.00    -0.019 A 
ATOM     10  C   LIG d   1       4.346  -3.932  -7.216  0.00  0.00     0.130 A 
ATOM     11  C   LIG d   1       4.652  -4.763  -6.152  0.00  0.00     0.051 A 
ATOM     12  C   LIG d   1       5.016  -4.191  -4.805  0.00  0.00     0.035 C 
ATOM     13  N   LIG d   1       5.365  -2.771  -4.949  0.00  0.00    -0.259 N 
ATOM     14  C   LIG d   1       4.331  -2.071  -5.728  0.00  0.00     0.144 C 
ATOM     15  O   LIG d   1       4.363  -2.581  -7.070  0.00  0.00    -0.476 OA
ATOM     16  H   LIG d   1       3.710  -6.233  -9.605  0.00  0.00     0.063 H 
ATOM     17  H   LIG d   1       3.757  -3.815  -9.277  0.00  0.00     0.065 H 
ATOM     18  H   LIG d   1       4.167  -4.289  -4.128  0.00  0.00     0.048 H 
ATOM     19  H   LIG d   1       5.868  -4.736  -4.398  0.00  0.00     0.048 H 
ATOM     20  H   LIG d   1       3.353  -2.245  -5.278  0.00  0.00     0.087 H 
ATOM     21  H   LIG d   1       4.545  -1.002  -5.743  0.00  0.00     0.087 H 
ENDROOT
BRANCH  13  22
ATOM     22  C   LIG d   1       5.554  -2.139  -3.636  0.00  0.00     0.039 C 
ATOM     23  H   LIG d   1       6.106  -2.819  -2.987  0.00  0.00     0.051 H 
ATOM     24  C   LIG d   1       6.340  -0.866  -3.807  0.00  0.00    -0.027 A 
ATOM     25  C   LIG d   1       6.024   0.295  -3.138  0.00  0.00    -0.043 A 
ATOM     26  C   LIG d   1       7.424  -0.886  -4.675  0.00  0.00    -0.057 A 
ATOM     27  C   LIG d   1       4.859   0.393  -2.189  0.00  0.00    -0.027 C 
ATOM     28  C   LIG d   1       6.795   1.434  -3.335  0.00  0.00    -0.058 A 
ATOM     29  C   LIG d   1       4.399  -0.998  -1.758  0.00  0.00    -0.047 C 
ATOM     30  H   LIG d   1       4.035   0.908  -2.682  0.00  0.00     0.031 H 
ATOM     31  H   LIG d   1       5.160   0.960  -1.308  0.00  0.00     0.031 H 
ATOM     32  C   LIG d   1       4.188  -1.849  -3.018  0.00  0.00    -0.033 C 
ATOM     33  H   LIG d   1       3.463  -0.921  -1.207  0.00  0.00     0.027 H 
ATOM     34  H   LIG d   1       5.161  -1.459  -1.129  0.00  0.00     0.027 H 
ATOM     35  H   LIG d   1       3.571  -1.301  -3.730  0.00  0.00     0.028 H 
ATOM     36  H   LIG d   1       3.699  -2.786  -2.750  0.00  0.00     0.028 H 
ATOM     37  C   LIG d   1       7.871   1.412  -4.197  0.00  0.00    -0.061 A 
ATOM     38  H   LIG d   1       6.549   2.344  -2.810  0.00  0.00     0.062 H 
ATOM     39  C   LIG d   1       8.187   0.247  -4.870  0.00  0.00    -0.061 A 
ATOM     40  H   LIG d   1       8.466   2.301  -4.343  0.00  0.00     0.062 H 
ATOM     41  H   LIG d   1       9.028   0.224  -5.548  0.00  0.00     0.062 H 
ATOM     42  H   LIG d   1       7.672  -1.796  -5.201  0.00  0.00     0.062 H 
ENDBRANCH  13  22
BRANCH   1  43
ATOM     43  C   LIG d   1       3.909  -8.754  -9.070  0.00  0.00    -0.039 C 
ATOM     44  H   LIG d   1       2.826  -8.757  -9.183  0.00  0.00     0.028 H 
ATOM     45  H   LIG d   1       4.357  -8.176  -9.879  0.00  0.00     0.028 H 
ATOM     46  H   LIG d   1       4.283  -9.777  -9.105  0.00  0.00     0.028 H 
ENDBRANCH   1  43
BRANCH   2  47
ATOM     47  C   LIG d   1       4.599 -10.407  -6.804  0.00  0.00    -0.033 C 
ATOM     48  H   LIG d   1       5.258 -10.704  -7.621  0.00  0.00     0.028 H 
ATOM     49  H   LIG d   1       4.951 -10.850  -5.873  0.00  0.00     0.028 H 
ATOM     50  H   LIG d   1       3.586 -10.752  -7.012  0.00  0.00     0.028 H 
ENDBRANCH   2  47
TORSDOF 3
ENDMDL
MODEL 3
REMARK VINA RESULT:      -7.2      1.927      7.661
REMARK  3 active torsions:
REMARK  status: ('A' for Active; 'I' for Inactive)
REMARK    1  A    between atoms: C_1  and  C_2 
REMARK    2  A    between atoms: C_3  and  C_28 
REMARK    3  A    between atoms: N_14  and  C_17 
ROOT
ATOM      1  C   LIG d   1       6.174  -1.363  -3.590  0.00  0.00    -0.030 A 
ATOM      2  C   LIG d   1       5.261  -0.804  -2.752  0.00  0.00     0.037 A 
ATOM      3  C   LIG d   1       5.337   0.572  -2.451  0.00  0.00     0.340 A 
ATOM      4  O   LIG d   1       4.512   1.060  -1.699  0.00  0.00    -0.245 OA
ATOM      5  O   LIG d   1       6.292   1.356  -2.972  0.00  0.00    -0.421 OA
ATOM      6  C   LIG d   1       7.227   0.864  -3.814  0.00  0.00     0.147 A 
ATOM      7  C   LIG d   1       7.216  -0.501  -4.151  0.00  0.00     0.021 A 
ATOM      8  C   LIG d   1       8.189  -1.015  -5.016  0.00  0.00    -0.047 A 
ATOM      9  C   LIG d   1       9.148  -0.188  -5.524  0.00  0.00    -0.019 A 
ATOM     10  C   LIG d   1       9.167   1.167  -5.191  0.00  0.00     0.130 A 
ATOM     11  C   LIG d   1       8.205   1.694  -4.346  0.00  0.00     0.051 A 
ATOM     12  C   LIG d   1       8.211   3.157  -3.985  0.00  0.00     0.035 C 
ATOM     13  N   LIG d   1       9.520   3.741  -4.307  0.00  0.00    -0.259 N 
ATOM     14  C   LIG d   1       9.914   3.377  -5.678  0.00  0.00     0.144 C 
ATOM     15  O   LIG d   1      10.139   1.959  -5.715  0.00  0.00    -0.476 OA
ATOM     16  H   LIG d   1       8.181  -2.062  -5.280  0.00  0.00     0.063 H 
ATOM     17  H   LIG d   1       9.898  -0.586  -6.191  0.00  0.00     0.065 H 
ATOM     18  H   LIG d   1       7.435   3.674  -4.551  0.00  0.00     0.048 H 
ATOM     19  H   LIG d   1       8.016   3.268  -2.918  0.00  0.00     0.048 H 
ATOM     20  H   LIG d   1       9.121   3.655  -6.372  0.00  0.00     0.087 H 
ATOM     21  H   LIG d   1      10.835   3.896  -5.944  0.00  0.00     0.087 H 
ENDROOT
BRANCH  13  22
ATOM     22  C   LIG d   1       9.505   5.199  -4.133  0.00  0.00     0.039 C 
ATOM     23  H   LIG d   1       8.529   5.505  -3.756  0.00  0.00     0.051 H 
ATOM     24  C   LIG d   1      10.566   5.591  -3.139  0.00  0.00    -0.027 A 
ATOM     25  C   LIG d   1      11.382   6.685  -3.319  0.00  0.00    -0.043 A 
ATOM     26  C   LIG d   1      10.710   4.807  -2.002  0.00  0.00    -0.057 A 
ATOM     27  C   LIG d   1      11.289   7.575  -4.531  0.00  0.00    -0.027 C 
ATOM     28  C   LIG d   1      12.338   6.997  -2.361  0.00  0.00    -0.058 A 
ATOM     29  C   LIG d   1       9.955   7.372  -5.245  0.00  0.00    -0.047 C 
ATOM     30  H   LIG d   1      12.104   7.338  -5.215  0.00  0.00     0.031 H 
ATOM     31  H   LIG d   1      11.374   8.616  -4.220  0.00  0.00     0.031 H 
ATOM     32  C   LIG d   1       9.757   5.869  -5.481  0.00  0.00    -0.033 C 
ATOM     33  H   LIG d   1       9.966   7.895  -6.201  0.00  0.00     0.027 H 
ATOM     34  H   LIG d   1       9.144   7.755  -4.625  0.00  0.00     0.027 H 
ATOM     35  H   LIG d   1      10.654   5.449  -5.938  0.00  0.00     0.028 H 
ATOM     36  H   LIG d   1       8.901   5.710  -6.137  0.00  0.00     0.028 H 
ATOM     37  C   LIG d   1      12.478   6.217  -1.232  0.00  0.00    -0.061 A 
ATOM     38  H   LIG d   1      12.976   7.856  -2.501  0.00  0.00     0.062 H 
ATOM     39  C   LIG d   1      11.661   5.118  -1.051  0.00  0.00    -0.061 A 
ATOM     40  H   LIG d   1      13.223   6.467  -0.491  0.00  0.00     0.062 H 
ATOM     41  H   LIG d   1      11.767   4.502  -0.170  0.00  0.00     0.062 H 
ATOM     42  H   LIG d   1      10.071   3.948  -1.860  0.00  0.00     0.062 H 
ENDBRANCH  13  22
BRANCH   1  43
ATOM     43  C   LIG d   1       6.118  -2.830  -3.927  0.00  0.00    -0.039 C 
ATOM     44  H   LIG d   1       7.130  -3.222  -4.015  0.00  0.00     0.028 H 
ATOM     45  H   LIG d   1       5.588  -3.364  -3.138  0.00  0.00     0.028 H 
ATOM     46  H   LIG d   1       5.592  -2.965  -4.873  0.00  0.00     0.028 H 
ENDBRANCH   1  43
BRANCH   2  47
ATOM     47  C   LIG d   1       4.173  -1.652  -2.146  0.00  0.00    -0.033 C 
ATOM     48  H   LIG d   1       3.698  -1.105  -1.332  0.00  0.00     0.028 H 
ATOM     49  H   LIG d   1       3.430  -1.888  -2.908  0.00  0.00     0.028 H 
ATOM     50  H   LIG d   1       4.605  -2.575  -1.760  0.00  0.00     0.028 H 
ENDBRANCH   2  47
TORSDOF 3
ENDMDL
MODEL 4
REMARK VINA RESULT:      -7.2      4.722      9.952
REMARK  3 active torsions:
REMARK  status: ('A' for Active; 'I' for Inactive)
REMARK    1  A    between atoms: C_1  and  C_2 
REMARK    2  A    between atoms: C_3  and  C_28 
REMARK    3  A    between atoms: N_14  and  C_17 
ROOT
ATOM      1  C   LIG d   1       6.796  -8.797  -5.326  0.00  0.00    -0.030 A 
ATOM      2  C   LIG d   1       5.582  -8.684  -5.927  0.00  0.00     0.037 A 
ATOM      3  C   LIG d   1       5.033  -7.406  -6.163  0.00  0.00     0.340 A 
ATOM      4  O   LIG d   1       3.944  -7.320  -6.702  0.00  0.00    -0.245 OA
ATOM      5  O   LIG d   1       5.679  -6.285  -5.810  0.00  0.00    -0.421 OA
ATOM      6  C   LIG d   1       6.889  -6.327  -5.212  0.00  0.00     0.147 A 
ATOM      7  C   LIG d   1       7.492  -7.568  -4.939  0.00  0.00     0.021 A 
ATOM      8  C   LIG d   1       8.742  -7.614  -4.313  0.00  0.00    -0.047 A 
ATOM      9  C   LIG d   1       9.369  -6.454  -3.964  0.00  0.00    -0.019 A 
ATOM     10  C   LIG d   1       8.774  -5.218  -4.228  0.00  0.00     0.130 A 
ATOM     11  C   LIG d   1       7.544  -5.155  -4.859  0.00  0.00     0.051 A 
ATOM     12  C   LIG d   1       6.895  -3.827  -5.156  0.00  0.00     0.035 C 
ATOM     13  N   LIG d   1       7.534  -2.774  -4.355  0.00  0.00    -0.259 N 
ATOM     14  C   LIG d   1       8.998  -2.860  -4.480  0.00  0.00     0.144 C 
ATOM     15  O   LIG d   1       9.428  -4.084  -3.864  0.00  0.00    -0.476 OA
ATOM     16  H   LIG d   1       9.210  -8.566  -4.105  0.00  0.00     0.063 H 
ATOM     17  H   LIG d   1      10.333  -6.491  -3.480  0.00  0.00     0.065 H 
ATOM     18  H   LIG d   1       7.010  -3.596  -6.215  0.00  0.00     0.048 H 
ATOM     19  H   LIG d   1       5.834  -3.878  -4.909  0.00  0.00     0.048 H 
ATOM     20  H   LIG d   1       9.277  -2.847  -5.535  0.00  0.00     0.087 H 
ATOM     21  H   LIG d   1       9.460  -2.016  -3.967  0.00  0.00     0.087 H 
ENDROOT
BRANCH  13  22
ATOM     22  C   LIG d   1       7.049  -1.445  -4.747  0.00  0.00     0.039 C 
ATOM     23  H   LIG d   1       6.501  -1.526  -5.686  0.00  0.00     0.051 H 
ATOM     24  C   LIG d   1       6.127  -0.918  -3.679  0.00  0.00    -0.027 A 
ATOM     25  C   LIG d   1       6.163   0.389  -3.248  0.00  0.00    -0.043 A 
ATOM     26  C   LIG d   1       5.212  -1.800  -3.121  0.00  0.00    -0.057 A 
ATOM     27  C   LIG d   1       7.134   1.399  -3.802  0.00  0.00    -0.027 C 
ATOM     28  C   LIG d   1       5.280   0.814  -2.263  0.00  0.00    -0.058 A 
ATOM     29  C   LIG d   1       7.712   0.916  -5.130  0.00  0.00    -0.047 C 
ATOM     30  H   LIG d   1       7.945   1.547  -3.089  0.00  0.00     0.031 H 
ATOM     31  H   LIG d   1       6.617   2.346  -3.958  0.00  0.00     0.031 H 
ATOM     32  C   LIG d   1       8.241  -0.510  -4.937  0.00  0.00    -0.033 C 
ATOM     33  H   LIG d   1       8.526   1.572  -5.437  0.00  0.00     0.027 H 
ATOM     34  H   LIG d   1       6.931   0.918  -5.892  0.00  0.00     0.027 H 
ATOM     35  H   LIG d   1       8.881  -0.547  -4.055  0.00  0.00     0.028 H 
ATOM     36  H   LIG d   1       8.809  -0.813  -5.817  0.00  0.00     0.028 H 
ATOM     37  C   LIG d   1       4.371  -0.064  -1.711  0.00  0.00    -0.061 A 
ATOM     38  H   LIG d   1       5.306   1.839  -1.927  0.00  0.00     0.062 H 
ATOM     39  C   LIG d   1       4.336  -1.376  -2.141  0.00  0.00    -0.061 A 
ATOM     40  H   LIG d   1       3.687   0.275  -0.947  0.00  0.00     0.062 H 
ATOM     41  H   LIG d   1       3.628  -2.069  -1.712  0.00  0.00     0.062 H 
ATOM     42  H   LIG d   1       5.184  -2.826  -3.457  0.00  0.00     0.062 H 
ENDBRANCH  13  22
BRANCH   1  43
ATOM     43  C   LIG d   1       7.404 -10.149  -5.060  0.00  0.00    -0.039 C 
ATOM     44  H   LIG d   1       7.273 -10.785  -5.935  0.00  0.00     0.028 H 
ATOM     45  H   LIG d   1       8.468 -10.033  -4.851  0.00  0.00     0.028 H 
ATOM     46  H   LIG d   1       6.914 -10.605  -4.200  0.00  0.00     0.028 H 
ENDBRANCH   1  43
BRANCH   2  47
ATOM     47  C   LIG d   1       4.825  -9.920  -6.338  0.00  0.00    -0.033 C 
ATOM     48  H   LIG d   1       5.530 -10.721  -6.558  0.00  0.00     0.028 H 
ATOM     49  H   LIG d   1       4.165 -10.229  -5.527  0.00  0.00     0.028 H 
ATOM     50  H   LIG d   1       4.232  -9.703  -7.228  0.00  0.00     0.028 H 
ENDBRANCH   2  47
TORSDOF 3
ENDMDL
MODEL 5
REMARK VINA RESULT:      -7.0      6.126      8.856
REMARK  3 active torsions:
REMARK  status: ('A' for Active; 'I' for Inactive)
REMARK    1  A    between atoms: C_1  and  C_2 
REMARK    2  A    between atoms: C_3  and  C_28 
REMARK    3  A    between atoms: N_14  and  C_17 
ROOT
ATOM      1  C   LIG d   1       4.188  -1.162 -12.537  0.00  0.00    -0.030 A 
ATOM      2  C   LIG d   1       4.268  -2.516 -12.454  0.00  0.00     0.037 A 
ATOM      3  C   LIG d   1       4.168  -3.149 -11.198  0.00  0.00     0.340 A 
ATOM      4  O   LIG d   1       4.241  -4.363 -11.139  0.00  0.00    -0.245 OA
ATOM      5  O   LIG d   1       3.994  -2.448 -10.067  0.00  0.00    -0.421 OA
ATOM      6  C   LIG d   1       3.904  -1.101 -10.079  0.00  0.00     0.147 A 
ATOM      7  C   LIG d   1       4.003  -0.404 -11.297  0.00  0.00     0.021 A 
ATOM      8  C   LIG d   1       3.918   0.992 -11.312  0.00  0.00    -0.047 A 
ATOM      9  C   LIG d   1       3.745   1.673 -10.142  0.00  0.00    -0.019 A 
ATOM     10  C   LIG d   1       3.650   0.988  -8.929  0.00  0.00     0.130 A 
ATOM     11  C   LIG d   1       3.719  -0.394  -8.899  0.00  0.00     0.051 A 
ATOM     12  C   LIG d   1       3.610  -1.145  -7.597  0.00  0.00     0.035 C 
ATOM     13  N   LIG d   1       3.832  -0.223  -6.474  0.00  0.00    -0.259 N 
ATOM     14  C   LIG d   1       3.002   0.982  -6.637  0.00  0.00     0.144 C 
ATOM     15  O   LIG d   1       3.479   1.700  -7.785  0.00  0.00    -0.476 OA
ATOM     16  H   LIG d   1       3.990   1.531 -12.246  0.00  0.00     0.063 H 
ATOM     17  H   LIG d   1       3.680   2.751 -10.155  0.00  0.00     0.065 H 
ATOM     18  H   LIG d   1       2.615  -1.585  -7.514  0.00  0.00     0.048 H 
ATOM     19  H   LIG d   1       4.359  -1.937  -7.571  0.00  0.00     0.048 H 
ATOM     20  H   LIG d   1       1.960   0.693  -6.775  0.00  0.00     0.087 H 
ATOM     21  H   LIG d   1       3.095   1.612  -5.752  0.00  0.00     0.087 H 
ENDROOT
BRANCH  13  22
ATOM     22  C   LIG d   1       3.560  -0.881  -5.190  0.00  0.00     0.039 C 
ATOM     23  H   LIG d   1       2.935  -1.758  -5.361  0.00  0.00     0.051 H 
ATOM     24  C   LIG d   1       4.861  -1.312  -4.568  0.00  0.00    -0.027 A 
ATOM     25  C   LIG d   1       5.127  -1.160  -3.225  0.00  0.00    -0.043 A 
ATOM     26  C   LIG d   1       5.817  -1.886  -5.396  0.00  0.00    -0.057 A 
ATOM     27  C   LIG d   1       4.143  -0.539  -2.269  0.00  0.00    -0.027 C 
ATOM     28  C   LIG d   1       6.346  -1.585  -2.713  0.00  0.00    -0.058 A 
ATOM     29  C   LIG d   1       2.740  -0.530  -2.873  0.00  0.00    -0.047 C 
ATOM     30  H   LIG d   1       4.448   0.484  -2.052  0.00  0.00     0.031 H 
ATOM     31  H   LIG d   1       4.131  -1.114  -1.343  0.00  0.00     0.031 H 
ATOM     32  C   LIG d   1       2.821   0.092  -4.273  0.00  0.00    -0.033 C 
ATOM     33  H   LIG d   1       2.075   0.063  -2.247  0.00  0.00     0.027 H 
ATOM     34  H   LIG d   1       2.365  -1.551  -2.947  0.00  0.00     0.027 H 
ATOM     35  H   LIG d   1       3.366   1.035  -4.224  0.00  0.00     0.028 H 
ATOM     36  H   LIG d   1       1.816   0.267  -4.656  0.00  0.00     0.028 H 
ATOM     37  C   LIG d   1       7.293  -2.155  -3.537  0.00  0.00    -0.061 A 
ATOM     38  H   LIG d   1       6.554  -1.468  -1.660  0.00  0.00     0.062 H 
ATOM     39  C   LIG d   1       7.027  -2.306  -4.885  0.00  0.00    -0.061 A 
ATOM     40  H   LIG d   1       8.238  -2.484  -3.131  0.00  0.00     0.062 H 
ATOM     41  H   LIG d   1       7.766  -2.751  -5.536  0.00  0.00     0.062 H 
ATOM     42  H   LIG d   1       5.609  -2.004  -6.450  0.00  0.00     0.062 H 
ENDBRANCH  13  22
BRANCH   1  43
ATOM     43  C   LIG d   1       4.293  -0.460 -13.865  0.00  0.00    -0.039 C 
ATOM     44  H   LIG d   1       3.526  -0.840 -14.539  0.00  0.00     0.028 H 
ATOM     45  H   LIG d   1       4.153   0.612 -13.722  0.00  0.00     0.028 H 
ATOM     46  H   LIG d   1       5.278  -0.643 -14.295  0.00  0.00     0.028 H 
ENDBRANCH   1  43
BRANCH   2  47
ATOM     47  C   LIG d   1       4.463  -3.339 -13.701  0.00  0.00    -0.033 C 
ATOM     48  H   LIG d   1       5.191  -4.126 -13.507  0.00  0.00     0.028 H 
ATOM     49  H   LIG d   1       3.513  -3.786 -13.994  0.00  0.00     0.028 H 
ATOM     50  H   LIG d   1       4.827  -2.698 -14.505  0.00  0.00     0.028 H 
ENDBRANCH   2  47
TORSDOF 3
ENDMDL
MODEL 6
REMARK VINA RESULT:      -7.0      6.481     10.759
REMARK  3 active torsions:
REMARK  status: ('A' for Active; 'I' for Inactive)
REMARK    1  A    between atoms: C_1  and  C_2 
REMARK    2  A    between atoms: C_3  and  C_28 
REMARK    3  A    between atoms: N_14  and  C_17 
ROOT
ATOM      1  C   LIG d   1       7.080  -9.812  -4.702  0.00  0.00    -0.030 A 
ATOM      2  C   LIG d   1       5.801 -10.243  -4.542  0.00  0.00     0.037 A 
ATOM      3  C   LIG d   1       4.733  -9.330  -4.668  0.00  0.00     0.340 A 
ATOM      4  O   LIG d   1       3.592  -9.730  -4.522  0.00  0.00    -0.245 OA
ATOM      5  O   LIG d   1       4.942  -8.034  -4.944  0.00  0.00    -0.421 OA
ATOM      6  C   LIG d   1       6.187  -7.542  -5.117  0.00  0.00     0.147 A 
ATOM      7  C   LIG d   1       7.299  -8.394  -4.999  0.00  0.00     0.021 A 
ATOM      8  C   LIG d   1       8.591  -7.886  -5.170  0.00  0.00    -0.047 A 
ATOM      9  C   LIG d   1       8.766  -6.561  -5.447  0.00  0.00    -0.019 A 
ATOM     10  C   LIG d   1       7.667  -5.708  -5.562  0.00  0.00     0.130 A 
ATOM     11  C   LIG d   1       6.382  -6.199  -5.408  0.00  0.00     0.051 A 
ATOM     12  C   LIG d   1       5.187  -5.289  -5.537  0.00  0.00     0.035 C 
ATOM     13  N   LIG d   1       5.618  -3.888  -5.433  0.00  0.00    -0.259 N 
ATOM     14  C   LIG d   1       6.761  -3.642  -6.327  0.00  0.00     0.144 C 
ATOM     15  O   LIG d   1       7.881  -4.394  -5.836  0.00  0.00    -0.476 OA
ATOM     16  H   LIG d   1       9.447  -8.538  -5.084  0.00  0.00     0.063 H 
ATOM     17  H   LIG d   1       9.764  -6.169  -5.578  0.00  0.00     0.065 H 
ATOM     18  H   LIG d   1       4.711  -5.450  -6.505  0.00  0.00     0.048 H 
ATOM     19  H   LIG d   1       4.475  -5.511  -4.742  0.00  0.00     0.048 H 
ATOM     20  H   LIG d   1       6.507  -3.954  -7.340  0.00  0.00     0.087 H 
ATOM     21  H   LIG d   1       7.009  -2.580  -6.320  0.00  0.00     0.087 H 
ENDROOT
BRANCH  13  22
ATOM     22  C   LIG d   1       4.509  -2.972  -5.730  0.00  0.00     0.039 C 
ATOM     23  H   LIG d   1       3.597  -3.549  -5.881  0.00  0.00     0.051 H 
ATOM     24  C   LIG d   1       4.316  -2.034  -4.568  0.00  0.00    -0.027 A 
ATOM     25  C   LIG d   1       4.073  -0.689  -4.734  0.00  0.00    -0.043 A 
ATOM     26  C   LIG d   1       4.388  -2.566  -3.287  0.00  0.00    -0.057 A 
ATOM     27  C   LIG d   1       3.990  -0.041  -6.091  0.00  0.00    -0.027 C 
ATOM     28  C   LIG d   1       3.897   0.122  -3.619  0.00  0.00    -0.058 A 
ATOM     29  C   LIG d   1       3.772  -1.094  -7.176  0.00  0.00    -0.047 C 
ATOM     30  H   LIG d   1       4.918   0.495  -6.291  0.00  0.00     0.031 H 
ATOM     31  H   LIG d   1       3.159   0.664  -6.103  0.00  0.00     0.031 H 
ATOM     32  C   LIG d   1       4.829  -2.192  -7.003  0.00  0.00    -0.033 C 
ATOM     33  H   LIG d   1       3.877  -0.636  -8.159  0.00  0.00     0.027 H 
ATOM     34  H   LIG d   1       2.776  -1.525  -7.074  0.00  0.00     0.027 H 
ATOM     35  H   LIG d   1       5.817  -1.739  -6.918  0.00  0.00     0.028 H 
ATOM     36  H   LIG d   1       4.805  -2.863  -7.862  0.00  0.00     0.028 H 
ATOM     37  C   LIG d   1       3.968  -0.409  -2.349  0.00  0.00    -0.061 A 
ATOM     38  H   LIG d   1       3.704   1.176  -3.749  0.00  0.00     0.062 H 
ATOM     39  C   LIG d   1       4.214  -1.758  -2.181  0.00  0.00    -0.061 A 
ATOM     40  H   LIG d   1       3.829   0.228  -1.488  0.00  0.00     0.062 H 
ATOM     41  H   LIG d   1       4.272  -2.180  -1.188  0.00  0.00     0.062 H 
ATOM     42  H   LIG d   1       4.580  -3.620  -3.156  0.00  0.00     0.062 H 
ENDBRANCH  13  22
BRANCH   1  43
ATOM     43  C   LIG d   1       8.239 -10.764  -4.572  0.00  0.00    -0.039 C 
ATOM     44  H   LIG d   1       8.212 -11.239  -3.592  0.00  0.00     0.028 H 
ATOM     45  H   LIG d   1       8.172 -11.528  -5.348  0.00  0.00     0.028 H 
ATOM     46  H   LIG d   1       9.174 -10.215  -4.684  0.00  0.00     0.028 H 
ENDBRANCH   1  43
BRANCH   2  47
ATOM     47  C   LIG d   1       5.525 -11.691  -4.231  0.00  0.00    -0.033 C 
ATOM     48  H   LIG d   1       6.456 -12.186  -3.952  0.00  0.00     0.028 H 
ATOM     49  H   LIG d   1       4.817 -11.757  -3.405  0.00  0.00     0.028 H 
ATOM     50  H   LIG d   1       5.105 -12.178  -5.111  0.00  0.00     0.028 H 
ENDBRANCH   2  47
TORSDOF 3
ENDMDL
MODEL 7
REMARK VINA RESULT:      -6.9      1.883      2.411
REMARK  3 active torsions:
REMARK  status: ('A' for Active; 'I' for Inactive)
REMARK    1  A    between atoms: C_1  and  C_2 
REMARK    2  A    between atoms: C_3  and  C_28 
REMARK    3  A    between atoms: N_14  and  C_17 
ROOT
ATOM      1  C   LIG d   1      10.548   4.875  -7.309  0.00  0.00    -0.030 A 
ATOM      2  C   LIG d   1      11.206   4.927  -6.121  0.00  0.00     0.037 A 
ATOM      3  C   LIG d   1      10.944   3.955  -5.132  0.00  0.00     0.340 A 
ATOM      4  O   LIG d   1      11.540   4.013  -4.072  0.00  0.00    -0.245 OA
ATOM      5  O   LIG d   1      10.055   2.970  -5.330  0.00  0.00    -0.421 OA
ATOM      6  C   LIG d   1       9.370   2.860  -6.489  0.00  0.00     0.147 A 
ATOM      7  C   LIG d   1       9.576   3.799  -7.515  0.00  0.00     0.021 A 
ATOM      8  C   LIG d   1       8.862   3.693  -8.713  0.00  0.00    -0.047 A 
ATOM      9  C   LIG d   1       7.963   2.679  -8.878  0.00  0.00    -0.019 A 
ATOM     10  C   LIG d   1       7.750   1.746  -7.862  0.00  0.00     0.130 A 
ATOM     11  C   LIG d   1       8.458   1.830  -6.676  0.00  0.00     0.051 A 
ATOM     12  C   LIG d   1       8.243   0.824  -5.574  0.00  0.00     0.035 C 
ATOM     13  N   LIG d   1       6.986   0.100  -5.805  0.00  0.00    -0.259 N 
ATOM     14  C   LIG d   1       6.929  -0.387  -7.193  0.00  0.00     0.144 C 
ATOM     15  O   LIG d   1       6.846   0.752  -8.062  0.00  0.00    -0.476 OA
ATOM     16  H   LIG d   1       9.021   4.410  -9.505  0.00  0.00     0.063 H 
ATOM     17  H   LIG d   1       7.412   2.599  -9.803  0.00  0.00     0.065 H 
ATOM     18  H   LIG d   1       9.072   0.116  -5.563  0.00  0.00     0.048 H 
ATOM     19  H   LIG d   1       8.194   1.341  -4.615  0.00  0.00     0.048 H 
ATOM     20  H   LIG d   1       7.824  -0.970  -7.413  0.00  0.00     0.087 H 
ATOM     21  H   LIG d   1       6.043  -1.009  -7.327  0.00  0.00     0.087 H 
ENDROOT
BRANCH  13  22
ATOM     22  C   LIG d   1       6.831  -1.006  -4.851  0.00  0.00     0.039 C 
ATOM     23  H   LIG d   1       7.799  -1.231  -4.403  0.00  0.00     0.051 H 
ATOM     24  C   LIG d   1       5.866  -0.598  -3.770  0.00  0.00    -0.027 A 
ATOM     25  C   LIG d   1       4.896  -1.446  -3.284  0.00  0.00    -0.043 A 
ATOM     26  C   LIG d   1       5.975   0.687  -3.255  0.00  0.00    -0.057 A 
ATOM     27  C   LIG d   1       4.713  -2.849  -3.800  0.00  0.00    -0.027 C 
ATOM     28  C   LIG d   1       4.041  -1.010  -2.280  0.00  0.00    -0.058 A 
ATOM     29  C   LIG d   1       5.959  -3.311  -4.554  0.00  0.00    -0.047 C 
ATOM     30  H   LIG d   1       3.855  -2.877  -4.471  0.00  0.00     0.031 H 
ATOM     31  H   LIG d   1       4.533  -3.521  -2.960  0.00  0.00     0.031 H 
ATOM     32  C   LIG d   1       6.320  -2.240  -5.591  0.00  0.00    -0.033 C 
ATOM     33  H   LIG d   1       5.754  -4.255  -5.058  0.00  0.00     0.027 H 
ATOM     34  H   LIG d   1       6.786  -3.438  -3.855  0.00  0.00     0.027 H 
ATOM     35  H   LIG d   1       5.434  -1.980  -6.172  0.00  0.00     0.028 H 
ATOM     36  H   LIG d   1       7.097  -2.619  -6.255  0.00  0.00     0.028 H 
ATOM     37  C   LIG d   1       4.152   0.266  -1.769  0.00  0.00    -0.061 A 
ATOM     38  H   LIG d   1       3.282  -1.676  -1.897  0.00  0.00     0.062 H 
ATOM     39  C   LIG d   1       5.123   1.118  -2.259  0.00  0.00    -0.061 A 
ATOM     40  H   LIG d   1       3.484   0.597  -0.988  0.00  0.00     0.062 H 
ATOM     41  H   LIG d   1       5.215   2.119  -1.864  0.00  0.00     0.062 H 
ATOM     42  H   LIG d   1       6.735   1.353  -3.637  0.00  0.00     0.062 H 
ENDBRANCH  13  22
BRANCH   1  43
ATOM     43  C   LIG d   1      10.808   5.901  -8.382  0.00  0.00    -0.039 C 
ATOM     44  H   LIG d   1      11.047   5.396  -9.317  0.00  0.00     0.028 H 
ATOM     45  H   LIG d   1       9.918   6.517  -8.518  0.00  0.00     0.028 H 
ATOM     46  H   LIG d   1      11.644   6.533  -8.084  0.00  0.00     0.028 H 
ENDBRANCH   1  43
BRANCH   2  47
ATOM     47  C   LIG d   1      12.211   6.018  -5.860  0.00  0.00    -0.033 C 
ATOM     48  H   LIG d   1      13.052   5.908  -6.545  0.00  0.00     0.028 H 
ATOM     49  H   LIG d   1      11.741   6.989  -6.014  0.00  0.00     0.028 H 
ATOM     50  H   LIG d   1      12.568   5.945  -4.832  0.00  0.00     0.028 H 
ENDBRANCH   2  47
TORSDOF 3
ENDMDL
MODEL 8
REMARK VINA RESULT:      -6.8      5.231      9.925
REMARK  3 active torsions:
REMARK  status: ('A' for Active; 'I' for Inactive)
REMARK    1  A    between atoms: C_1  and  C_2 
REMARK    2  A    between atoms: C_3  and  C_28 
REMARK    3  A    between atoms: N_14  and  C_17 
ROOT
ATOM      1  C   LIG d   1       2.287  -5.565  -9.866  0.00  0.00    -0.030 A 
ATOM      2  C   LIG d   1       1.676  -4.546 -10.525  0.00  0.00     0.037 A 
ATOM      3  C   LIG d   1       1.961  -3.211 -10.170  0.00  0.00     0.340 A 
ATOM      4  O   LIG d   1       1.406  -2.308 -10.770  0.00  0.00    -0.245 OA
ATOM      5  O   LIG d   1       2.827  -2.911  -9.191  0.00  0.00    -0.421 OA
ATOM      6  C   LIG d   1       3.471  -3.876  -8.499  0.00  0.00     0.147 A 
ATOM      7  C   LIG d   1       3.228  -5.229  -8.795  0.00  0.00     0.021 A 
ATOM      8  C   LIG d   1       3.887  -6.231  -8.074  0.00  0.00    -0.047 A 
ATOM      9  C   LIG d   1       4.760  -5.889  -7.082  0.00  0.00    -0.019 A 
ATOM     10  C   LIG d   1       5.002  -4.548  -6.780  0.00  0.00     0.130 A 
ATOM     11  C   LIG d   1       4.368  -3.545  -7.493  0.00  0.00     0.051 A 
ATOM     12  C   LIG d   1       4.627  -2.093  -7.182  0.00  0.00     0.035 C 
ATOM     13  N   LIG d   1       5.259  -1.976  -5.860  0.00  0.00    -0.259 N 
ATOM     14  C   LIG d   1       6.394  -2.908  -5.757  0.00  0.00     0.144 C 
ATOM     15  O   LIG d   1       5.876  -4.247  -5.784  0.00  0.00    -0.476 OA
ATOM     16  H   LIG d   1       3.706  -7.271  -8.301  0.00  0.00     0.063 H 
ATOM     17  H   LIG d   1       5.267  -6.663  -6.526  0.00  0.00     0.065 H 
ATOM     18  H   LIG d   1       5.290  -1.673  -7.939  0.00  0.00     0.048 H 
ATOM     19  H   LIG d   1       3.683  -1.548  -7.183  0.00  0.00     0.048 H 
ATOM     20  H   LIG d   1       7.077  -2.747  -6.592  0.00  0.00     0.087 H 
ATOM     21  H   LIG d   1       6.919  -2.743  -4.815  0.00  0.00     0.087 H 
ENDROOT
BRANCH  13  22
ATOM     22  C   LIG d   1       5.686  -0.595  -5.600  0.00  0.00     0.039 C 
ATOM     23  H   LIG d   1       5.367   0.040  -6.426  0.00  0.00     0.051 H 
ATOM     24  C   LIG d   1       5.047  -0.110  -4.326  0.00  0.00    -0.027 A 
ATOM     25  C   LIG d   1       5.734   0.624  -3.385  0.00  0.00    -0.043 A 
ATOM     26  C   LIG d   1       3.711  -0.424  -4.111  0.00  0.00    -0.057 A 
ATOM     27  C   LIG d   1       7.185   0.994  -3.547  0.00  0.00    -0.027 C 
ATOM     28  C   LIG d   1       5.083   1.047  -2.233  0.00  0.00    -0.058 A 
ATOM     29  C   LIG d   1       7.618   0.844  -5.004  0.00  0.00    -0.047 C 
ATOM     30  H   LIG d   1       7.794   0.342  -2.921  0.00  0.00     0.031 H 
ATOM     31  H   LIG d   1       7.329   2.028  -3.234  0.00  0.00     0.031 H 
ATOM     32  C   LIG d   1       7.208  -0.552  -5.489  0.00  0.00    -0.033 C 
ATOM     33  H   LIG d   1       8.699   0.956  -5.079  0.00  0.00     0.027 H 
ATOM     34  H   LIG d   1       7.126   1.603  -5.613  0.00  0.00     0.027 H 
ATOM     35  H   LIG d   1       7.546  -1.302  -4.773  0.00  0.00     0.028 H 
ATOM     36  H   LIG d   1       7.654  -0.747  -6.464  0.00  0.00     0.028 H 
ATOM     37  C   LIG d   1       3.757   0.735  -2.022  0.00  0.00    -0.061 A 
ATOM     38  H   LIG d   1       5.621   1.625  -1.496  0.00  0.00     0.062 H 
ATOM     39  C   LIG d   1       3.068  -0.004  -2.964  0.00  0.00    -0.061 A 
ATOM     40  H   LIG d   1       3.258   1.069  -1.124  0.00  0.00     0.062 H 
ATOM     41  H   LIG d   1       2.029  -0.253  -2.804  0.00  0.00     0.062 H 
ATOM     42  H   LIG d   1       3.172  -1.001  -4.847  0.00  0.00     0.062 H 
ENDBRANCH  13  22
BRANCH   1  43
ATOM     43  C   LIG d   1       2.000  -7.000 -10.223  0.00  0.00    -0.039 C 
ATOM     44  H   LIG d   1       1.061  -7.308  -9.764  0.00  0.00     0.028 H 
ATOM     45  H   LIG d   1       1.924  -7.097 -11.306  0.00  0.00     0.028 H 
ATOM     46  H   LIG d   1       2.809  -7.634  -9.858  0.00  0.00     0.028 H 
ENDBRANCH   1  43
BRANCH   2  47
ATOM     47  C   LIG d   1       0.696  -4.842 -11.631  0.00  0.00    -0.033 C 
ATOM     48  H   LIG d   1       1.104  -4.495 -12.580  0.00  0.00     0.028 H 
ATOM     49  H   LIG d   1       0.519  -5.916 -11.682  0.00  0.00     0.028 H 
ATOM     50  H   LIG d   1      -0.244  -4.327 -11.430  0.00  0.00     0.028 H 
ENDBRANCH   2  47
TORSDOF 3
ENDMDL
MODEL 9
REMARK VINA RESULT:      -6.6      5.145      7.486
REMARK  3 active torsions:
REMARK  status: ('A' for Active; 'I' for Inactive)
REMARK    1  A    between atoms: C_1  and  C_2 
REMARK    2  A    between atoms: C_3  and  C_28 
REMARK    3  A    between atoms: N_14  and  C_17 
ROOT
ATOM      1  C   LIG d   1      11.854  -5.100  -3.447  0.00  0.00    -0.030 A 
ATOM      2  C   LIG d   1      11.140  -6.155  -2.973  0.00  0.00     0.037 A 
ATOM      3  C   LIG d   1       9.731  -6.132  -3.036  0.00  0.00     0.340 A 
ATOM      4  O   LIG d   1       9.104  -7.085  -2.608  0.00  0.00    -0.245 OA
ATOM      5  O   LIG d   1       9.065  -5.090  -3.554  0.00  0.00    -0.421 OA
ATOM      6  C   LIG d   1       9.714  -4.011  -4.044  0.00  0.00     0.147 A 
ATOM      7  C   LIG d   1      11.119  -3.964  -4.007  0.00  0.00     0.021 A 
ATOM      8  C   LIG d   1      11.794  -2.845  -4.506  0.00  0.00    -0.047 A 
ATOM      9  C   LIG d   1      11.084  -1.800  -5.023  0.00  0.00    -0.019 A 
ATOM     10  C   LIG d   1       9.689  -1.839  -5.060  0.00  0.00     0.130 A 
ATOM     11  C   LIG d   1       9.007  -2.945  -4.581  0.00  0.00     0.051 A 
ATOM     12  C   LIG d   1       7.501  -3.002  -4.623  0.00  0.00     0.035 C 
ATOM     13  N   LIG d   1       6.961  -1.651  -4.833  0.00  0.00    -0.259 N 
ATOM     14  C   LIG d   1       7.649  -1.000  -5.960  0.00  0.00     0.144 C 
ATOM     15  O   LIG d   1       9.016  -0.779  -5.580  0.00  0.00    -0.476 OA
ATOM     16  H   LIG d   1      12.873  -2.806  -4.482  0.00  0.00     0.063 H 
ATOM     17  H   LIG d   1      11.605  -0.936  -5.407  0.00  0.00     0.065 H 
ATOM     18  H   LIG d   1       7.185  -3.650  -5.441  0.00  0.00     0.048 H 
ATOM     19  H   LIG d   1       7.127  -3.400  -3.679  0.00  0.00     0.048 H 
ATOM     20  H   LIG d   1       7.597  -1.642  -6.840  0.00  0.00     0.087 H 
ATOM     21  H   LIG d   1       7.174  -0.042  -6.174  0.00  0.00     0.087 H 
ENDROOT
BRANCH  13  22
ATOM     22  C   LIG d   1       5.510  -1.693  -5.054  0.00  0.00     0.039 C 
ATOM     23  H   LIG d   1       5.147  -2.704  -4.870  0.00  0.00     0.051 H 
ATOM     24  C   LIG d   1       4.835  -0.742  -4.101  0.00  0.00    -0.027 A 
ATOM     25  C   LIG d   1       3.801   0.082  -4.484  0.00  0.00    -0.043 A 
ATOM     26  C   LIG d   1       5.287  -0.712  -2.788  0.00  0.00    -0.057 A 
ATOM     27  C   LIG d   1       3.265   0.110  -5.892  0.00  0.00    -0.027 C 
ATOM     28  C   LIG d   1       3.217   0.932  -3.554  0.00  0.00    -0.058 A 
ATOM     29  C   LIG d   1       3.693  -1.142  -6.654  0.00  0.00    -0.047 C 
ATOM     30  H   LIG d   1       3.647   0.992  -6.405  0.00  0.00     0.031 H 
ATOM     31  H   LIG d   1       2.176   0.157  -5.861  0.00  0.00     0.031 H 
ATOM     32  C   LIG d   1       5.211  -1.306  -6.501  0.00  0.00    -0.033 C 
ATOM     33  H   LIG d   1       3.440  -1.035  -7.708  0.00  0.00     0.027 H 
ATOM     34  H   LIG d   1       3.187  -2.015  -6.240  0.00  0.00     0.027 H 
ATOM     35  H   LIG d   1       5.706  -0.365  -6.740  0.00  0.00     0.028 H 
ATOM     36  H   LIG d   1       5.565  -2.089  -7.172  0.00  0.00     0.028 H 
ATOM     37  C   LIG d   1       3.667   0.959  -2.250  0.00  0.00    -0.061 A 
ATOM     38  H   LIG d   1       2.405   1.577  -3.853  0.00  0.00     0.062 H 
ATOM     39  C   LIG d   1       4.706   0.134  -1.866  0.00  0.00    -0.061 A 
ATOM     40  H   LIG d   1       3.206   1.622  -1.533  0.00  0.00     0.062 H 
ATOM     41  H   LIG d   1       5.064   0.152  -0.847  0.00  0.00     0.062 H 
ATOM     42  H   LIG d   1       6.099  -1.357  -2.487  0.00  0.00     0.062 H 
ENDBRANCH  13  22
BRANCH   1  43
ATOM     43  C   LIG d   1      13.359  -5.097  -3.390  0.00  0.00    -0.039 C 
ATOM     44  H   LIG d   1      13.756  -5.650  -4.241  0.00  0.00     0.028 H 
ATOM     45  H   LIG d   1      13.722  -4.070  -3.423  0.00  0.00     0.028 H 
ATOM     46  H   LIG d   1      13.689  -5.568  -2.464  0.00  0.00     0.028 H 
ENDBRANCH   1  43
BRANCH   2  47
ATOM     47  C   LIG d   1      11.851  -7.345  -2.383  0.00  0.00    -0.033 C 
ATOM     48  H   LIG d   1      11.419  -7.581  -1.410  0.00  0.00     0.028 H 
ATOM     49  H   LIG d   1      11.740  -8.201  -3.047  0.00  0.00     0.028 H 
ATOM     50  H   LIG d   1      12.910  -7.112  -2.262  0.00  0.00     0.028 H 
ENDBRANCH   2  47
TORSDOF 3
ENDMDL
