MODEL 1
REMARK VINA RESULT:      -7.1      0.000      0.000
REMARK  8 active torsions:
REMARK  status: ('A' for Active; 'I' for Inactive)
REMARK    1  A    between atoms: C_1  and  O_2 
REMARK    2  A    between atoms: O_2  and  C_3 
REMARK    3  A    between atoms: C_6  and  C_9 
REMARK    4  A    between atoms: C_14  and  C_15 
REMARK    5  A    between atoms: C_18  and  O_22 
REMARK    6  A    between atoms: C_20  and  O_21 
REMARK    7  A    between atoms: O_22  and  C_23 
REMARK    8  A    between atoms: C_23  and  C_24 
ROOT
ATOM      1  C   LIG d   1       9.880   5.176  -2.845  0.00  0.00     0.044 A 
ATOM      2  C   LIG d   1       9.118   4.887  -3.975  0.00  0.00    -0.045 A 
ATOM      3  C   LIG d   1       9.060   3.597  -4.457  0.00  0.00    -0.019 A 
ATOM      4  C   LIG d   1       9.759   2.581  -3.818  0.00  0.00     0.124 A 
ATOM      5  C   LIG d   1      10.520   2.859  -2.692  0.00  0.00     0.022 A 
ATOM      6  C   LIG d   1      10.589   4.153  -2.205  0.00  0.00     0.130 A 
ATOM      7  H   LIG d   1       8.573   5.675  -4.474  0.00  0.00     0.063 H 
ATOM      8  H   LIG d   1       8.468   3.374  -5.333  0.00  0.00     0.065 H 
ATOM      9  H   LIG d   1      11.062   2.066  -2.197  0.00  0.00     0.069 H 
ENDROOT
BRANCH   1  10
ATOM     10  C   LIG d   1       9.944   6.562  -2.324  0.00  0.00     0.104 A 
ATOM     11  C   LIG d   1      10.176   7.731  -3.092  0.00  0.00     0.027 A 
ATOM     12  C   LIG d   1      10.151   8.793  -2.238  0.00  0.00     0.031 A 
ATOM     13  N   LIG d   1       9.922   8.320  -0.996  0.00  0.00    -0.283 N 
ATOM     14  H   LIG d   1      10.292   9.829  -2.507  0.00  0.00     0.083 H 
ATOM     15  H   LIG d   1       9.852   8.853  -0.189  0.00  0.00     0.188 HD
ATOM     16  N   LIG d   1       9.799   6.926  -1.069  0.00  0.00    -0.173 NA
BRANCH  11  17
ATOM     17  C   LIG d   1      10.399   7.789  -4.557  0.00  0.00    -0.014 A 
ATOM     18  C   LIG d   1       9.358   8.158  -5.409  0.00  0.00    -0.051 A 
ATOM     19  C   LIG d   1       9.569   8.211  -6.771  0.00  0.00    -0.019 A 
ATOM     20  H   LIG d   1       8.389   8.402  -5.001  0.00  0.00     0.062 H 
ATOM     21  C   LIG d   1      10.816   7.900  -7.294  0.00  0.00     0.120 A 
ATOM     22  H   LIG d   1       8.762   8.496  -7.430  0.00  0.00     0.065 H 
ATOM     23  C   LIG d   1      11.853   7.527  -6.450  0.00  0.00    -0.019 A 
ATOM     24  C   LIG d   1      11.650   7.477  -5.087  0.00  0.00    -0.051 A 
ATOM     25  H   LIG d   1      12.820   7.281  -6.861  0.00  0.00     0.065 H 
ATOM     26  H   LIG d   1      12.459   7.192  -4.430  0.00  0.00     0.062 H 
BRANCH  21  27
ATOM     27  O   LIG d   1      11.021   7.953  -8.637  0.00  0.00    -0.495 OA
BRANCH  27  28
ATOM     28  C   LIG d   1       9.865   8.109  -9.463  0.00  0.00     0.079 C 
ATOM     29  H   LIG d   1       8.966   7.973  -8.861  0.00  0.00     0.066 H 
ATOM     30  H   LIG d   1       9.862   9.107  -9.901  0.00  0.00     0.066 H 
ATOM     31  H   LIG d   1       9.885   7.363 -10.259  0.00  0.00     0.066 H 
ENDBRANCH  27  28
ENDBRANCH  21  27
ENDBRANCH  11  17
ENDBRANCH   1  10
BRANCH   6  32
ATOM     32  O   LIG d   1      11.338   4.429  -1.106  0.00  0.00    -0.506 OA
ATOM     33  H   LIG d   1      12.232   4.062  -1.138  0.00  0.00     0.292 HD
ENDBRANCH   6  32
BRANCH   4  34
ATOM     34  O   LIG d   1       9.698   1.310  -4.297  0.00  0.00    -0.487 OA
BRANCH  34  35
ATOM     35  C   LIG d   1       8.596   0.991  -5.149  0.00  0.00     0.115 C 
ATOM     36  H   LIG d   1       8.177   1.910  -5.560  0.00  0.00     0.075 H 
ATOM     37  H   LIG d   1       8.938   0.352  -5.963  0.00  0.00     0.075 H 
BRANCH  35  38
ATOM     38  C   LIG d   1       7.538   0.269  -4.354  0.00  0.00    -0.009 A 
ATOM     39  C   LIG d   1       6.664   0.986  -3.559  0.00  0.00    -0.036 A 
ATOM     40  C   LIG d   1       5.689   0.324  -2.834  0.00  0.00     0.060 A 
ATOM     41  H   LIG d   1       6.738   2.063  -3.507  0.00  0.00     0.064 H 
ATOM     42  C   LIG d   1       5.598  -1.057  -2.896  0.00  0.00     0.059 A 
ATOM     43 CL   LIG d   1       4.585   1.223  -1.840  0.00  0.00    -0.082 Cl
ATOM     44  C   LIG d   1       6.479  -1.771  -3.688  0.00  0.00    -0.042 A 
ATOM     45 CL   LIG d   1       4.380  -1.888  -1.981  0.00  0.00    -0.082 Cl
ATOM     46  C   LIG d   1       7.448  -1.108  -4.416  0.00  0.00    -0.054 A 
ATOM     47  H   LIG d   1       6.408  -2.847  -3.738  0.00  0.00     0.063 H 
ATOM     48  H   LIG d   1       8.136  -1.667  -5.034  0.00  0.00     0.062 H 
ENDBRANCH  35  38
ENDBRANCH  34  35
ENDBRANCH   4  34
TORSDOF 8
ENDMDL
MODEL 2
REMARK VINA RESULT:      -6.8      7.587     12.711
REMARK  8 active torsions:
REMARK  status: ('A' for Active; 'I' for Inactive)
REMARK    1  A    between atoms: C_1  and  O_2 
REMARK    2  A    between atoms: O_2  and  C_3 
REMARK    3  A    between atoms: C_6  and  C_9 
REMARK    4  A    between atoms: C_14  and  C_15 
REMARK    5  A    between atoms: C_18  and  O_22 
REMARK    6  A    between atoms: C_20  and  O_21 
REMARK    7  A    between atoms: O_22  and  C_23 
REMARK    8  A    between atoms: C_23  and  C_24 
ROOT
ATOM      1  C   LIG d   1      10.267  -6.612  -2.449  0.00  0.00     0.044 A 
ATOM      2  C   LIG d   1      10.401  -6.530  -3.833  0.00  0.00    -0.045 A 
ATOM      3  C   LIG d   1      10.058  -5.368  -4.492  0.00  0.00    -0.019 A 
ATOM      4  C   LIG d   1       9.579  -4.277  -3.779  0.00  0.00     0.124 A 
ATOM      5  C   LIG d   1       9.442  -4.350  -2.401  0.00  0.00     0.022 A 
ATOM      6  C   LIG d   1       9.779  -5.515  -1.732  0.00  0.00     0.130 A 
ATOM      7  H   LIG d   1      10.774  -7.377  -4.390  0.00  0.00     0.063 H 
ATOM      8  H   LIG d   1      10.163  -5.306  -5.565  0.00  0.00     0.065 H 
ATOM      9  H   LIG d   1       9.070  -3.499  -1.849  0.00  0.00     0.069 H 
ENDROOT
BRANCH   1  10
ATOM     10  C   LIG d   1      10.636  -7.859  -1.738  0.00  0.00     0.104 A 
ATOM     11  C   LIG d   1       9.859  -9.044  -1.674  0.00  0.00     0.027 A 
ATOM     12  C   LIG d   1      10.556  -9.950  -0.932  0.00  0.00     0.031 A 
ATOM     13  N   LIG d   1      11.708  -9.368  -0.543  0.00  0.00    -0.283 N 
ATOM     14  H   LIG d   1      10.240 -10.956  -0.697  0.00  0.00     0.083 H 
ATOM     15  H   LIG d   1      12.400  -9.782  -0.004  0.00  0.00     0.188 HD
ATOM     16  N   LIG d   1      11.739  -8.063  -1.052  0.00  0.00    -0.173 NA
BRANCH  11  17
ATOM     17  C   LIG d   1       8.534  -9.259  -2.304  0.00  0.00    -0.014 A 
ATOM     18  C   LIG d   1       7.428  -9.574  -1.516  0.00  0.00    -0.051 A 
ATOM     19  C   LIG d   1       6.196  -9.773  -2.105  0.00  0.00    -0.019 A 
ATOM     20  H   LIG d   1       7.535  -9.660  -0.445  0.00  0.00     0.062 H 
ATOM     21  C   LIG d   1       6.058  -9.660  -3.481  0.00  0.00     0.120 A 
ATOM     22  H   LIG d   1       5.340 -10.017  -1.494  0.00  0.00     0.065 H 
ATOM     23  C   LIG d   1       7.158  -9.353  -4.270  0.00  0.00    -0.019 A 
ATOM     24  C   LIG d   1       8.390  -9.147  -3.686  0.00  0.00    -0.051 A 
ATOM     25  H   LIG d   1       7.047  -9.270  -5.340  0.00  0.00     0.065 H 
ATOM     26  H   LIG d   1       9.245  -8.903  -4.300  0.00  0.00     0.062 H 
BRANCH  21  27
ATOM     27  O   LIG d   1       4.843  -9.857  -4.059  0.00  0.00    -0.495 OA
BRANCH  27  28
ATOM     28  C   LIG d   1       3.749 -10.149  -3.186  0.00  0.00     0.079 C 
ATOM     29  H   LIG d   1       3.035 -10.792  -3.700  0.00  0.00     0.066 H 
ATOM     30  H   LIG d   1       4.120 -10.657  -2.296  0.00  0.00     0.066 H 
ATOM     31  H   LIG d   1       3.259  -9.219  -2.896  0.00  0.00     0.066 H 
ENDBRANCH  27  28
ENDBRANCH  21  27
ENDBRANCH  11  17
ENDBRANCH   1  10
BRANCH   6  32
ATOM     32  O   LIG d   1       9.640  -5.590  -0.383  0.00  0.00    -0.506 OA
ATOM     33  H   LIG d   1       8.929  -6.177  -0.093  0.00  0.00     0.292 HD
ENDBRANCH   6  32
BRANCH   4  34
ATOM     34  O   LIG d   1       9.242  -3.134  -4.433  0.00  0.00    -0.487 OA
BRANCH  34  35
ATOM     35  C   LIG d   1       7.935  -3.078  -5.009  0.00  0.00     0.115 C 
ATOM     36  H   LIG d   1       8.009  -2.748  -6.045  0.00  0.00     0.075 H 
ATOM     37  H   LIG d   1       7.480  -4.067  -4.974  0.00  0.00     0.075 H 
BRANCH  35  38
ATOM     38  C   LIG d   1       7.085  -2.106  -4.232  0.00  0.00    -0.009 A 
ATOM     39  C   LIG d   1       5.895  -2.526  -3.669  0.00  0.00    -0.036 A 
ATOM     40  C   LIG d   1       5.118  -1.636  -2.950  0.00  0.00     0.060 A 
ATOM     41  H   LIG d   1       5.573  -3.551  -3.785  0.00  0.00     0.064 H 
ATOM     42  C   LIG d   1       5.527  -0.321  -2.805  0.00  0.00     0.059 A 
ATOM     43 CL   LIG d   1       3.627  -2.164  -2.236  0.00  0.00    -0.082 Cl
ATOM     44  C   LIG d   1       6.716   0.098  -3.375  0.00  0.00    -0.042 A 
ATOM     45 CL   LIG d   1       4.550   0.799  -1.909  0.00  0.00    -0.082 Cl
ATOM     46  C   LIG d   1       7.494  -0.794  -4.088  0.00  0.00    -0.054 A 
ATOM     47  H   LIG d   1       7.037   1.123  -3.261  0.00  0.00     0.063 H 
ATOM     48  H   LIG d   1       8.422  -0.465  -4.532  0.00  0.00     0.062 H 
ENDBRANCH  35  38
ENDBRANCH  34  35
ENDBRANCH   4  34
TORSDOF 8
ENDMDL
MODEL 3
REMARK VINA RESULT:      -6.6      2.112      4.137
REMARK  8 active torsions:
REMARK  status: ('A' for Active; 'I' for Inactive)
REMARK    1  A    between atoms: C_1  and  O_2 
REMARK    2  A    between atoms: O_2  and  C_3 
REMARK    3  A    between atoms: C_6  and  C_9 
REMARK    4  A    between atoms: C_14  and  C_15 
REMARK    5  A    between atoms: C_18  and  O_22 
REMARK    6  A    between atoms: C_20  and  O_21 
REMARK    7  A    between atoms: O_22  and  C_23 
REMARK    8  A    between atoms: C_23  and  C_24 
ROOT
ATOM      1  C   LIG d   1       9.623   5.260  -4.970  0.00  0.00     0.044 A 
ATOM      2  C   LIG d   1       9.335   4.762  -3.701  0.00  0.00    -0.045 A 
ATOM      3  C   LIG d   1       9.263   3.401  -3.494  0.00  0.00    -0.019 A 
ATOM      4  C   LIG d   1       9.477   2.522  -4.548  0.00  0.00     0.124 A 
ATOM      5  C   LIG d   1       9.764   3.010  -5.815  0.00  0.00     0.022 A 
ATOM      6  C   LIG d   1       9.832   4.375  -6.033  0.00  0.00     0.130 A 
ATOM      7  H   LIG d   1       9.169   5.442  -2.879  0.00  0.00     0.063 H 
ATOM      8  H   LIG d   1       9.041   3.016  -2.510  0.00  0.00     0.065 H 
ATOM      9  H   LIG d   1       9.930   2.323  -6.633  0.00  0.00     0.069 H 
ENDROOT
BRANCH   1  10
ATOM     10  C   LIG d   1       9.701   6.723  -5.195  0.00  0.00     0.104 A 
ATOM     11  C   LIG d   1      10.129   7.690  -4.251  0.00  0.00     0.027 A 
ATOM     12  C   LIG d   1      10.058   8.910  -4.855  0.00  0.00     0.031 A 
ATOM     13  N   LIG d   1       9.604   8.725  -6.111  0.00  0.00    -0.283 N 
ATOM     14  H   LIG d   1      10.319   9.858  -4.406  0.00  0.00     0.083 H 
ATOM     15  H   LIG d   1       9.456   9.420  -6.770  0.00  0.00     0.188 HD
ATOM     16  N   LIG d   1       9.384   7.355  -6.304  0.00  0.00    -0.173 NA
BRANCH  11  17
ATOM     17  C   LIG d   1      10.578   7.423  -2.863  0.00  0.00    -0.014 A 
ATOM     18  C   LIG d   1       9.714   7.653  -1.793  0.00  0.00    -0.051 A 
ATOM     19  C   LIG d   1      10.134   7.404  -0.502  0.00  0.00    -0.019 A 
ATOM     20  H   LIG d   1       8.718   8.026  -1.974  0.00  0.00     0.062 H 
ATOM     21  C   LIG d   1      11.416   6.923  -0.270  0.00  0.00     0.120 A 
ATOM     22  H   LIG d   1       9.466   7.583   0.326  0.00  0.00     0.065 H 
ATOM     23  C   LIG d   1      12.280   6.698  -1.333  0.00  0.00    -0.019 A 
ATOM     24  C   LIG d   1      11.863   6.941  -2.624  0.00  0.00    -0.051 A 
ATOM     25  H   LIG d   1      13.277   6.329  -1.147  0.00  0.00     0.065 H 
ATOM     26  H   LIG d   1      12.535   6.761  -3.451  0.00  0.00     0.062 H 
BRANCH  21  27
ATOM     27  O   LIG d   1      11.827   6.677   1.003  0.00  0.00    -0.495 OA
BRANCH  27  28
ATOM     28  C   LIG d   1      11.031   5.781   1.780  0.00  0.00     0.079 C 
ATOM     29  H   LIG d   1      11.323   4.753   1.563  0.00  0.00     0.066 H 
ATOM     30  H   LIG d   1      11.182   5.985   2.840  0.00  0.00     0.066 H 
ATOM     31  H   LIG d   1       9.979   5.920   1.530  0.00  0.00     0.066 H 
ENDBRANCH  27  28
ENDBRANCH  21  27
ENDBRANCH  11  17
ENDBRANCH   1  10
BRANCH   6  32
ATOM     32  O   LIG d   1      10.107   4.854  -7.274  0.00  0.00    -0.506 OA
ATOM     33  H   LIG d   1      10.410   4.180  -7.897  0.00  0.00     0.292 HD
ENDBRANCH   6  32
BRANCH   4  34
ATOM     34  O   LIG d   1       9.405   1.181  -4.340  0.00  0.00    -0.487 OA
BRANCH  34  35
ATOM     35  C   LIG d   1       8.554   0.434  -5.213  0.00  0.00     0.115 C 
ATOM     36  H   LIG d   1       8.141   1.099  -5.972  0.00  0.00     0.075 H 
ATOM     37  H   LIG d   1       9.129  -0.355  -5.694  0.00  0.00     0.075 H 
BRANCH  35  38
ATOM     38  C   LIG d   1       7.430  -0.177  -4.416  0.00  0.00    -0.009 A 
ATOM     39  C   LIG d   1       6.682   0.611  -3.562  0.00  0.00    -0.036 A 
ATOM     40  C   LIG d   1       5.645   0.052  -2.836  0.00  0.00     0.060 A 
ATOM     41  H   LIG d   1       6.901   1.665  -3.466  0.00  0.00     0.064 H 
ATOM     42  C   LIG d   1       5.367  -1.300  -2.956  0.00  0.00     0.059 A 
ATOM     43 CL   LIG d   1       4.699   1.042  -1.769  0.00  0.00    -0.082 Cl
ATOM     44  C   LIG d   1       6.122  -2.087  -3.806  0.00  0.00    -0.042 A 
ATOM     45 CL   LIG d   1       4.072  -2.004  -2.039  0.00  0.00    -0.082 Cl
ATOM     46  C   LIG d   1       7.153  -1.525  -4.536  0.00  0.00    -0.054 A 
ATOM     47  H   LIG d   1       5.906  -3.140  -3.901  0.00  0.00     0.063 H 
ATOM     48  H   LIG d   1       7.742  -2.141  -5.200  0.00  0.00     0.062 H 
ENDBRANCH  35  38
ENDBRANCH  34  35
ENDBRANCH   4  34
TORSDOF 8
ENDMDL
MODEL 4
REMARK VINA RESULT:      -6.6      3.072      4.108
REMARK  8 active torsions:
REMARK  status: ('A' for Active; 'I' for Inactive)
REMARK    1  A    between atoms: C_1  and  O_2 
REMARK    2  A    between atoms: O_2  and  C_3 
REMARK    3  A    between atoms: C_6  and  C_9 
REMARK    4  A    between atoms: C_14  and  C_15 
REMARK    5  A    between atoms: C_18  and  O_22 
REMARK    6  A    between atoms: C_20  and  O_21 
REMARK    7  A    between atoms: O_22  and  C_23 
REMARK    8  A    between atoms: C_23  and  C_24 
ROOT
ATOM      1  C   LIG d   1      11.225   3.627  -4.117  0.00  0.00     0.044 A 
ATOM      2  C   LIG d   1      10.735   3.809  -5.409  0.00  0.00    -0.045 A 
ATOM      3  C   LIG d   1       9.530   3.248  -5.774  0.00  0.00    -0.019 A 
ATOM      4  C   LIG d   1       8.800   2.502  -4.858  0.00  0.00     0.124 A 
ATOM      5  C   LIG d   1       9.281   2.317  -3.569  0.00  0.00     0.022 A 
ATOM      6  C   LIG d   1      10.493   2.871  -3.196  0.00  0.00     0.130 A 
ATOM      7  H   LIG d   1      11.300   4.389  -6.123  0.00  0.00     0.063 H 
ATOM      8  H   LIG d   1       9.151   3.390  -6.775  0.00  0.00     0.065 H 
ATOM      9  H   LIG d   1       8.710   1.736  -2.859  0.00  0.00     0.069 H 
ENDROOT
BRANCH   1  10
ATOM     10  C   LIG d   1      12.521   4.229  -3.721  0.00  0.00     0.104 A 
ATOM     11  C   LIG d   1      12.693   5.388  -2.923  0.00  0.00     0.027 A 
ATOM     12  C   LIG d   1      14.033   5.599  -2.791  0.00  0.00     0.031 A 
ATOM     13  N   LIG d   1      14.673   4.629  -3.475  0.00  0.00    -0.283 N 
ATOM     14  H   LIG d   1      14.499   6.401  -2.238  0.00  0.00     0.083 H 
ATOM     15  H   LIG d   1      15.635   4.529  -3.554  0.00  0.00     0.188 HD
ATOM     16  N   LIG d   1      13.714   3.786  -4.051  0.00  0.00    -0.173 NA
BRANCH  11  17
ATOM     17  C   LIG d   1      11.613   6.216  -2.333  0.00  0.00    -0.014 A 
ATOM     18  C   LIG d   1      10.884   7.090  -3.138  0.00  0.00    -0.051 A 
ATOM     19  C   LIG d   1       9.879   7.859  -2.587  0.00  0.00    -0.019 A 
ATOM     20  H   LIG d   1      11.105   7.165  -4.192  0.00  0.00     0.062 H 
ATOM     21  C   LIG d   1       9.594   7.761  -1.231  0.00  0.00     0.120 A 
ATOM     22  H   LIG d   1       9.315   8.536  -3.210  0.00  0.00     0.065 H 
ATOM     23  C   LIG d   1      10.322   6.896  -0.426  0.00  0.00    -0.019 A 
ATOM     24  C   LIG d   1      11.323   6.121  -0.973  0.00  0.00    -0.051 A 
ATOM     25  H   LIG d   1      10.100   6.827   0.628  0.00  0.00     0.065 H 
ATOM     26  H   LIG d   1      11.886   5.445  -0.346  0.00  0.00     0.062 H 
BRANCH  21  27
ATOM     27  O   LIG d   1       8.604   8.520  -0.691  0.00  0.00    -0.495 OA
BRANCH  27  28
ATOM     28  C   LIG d   1       8.869   9.915  -0.532  0.00  0.00     0.079 C 
ATOM     29  H   LIG d   1       8.572  10.448  -1.435  0.00  0.00     0.066 H 
ATOM     30  H   LIG d   1       8.304  10.298   0.318  0.00  0.00     0.066 H 
ATOM     31  H   LIG d   1       9.935  10.064  -0.357  0.00  0.00     0.066 H 
ENDBRANCH  27  28
ENDBRANCH  21  27
ENDBRANCH  11  17
ENDBRANCH   1  10
BRANCH   6  32
ATOM     32  O   LIG d   1      10.968   2.686  -1.937  0.00  0.00    -0.506 OA
ATOM     33  H   LIG d   1      11.572   3.380  -1.638  0.00  0.00     0.292 HD
ENDBRANCH   6  32
BRANCH   4  34
ATOM     34  O   LIG d   1       7.612   1.952  -5.222  0.00  0.00    -0.487 OA
BRANCH  34  35
ATOM     35  C   LIG d   1       7.619   0.564  -5.565  0.00  0.00     0.115 C 
ATOM     36  H   LIG d   1       7.343   0.447  -6.613  0.00  0.00     0.075 H 
ATOM     37  H   LIG d   1       8.616   0.155  -5.403  0.00  0.00     0.075 H 
BRANCH  35  38
ATOM     38  C   LIG d   1       6.628  -0.171  -4.699  0.00  0.00    -0.009 A 
ATOM     39  C   LIG d   1       6.260  -1.465  -5.018  0.00  0.00    -0.036 A 
ATOM     40  C   LIG d   1       5.355  -2.142  -4.221  0.00  0.00     0.060 A 
ATOM     41  H   LIG d   1       6.683  -1.949  -5.887  0.00  0.00     0.064 H 
ATOM     42  C   LIG d   1       4.809  -1.519  -3.110  0.00  0.00     0.059 A 
ATOM     43 CL   LIG d   1       4.898  -3.769  -4.615  0.00  0.00    -0.082 Cl
ATOM     44  C   LIG d   1       5.175  -0.222  -2.798  0.00  0.00    -0.042 A 
ATOM     45 CL   LIG d   1       3.669  -2.366  -2.113  0.00  0.00    -0.082 Cl
ATOM     46  C   LIG d   1       6.084   0.451  -3.592  0.00  0.00    -0.054 A 
ATOM     47  H   LIG d   1       4.751   0.264  -1.932  0.00  0.00     0.063 H 
ATOM     48  H   LIG d   1       6.369   1.464  -3.347  0.00  0.00     0.062 H 
ENDBRANCH  35  38
ENDBRANCH  34  35
ENDBRANCH   4  34
TORSDOF 8
ENDMDL
MODEL 5
REMARK VINA RESULT:      -6.4      5.124      8.391
REMARK  8 active torsions:
REMARK  status: ('A' for Active; 'I' for Inactive)
REMARK    1  A    between atoms: C_1  and  O_2 
REMARK    2  A    between atoms: O_2  and  C_3 
REMARK    3  A    between atoms: C_6  and  C_9 
REMARK    4  A    between atoms: C_14  and  C_15 
REMARK    5  A    between atoms: C_18  and  O_22 
REMARK    6  A    between atoms: C_20  and  O_21 
REMARK    7  A    between atoms: O_22  and  C_23 
REMARK    8  A    between atoms: C_23  and  C_24 
ROOT
ATOM      1  C   LIG d   1      10.399   8.492  -0.923  0.00  0.00     0.044 A 
ATOM      2  C   LIG d   1      11.463   9.352  -1.188  0.00  0.00    -0.045 A 
ATOM      3  C   LIG d   1      11.219  10.654  -1.570  0.00  0.00    -0.019 A 
ATOM      4  C   LIG d   1       9.914  11.113  -1.692  0.00  0.00     0.124 A 
ATOM      5  C   LIG d   1       8.849  10.264  -1.430  0.00  0.00     0.022 A 
ATOM      6  C   LIG d   1       9.085   8.953  -1.051  0.00  0.00     0.130 A 
ATOM      7  H   LIG d   1      12.479   8.998  -1.094  0.00  0.00     0.063 H 
ATOM      8  H   LIG d   1      12.045  11.320  -1.775  0.00  0.00     0.065 H 
ATOM      9  H   LIG d   1       7.835  10.625  -1.525  0.00  0.00     0.069 H 
ENDROOT
BRANCH   1  10
ATOM     10  C   LIG d   1      10.658   7.092  -0.512  0.00  0.00     0.104 A 
ATOM     11  C   LIG d   1      10.867   5.992  -1.382  0.00  0.00     0.027 A 
ATOM     12  C   LIG d   1      11.076   4.891  -0.606  0.00  0.00     0.031 A 
ATOM     13  N   LIG d   1      10.996   5.273   0.684  0.00  0.00    -0.283 N 
ATOM     14  H   LIG d   1      11.269   3.890  -0.963  0.00  0.00     0.083 H 
ATOM     15  H   LIG d   1      11.105   4.695   1.456  0.00  0.00     0.188 HD
ATOM     16  N   LIG d   1      10.732   6.648   0.724  0.00  0.00    -0.173 NA
BRANCH  11  17
ATOM     17  C   LIG d   1      10.866   6.033  -2.865  0.00  0.00    -0.014 A 
ATOM     18  C   LIG d   1      12.072   6.046  -3.565  0.00  0.00    -0.051 A 
ATOM     19  C   LIG d   1      12.068   6.084  -4.944  0.00  0.00    -0.019 A 
ATOM     20  H   LIG d   1      13.008   6.025  -3.027  0.00  0.00     0.062 H 
ATOM     21  C   LIG d   1      10.864   6.108  -5.635  0.00  0.00     0.120 A 
ATOM     22  H   LIG d   1      13.002   6.094  -5.486  0.00  0.00     0.065 H 
ATOM     23  C   LIG d   1       9.661   6.102  -4.941  0.00  0.00    -0.019 A 
ATOM     24  C   LIG d   1       9.660   6.058  -3.562  0.00  0.00    -0.051 A 
ATOM     25  H   LIG d   1       8.728   6.126  -5.481  0.00  0.00     0.065 H 
ATOM     26  H   LIG d   1       8.724   6.048  -3.023  0.00  0.00     0.062 H 
BRANCH  21  27
ATOM     27  O   LIG d   1      10.863   6.145  -6.993  0.00  0.00    -0.495 OA
BRANCH  27  28
ATOM     28  C   LIG d   1       9.799   5.463  -7.660  0.00  0.00     0.079 C 
ATOM     29  H   LIG d   1       8.886   5.549  -7.070  0.00  0.00     0.066 H 
ATOM     30  H   LIG d   1       9.639   5.908  -8.642  0.00  0.00     0.066 H 
ATOM     31  H   LIG d   1      10.059   4.411  -7.776  0.00  0.00     0.066 H 
ENDBRANCH  27  28
ENDBRANCH  21  27
ENDBRANCH  11  17
ENDBRANCH   1  10
BRANCH   6  32
ATOM     32  O   LIG d   1       8.043   8.119  -0.800  0.00  0.00    -0.506 OA
ATOM     33  H   LIG d   1       8.243   7.184  -0.947  0.00  0.00     0.292 HD
ENDBRANCH   6  32
BRANCH   4  34
ATOM     34  O   LIG d   1       9.679  12.398  -2.068  0.00  0.00    -0.487 OA
BRANCH  34  35
ATOM     35  C   LIG d   1       8.790  12.597  -3.170  0.00  0.00     0.115 C 
ATOM     36  H   LIG d   1       7.913  11.961  -3.049  0.00  0.00     0.075 H 
ATOM     37  H   LIG d   1       8.481  13.641  -3.204  0.00  0.00     0.075 H 
BRANCH  35  38
ATOM     38  C   LIG d   1       9.495  12.241  -4.454  0.00  0.00    -0.009 A 
ATOM     39  C   LIG d   1       9.208  11.048  -5.090  0.00  0.00    -0.036 A 
ATOM     40  C   LIG d   1       9.850  10.724  -6.272  0.00  0.00     0.060 A 
ATOM     41  H   LIG d   1       8.478  10.372  -4.669  0.00  0.00     0.064 H 
ATOM     42  C   LIG d   1      10.790  11.588  -6.809  0.00  0.00     0.059 A 
ATOM     43 CL   LIG d   1       9.485   9.230  -7.077  0.00  0.00    -0.082 Cl
ATOM     44  C   LIG d   1      11.079  12.778  -6.166  0.00  0.00    -0.042 A 
ATOM     45 CL   LIG d   1      11.601  11.179  -8.288  0.00  0.00    -0.082 Cl
ATOM     46  C   LIG d   1      10.433  13.103  -4.989  0.00  0.00    -0.054 A 
ATOM     47  H   LIG d   1      11.811  13.454  -6.584  0.00  0.00     0.063 H 
ATOM     48  H   LIG d   1      10.660  14.033  -4.487  0.00  0.00     0.062 H 
ENDBRANCH  35  38
ENDBRANCH  34  35
ENDBRANCH   4  34
TORSDOF 8
ENDMDL
MODEL 6
REMARK VINA RESULT:      -6.4      5.304      8.539
REMARK  8 active torsions:
REMARK  status: ('A' for Active; 'I' for Inactive)
REMARK    1  A    between atoms: C_1  and  O_2 
REMARK    2  A    between atoms: O_2  and  C_3 
REMARK    3  A    between atoms: C_6  and  C_9 
REMARK    4  A    between atoms: C_14  and  C_15 
REMARK    5  A    between atoms: C_18  and  O_22 
REMARK    6  A    between atoms: C_20  and  O_21 
REMARK    7  A    between atoms: O_22  and  C_23 
REMARK    8  A    between atoms: C_23  and  C_24 
ROOT
ATOM      1  C   LIG d   1       3.810  -0.876  -5.456  0.00  0.00     0.044 A 
ATOM      2  C   LIG d   1       4.294  -1.722  -6.452  0.00  0.00    -0.045 A 
ATOM      3  C   LIG d   1       4.099  -1.407  -7.780  0.00  0.00    -0.019 A 
ATOM      4  C   LIG d   1       3.422  -0.246  -8.129  0.00  0.00     0.124 A 
ATOM      5  C   LIG d   1       2.937   0.602  -7.144  0.00  0.00     0.022 A 
ATOM      6  C   LIG d   1       3.123   0.290  -5.808  0.00  0.00     0.130 A 
ATOM      7  H   LIG d   1       4.821  -2.625  -6.183  0.00  0.00     0.063 H 
ATOM      8  H   LIG d   1       4.475  -2.063  -8.551  0.00  0.00     0.065 H 
ATOM      9  H   LIG d   1       2.411   1.505  -7.420  0.00  0.00     0.069 H 
ENDROOT
BRANCH   1  10
ATOM     10  C   LIG d   1       4.018  -1.213  -4.028  0.00  0.00     0.104 A 
ATOM     11  C   LIG d   1       5.172  -0.914  -3.259  0.00  0.00     0.027 A 
ATOM     12  C   LIG d   1       4.959  -1.388  -1.999  0.00  0.00     0.031 A 
ATOM     13  N   LIG d   1       3.738  -1.960  -1.974  0.00  0.00    -0.283 N 
ATOM     14  H   LIG d   1       5.646  -1.317  -1.169  0.00  0.00     0.083 H 
ATOM     15  H   LIG d   1       3.323  -2.379  -1.204  0.00  0.00     0.188 HD
ATOM     16  N   LIG d   1       3.168  -1.845  -3.248  0.00  0.00    -0.173 NA
BRANCH  11  17
ATOM     17  C   LIG d   1       6.387  -0.210  -3.738  0.00  0.00    -0.014 A 
ATOM     18  C   LIG d   1       6.578   1.138  -3.437  0.00  0.00    -0.051 A 
ATOM     19  C   LIG d   1       7.709   1.790  -3.883  0.00  0.00    -0.019 A 
ATOM     20  H   LIG d   1       5.841   1.670  -2.855  0.00  0.00     0.062 H 
ATOM     21  C   LIG d   1       8.657   1.104  -4.631  0.00  0.00     0.120 A 
ATOM     22  H   LIG d   1       7.856   2.834  -3.651  0.00  0.00     0.065 H 
ATOM     23  C   LIG d   1       8.467  -0.237  -4.937  0.00  0.00    -0.019 A 
ATOM     24  C   LIG d   1       7.341  -0.895  -4.488  0.00  0.00    -0.051 A 
ATOM     25  H   LIG d   1       9.204  -0.765  -5.522  0.00  0.00     0.065 H 
ATOM     26  H   LIG d   1       7.197  -1.939  -4.723  0.00  0.00     0.062 H 
BRANCH  21  27
ATOM     27  O   LIG d   1       9.770   1.749  -5.069  0.00  0.00    -0.495 OA
BRANCH  27  28
ATOM     28  C   LIG d   1       9.940   3.106  -4.653  0.00  0.00     0.079 C 
ATOM     29  H   LIG d   1       9.043   3.676  -4.897  0.00  0.00     0.066 H 
ATOM     30  H   LIG d   1      10.108   3.138  -3.576  0.00  0.00     0.066 H 
ATOM     31  H   LIG d   1      10.797   3.539  -5.168  0.00  0.00     0.066 H 
ENDBRANCH  27  28
ENDBRANCH  21  27
ENDBRANCH  11  17
ENDBRANCH   1  10
BRANCH   6  32
ATOM     32  O   LIG d   1       2.644   1.116  -4.842  0.00  0.00    -0.506 OA
ATOM     33  H   LIG d   1       2.820   2.053  -5.003  0.00  0.00     0.292 HD
ENDBRANCH   6  32
BRANCH   4  34
ATOM     34  O   LIG d   1       3.232   0.062  -9.440  0.00  0.00    -0.487 OA
BRANCH  34  35
ATOM     35  C   LIG d   1       3.886   1.234  -9.930  0.00  0.00     0.115 C 
ATOM     36  H   LIG d   1       3.586   1.411 -10.964  0.00  0.00     0.075 H 
ATOM     37  H   LIG d   1       3.605   2.090  -9.319  0.00  0.00     0.075 H 
BRANCH  35  38
ATOM     38  C   LIG d   1       5.380   1.040  -9.867  0.00  0.00    -0.009 A 
ATOM     39  C   LIG d   1       6.149   1.859  -9.062  0.00  0.00    -0.036 A 
ATOM     40  C   LIG d   1       7.519   1.676  -8.999  0.00  0.00     0.060 A 
ATOM     41  H   LIG d   1       5.680   2.637  -8.477  0.00  0.00     0.064 H 
ATOM     42  C   LIG d   1       8.120   0.681  -9.752  0.00  0.00     0.059 A 
ATOM     43 CL   LIG d   1       8.485   2.698  -7.982  0.00  0.00    -0.082 Cl
ATOM     44  C   LIG d   1       7.348  -0.132 -10.562  0.00  0.00    -0.042 A 
ATOM     45 CL   LIG d   1       9.839   0.456  -9.679  0.00  0.00    -0.082 Cl
ATOM     46  C   LIG d   1       5.979   0.048 -10.620  0.00  0.00    -0.054 A 
ATOM     47  H   LIG d   1       7.815  -0.908 -11.150  0.00  0.00     0.063 H 
ATOM     48  H   LIG d   1       5.377  -0.588 -11.253  0.00  0.00     0.062 H 
ENDBRANCH  35  38
ENDBRANCH  34  35
ENDBRANCH   4  34
TORSDOF 8
ENDMDL
MODEL 7
REMARK VINA RESULT:      -6.4      7.821      9.360
REMARK  8 active torsions:
REMARK  status: ('A' for Active; 'I' for Inactive)
REMARK    1  A    between atoms: C_1  and  O_2 
REMARK    2  A    between atoms: O_2  and  C_3 
REMARK    3  A    between atoms: C_6  and  C_9 
REMARK    4  A    between atoms: C_14  and  C_15 
REMARK    5  A    between atoms: C_18  and  O_22 
REMARK    6  A    between atoms: C_20  and  O_21 
REMARK    7  A    between atoms: O_22  and  C_23 
REMARK    8  A    between atoms: C_23  and  C_24 
ROOT
ATOM      1  C   LIG d   1       5.576  -2.673  -4.148  0.00  0.00     0.044 A 
ATOM      2  C   LIG d   1       4.843  -3.633  -4.843  0.00  0.00    -0.045 A 
ATOM      3  C   LIG d   1       5.489  -4.688  -5.451  0.00  0.00    -0.019 A 
ATOM      4  C   LIG d   1       6.871  -4.798  -5.374  0.00  0.00     0.124 A 
ATOM      5  C   LIG d   1       7.609  -3.847  -4.684  0.00  0.00     0.022 A 
ATOM      6  C   LIG d   1       6.969  -2.782  -4.075  0.00  0.00     0.130 A 
ATOM      7  H   LIG d   1       3.768  -3.550  -4.904  0.00  0.00     0.063 H 
ATOM      8  H   LIG d   1       4.919  -5.431  -5.989  0.00  0.00     0.065 H 
ATOM      9  H   LIG d   1       8.684  -3.937  -4.625  0.00  0.00     0.069 H 
ENDROOT
BRANCH   1  10
ATOM     10  C   LIG d   1       4.884  -1.538  -3.492  0.00  0.00     0.104 A 
ATOM     11  C   LIG d   1       4.263  -0.447  -4.151  0.00  0.00     0.027 A 
ATOM     12  C   LIG d   1       3.742   0.368  -3.191  0.00  0.00     0.031 A 
ATOM     13  N   LIG d   1       4.024  -0.176  -1.989  0.00  0.00    -0.283 N 
ATOM     14  H   LIG d   1       3.200   1.286  -3.361  0.00  0.00     0.083 H 
ATOM     15  H   LIG d   1       3.774   0.191  -1.127  0.00  0.00     0.188 HD
ATOM     16  N   LIG d   1       4.740  -1.362  -2.197  0.00  0.00    -0.173 NA
BRANCH  11  17
ATOM     17  C   LIG d   1       4.188  -0.234  -5.617  0.00  0.00    -0.014 A 
ATOM     18  C   LIG d   1       5.346  -0.289  -6.391  0.00  0.00    -0.051 A 
ATOM     19  C   LIG d   1       5.273  -0.091  -7.755  0.00  0.00    -0.019 A 
ATOM     20  H   LIG d   1       6.299  -0.486  -5.924  0.00  0.00     0.062 H 
ATOM     21  C   LIG d   1       4.047   0.161  -8.356  0.00  0.00     0.120 A 
ATOM     22  H   LIG d   1       6.169  -0.132  -8.354  0.00  0.00     0.065 H 
ATOM     23  C   LIG d   1       2.892   0.222  -7.587  0.00  0.00    -0.019 A 
ATOM     24  C   LIG d   1       2.959   0.019  -6.224  0.00  0.00    -0.051 A 
ATOM     25  H   LIG d   1       1.942   0.422  -8.057  0.00  0.00     0.065 H 
ATOM     26  H   LIG d   1       2.060   0.061  -5.627  0.00  0.00     0.062 H 
BRANCH  21  27
ATOM     27  O   LIG d   1       3.978   0.355  -9.699  0.00  0.00    -0.495 OA
BRANCH  27  28
ATOM     28  C   LIG d   1       3.949   1.709 -10.158  0.00  0.00     0.079 C 
ATOM     29  H   LIG d   1       2.948   2.118 -10.021  0.00  0.00     0.066 H 
ATOM     30  H   LIG d   1       4.665   2.301  -9.589  0.00  0.00     0.066 H 
ATOM     31  H   LIG d   1       4.212   1.739 -11.216  0.00  0.00     0.066 H 
ENDBRANCH  27  28
ENDBRANCH  21  27
ENDBRANCH  11  17
ENDBRANCH   1  10
BRANCH   6  32
ATOM     32  O   LIG d   1       7.690  -1.846  -3.404  0.00  0.00    -0.506 OA
ATOM     33  H   LIG d   1       8.528  -2.175  -3.050  0.00  0.00     0.292 HD
ENDBRANCH   6  32
BRANCH   4  34
ATOM     34  O   LIG d   1       7.503  -5.841  -5.975  0.00  0.00    -0.487 OA
BRANCH  34  35
ATOM     35  C   LIG d   1       8.459  -6.557  -5.190  0.00  0.00     0.115 C 
ATOM     36  H   LIG d   1       9.253  -6.932  -5.837  0.00  0.00     0.075 H 
ATOM     37  H   LIG d   1       8.886  -5.893  -4.440  0.00  0.00     0.075 H 
BRANCH  35  38
ATOM     38  C   LIG d   1       7.780  -7.716  -4.507  0.00  0.00    -0.009 A 
ATOM     39  C   LIG d   1       6.595  -8.217  -5.013  0.00  0.00    -0.036 A 
ATOM     40  C   LIG d   1       5.975  -9.285  -4.390  0.00  0.00     0.060 A 
ATOM     41  H   LIG d   1       6.156  -7.779  -5.897  0.00  0.00     0.064 H 
ATOM     42  C   LIG d   1       6.535  -9.844  -3.252  0.00  0.00     0.059 A 
ATOM     43 CL   LIG d   1       4.491  -9.921  -5.028  0.00  0.00    -0.082 Cl
ATOM     44  C   LIG d   1       7.717  -9.336  -2.745  0.00  0.00    -0.042 A 
ATOM     45 CL   LIG d   1       5.753 -11.179  -2.466  0.00  0.00    -0.082 Cl
ATOM     46  C   LIG d   1       8.339  -8.273  -3.372  0.00  0.00    -0.054 A 
ATOM     47  H   LIG d   1       8.155  -9.771  -1.859  0.00  0.00     0.063 H 
ATOM     48  H   LIG d   1       9.262  -7.877  -2.975  0.00  0.00     0.062 H 
ENDBRANCH  35  38
ENDBRANCH  34  35
ENDBRANCH   4  34
TORSDOF 8
ENDMDL
MODEL 8
REMARK VINA RESULT:      -6.3      6.784      9.414
REMARK  8 active torsions:
REMARK  status: ('A' for Active; 'I' for Inactive)
REMARK    1  A    between atoms: C_1  and  O_2 
REMARK    2  A    between atoms: O_2  and  C_3 
REMARK    3  A    between atoms: C_6  and  C_9 
REMARK    4  A    between atoms: C_14  and  C_15 
REMARK    5  A    between atoms: C_18  and  O_22 
REMARK    6  A    between atoms: C_20  and  O_21 
REMARK    7  A    between atoms: O_22  and  C_23 
REMARK    8  A    between atoms: C_23  and  C_24 
ROOT
ATOM      1  C   LIG d   1       3.886  -0.630  -5.651  0.00  0.00     0.044 A 
ATOM      2  C   LIG d   1       4.460  -1.307  -6.726  0.00  0.00    -0.045 A 
ATOM      3  C   LIG d   1       4.255  -0.858  -8.013  0.00  0.00    -0.019 A 
ATOM      4  C   LIG d   1       3.477   0.269  -8.244  0.00  0.00     0.124 A 
ATOM      5  C   LIG d   1       2.902   0.949  -7.180  0.00  0.00     0.022 A 
ATOM      6  C   LIG d   1       3.097   0.502  -5.884  0.00  0.00     0.130 A 
ATOM      7  H   LIG d   1       5.065  -2.183  -6.549  0.00  0.00     0.063 H 
ATOM      8  H   LIG d   1       4.701  -1.383  -8.844  0.00  0.00     0.065 H 
ATOM      9  H   LIG d   1       2.297   1.826  -7.363  0.00  0.00     0.069 H 
ENDROOT
BRANCH   1  10
ATOM     10  C   LIG d   1       4.105  -1.110  -4.266  0.00  0.00     0.104 A 
ATOM     11  C   LIG d   1       5.270  -0.903  -3.486  0.00  0.00     0.027 A 
ATOM     12  C   LIG d   1       5.064  -1.497  -2.277  0.00  0.00     0.031 A 
ATOM     13  N   LIG d   1       3.837  -2.057  -2.295  0.00  0.00    -0.283 N 
ATOM     14  H   LIG d   1       5.760  -1.518  -1.451  0.00  0.00     0.083 H 
ATOM     15  H   LIG d   1       3.425  -2.546  -1.566  0.00  0.00     0.188 HD
ATOM     16  N   LIG d   1       3.255  -1.808  -3.544  0.00  0.00    -0.173 NA
BRANCH  11  17
ATOM     17  C   LIG d   1       6.488  -0.167  -3.905  0.00  0.00    -0.014 A 
ATOM     18  C   LIG d   1       7.464  -0.809  -4.666  0.00  0.00    -0.051 A 
ATOM     19  C   LIG d   1       8.596  -0.122  -5.055  0.00  0.00    -0.019 A 
ATOM     20  H   LIG d   1       7.334  -1.842  -4.952  0.00  0.00     0.062 H 
ATOM     21  C   LIG d   1       8.762   1.207  -4.690  0.00  0.00     0.120 A 
ATOM     22  H   LIG d   1       9.352  -0.619  -5.644  0.00  0.00     0.065 H 
ATOM     23  C   LIG d   1       7.794   1.847  -3.927  0.00  0.00    -0.019 A 
ATOM     24  C   LIG d   1       6.659   1.167  -3.541  0.00  0.00    -0.051 A 
ATOM     25  H   LIG d   1       7.929   2.879  -3.642  0.00  0.00     0.065 H 
ATOM     26  H   LIG d   1       5.904   1.667  -2.952  0.00  0.00     0.062 H 
BRANCH  21  27
ATOM     27  O   LIG d   1       9.878   1.881  -5.075  0.00  0.00    -0.495 OA
BRANCH  27  28
ATOM     28  C   LIG d   1       9.738   3.284  -5.313  0.00  0.00     0.079 C 
ATOM     29  H   LIG d   1      10.578   3.815  -4.864  0.00  0.00     0.066 H 
ATOM     30  H   LIG d   1       9.724   3.471  -6.387  0.00  0.00     0.066 H 
ATOM     31  H   LIG d   1       8.807   3.636  -4.870  0.00  0.00     0.066 H 
ENDBRANCH  27  28
ENDBRANCH  21  27
ENDBRANCH  11  17
ENDBRANCH   1  10
BRANCH   6  32
ATOM     32  O   LIG d   1       2.530   1.162  -4.842  0.00  0.00    -0.506 OA
ATOM     33  H   LIG d   1       2.485   2.121  -4.962  0.00  0.00     0.292 HD
ENDBRANCH   6  32
BRANCH   4  34
ATOM     34  O   LIG d   1       3.278   0.708  -9.514  0.00  0.00    -0.487 OA
BRANCH  34  35
ATOM     35  C   LIG d   1       4.322   0.456 -10.458  0.00  0.00     0.115 C 
ATOM     36  H   LIG d   1       4.739   1.403 -10.800  0.00  0.00     0.075 H 
ATOM     37  H   LIG d   1       5.105  -0.136  -9.984  0.00  0.00     0.075 H 
BRANCH  35  38
ATOM     38  C   LIG d   1       3.763  -0.302 -11.635  0.00  0.00    -0.009 A 
ATOM     39  C   LIG d   1       2.503  -0.864 -11.557  0.00  0.00    -0.036 A 
ATOM     40  C   LIG d   1       1.986  -1.553 -12.640  0.00  0.00     0.060 A 
ATOM     41  H   LIG d   1       1.918  -0.761 -10.654  0.00  0.00     0.064 H 
ATOM     42  C   LIG d   1       2.737  -1.690 -13.796  0.00  0.00     0.059 A 
ATOM     43 CL   LIG d   1       0.400  -2.254 -12.547  0.00  0.00    -0.082 Cl
ATOM     44  C   LIG d   1       4.000  -1.131 -13.867  0.00  0.00    -0.042 A 
ATOM     45 CL   LIG d   1       2.092  -2.561 -15.152  0.00  0.00    -0.082 Cl
ATOM     46  C   LIG d   1       4.512  -0.438 -12.787  0.00  0.00    -0.054 A 
ATOM     47  H   LIG d   1       4.586  -1.236 -14.768  0.00  0.00     0.063 H 
ATOM     48  H   LIG d   1       5.499  -0.002 -12.845  0.00  0.00     0.062 H 
ENDBRANCH  35  38
ENDBRANCH  34  35
ENDBRANCH   4  34
TORSDOF 8
ENDMDL
MODEL 9
REMARK VINA RESULT:      -6.2      7.878      9.219
REMARK  8 active torsions:
REMARK  status: ('A' for Active; 'I' for Inactive)
REMARK    1  A    between atoms: C_1  and  O_2 
REMARK    2  A    between atoms: O_2  and  C_3 
REMARK    3  A    between atoms: C_6  and  C_9 
REMARK    4  A    between atoms: C_14  and  C_15 
REMARK    5  A    between atoms: C_18  and  O_22 
REMARK    6  A    between atoms: C_20  and  O_21 
REMARK    7  A    between atoms: O_22  and  C_23 
REMARK    8  A    between atoms: C_23  and  C_24 
ROOT
ATOM      1  C   LIG d   1       5.199  -2.460  -4.345  0.00  0.00     0.044 A 
ATOM      2  C   LIG d   1       4.964  -3.569  -5.155  0.00  0.00    -0.045 A 
ATOM      3  C   LIG d   1       5.994  -4.433  -5.458  0.00  0.00    -0.019 A 
ATOM      4  C   LIG d   1       7.269  -4.203  -4.957  0.00  0.00     0.124 A 
ATOM      5  C   LIG d   1       7.512  -3.101  -4.150  0.00  0.00     0.022 A 
ATOM      6  C   LIG d   1       6.484  -2.224  -3.846  0.00  0.00     0.130 A 
ATOM      7  H   LIG d   1       3.974  -3.752  -5.546  0.00  0.00     0.063 H 
ATOM      8  H   LIG d   1       5.810  -5.293  -6.085  0.00  0.00     0.065 H 
ATOM      9  H   LIG d   1       8.505  -2.925  -3.762  0.00  0.00     0.069 H 
ENDROOT
BRANCH   1  10
ATOM     10  C   LIG d   1       4.093  -1.529  -4.018  0.00  0.00     0.104 A 
ATOM     11  C   LIG d   1       3.542  -0.551  -4.884  0.00  0.00     0.027 A 
ATOM     12  C   LIG d   1       2.547   0.084  -4.203  0.00  0.00     0.031 A 
ATOM     13  N   LIG d   1       2.476  -0.460  -2.971  0.00  0.00    -0.283 N 
ATOM     14  H   LIG d   1       1.925   0.882  -4.583  0.00  0.00     0.083 H 
ATOM     15  H   LIG d   1       1.855  -0.202  -2.272  0.00  0.00     0.188 HD
ATOM     16  N   LIG d   1       3.450  -1.461  -2.873  0.00  0.00    -0.173 NA
BRANCH  11  17
ATOM     17  C   LIG d   1       3.968  -0.273  -6.278  0.00  0.00    -0.014 A 
ATOM     18  C   LIG d   1       5.321  -0.128  -6.580  0.00  0.00    -0.051 A 
ATOM     19  C   LIG d   1       5.713   0.130  -7.877  0.00  0.00    -0.019 A 
ATOM     20  H   LIG d   1       6.061  -0.220  -5.799  0.00  0.00     0.062 H 
ATOM     21  C   LIG d   1       4.762   0.245  -8.881  0.00  0.00     0.120 A 
ATOM     22  H   LIG d   1       6.761   0.242  -8.111  0.00  0.00     0.065 H 
ATOM     23  C   LIG d   1       3.413   0.108  -8.583  0.00  0.00    -0.019 A 
ATOM     24  C   LIG d   1       3.015  -0.156  -7.289  0.00  0.00    -0.051 A 
ATOM     25  H   LIG d   1       2.676   0.202  -9.365  0.00  0.00     0.065 H 
ATOM     26  H   LIG d   1       1.966  -0.268  -7.058  0.00  0.00     0.062 H 
BRANCH  21  27
ATOM     27  O   LIG d   1       5.152   0.499 -10.159  0.00  0.00    -0.495 OA
BRANCH  27  28
ATOM     28  C   LIG d   1       4.118   0.664 -11.132  0.00  0.00     0.079 C 
ATOM     29  H   LIG d   1       3.145   0.590 -10.645  0.00  0.00     0.066 H 
ATOM     30  H   LIG d   1       4.214   1.642 -11.603  0.00  0.00     0.066 H 
ATOM     31  H   LIG d   1       4.205  -0.115 -11.889  0.00  0.00     0.066 H 
ENDBRANCH  27  28
ENDBRANCH  21  27
ENDBRANCH  11  17
ENDBRANCH   1  10
BRANCH   6  32
ATOM     32  O   LIG d   1       6.722  -1.141  -3.061  0.00  0.00    -0.506 OA
ATOM     33  H   LIG d   1       7.130  -1.354  -2.211  0.00  0.00     0.292 HD
ENDBRANCH   6  32
BRANCH   4  34
ATOM     34  O   LIG d   1       8.282  -5.058  -5.257  0.00  0.00    -0.487 OA
BRANCH  34  35
ATOM     35  C   LIG d   1       9.407  -5.063  -4.376  0.00  0.00     0.115 C 
ATOM     36  H   LIG d   1      10.327  -5.059  -4.962  0.00  0.00     0.075 H 
ATOM     37  H   LIG d   1       9.377  -4.179  -3.742  0.00  0.00     0.075 H 
BRANCH  35  38
ATOM     38  C   LIG d   1       9.366  -6.300  -3.517  0.00  0.00    -0.009 A 
ATOM     39  C   LIG d   1      10.131  -6.368  -2.368  0.00  0.00    -0.036 A 
ATOM     40  C   LIG d   1      10.088  -7.501  -1.575  0.00  0.00     0.060 A 
ATOM     41  H   LIG d   1      10.758  -5.535  -2.085  0.00  0.00     0.064 H 
ATOM     42  C   LIG d   1       9.288  -8.571  -1.940  0.00  0.00     0.059 A 
ATOM     43 CL   LIG d   1      11.043  -7.585  -0.127  0.00  0.00    -0.082 Cl
ATOM     44  C   LIG d   1       8.528  -8.503  -3.093  0.00  0.00    -0.042 A 
ATOM     45 CL   LIG d   1       9.239  -9.996  -0.949  0.00  0.00    -0.082 Cl
ATOM     46  C   LIG d   1       8.568  -7.368  -3.881  0.00  0.00    -0.054 A 
ATOM     47  H   LIG d   1       7.903  -9.336  -3.379  0.00  0.00     0.063 H 
ATOM     48  H   LIG d   1       7.974  -7.315  -4.782  0.00  0.00     0.062 H 
ENDBRANCH  35  38
ENDBRANCH  34  35
ENDBRANCH   4  34
TORSDOF 8
ENDMDL
