MODEL 1
REMARK VINA RESULT:      -7.9      0.000      0.000
REMARK  7 active torsions:
REMARK  status: ('A' for Active; 'I' for Inactive)
REMARK    1  A    between atoms: C_1  and  O_2 
REMARK    2  A    between atoms: O_2  and  C_3 
REMARK    3  A    between atoms: C_3  and  C_4 
REMARK    4  A    between atoms: C_4  and  C_5 
REMARK       I    between atoms: C_5  and  N_7 
REMARK    5  A    between atoms: C_18  and  N_23 
REMARK    6  A    between atoms: N_23  and  S_24 
REMARK    7  A    between atoms: S_24  and  C_27 
ROOT
ATOM      1  C   LIG d   1       6.468   0.722  -3.468  0.00  0.00     0.218 C 
ATOM      2  O   LIG d   1       6.193   1.867  -3.174  0.00  0.00    -0.276 OA
ATOM      3  N   LIG d   1       5.810  -0.301  -2.887  0.00  0.00    -0.300 N 
ATOM      4  C   LIG d   1       4.756  -0.048  -1.898  0.00  0.00     0.019 C 
ATOM      5  C   LIG d   1       3.498  -0.828  -2.259  0.00  0.00    -0.006 C 
ATOM      6  H   LIG d   1       2.815  -0.780  -1.411  0.00  0.00     0.033 H 
ATOM      7  C   LIG d   1       3.823  -2.297  -2.527  0.00  0.00    -0.037 C 
ATOM      8  C   LIG d   1       4.838  -2.368  -3.672  0.00  0.00     0.016 C 
ATOM      9  H   LIG d   1       5.016  -3.407  -3.950  0.00  0.00     0.038 H 
ATOM     10  C   LIG d   1       6.141  -1.697  -3.205  0.00  0.00     0.023 C 
ATOM     11  C   LIG d   1       4.321  -1.592  -4.860  0.00  0.00     0.027 C 
ATOM     12  C   LIG d   1       4.761  -1.965  -6.090  0.00  0.00    -0.040 C 
ATOM     13  C   LIG d   1       4.432  -1.210  -7.223  0.00  0.00    -0.032 C 
ATOM     14  C   LIG d   1       3.674  -0.082  -7.067  0.00  0.00     0.112 C 
ATOM     15  C   LIG d   1       3.228   0.271  -5.778  0.00  0.00     0.274 C 
ATOM     16  O   LIG d   1       2.601   1.306  -5.616  0.00  0.00    -0.266 OA
ATOM     17  N   LIG d   1       3.491  -0.530  -4.717  0.00  0.00    -0.310 N 
ATOM     18  C   LIG d   1       2.799  -0.224  -3.464  0.00  0.00     0.031 C 
ATOM     19  H   LIG d   1       4.527   1.018  -1.878  0.00  0.00     0.047 H 
ATOM     20  H   LIG d   1       5.104  -0.358  -0.913  0.00  0.00     0.047 H 
ATOM     21  H   LIG d   1       2.914  -2.828  -2.810  0.00  0.00     0.028 H 
ATOM     22  H   LIG d   1       4.249  -2.748  -1.631  0.00  0.00     0.028 H 
ATOM     23  H   LIG d   1       6.531  -2.214  -2.328  0.00  0.00     0.047 H 
ATOM     24  H   LIG d   1       6.878  -1.719  -4.008  0.00  0.00     0.047 H 
ATOM     25  H   LIG d   1       5.370  -2.850  -6.195  0.00  0.00     0.064 H 
ATOM     26  H   LIG d   1       4.770  -1.514  -8.202  0.00  0.00     0.064 H 
ATOM     27  H   LIG d   1       2.754   0.858  -3.341  0.00  0.00     0.050 H 
ATOM     28  H   LIG d   1       1.783  -0.615  -3.516  0.00  0.00     0.050 H 
ENDROOT
BRANCH  14  29
ATOM     29  N   LIG d   1       3.347   0.712  -8.174  0.00  0.00    -0.211 N 
ATOM     30  H   LIG d   1       2.425   0.776  -8.469  0.00  0.00     0.174 HD
BRANCH  29  31
ATOM     31  S   LIG d   1       4.534   1.539  -8.980  0.00  0.00     0.072 S 
ATOM     32  O   LIG d   1       3.943   2.740  -9.454  0.00  0.00    -0.150 OA
ATOM     33  O   LIG d   1       5.677   1.532  -8.135  0.00  0.00    -0.150 OA
BRANCH  31  34
ATOM     34  C   LIG d   1       4.955   0.588 -10.404  0.00  0.00     0.108 A 
ATOM     35  C   LIG d   1       6.173  -0.064 -10.463  0.00  0.00    -0.035 A 
ATOM     36  C   LIG d   1       6.502  -0.811 -11.579  0.00  0.00    -0.060 A 
ATOM     37  H   LIG d   1       6.865   0.009  -9.638  0.00  0.00     0.064 H 
ATOM     38  C   LIG d   1       5.615  -0.903 -12.635  0.00  0.00    -0.062 A 
ATOM     39  H   LIG d   1       7.453  -1.321 -11.626  0.00  0.00     0.062 H 
ATOM     40  C   LIG d   1       4.398  -0.250 -12.575  0.00  0.00    -0.060 A 
ATOM     41  H   LIG d   1       5.873  -1.486 -13.508  0.00  0.00     0.062 H 
ATOM     42  C   LIG d   1       4.066   0.490 -11.457  0.00  0.00    -0.035 A 
ATOM     43  H   LIG d   1       3.706  -0.323 -13.401  0.00  0.00     0.062 H 
ATOM     44  H   LIG d   1       3.114   0.997 -11.408  0.00  0.00     0.064 H 
ENDBRANCH  31  34
ENDBRANCH  29  31
ENDBRANCH  14  29
BRANCH   1  45
ATOM     45  C   LIG d   1       7.548   0.445  -4.482  0.00  0.00     0.048 C 
ATOM     46  H   LIG d   1       8.245  -0.289  -4.078  0.00  0.00     0.038 H 
ATOM     47  H   LIG d   1       7.098   0.053  -5.394  0.00  0.00     0.038 H 
BRANCH  45  48
ATOM     48  C   LIG d   1       8.297   1.740  -4.798  0.00  0.00     0.056 C 
ATOM     49  H   LIG d   1       8.570   1.754  -5.853  0.00  0.00     0.056 H 
ATOM     50  H   LIG d   1       7.655   2.594  -4.579  0.00  0.00     0.056 H 
BRANCH  48  51
ATOM     51  O   LIG d   1       9.479   1.815  -3.999  0.00  0.00    -0.383 OA
BRANCH  51  52
ATOM     52  C   LIG d   1       9.635   3.056  -3.307  0.00  0.00     0.036 C 
ATOM     53  H   LIG d   1      10.623   3.467  -3.515  0.00  0.00     0.052 H 
ATOM     54  H   LIG d   1       8.871   3.758  -3.643  0.00  0.00     0.052 H 
ATOM     55  H   LIG d   1       9.529   2.890  -2.234  0.00  0.00     0.052 H 
ENDBRANCH  51  52
ENDBRANCH  48  51
ENDBRANCH  45  48
ENDBRANCH   1  45
TORSDOF 7
ENDMDL
MODEL 2
REMARK VINA RESULT:      -7.7      1.385      2.022
REMARK  7 active torsions:
REMARK  status: ('A' for Active; 'I' for Inactive)
REMARK    1  A    between atoms: C_1  and  O_2 
REMARK    2  A    between atoms: O_2  and  C_3 
REMARK    3  A    between atoms: C_3  and  C_4 
REMARK    4  A    between atoms: C_4  and  C_5 
REMARK       I    between atoms: C_5  and  N_7 
REMARK    5  A    between atoms: C_18  and  N_23 
REMARK    6  A    between atoms: N_23  and  S_24 
REMARK    7  A    between atoms: S_24  and  C_27 
ROOT
ATOM      1  C   LIG d   1       6.528   0.719  -3.373  0.00  0.00     0.218 C 
ATOM      2  O   LIG d   1       6.217   1.880  -3.209  0.00  0.00    -0.276 OA
ATOM      3  N   LIG d   1       5.789  -0.262  -2.818  0.00  0.00    -0.300 N 
ATOM      4  C   LIG d   1       4.605   0.056  -2.012  0.00  0.00     0.019 C 
ATOM      5  C   LIG d   1       3.410  -0.757  -2.490  0.00  0.00    -0.006 C 
ATOM      6  H   LIG d   1       2.612  -0.651  -1.755  0.00  0.00     0.033 H 
ATOM      7  C   LIG d   1       3.765  -2.241  -2.597  0.00  0.00    -0.037 C 
ATOM      8  C   LIG d   1       4.933  -2.390  -3.576  0.00  0.00     0.016 C 
ATOM      9  H   LIG d   1       5.145  -3.445  -3.747  0.00  0.00     0.038 H 
ATOM     10  C   LIG d   1       6.157  -1.676  -2.979  0.00  0.00     0.023 C 
ATOM     11  C   LIG d   1       4.595  -1.709  -4.881  0.00  0.00     0.027 C 
ATOM     12  C   LIG d   1       5.205  -2.169  -6.003  0.00  0.00    -0.040 C 
ATOM     13  C   LIG d   1       5.045  -1.504  -7.225  0.00  0.00    -0.032 C 
ATOM     14  C   LIG d   1       4.277  -0.373  -7.265  0.00  0.00     0.112 C 
ATOM     15  C   LIG d   1       3.652   0.072  -6.084  0.00  0.00     0.274 C 
ATOM     16  O   LIG d   1       3.011   1.111  -6.091  0.00  0.00    -0.266 OA
ATOM     17  N   LIG d   1       3.756  -0.645  -4.939  0.00  0.00    -0.310 N 
ATOM     18  C   LIG d   1       2.893  -0.251  -3.825  0.00  0.00     0.031 C 
ATOM     19  H   LIG d   1       4.379   1.119  -2.105  0.00  0.00     0.047 H 
ATOM     20  H   LIG d   1       4.807  -0.177  -0.966  0.00  0.00     0.047 H 
ATOM     21  H   LIG d   1       2.904  -2.797  -2.967  0.00  0.00     0.028 H 
ATOM     22  H   LIG d   1       4.056  -2.620  -1.618  0.00  0.00     0.028 H 
ATOM     23  H   LIG d   1       6.416  -2.123  -2.019  0.00  0.00     0.047 H 
ATOM     24  H   LIG d   1       7.002  -1.753  -3.664  0.00  0.00     0.047 H 
ATOM     25  H   LIG d   1       5.820  -3.056  -5.953  0.00  0.00     0.064 H 
ATOM     26  H   LIG d   1       5.520  -1.878  -8.120  0.00  0.00     0.064 H 
ATOM     27  H   LIG d   1       2.835   0.837  -3.791  0.00  0.00     0.050 H 
ATOM     28  H   LIG d   1       1.894  -0.652  -3.992  0.00  0.00     0.050 H 
ENDROOT
BRANCH  14  29
ATOM     29  N   LIG d   1       4.115   0.333  -8.464  0.00  0.00    -0.211 N 
ATOM     30  H   LIG d   1       4.849   0.855  -8.823  0.00  0.00     0.174 HD
BRANCH  29  31
ATOM     31  S   LIG d   1       2.667   0.279  -9.268  0.00  0.00     0.072 S 
ATOM     32  O   LIG d   1       1.894  -0.737  -8.645  0.00  0.00    -0.150 OA
ATOM     33  O   LIG d   1       2.215   1.622  -9.379  0.00  0.00    -0.150 OA
BRANCH  31  34
ATOM     34  C   LIG d   1       3.003  -0.277 -10.907  0.00  0.00     0.108 A 
ATOM     35  C   LIG d   1       2.115  -1.126 -11.543  0.00  0.00    -0.035 A 
ATOM     36  C   LIG d   1       2.378  -1.561 -12.829  0.00  0.00    -0.060 A 
ATOM     37  H   LIG d   1       1.218  -1.448 -11.036  0.00  0.00     0.064 H 
ATOM     38  C   LIG d   1       3.527  -1.148 -13.477  0.00  0.00    -0.062 A 
ATOM     39  H   LIG d   1       1.685  -2.223 -13.326  0.00  0.00     0.062 H 
ATOM     40  C   LIG d   1       4.413  -0.300 -12.840  0.00  0.00    -0.060 A 
ATOM     41  H   LIG d   1       3.732  -1.489 -14.482  0.00  0.00     0.062 H 
ATOM     42  C   LIG d   1       4.148   0.140 -11.557  0.00  0.00    -0.035 A 
ATOM     43  H   LIG d   1       5.311   0.022 -13.347  0.00  0.00     0.062 H 
ATOM     44  H   LIG d   1       4.838   0.806 -11.061  0.00  0.00     0.064 H 
ENDBRANCH  31  34
ENDBRANCH  29  31
ENDBRANCH  14  29
BRANCH   1  45
ATOM     45  C   LIG d   1       7.741   0.374  -4.198  0.00  0.00     0.048 C 
ATOM     46  H   LIG d   1       8.588   0.188  -3.538  0.00  0.00     0.038 H 
ATOM     47  H   LIG d   1       7.537  -0.519  -4.788  0.00  0.00     0.038 H 
BRANCH  45  48
ATOM     48  C   LIG d   1       8.071   1.539  -5.133  0.00  0.00     0.056 C 
ATOM     49  H   LIG d   1       7.845   2.481  -4.634  0.00  0.00     0.056 H 
ATOM     50  H   LIG d   1       9.130   1.509  -5.391  0.00  0.00     0.056 H 
BRANCH  48  51
ATOM     51  O   LIG d   1       7.288   1.432  -6.324  0.00  0.00    -0.383 OA
BRANCH  51  52
ATOM     52  C   LIG d   1       7.941   0.736  -7.388  0.00  0.00     0.036 C 
ATOM     53  H   LIG d   1       8.741   0.118  -6.982  0.00  0.00     0.052 H 
ATOM     54  H   LIG d   1       7.219   0.102  -7.904  0.00  0.00     0.052 H 
ATOM     55  H   LIG d   1       8.359   1.456  -8.091  0.00  0.00     0.052 H 
ENDBRANCH  51  52
ENDBRANCH  48  51
ENDBRANCH  45  48
ENDBRANCH   1  45
TORSDOF 7
ENDMDL
MODEL 3
REMARK VINA RESULT:      -7.1      3.057      7.399
REMARK  7 active torsions:
REMARK  status: ('A' for Active; 'I' for Inactive)
REMARK    1  A    between atoms: C_1  and  O_2 
REMARK    2  A    between atoms: O_2  and  C_3 
REMARK    3  A    between atoms: C_3  and  C_4 
REMARK    4  A    between atoms: C_4  and  C_5 
REMARK       I    between atoms: C_5  and  N_7 
REMARK    5  A    between atoms: C_18  and  N_23 
REMARK    6  A    between atoms: N_23  and  S_24 
REMARK    7  A    between atoms: S_24  and  C_27 
ROOT
ATOM      1  C   LIG d   1       4.578  -1.021 -11.682  0.00  0.00     0.218 C 
ATOM      2  O   LIG d   1       5.477  -1.744 -12.057  0.00  0.00    -0.276 OA
ATOM      3  N   LIG d   1       3.317  -1.494 -11.610  0.00  0.00    -0.300 N 
ATOM      4  C   LIG d   1       3.016  -2.881 -11.982  0.00  0.00     0.019 C 
ATOM      5  C   LIG d   1       2.207  -3.556 -10.881  0.00  0.00    -0.006 C 
ATOM      6  H   LIG d   1       1.832  -4.503 -11.268  0.00  0.00     0.033 H 
ATOM      7  C   LIG d   1       1.009  -2.698 -10.477  0.00  0.00    -0.037 C 
ATOM      8  C   LIG d   1       1.526  -1.338  -9.998  0.00  0.00     0.016 C 
ATOM      9  H   LIG d   1       0.701  -0.739  -9.612  0.00  0.00     0.038 H 
ATOM     10  C   LIG d   1       2.205  -0.634 -11.185  0.00  0.00     0.023 C 
ATOM     11  C   LIG d   1       2.569  -1.539  -8.925  0.00  0.00     0.027 C 
ATOM     12  C   LIG d   1       2.739  -0.538  -8.022  0.00  0.00    -0.040 C 
ATOM     13  C   LIG d   1       3.776  -0.595  -7.082  0.00  0.00    -0.032 C 
ATOM     14  C   LIG d   1       4.625  -1.667  -7.100  0.00  0.00     0.112 C 
ATOM     15  C   LIG d   1       4.415  -2.691  -8.045  0.00  0.00     0.274 C 
ATOM     16  O   LIG d   1       5.199  -3.624  -8.111  0.00  0.00    -0.266 OA
ATOM     17  N   LIG d   1       3.349  -2.647  -8.881  0.00  0.00    -0.310 N 
ATOM     18  C   LIG d   1       3.067  -3.850  -9.664  0.00  0.00     0.031 C 
ATOM     19  H   LIG d   1       3.948  -3.427 -12.131  0.00  0.00     0.047 H 
ATOM     20  H   LIG d   1       2.443  -2.891 -12.909  0.00  0.00     0.047 H 
ATOM     21  H   LIG d   1       0.463  -3.187  -9.671  0.00  0.00     0.028 H 
ATOM     22  H   LIG d   1       0.352  -2.558 -11.336  0.00  0.00     0.028 H 
ATOM     23  H   LIG d   1       1.487  -0.496 -11.994  0.00  0.00     0.047 H 
ATOM     24  H   LIG d   1       2.597   0.333 -10.868  0.00  0.00     0.047 H 
ATOM     25  H   LIG d   1       2.069   0.309  -8.029  0.00  0.00     0.064 H 
ATOM     26  H   LIG d   1       3.902   0.194  -6.357  0.00  0.00     0.064 H 
ATOM     27  H   LIG d   1       4.010  -4.286  -9.995  0.00  0.00     0.050 H 
ATOM     28  H   LIG d   1       2.548  -4.570  -9.031  0.00  0.00     0.050 H 
ENDROOT
BRANCH  14  29
ATOM     29  N   LIG d   1       5.689  -1.745  -6.192  0.00  0.00    -0.211 N 
ATOM     30  H   LIG d   1       6.576  -1.456  -6.459  0.00  0.00     0.174 HD
BRANCH  29  31
ATOM     31  S   LIG d   1       5.433  -2.334  -4.666  0.00  0.00     0.072 S 
ATOM     32  O   LIG d   1       4.360  -3.261  -4.762  0.00  0.00    -0.150 OA
ATOM     33  O   LIG d   1       6.708  -2.693  -4.151  0.00  0.00    -0.150 OA
BRANCH  31  34
ATOM     34  C   LIG d   1       4.853  -0.992  -3.681  0.00  0.00     0.108 A 
ATOM     35  C   LIG d   1       3.513  -0.908  -3.349  0.00  0.00    -0.035 A 
ATOM     36  C   LIG d   1       3.058   0.144  -2.576  0.00  0.00    -0.060 A 
ATOM     37  H   LIG d   1       2.823  -1.664  -3.693  0.00  0.00     0.064 H 
ATOM     38  C   LIG d   1       3.942   1.111  -2.136  0.00  0.00    -0.062 A 
ATOM     39  H   LIG d   1       2.012   0.210  -2.316  0.00  0.00     0.062 H 
ATOM     40  C   LIG d   1       5.281   1.027  -2.469  0.00  0.00    -0.060 A 
ATOM     41  H   LIG d   1       3.586   1.934  -1.533  0.00  0.00     0.062 H 
ATOM     42  C   LIG d   1       5.737  -0.028  -3.236  0.00  0.00    -0.035 A 
ATOM     43  H   LIG d   1       5.970   1.783  -2.125  0.00  0.00     0.062 H 
ATOM     44  H   LIG d   1       6.784  -0.096  -3.492  0.00  0.00     0.064 H 
ENDBRANCH  31  34
ENDBRANCH  29  31
ENDBRANCH  14  29
BRANCH   1  45
ATOM     45  C   LIG d   1       4.870   0.406 -11.297  0.00  0.00     0.048 C 
ATOM     46  H   LIG d   1       5.363   0.912 -12.127  0.00  0.00     0.038 H 
ATOM     47  H   LIG d   1       3.937   0.917 -11.062  0.00  0.00     0.038 H 
BRANCH  45  48
ATOM     48  C   LIG d   1       5.786   0.427 -10.071  0.00  0.00     0.056 C 
ATOM     49  H   LIG d   1       5.415  -0.279  -9.328  0.00  0.00     0.056 H 
ATOM     50  H   LIG d   1       6.797   0.144 -10.368  0.00  0.00     0.056 H 
BRANCH  48  51
ATOM     51  O   LIG d   1       5.804   1.741  -9.512  0.00  0.00    -0.383 OA
BRANCH  51  52
ATOM     52  C   LIG d   1       4.516   2.357  -9.434  0.00  0.00     0.036 C 
ATOM     53  H   LIG d   1       4.333   2.933 -10.341  0.00  0.00     0.052 H 
ATOM     54  H   LIG d   1       3.751   1.588  -9.331  0.00  0.00     0.052 H 
ATOM     55  H   LIG d   1       4.483   3.021  -8.570  0.00  0.00     0.052 H 
ENDBRANCH  51  52
ENDBRANCH  48  51
ENDBRANCH  45  48
ENDBRANCH   1  45
TORSDOF 7
ENDMDL
MODEL 4
REMARK VINA RESULT:      -7.0      2.522      6.766
REMARK  7 active torsions:
REMARK  status: ('A' for Active; 'I' for Inactive)
REMARK    1  A    between atoms: C_1  and  O_2 
REMARK    2  A    between atoms: O_2  and  C_3 
REMARK    3  A    between atoms: C_3  and  C_4 
REMARK    4  A    between atoms: C_4  and  C_5 
REMARK       I    between atoms: C_5  and  N_7 
REMARK    5  A    between atoms: C_18  and  N_23 
REMARK    6  A    between atoms: N_23  and  S_24 
REMARK    7  A    between atoms: S_24  and  C_27 
ROOT
ATOM      1  C   LIG d   1       6.246   0.847  -9.926  0.00  0.00     0.218 C 
ATOM      2  O   LIG d   1       7.208   0.221 -10.320  0.00  0.00    -0.276 OA
ATOM      3  N   LIG d   1       5.049   0.693 -10.527  0.00  0.00    -0.300 N 
ATOM      4  C   LIG d   1       4.892  -0.227 -11.659  0.00  0.00     0.019 C 
ATOM      5  C   LIG d   1       3.709  -1.156 -11.421  0.00  0.00    -0.006 C 
ATOM      6  H   LIG d   1       3.497  -1.681 -12.353  0.00  0.00     0.033 H 
ATOM      7  C   LIG d   1       2.462  -0.364 -11.027  0.00  0.00    -0.037 C 
ATOM      8  C   LIG d   1       2.775   0.433  -9.757  0.00  0.00     0.016 C 
ATOM      9  H   LIG d   1       1.875   0.931  -9.397  0.00  0.00     0.038 H 
ATOM     10  C   LIG d   1       3.873   1.457 -10.087  0.00  0.00     0.023 C 
ATOM     11  C   LIG d   1       3.316  -0.495  -8.694  0.00  0.00     0.027 C 
ATOM     12  C   LIG d   1       3.138  -0.132  -7.398  0.00  0.00    -0.040 C 
ATOM     13  C   LIG d   1       3.727  -0.871  -6.364  0.00  0.00    -0.032 C 
ATOM     14  C   LIG d   1       4.499  -1.954  -6.683  0.00  0.00     0.112 C 
ATOM     15  C   LIG d   1       4.656  -2.307  -8.038  0.00  0.00     0.274 C 
ATOM     16  O   LIG d   1       5.387  -3.236  -8.342  0.00  0.00    -0.266 OA
ATOM     17  N   LIG d   1       3.999  -1.623  -9.007  0.00  0.00    -0.310 N 
ATOM     18  C   LIG d   1       4.023  -2.191 -10.355  0.00  0.00     0.031 C 
ATOM     19  H   LIG d   1       5.800  -0.821 -11.772  0.00  0.00     0.047 H 
ATOM     20  H   LIG d   1       4.724   0.347 -12.570  0.00  0.00     0.047 H 
ATOM     21  H   LIG d   1       1.637  -1.050 -10.835  0.00  0.00     0.028 H 
ATOM     22  H   LIG d   1       2.192   0.320 -11.831  0.00  0.00     0.028 H 
ATOM     23  H   LIG d   1       3.529   2.129 -10.873  0.00  0.00     0.047 H 
ATOM     24  H   LIG d   1       4.128   2.029  -9.194  0.00  0.00     0.047 H 
ATOM     25  H   LIG d   1       2.538   0.734  -7.161  0.00  0.00     0.064 H 
ATOM     26  H   LIG d   1       3.575  -0.589  -5.333  0.00  0.00     0.064 H 
ATOM     27  H   LIG d   1       5.012  -2.606 -10.547  0.00  0.00     0.050 H 
ATOM     28  H   LIG d   1       3.287  -2.993 -10.415  0.00  0.00     0.050 H 
ENDROOT
BRANCH  14  29
ATOM     29  N   LIG d   1       5.125  -2.702  -5.677  0.00  0.00    -0.211 N 
ATOM     30  H   LIG d   1       4.817  -3.599  -5.477  0.00  0.00     0.174 HD
BRANCH  29  31
ATOM     31  S   LIG d   1       6.391  -2.051  -4.829  0.00  0.00     0.072 S 
ATOM     32  O   LIG d   1       6.991  -3.120  -4.112  0.00  0.00    -0.150 OA
ATOM     33  O   LIG d   1       7.119  -1.243  -5.744  0.00  0.00    -0.150 OA
BRANCH  31  34
ATOM     34  C   LIG d   1       5.705  -0.959  -3.628  0.00  0.00     0.108 A 
ATOM     35  C   LIG d   1       6.025   0.386  -3.655  0.00  0.00    -0.035 A 
ATOM     36  C   LIG d   1       5.486   1.242  -2.713  0.00  0.00    -0.060 A 
ATOM     37  H   LIG d   1       6.694   0.766  -4.412  0.00  0.00     0.064 H 
ATOM     38  C   LIG d   1       4.629   0.754  -1.744  0.00  0.00    -0.062 A 
ATOM     39  H   LIG d   1       5.735   2.293  -2.734  0.00  0.00     0.062 H 
ATOM     40  C   LIG d   1       4.311  -0.591  -1.718  0.00  0.00    -0.060 A 
ATOM     41  H   LIG d   1       4.209   1.424  -1.008  0.00  0.00     0.062 H 
ATOM     42  C   LIG d   1       4.844  -1.446  -2.663  0.00  0.00    -0.035 A 
ATOM     43  H   LIG d   1       3.641  -0.971  -0.961  0.00  0.00     0.062 H 
ATOM     44  H   LIG d   1       4.591  -2.496  -2.645  0.00  0.00     0.064 H 
ENDBRANCH  31  34
ENDBRANCH  29  31
ENDBRANCH  14  29
BRANCH   1  45
ATOM     45  C   LIG d   1       6.390   1.795  -8.764  0.00  0.00     0.048 C 
ATOM     46  H   LIG d   1       6.433   2.820  -9.135  0.00  0.00     0.038 H 
ATOM     47  H   LIG d   1       5.535   1.687  -8.098  0.00  0.00     0.038 H 
BRANCH  45  48
ATOM     48  C   LIG d   1       7.676   1.477  -8.000  0.00  0.00     0.056 C 
ATOM     49  H   LIG d   1       7.901   0.414  -8.094  0.00  0.00     0.056 H 
ATOM     50  H   LIG d   1       8.499   2.060  -8.414  0.00  0.00     0.056 H 
BRANCH  48  51
ATOM     51  O   LIG d   1       7.505   1.806  -6.620  0.00  0.00    -0.383 OA
BRANCH  51  52
ATOM     52  C   LIG d   1       8.731   2.035  -5.921  0.00  0.00     0.036 C 
ATOM     53  H   LIG d   1       9.537   2.185  -6.639  0.00  0.00     0.052 H 
ATOM     54  H   LIG d   1       8.632   2.921  -5.295  0.00  0.00     0.052 H 
ATOM     55  H   LIG d   1       8.959   1.171  -5.295  0.00  0.00     0.052 H 
ENDBRANCH  51  52
ENDBRANCH  48  51
ENDBRANCH  45  48
ENDBRANCH   1  45
TORSDOF 7
ENDMDL
MODEL 5
REMARK VINA RESULT:      -6.9      2.750      7.192
REMARK  7 active torsions:
REMARK  status: ('A' for Active; 'I' for Inactive)
REMARK    1  A    between atoms: C_1  and  O_2 
REMARK    2  A    between atoms: O_2  and  C_3 
REMARK    3  A    between atoms: C_3  and  C_4 
REMARK    4  A    between atoms: C_4  and  C_5 
REMARK       I    between atoms: C_5  and  N_7 
REMARK    5  A    between atoms: C_18  and  N_23 
REMARK    6  A    between atoms: N_23  and  S_24 
REMARK    7  A    between atoms: S_24  and  C_27 
ROOT
ATOM      1  C   LIG d   1       3.916  -1.532 -10.579  0.00  0.00     0.218 C 
ATOM      2  O   LIG d   1       3.088  -2.362 -10.268  0.00  0.00    -0.276 OA
ATOM      3  N   LIG d   1       3.644  -0.220 -10.431  0.00  0.00    -0.300 N 
ATOM      4  C   LIG d   1       2.352   0.222  -9.895  0.00  0.00     0.019 C 
ATOM      5  C   LIG d   1       2.566   1.218  -8.762  0.00  0.00    -0.006 C 
ATOM      6  H   LIG d   1       1.604   1.673  -8.525  0.00  0.00     0.033 H 
ATOM      7  C   LIG d   1       3.528   2.328  -9.184  0.00  0.00    -0.037 C 
ATOM      8  C   LIG d   1       4.860   1.689  -9.587  0.00  0.00     0.016 C 
ATOM      9  H   LIG d   1       5.597   2.463  -9.800  0.00  0.00     0.038 H 
ATOM     10  C   LIG d   1       4.618   0.808 -10.824  0.00  0.00     0.023 C 
ATOM     11  C   LIG d   1       5.352   0.794  -8.474  0.00  0.00     0.027 C 
ATOM     12  C   LIG d   1       6.691   0.586  -8.384  0.00  0.00    -0.040 C 
ATOM     13  C   LIG d   1       7.209  -0.334  -7.465  0.00  0.00    -0.032 C 
ATOM     14  C   LIG d   1       6.343  -1.034  -6.671  0.00  0.00     0.112 C 
ATOM     15  C   LIG d   1       4.960  -0.788  -6.785  0.00  0.00     0.274 C 
ATOM     16  O   LIG d   1       4.171  -1.446  -6.125  0.00  0.00    -0.266 OA
ATOM     17  N   LIG d   1       4.499   0.174  -7.622  0.00  0.00    -0.310 N 
ATOM     18  C   LIG d   1       3.085   0.531  -7.512  0.00  0.00     0.031 C 
ATOM     19  H   LIG d   1       1.802  -0.641  -9.517  0.00  0.00     0.047 H 
ATOM     20  H   LIG d   1       1.774   0.695 -10.689  0.00  0.00     0.047 H 
ATOM     21  H   LIG d   1       3.687   3.012  -8.350  0.00  0.00     0.028 H 
ATOM     22  H   LIG d   1       3.111   2.872 -10.032  0.00  0.00     0.028 H 
ATOM     23  H   LIG d   1       4.235   1.416 -11.643  0.00  0.00     0.047 H 
ATOM     24  H   LIG d   1       5.549   0.326 -11.124  0.00  0.00     0.047 H 
ATOM     25  H   LIG d   1       7.363   1.136  -9.027  0.00  0.00     0.064 H 
ATOM     26  H   LIG d   1       8.275  -0.489  -7.385  0.00  0.00     0.064 H 
ATOM     27  H   LIG d   1       2.503  -0.375  -7.339  0.00  0.00     0.050 H 
ATOM     28  H   LIG d   1       2.954   1.200  -6.661  0.00  0.00     0.050 H 
ENDROOT
BRANCH  14  29
ATOM     29  N   LIG d   1       6.823  -1.982  -5.758  0.00  0.00    -0.211 N 
ATOM     30  H   LIG d   1       6.757  -2.928  -5.962  0.00  0.00     0.174 HD
BRANCH  29  31
ATOM     31  S   LIG d   1       7.500  -1.487  -4.330  0.00  0.00     0.072 S 
ATOM     32  O   LIG d   1       7.873  -2.664  -3.627  0.00  0.00    -0.150 OA
ATOM     33  O   LIG d   1       8.434  -0.466  -4.657  0.00  0.00    -0.150 OA
BRANCH  31  34
ATOM     34  C   LIG d   1       6.224  -0.719  -3.387  0.00  0.00     0.108 A 
ATOM     35  C   LIG d   1       6.154   0.660  -3.315  0.00  0.00    -0.035 A 
ATOM     36  C   LIG d   1       5.152   1.262  -2.577  0.00  0.00    -0.060 A 
ATOM     37  H   LIG d   1       6.880   1.266  -3.836  0.00  0.00     0.064 H 
ATOM     38  C   LIG d   1       4.223   0.485  -1.910  0.00  0.00    -0.062 A 
ATOM     39  H   LIG d   1       5.096   2.339  -2.520  0.00  0.00     0.062 H 
ATOM     40  C   LIG d   1       4.294  -0.893  -1.982  0.00  0.00    -0.060 A 
ATOM     41  H   LIG d   1       3.441   0.956  -1.332  0.00  0.00     0.062 H 
ATOM     42  C   LIG d   1       5.292  -1.495  -2.726  0.00  0.00    -0.035 A 
ATOM     43  H   LIG d   1       3.568  -1.499  -1.461  0.00  0.00     0.062 H 
ATOM     44  H   LIG d   1       5.345  -2.572  -2.786  0.00  0.00     0.064 H 
ENDBRANCH  31  34
ENDBRANCH  29  31
ENDBRANCH  14  29
BRANCH   1  45
ATOM     45  C   LIG d   1       5.248  -1.968 -11.131  0.00  0.00     0.048 C 
ATOM     46  H   LIG d   1       5.201  -1.989 -12.220  0.00  0.00     0.038 H 
ATOM     47  H   LIG d   1       6.020  -1.267 -10.815  0.00  0.00     0.038 H 
BRANCH  45  48
ATOM     48  C   LIG d   1       5.585  -3.366 -10.609  0.00  0.00     0.056 C 
ATOM     49  H   LIG d   1       4.677  -3.969 -10.574  0.00  0.00     0.056 H 
ATOM     50  H   LIG d   1       6.308  -3.838 -11.275  0.00  0.00     0.056 H 
BRANCH  48  51
ATOM     51  O   LIG d   1       6.141  -3.265  -9.297  0.00  0.00    -0.383 OA
BRANCH  51  52
ATOM     52  C   LIG d   1       5.705  -4.289  -8.401  0.00  0.00     0.036 C 
ATOM     53  H   LIG d   1       4.626  -4.219  -8.264  0.00  0.00     0.052 H 
ATOM     54  H   LIG d   1       5.957  -5.265  -8.815  0.00  0.00     0.052 H 
ATOM     55  H   LIG d   1       6.202  -4.164  -7.438  0.00  0.00     0.052 H 
ENDBRANCH  51  52
ENDBRANCH  48  51
ENDBRANCH  45  48
ENDBRANCH   1  45
TORSDOF 7
ENDMDL
MODEL 6
REMARK VINA RESULT:      -6.3      4.819      8.686
REMARK  7 active torsions:
REMARK  status: ('A' for Active; 'I' for Inactive)
REMARK    1  A    between atoms: C_1  and  O_2 
REMARK    2  A    between atoms: O_2  and  C_3 
REMARK    3  A    between atoms: C_3  and  C_4 
REMARK    4  A    between atoms: C_4  and  C_5 
REMARK       I    between atoms: C_5  and  N_7 
REMARK    5  A    between atoms: C_18  and  N_23 
REMARK    6  A    between atoms: N_23  and  S_24 
REMARK    7  A    between atoms: S_24  and  C_27 
ROOT
ATOM      1  C   LIG d   1      12.687   5.594  -2.583  0.00  0.00     0.218 C 
ATOM      2  O   LIG d   1      13.279   4.903  -1.781  0.00  0.00    -0.276 OA
ATOM      3  N   LIG d   1      13.108   5.653  -3.863  0.00  0.00    -0.300 N 
ATOM      4  C   LIG d   1      14.279   4.886  -4.302  0.00  0.00     0.019 C 
ATOM      5  C   LIG d   1      13.945   4.088  -5.556  0.00  0.00    -0.006 C 
ATOM      6  H   LIG d   1      14.875   3.697  -5.967  0.00  0.00     0.033 H 
ATOM      7  C   LIG d   1      13.295   4.979  -6.615  0.00  0.00    -0.037 C 
ATOM      8  C   LIG d   1      12.023   5.591  -6.020  0.00  0.00     0.016 C 
ATOM      9  H   LIG d   1      11.486   6.154  -6.783  0.00  0.00     0.038 H 
ATOM     10  C   LIG d   1      12.427   6.503  -4.850  0.00  0.00     0.023 C 
ATOM     11  C   LIG d   1      11.142   4.495  -5.466  0.00  0.00     0.027 C 
ATOM     12  C   LIG d   1       9.807   4.735  -5.407  0.00  0.00    -0.040 C 
ATOM     13  C   LIG d   1       8.946   3.823  -4.784  0.00  0.00    -0.032 C 
ATOM     14  C   LIG d   1       9.474   2.695  -4.221  0.00  0.00     0.112 C 
ATOM     15  C   LIG d   1      10.863   2.473  -4.307  0.00  0.00     0.274 C 
ATOM     16  O   LIG d   1      11.357   1.500  -3.759  0.00  0.00    -0.266 OA
ATOM     17  N   LIG d   1      11.655   3.332  -4.994  0.00  0.00    -0.310 N 
ATOM     18  C   LIG d   1      13.036   2.914  -5.239  0.00  0.00     0.031 C 
ATOM     19  H   LIG d   1      14.583   4.202  -3.509  0.00  0.00     0.047 H 
ATOM     20  H   LIG d   1      15.099   5.571  -4.517  0.00  0.00     0.047 H 
ATOM     21  H   LIG d   1      13.039   4.382  -7.490  0.00  0.00     0.028 H 
ATOM     22  H   LIG d   1      13.984   5.774  -6.899  0.00  0.00     0.028 H 
ATOM     23  H   LIG d   1      13.088   7.293  -5.207  0.00  0.00     0.047 H 
ATOM     24  H   LIG d   1      11.537   6.940  -4.396  0.00  0.00     0.047 H 
ATOM     25  H   LIG d   1       9.405   5.638  -5.844  0.00  0.00     0.064 H 
ATOM     26  H   LIG d   1       7.883   4.009  -4.750  0.00  0.00     0.064 H 
ATOM     27  H   LIG d   1      13.414   2.405  -4.352  0.00  0.00     0.050 H 
ATOM     28  H   LIG d   1      13.052   2.219  -6.078  0.00  0.00     0.050 H 
ENDROOT
BRANCH  14  29
ATOM     29  N   LIG d   1       8.647   1.773  -3.567  0.00  0.00    -0.211 N 
ATOM     30  H   LIG d   1       8.598   1.767  -2.598  0.00  0.00     0.174 HD
BRANCH  29  31
ATOM     31  S   LIG d   1       7.755   0.691  -4.448  0.00  0.00     0.072 S 
ATOM     32  O   LIG d   1       7.192   1.416  -5.532  0.00  0.00    -0.150 OA
ATOM     33  O   LIG d   1       8.578  -0.452  -4.639  0.00  0.00    -0.150 OA
BRANCH  31  34
ATOM     34  C   LIG d   1       6.409   0.178  -3.432  0.00  0.00     0.108 A 
ATOM     35  C   LIG d   1       5.630   1.122  -2.789  0.00  0.00    -0.035 A 
ATOM     36  C   LIG d   1       4.574   0.720  -1.993  0.00  0.00    -0.060 A 
ATOM     37  H   LIG d   1       5.847   2.173  -2.908  0.00  0.00     0.064 H 
ATOM     38  C   LIG d   1       4.297  -0.626  -1.841  0.00  0.00    -0.062 A 
ATOM     39  H   LIG d   1       3.965   1.457  -1.490  0.00  0.00     0.062 H 
ATOM     40  C   LIG d   1       5.075  -1.570  -2.484  0.00  0.00    -0.060 A 
ATOM     41  H   LIG d   1       3.471  -0.940  -1.218  0.00  0.00     0.062 H 
ATOM     42  C   LIG d   1       6.128  -1.167  -3.284  0.00  0.00    -0.035 A 
ATOM     43  H   LIG d   1       4.858  -2.620  -2.365  0.00  0.00     0.062 H 
ATOM     44  H   LIG d   1       6.733  -1.904  -3.791  0.00  0.00     0.064 H 
ENDBRANCH  31  34
ENDBRANCH  29  31
ENDBRANCH  14  29
BRANCH   1  45
ATOM     45  C   LIG d   1      11.482   6.388  -2.149  0.00  0.00     0.048 C 
ATOM     46  H   LIG d   1      11.809   7.276  -1.608  0.00  0.00     0.038 H 
ATOM     47  H   LIG d   1      10.909   6.688  -3.026  0.00  0.00     0.038 H 
BRANCH  45  48
ATOM     48  C   LIG d   1      10.606   5.529  -1.236  0.00  0.00     0.056 C 
ATOM     49  H   LIG d   1       9.678   5.280  -1.750  0.00  0.00     0.056 H 
ATOM     50  H   LIG d   1      11.137   4.610  -0.982  0.00  0.00     0.056 H 
BRANCH  48  51
ATOM     51  O   LIG d   1      10.309   6.253  -0.041  0.00  0.00    -0.383 OA
BRANCH  51  52
ATOM     52  C   LIG d   1      11.101   5.867   1.085  0.00  0.00     0.036 C 
ATOM     53  H   LIG d   1      10.735   4.919   1.479  0.00  0.00     0.052 H 
ATOM     54  H   LIG d   1      12.141   5.756   0.777  0.00  0.00     0.052 H 
ATOM     55  H   LIG d   1      11.031   6.633   1.858  0.00  0.00     0.052 H 
ENDBRANCH  51  52
ENDBRANCH  48  51
ENDBRANCH  45  48
ENDBRANCH   1  45
TORSDOF 7
ENDMDL
MODEL 7
REMARK VINA RESULT:      -6.3      2.616      7.075
REMARK  7 active torsions:
REMARK  status: ('A' for Active; 'I' for Inactive)
REMARK    1  A    between atoms: C_1  and  O_2 
REMARK    2  A    between atoms: O_2  and  C_3 
REMARK    3  A    between atoms: C_3  and  C_4 
REMARK    4  A    between atoms: C_4  and  C_5 
REMARK       I    between atoms: C_5  and  N_7 
REMARK    5  A    between atoms: C_18  and  N_23 
REMARK    6  A    between atoms: N_23  and  S_24 
REMARK    7  A    between atoms: S_24  and  C_27 
ROOT
ATOM      1  C   LIG d   1       4.857  -0.861 -11.433  0.00  0.00     0.218 C 
ATOM      2  O   LIG d   1       5.965  -0.730 -11.909  0.00  0.00    -0.276 OA
ATOM      3  N   LIG d   1       4.414  -2.085 -11.082  0.00  0.00    -0.300 N 
ATOM      4  C   LIG d   1       5.259  -3.269 -11.269  0.00  0.00     0.019 C 
ATOM      5  C   LIG d   1       5.320  -4.080  -9.981  0.00  0.00    -0.006 C 
ATOM      6  H   LIG d   1       5.781  -5.041 -10.207  0.00  0.00     0.033 H 
ATOM      7  C   LIG d   1       3.918  -4.341  -9.431  0.00  0.00    -0.037 C 
ATOM      8  C   LIG d   1       3.238  -2.992  -9.178  0.00  0.00     0.016 C 
ATOM      9  H   LIG d   1       2.272  -3.145  -8.694  0.00  0.00     0.038 H 
ATOM     10  C   LIG d   1       3.066  -2.276 -10.528  0.00  0.00     0.023 C 
ATOM     11  C   LIG d   1       4.124  -2.130  -8.309  0.00  0.00     0.027 C 
ATOM     12  C   LIG d   1       3.520  -1.184  -7.545  0.00  0.00    -0.040 C 
ATOM     13  C   LIG d   1       4.283  -0.261  -6.818  0.00  0.00    -0.032 C 
ATOM     14  C   LIG d   1       5.647  -0.318  -6.906  0.00  0.00     0.112 C 
ATOM     15  C   LIG d   1       6.240  -1.318  -7.702  0.00  0.00     0.274 C 
ATOM     16  O   LIG d   1       7.453  -1.346  -7.836  0.00  0.00    -0.266 OA
ATOM     17  N   LIG d   1       5.474  -2.249  -8.320  0.00  0.00    -0.310 N 
ATOM     18  C   LIG d   1       6.167  -3.385  -8.929  0.00  0.00     0.031 C 
ATOM     19  H   LIG d   1       6.266  -2.956 -11.546  0.00  0.00     0.047 H 
ATOM     20  H   LIG d   1       4.845  -3.887 -12.066  0.00  0.00     0.047 H 
ATOM     21  H   LIG d   1       3.988  -4.896  -8.496  0.00  0.00     0.028 H 
ATOM     22  H   LIG d   1       3.340  -4.912 -10.157  0.00  0.00     0.028 H 
ATOM     23  H   LIG d   1       2.453  -2.883 -11.194  0.00  0.00     0.047 H 
ATOM     24  H   LIG d   1       2.598  -1.303 -10.375  0.00  0.00     0.047 H 
ATOM     25  H   LIG d   1       2.442  -1.142  -7.497  0.00  0.00     0.064 H 
ATOM     26  H   LIG d   1       3.803   0.482  -6.200  0.00  0.00     0.064 H 
ATOM     27  H   LIG d   1       7.087  -3.030  -9.395  0.00  0.00     0.050 H 
ATOM     28  H   LIG d   1       6.422  -4.103  -8.150  0.00  0.00     0.050 H 
ENDROOT
BRANCH  14  29
ATOM     29  N   LIG d   1       6.443   0.604  -6.214  0.00  0.00    -0.211 N 
ATOM     30  H   LIG d   1       6.715   1.429  -6.645  0.00  0.00     0.174 HD
BRANCH  29  31
ATOM     31  S   LIG d   1       6.920   0.284  -4.661  0.00  0.00     0.072 S 
ATOM     32  O   LIG d   1       7.923  -0.718  -4.742  0.00  0.00    -0.150 OA
ATOM     33  O   LIG d   1       7.147   1.542  -4.039  0.00  0.00    -0.150 OA
BRANCH  31  34
ATOM     34  C   LIG d   1       5.545  -0.444  -3.833  0.00  0.00     0.108 A 
ATOM     35  C   LIG d   1       4.566   0.361  -3.280  0.00  0.00    -0.035 A 
ATOM     36  C   LIG d   1       3.487  -0.210  -2.632  0.00  0.00    -0.060 A 
ATOM     37  H   LIG d   1       4.645   1.435  -3.354  0.00  0.00     0.064 H 
ATOM     38  C   LIG d   1       3.387  -1.586  -2.537  0.00  0.00    -0.062 A 
ATOM     39  H   LIG d   1       2.723   0.418  -2.199  0.00  0.00     0.062 H 
ATOM     40  C   LIG d   1       4.366  -2.390  -3.090  0.00  0.00    -0.060 A 
ATOM     41  H   LIG d   1       2.544  -2.032  -2.030  0.00  0.00     0.062 H 
ATOM     42  C   LIG d   1       5.441  -1.819  -3.743  0.00  0.00    -0.035 A 
ATOM     43  H   LIG d   1       4.287  -3.464  -3.015  0.00  0.00     0.062 H 
ATOM     44  H   LIG d   1       6.204  -2.448  -4.179  0.00  0.00     0.064 H 
ENDBRANCH  31  34
ENDBRANCH  29  31
ENDBRANCH  14  29
BRANCH   1  45
ATOM     45  C   LIG d   1       3.976   0.345 -11.234  0.00  0.00     0.048 C 
ATOM     46  H   LIG d   1       3.850   0.864 -12.185  0.00  0.00     0.038 H 
ATOM     47  H   LIG d   1       3.003   0.027 -10.863  0.00  0.00     0.038 H 
BRANCH  45  48
ATOM     48  C   LIG d   1       4.624   1.290 -10.220  0.00  0.00     0.056 C 
ATOM     49  H   LIG d   1       4.802   0.756  -9.287  0.00  0.00     0.056 H 
ATOM     50  H   LIG d   1       5.573   1.653 -10.617  0.00  0.00     0.056 H 
BRANCH  48  51
ATOM     51  O   LIG d   1       3.755   2.398  -9.978  0.00  0.00    -0.383 OA
BRANCH  51  52
ATOM     52  C   LIG d   1       2.848   2.198  -8.892  0.00  0.00     0.036 C 
ATOM     53  H   LIG d   1       2.109   2.998  -8.883  0.00  0.00     0.052 H 
ATOM     54  H   LIG d   1       2.344   1.239  -9.012  0.00  0.00     0.052 H 
ATOM     55  H   LIG d   1       3.399   2.202  -7.951  0.00  0.00     0.052 H 
ENDBRANCH  51  52
ENDBRANCH  48  51
ENDBRANCH  45  48
ENDBRANCH   1  45
TORSDOF 7
ENDMDL
MODEL 8
REMARK VINA RESULT:      -6.3      4.129      8.102
REMARK  7 active torsions:
REMARK  status: ('A' for Active; 'I' for Inactive)
REMARK    1  A    between atoms: C_1  and  O_2 
REMARK    2  A    between atoms: O_2  and  C_3 
REMARK    3  A    between atoms: C_3  and  C_4 
REMARK    4  A    between atoms: C_4  and  C_5 
REMARK       I    between atoms: C_5  and  N_7 
REMARK    5  A    between atoms: C_18  and  N_23 
REMARK    6  A    between atoms: N_23  and  S_24 
REMARK    7  A    between atoms: S_24  and  C_27 
ROOT
ATOM      1  C   LIG d   1      10.340   6.634  -4.830  0.00  0.00     0.218 C 
ATOM      2  O   LIG d   1       9.792   6.993  -3.809  0.00  0.00    -0.276 OA
ATOM      3  N   LIG d   1      11.549   6.042  -4.775  0.00  0.00    -0.300 N 
ATOM      4  C   LIG d   1      12.218   5.823  -3.488  0.00  0.00     0.019 C 
ATOM      5  C   LIG d   1      12.674   4.374  -3.372  0.00  0.00    -0.006 C 
ATOM      6  H   LIG d   1      13.335   4.294  -2.509  0.00  0.00     0.033 H 
ATOM      7  C   LIG d   1      13.459   3.947  -4.613  0.00  0.00    -0.037 C 
ATOM      8  C   LIG d   1      12.560   4.124  -5.840  0.00  0.00     0.016 C 
ATOM      9  H   LIG d   1      13.058   3.735  -6.729  0.00  0.00     0.038 H 
ATOM     10  C   LIG d   1      12.247   5.621  -5.998  0.00  0.00     0.023 C 
ATOM     11  C   LIG d   1      11.251   3.402  -5.621  0.00  0.00     0.027 C 
ATOM     12  C   LIG d   1      10.579   2.977  -6.722  0.00  0.00    -0.040 C 
ATOM     13  C   LIG d   1       9.299   2.421  -6.605  0.00  0.00    -0.032 C 
ATOM     14  C   LIG d   1       8.730   2.329  -5.364  0.00  0.00     0.112 C 
ATOM     15  C   LIG d   1       9.459   2.772  -4.243  0.00  0.00     0.274 C 
ATOM     16  O   LIG d   1       8.942   2.750  -3.137  0.00  0.00    -0.266 OA
ATOM     17  N   LIG d   1      10.730   3.222  -4.383  0.00  0.00    -0.310 N 
ATOM     18  C   LIG d   1      11.498   3.438  -3.157  0.00  0.00     0.031 C 
ATOM     19  H   LIG d   1      11.525   6.048  -2.676  0.00  0.00     0.047 H 
ATOM     20  H   LIG d   1      13.083   6.481  -3.413  0.00  0.00     0.047 H 
ATOM     21  H   LIG d   1      13.750   2.900  -4.520  0.00  0.00     0.028 H 
ATOM     22  H   LIG d   1      14.348   4.569  -4.717  0.00  0.00     0.028 H 
ATOM     23  H   LIG d   1      13.173   6.181  -6.131  0.00  0.00     0.047 H 
ATOM     24  H   LIG d   1      11.594   5.775  -6.857  0.00  0.00     0.047 H 
ATOM     25  H   LIG d   1      11.035   3.069  -7.697  0.00  0.00     0.064 H 
ATOM     26  H   LIG d   1       8.770   2.072  -7.479  0.00  0.00     0.064 H 
ATOM     27  H   LIG d   1      10.842   3.866  -2.398  0.00  0.00     0.050 H 
ATOM     28  H   LIG d   1      11.871   2.479  -2.799  0.00  0.00     0.050 H 
ENDROOT
BRANCH  14  29
ATOM     29  N   LIG d   1       7.441   1.802  -5.211  0.00  0.00    -0.211 N 
ATOM     30  H   LIG d   1       6.676   2.397  -5.174  0.00  0.00     0.174 HD
BRANCH  29  31
ATOM     31  S   LIG d   1       7.224   0.165  -5.092  0.00  0.00     0.072 S 
ATOM     32  O   LIG d   1       6.568  -0.246  -6.283  0.00  0.00    -0.150 OA
ATOM     33  O   LIG d   1       8.471  -0.380  -4.681  0.00  0.00    -0.150 OA
BRANCH  31  34
ATOM     34  C   LIG d   1       6.093  -0.116  -3.770  0.00  0.00     0.108 A 
ATOM     35  C   LIG d   1       5.622  -1.392  -3.523  0.00  0.00    -0.035 A 
ATOM     36  C   LIG d   1       4.735  -1.613  -2.486  0.00  0.00    -0.060 A 
ATOM     37  H   LIG d   1       5.947  -2.216  -4.140  0.00  0.00     0.064 H 
ATOM     38  C   LIG d   1       4.319  -0.556  -1.696  0.00  0.00    -0.062 A 
ATOM     39  H   LIG d   1       4.367  -2.609  -2.292  0.00  0.00     0.062 H 
ATOM     40  C   LIG d   1       4.790   0.719  -1.944  0.00  0.00    -0.060 A 
ATOM     41  H   LIG d   1       3.626  -0.729  -0.886  0.00  0.00     0.062 H 
ATOM     42  C   LIG d   1       5.681   0.938  -2.977  0.00  0.00    -0.035 A 
ATOM     43  H   LIG d   1       4.465   1.543  -1.327  0.00  0.00     0.062 H 
ATOM     44  H   LIG d   1       6.053   1.934  -3.167  0.00  0.00     0.064 H 
ENDBRANCH  31  34
ENDBRANCH  29  31
ENDBRANCH  14  29
BRANCH   1  45
ATOM     45  C   LIG d   1       9.667   6.851  -6.161  0.00  0.00     0.048 C 
ATOM     46  H   LIG d   1      10.304   6.466  -6.957  0.00  0.00     0.038 H 
ATOM     47  H   LIG d   1       8.712   6.328  -6.175  0.00  0.00     0.038 H 
BRANCH  45  48
ATOM     48  C   LIG d   1       9.432   8.348  -6.376  0.00  0.00     0.056 C 
ATOM     49  H   LIG d   1       8.810   8.738  -5.571  0.00  0.00     0.056 H 
ATOM     50  H   LIG d   1      10.390   8.869  -6.381  0.00  0.00     0.056 H 
BRANCH  48  51
ATOM     51  O   LIG d   1       8.773   8.552  -7.628  0.00  0.00    -0.383 OA
BRANCH  51  52
ATOM     52  C   LIG d   1       9.314   7.779  -8.702  0.00  0.00     0.036 C 
ATOM     53  H   LIG d   1      10.285   7.380  -8.411  0.00  0.00     0.052 H 
ATOM     54  H   LIG d   1       8.638   6.956  -8.933  0.00  0.00     0.052 H 
ATOM     55  H   LIG d   1       9.430   8.411  -9.582  0.00  0.00     0.052 H 
ENDBRANCH  51  52
ENDBRANCH  48  51
ENDBRANCH  45  48
ENDBRANCH   1  45
TORSDOF 7
ENDMDL
MODEL 9
REMARK VINA RESULT:      -6.1      3.594      8.311
REMARK  7 active torsions:
REMARK  status: ('A' for Active; 'I' for Inactive)
REMARK    1  A    between atoms: C_1  and  O_2 
REMARK    2  A    between atoms: O_2  and  C_3 
REMARK    3  A    between atoms: C_3  and  C_4 
REMARK    4  A    between atoms: C_4  and  C_5 
REMARK       I    between atoms: C_5  and  N_7 
REMARK    5  A    between atoms: C_18  and  N_23 
REMARK    6  A    between atoms: N_23  and  S_24 
REMARK    7  A    between atoms: S_24  and  C_27 
ROOT
ATOM      1  C   LIG d   1       2.498  -4.535 -11.404  0.00  0.00     0.218 C 
ATOM      2  O   LIG d   1       1.304  -4.525 -11.188  0.00  0.00    -0.276 OA
ATOM      3  N   LIG d   1       3.035  -3.651 -12.268  0.00  0.00    -0.300 N 
ATOM      4  C   LIG d   1       2.190  -2.668 -12.956  0.00  0.00     0.019 C 
ATOM      5  C   LIG d   1       2.776  -1.270 -12.800  0.00  0.00    -0.006 C 
ATOM      6  H   LIG d   1       2.247  -0.603 -13.480  0.00  0.00     0.033 H 
ATOM      7  C   LIG d   1       4.259  -1.254 -13.173  0.00  0.00    -0.037 C 
ATOM      8  C   LIG d   1       4.998  -2.243 -12.268  0.00  0.00     0.016 C 
ATOM      9  H   LIG d   1       6.072  -2.182 -12.445  0.00  0.00     0.038 H 
ATOM     10  C   LIG d   1       4.474  -3.657 -12.568  0.00  0.00     0.023 C 
ATOM     11  C   LIG d   1       4.691  -1.937 -10.821  0.00  0.00     0.027 C 
ATOM     12  C   LIG d   1       5.617  -2.298  -9.895  0.00  0.00    -0.040 C 
ATOM     13  C   LIG d   1       5.345  -2.169  -8.527  0.00  0.00    -0.032 C 
ATOM     14  C   LIG d   1       4.124  -1.688  -8.140  0.00  0.00     0.112 C 
ATOM     15  C   LIG d   1       3.191  -1.315  -9.127  0.00  0.00     0.274 C 
ATOM     16  O   LIG d   1       2.077  -0.939  -8.797  0.00  0.00    -0.266 OA
ATOM     17  N   LIG d   1       3.520  -1.370 -10.440  0.00  0.00    -0.310 N 
ATOM     18  C   LIG d   1       2.593  -0.748 -11.386  0.00  0.00     0.031 C 
ATOM     19  H   LIG d   1       1.188  -2.689 -12.527  0.00  0.00     0.047 H 
ATOM     20  H   LIG d   1       2.132  -2.920 -14.015  0.00  0.00     0.047 H 
ATOM     21  H   LIG d   1       4.662  -0.252 -13.027  0.00  0.00     0.028 H 
ATOM     22  H   LIG d   1       4.378  -1.551 -14.215  0.00  0.00     0.028 H 
ATOM     23  H   LIG d   1       4.653  -3.905 -13.615  0.00  0.00     0.047 H 
ATOM     24  H   LIG d   1       4.973  -4.382 -11.924  0.00  0.00     0.047 H 
ATOM     25  H   LIG d   1       6.571  -2.690 -10.216  0.00  0.00     0.064 H 
ATOM     26  H   LIG d   1       6.086  -2.444  -7.792  0.00  0.00     0.064 H 
ATOM     27  H   LIG d   1       1.571  -0.950 -11.065  0.00  0.00     0.050 H 
ATOM     28  H   LIG d   1       2.756   0.330 -11.384  0.00  0.00     0.050 H 
ENDROOT
BRANCH  14  29
ATOM     29  N   LIG d   1       3.807  -1.569  -6.780  0.00  0.00    -0.211 N 
ATOM     30  H   LIG d   1       3.428  -2.323  -6.303  0.00  0.00     0.174 HD
BRANCH  29  31
ATOM     31  S   LIG d   1       4.076  -0.139  -5.990  0.00  0.00     0.072 S 
ATOM     32  O   LIG d   1       5.354   0.321  -6.406  0.00  0.00    -0.150 OA
ATOM     33  O   LIG d   1       2.897   0.640  -6.146  0.00  0.00    -0.150 OA
BRANCH  31  34
ATOM     34  C   LIG d   1       4.209  -0.511  -4.272  0.00  0.00     0.108 A 
ATOM     35  C   LIG d   1       3.906  -1.780  -3.815  0.00  0.00    -0.035 A 
ATOM     36  C   LIG d   1       4.011  -2.073  -2.468  0.00  0.00    -0.060 A 
ATOM     37  H   LIG d   1       3.589  -2.543  -4.511  0.00  0.00     0.064 H 
ATOM     38  C   LIG d   1       4.418  -1.095  -1.579  0.00  0.00    -0.062 A 
ATOM     39  H   LIG d   1       3.775  -3.064  -2.111  0.00  0.00     0.062 H 
ATOM     40  C   LIG d   1       4.720   0.173  -2.036  0.00  0.00    -0.060 A 
ATOM     41  H   LIG d   1       4.500  -1.324  -0.526  0.00  0.00     0.062 H 
ATOM     42  C   LIG d   1       4.621   0.464  -3.383  0.00  0.00    -0.035 A 
ATOM     43  H   LIG d   1       5.038   0.936  -1.341  0.00  0.00     0.062 H 
ATOM     44  H   LIG d   1       4.861   1.454  -3.741  0.00  0.00     0.064 H 
ENDBRANCH  31  34
ENDBRANCH  29  31
ENDBRANCH  14  29
BRANCH   1  45
ATOM     45  C   LIG d   1       3.380  -5.538 -10.706  0.00  0.00     0.048 C 
ATOM     46  H   LIG d   1       3.933  -6.114 -11.449  0.00  0.00     0.038 H 
ATOM     47  H   LIG d   1       4.082  -5.015 -10.057  0.00  0.00     0.038 H 
BRANCH  45  48
ATOM     48  C   LIG d   1       2.517  -6.482  -9.868  0.00  0.00     0.056 C 
ATOM     49  H   LIG d   1       1.532  -6.039  -9.719  0.00  0.00     0.056 H 
ATOM     50  H   LIG d   1       2.410  -7.435 -10.388  0.00  0.00     0.056 H 
BRANCH  48  51
ATOM     51  O   LIG d   1       3.139  -6.699  -8.601  0.00  0.00    -0.383 OA
BRANCH  51  52
ATOM     52  C   LIG d   1       3.819  -5.553  -8.084  0.00  0.00     0.036 C 
ATOM     53  H   LIG d   1       4.706  -5.354  -8.686  0.00  0.00     0.052 H 
ATOM     54  H   LIG d   1       3.155  -4.689  -8.119  0.00  0.00     0.052 H 
ATOM     55  H   LIG d   1       4.116  -5.741  -7.052  0.00  0.00     0.052 H 
ENDBRANCH  51  52
ENDBRANCH  48  51
ENDBRANCH  45  48
ENDBRANCH   1  45
TORSDOF 7
ENDMDL
