MODEL 1
REMARK VINA RESULT:      -5.0      0.000      0.000
REMARK  4 active torsions:
REMARK  status: ('A' for Active; 'I' for Inactive)
REMARK    1  A    between atoms: C_1  and  O_2 
REMARK    2  A    between atoms: O_2  and  C_3 
REMARK    3  A    between atoms: C_3  and  C_5 
REMARK    4  A    between atoms: C_10  and  C_11 
ROOT
ATOM      1  C   LIG d   1       5.588  -0.691  -3.811  0.00  0.00     0.068 A 
ATOM      2  C   LIG d   1       5.614  -2.043  -4.141  0.00  0.00    -0.047 A 
ATOM      3  C   LIG d   1       4.699  -2.910  -3.572  0.00  0.00    -0.061 A 
ATOM      4  C   LIG d   1       3.756  -2.444  -2.674  0.00  0.00    -0.061 A 
ATOM      5  C   LIG d   1       3.715  -1.105  -2.334  0.00  0.00    -0.052 A 
ATOM      6  C   LIG d   1       4.632  -0.217  -2.893  0.00  0.00     0.011 A 
ATOM      7  H   LIG d   1       6.346  -2.413  -4.842  0.00  0.00     0.063 H 
ATOM      8  H   LIG d   1       4.722  -3.959  -3.831  0.00  0.00     0.062 H 
ATOM      9  H   LIG d   1       3.047  -3.131  -2.236  0.00  0.00     0.062 H 
ATOM     10  H   LIG d   1       2.976  -0.748  -1.633  0.00  0.00     0.062 H 
ENDROOT
BRANCH   1  11
ATOM     11  C   LIG d   1       6.564   0.241  -4.417  0.00  0.00     0.340 C 
ATOM     12  O   LIG d   1       6.369   0.686  -5.530  0.00  0.00    -0.245 OA
BRANCH  11  13
ATOM     13  O   LIG d   1       7.669   0.598  -3.733  0.00  0.00    -0.464 OA
BRANCH  13  14
ATOM     14  C   LIG d   1       8.076   1.964  -3.826  0.00  0.00     0.082 C 
ATOM     15  H   LIG d   1       7.997   2.435  -2.847  0.00  0.00     0.066 H 
ATOM     16  H   LIG d   1       9.109   2.012  -4.170  0.00  0.00     0.066 H 
ATOM     17  H   LIG d   1       7.433   2.488  -4.533  0.00  0.00     0.066 H 
ENDBRANCH  13  14
ENDBRANCH  11  13
ENDBRANCH   1  11
BRANCH   6  18
ATOM     18  C   LIG d   1       4.597   1.214  -2.528  0.00  0.00     0.072 C 
ATOM     19  O   LIG d   1       4.072   2.024  -3.278  0.00  0.00    -0.545 OA
ATOM     20  O   LIG d   1       5.092   1.588  -1.474  0.00  0.00    -0.545 OA
ENDBRANCH   6  18
TORSDOF 4
ENDMDL
MODEL 2
REMARK VINA RESULT:      -4.9      1.883      3.010
REMARK  4 active torsions:
REMARK  status: ('A' for Active; 'I' for Inactive)
REMARK    1  A    between atoms: C_1  and  O_2 
REMARK    2  A    between atoms: O_2  and  C_3 
REMARK    3  A    between atoms: C_3  and  C_5 
REMARK    4  A    between atoms: C_10  and  C_11 
ROOT
ATOM      1  C   LIG d   1       6.235   0.373  -3.407  0.00  0.00     0.068 A 
ATOM      2  C   LIG d   1       5.436   1.217  -2.642  0.00  0.00    -0.047 A 
ATOM      3  C   LIG d   1       4.445   0.688  -1.835  0.00  0.00    -0.061 A 
ATOM      4  C   LIG d   1       4.241  -0.679  -1.782  0.00  0.00    -0.061 A 
ATOM      5  C   LIG d   1       5.024  -1.534  -2.534  0.00  0.00    -0.052 A 
ATOM      6  C   LIG d   1       6.023  -1.019  -3.358  0.00  0.00     0.011 A 
ATOM      7  H   LIG d   1       5.591   2.285  -2.677  0.00  0.00     0.063 H 
ATOM      8  H   LIG d   1       3.827   1.347  -1.242  0.00  0.00     0.062 H 
ATOM      9  H   LIG d   1       3.463  -1.081  -1.149  0.00  0.00     0.062 H 
ATOM     10  H   LIG d   1       4.859  -2.600  -2.489  0.00  0.00     0.062 H 
ENDROOT
BRANCH   1  11
ATOM     11  C   LIG d   1       7.296   0.934  -4.271  0.00  0.00     0.340 C 
ATOM     12  O   LIG d   1       7.058   1.199  -5.432  0.00  0.00    -0.245 OA
BRANCH  11  13
ATOM     13  O   LIG d   1       8.528   1.150  -3.770  0.00  0.00    -0.464 OA
BRANCH  13  14
ATOM     14  C   LIG d   1       8.960   2.509  -3.677  0.00  0.00     0.082 C 
ATOM     15  H   LIG d   1      10.047   2.551  -3.749  0.00  0.00     0.066 H 
ATOM     16  H   LIG d   1       8.520   3.086  -4.490  0.00  0.00     0.066 H 
ATOM     17  H   LIG d   1       8.644   2.927  -2.722  0.00  0.00     0.066 H 
ENDBRANCH  13  14
ENDBRANCH  11  13
ENDBRANCH   1  11
BRANCH   6  18
ATOM     18  C   LIG d   1       6.859  -1.927  -4.168  0.00  0.00     0.072 C 
ATOM     19  O   LIG d   1       6.542  -2.185  -5.321  0.00  0.00    -0.545 OA
ATOM     20  O   LIG d   1       7.869  -2.421  -3.686  0.00  0.00    -0.545 OA
ENDBRANCH   6  18
TORSDOF 4
ENDMDL
MODEL 3
REMARK VINA RESULT:      -4.8      1.866      3.162
REMARK  4 active torsions:
REMARK  status: ('A' for Active; 'I' for Inactive)
REMARK    1  A    between atoms: C_1  and  O_2 
REMARK    2  A    between atoms: O_2  and  C_3 
REMARK    3  A    between atoms: C_3  and  C_5 
REMARK    4  A    between atoms: C_10  and  C_11 
ROOT
ATOM      1  C   LIG d   1       6.016  -1.039  -3.387  0.00  0.00     0.068 A 
ATOM      2  C   LIG d   1       5.015  -1.576  -2.583  0.00  0.00    -0.047 A 
ATOM      3  C   LIG d   1       4.230  -0.743  -1.807  0.00  0.00    -0.061 A 
ATOM      4  C   LIG d   1       4.432   0.626  -1.825  0.00  0.00    -0.061 A 
ATOM      5  C   LIG d   1       5.421   1.178  -2.617  0.00  0.00    -0.052 A 
ATOM      6  C   LIG d   1       6.226   0.353  -3.400  0.00  0.00     0.011 A 
ATOM      7  H   LIG d   1       4.851  -2.643  -2.566  0.00  0.00     0.063 H 
ATOM      8  H   LIG d   1       3.453  -1.164  -1.185  0.00  0.00     0.062 H 
ATOM      9  H   LIG d   1       3.813   1.267  -1.214  0.00  0.00     0.062 H 
ATOM     10  H   LIG d   1       5.573   2.246  -2.625  0.00  0.00     0.062 H 
ENDROOT
BRANCH   1  11
ATOM     11  C   LIG d   1       6.859  -1.926  -4.218  0.00  0.00     0.340 C 
ATOM     12  O   LIG d   1       6.532  -2.180  -5.360  0.00  0.00    -0.245 OA
BRANCH  11  13
ATOM     13  O   LIG d   1       7.990  -2.452  -3.708  0.00  0.00    -0.464 OA
BRANCH  13  14
ATOM     14  C   LIG d   1       8.320  -3.785  -4.101  0.00  0.00     0.082 C 
ATOM     15  H   LIG d   1       8.331  -4.431  -3.223  0.00  0.00     0.066 H 
ATOM     16  H   LIG d   1       7.576  -4.150  -4.810  0.00  0.00     0.066 H 
ATOM     17  H   LIG d   1       9.303  -3.793  -4.570  0.00  0.00     0.066 H 
ENDBRANCH  13  14
ENDBRANCH  11  13
ENDBRANCH   1  11
BRANCH   6  18
ATOM     18  C   LIG d   1       7.288   0.937  -4.243  0.00  0.00     0.072 C 
ATOM     19  O   LIG d   1       7.073   1.174  -5.423  0.00  0.00    -0.545 OA
ATOM     20  O   LIG d   1       8.385   1.184  -3.761  0.00  0.00    -0.545 OA
ENDBRANCH   6  18
TORSDOF 4
ENDMDL
MODEL 4
REMARK VINA RESULT:      -4.8      1.915      3.345
REMARK  4 active torsions:
REMARK  status: ('A' for Active; 'I' for Inactive)
REMARK    1  A    between atoms: C_1  and  O_2 
REMARK    2  A    between atoms: O_2  and  C_3 
REMARK    3  A    between atoms: C_3  and  C_5 
REMARK    4  A    between atoms: C_10  and  C_11 
ROOT
ATOM      1  C   LIG d   1       6.219   0.286  -3.449  0.00  0.00     0.068 A 
ATOM      2  C   LIG d   1       5.465   1.198  -2.715  0.00  0.00    -0.047 A 
ATOM      3  C   LIG d   1       4.472   0.747  -1.864  0.00  0.00    -0.061 A 
ATOM      4  C   LIG d   1       4.221  -0.607  -1.736  0.00  0.00    -0.061 A 
ATOM      5  C   LIG d   1       4.959  -1.527  -2.456  0.00  0.00    -0.052 A 
ATOM      6  C   LIG d   1       5.960  -1.092  -3.323  0.00  0.00     0.011 A 
ATOM      7  H   LIG d   1       5.657   2.256  -2.809  0.00  0.00     0.063 H 
ATOM      8  H   LIG d   1       3.890   1.458  -1.296  0.00  0.00     0.062 H 
ATOM      9  H   LIG d   1       3.442  -0.947  -1.069  0.00  0.00     0.062 H 
ATOM     10  H   LIG d   1       4.757  -2.583  -2.351  0.00  0.00     0.062 H 
ENDROOT
BRANCH   1  11
ATOM     11  C   LIG d   1       7.282   0.763  -4.360  0.00  0.00     0.340 C 
ATOM     12  O   LIG d   1       8.428   0.846  -3.966  0.00  0.00    -0.245 OA
BRANCH  11  13
ATOM     13  O   LIG d   1       6.979   1.104  -5.628  0.00  0.00    -0.464 OA
BRANCH  13  14
ATOM     14  C   LIG d   1       7.785   0.537  -6.662  0.00  0.00     0.082 C 
ATOM     15  H   LIG d   1       7.184  -0.153  -7.254  0.00  0.00     0.066 H 
ATOM     16  H   LIG d   1       8.165   1.331  -7.304  0.00  0.00     0.066 H 
ATOM     17  H   LIG d   1       8.622  -0.001  -6.217  0.00  0.00     0.066 H 
ENDBRANCH  13  14
ENDBRANCH  11  13
ENDBRANCH   1  11
BRANCH   6  18
ATOM     18  C   LIG d   1       6.747  -2.071  -4.099  0.00  0.00     0.072 C 
ATOM     19  O   LIG d   1       7.764  -2.554  -3.623  0.00  0.00    -0.545 OA
ATOM     20  O   LIG d   1       6.380  -2.398  -5.219  0.00  0.00    -0.545 OA
ENDBRANCH   6  18
TORSDOF 4
ENDMDL
MODEL 5
REMARK VINA RESULT:      -4.8      1.882      3.274
REMARK  4 active torsions:
REMARK  status: ('A' for Active; 'I' for Inactive)
REMARK    1  A    between atoms: C_1  and  O_2 
REMARK    2  A    between atoms: O_2  and  C_3 
REMARK    3  A    between atoms: C_3  and  C_5 
REMARK    4  A    between atoms: C_10  and  C_11 
ROOT
ATOM      1  C   LIG d   1       6.047  -0.996  -3.353  0.00  0.00     0.068 A 
ATOM      2  C   LIG d   1       5.038  -1.526  -2.555  0.00  0.00    -0.047 A 
ATOM      3  C   LIG d   1       4.235  -0.685  -1.806  0.00  0.00    -0.061 A 
ATOM      4  C   LIG d   1       4.428   0.684  -1.844  0.00  0.00    -0.061 A 
ATOM      5  C   LIG d   1       5.424   1.230  -2.631  0.00  0.00    -0.052 A 
ATOM      6  C   LIG d   1       6.247   0.398  -3.388  0.00  0.00     0.011 A 
ATOM      7  H   LIG d   1       4.881  -2.594  -2.522  0.00  0.00     0.063 H 
ATOM      8  H   LIG d   1       3.453  -1.101  -1.188  0.00  0.00     0.062 H 
ATOM      9  H   LIG d   1       3.795   1.331  -1.253  0.00  0.00     0.062 H 
ATOM     10  H   LIG d   1       5.569   2.299  -2.655  0.00  0.00     0.062 H 
ENDROOT
BRANCH   1  11
ATOM     11  C   LIG d   1       6.908  -1.891  -4.157  0.00  0.00     0.340 C 
ATOM     12  O   LIG d   1       7.873  -2.424  -3.648  0.00  0.00    -0.245 OA
BRANCH  11  13
ATOM     13  O   LIG d   1       6.621  -2.115  -5.454  0.00  0.00    -0.464 OA
BRANCH  13  14
ATOM     14  C   LIG d   1       7.720  -2.141  -6.366  0.00  0.00     0.082 C 
ATOM     15  H   LIG d   1       8.547  -1.562  -5.956  0.00  0.00     0.066 H 
ATOM     16  H   LIG d   1       8.040  -3.171  -6.520  0.00  0.00     0.066 H 
ATOM     17  H   LIG d   1       7.413  -1.710  -7.319  0.00  0.00     0.066 H 
ENDBRANCH  13  14
ENDBRANCH  11  13
ENDBRANCH   1  11
BRANCH   6  18
ATOM     18  C   LIG d   1       7.317   0.975  -4.225  0.00  0.00     0.072 C 
ATOM     19  O   LIG d   1       8.419   1.196  -3.744  0.00  0.00    -0.545 OA
ATOM     20  O   LIG d   1       7.101   1.232  -5.401  0.00  0.00    -0.545 OA
ENDBRANCH   6  18
TORSDOF 4
ENDMDL
MODEL 6
REMARK VINA RESULT:      -4.8      1.901      3.101
REMARK  4 active torsions:
REMARK  status: ('A' for Active; 'I' for Inactive)
REMARK    1  A    between atoms: C_1  and  O_2 
REMARK    2  A    between atoms: O_2  and  C_3 
REMARK    3  A    between atoms: C_3  and  C_5 
REMARK    4  A    between atoms: C_10  and  C_11 
ROOT
ATOM      1  C   LIG d   1       4.545  -1.085  -3.975  0.00  0.00     0.068 A 
ATOM      2  C   LIG d   1       4.673  -2.346  -4.548  0.00  0.00    -0.047 A 
ATOM      3  C   LIG d   1       5.867  -3.036  -4.443  0.00  0.00    -0.061 A 
ATOM      4  C   LIG d   1       6.940  -2.479  -3.770  0.00  0.00    -0.061 A 
ATOM      5  C   LIG d   1       6.832  -1.227  -3.193  0.00  0.00    -0.052 A 
ATOM      6  C   LIG d   1       5.638  -0.515  -3.294  0.00  0.00     0.011 A 
ATOM      7  H   LIG d   1       3.839  -2.787  -5.074  0.00  0.00     0.063 H 
ATOM      8  H   LIG d   1       5.962  -4.015  -4.889  0.00  0.00     0.062 H 
ATOM      9  H   LIG d   1       7.868  -3.026  -3.695  0.00  0.00     0.062 H 
ATOM     10  H   LIG d   1       7.673  -0.799  -2.670  0.00  0.00     0.062 H 
ENDROOT
BRANCH   1  11
ATOM     11  C   LIG d   1       3.269  -0.343  -4.084  0.00  0.00     0.340 C 
ATOM     12  O   LIG d   1       2.337  -0.629  -3.360  0.00  0.00    -0.245 OA
BRANCH  11  13
ATOM     13  O   LIG d   1       3.143   0.649  -4.987  0.00  0.00    -0.464 OA
BRANCH  13  14
ATOM     14  C   LIG d   1       2.886   0.266  -6.339  0.00  0.00     0.082 C 
ATOM     15  H   LIG d   1       2.885  -0.821  -6.415  0.00  0.00     0.066 H 
ATOM     16  H   LIG d   1       1.916   0.653  -6.648  0.00  0.00     0.066 H 
ATOM     17  H   LIG d   1       3.663   0.675  -6.986  0.00  0.00     0.066 H 
ENDBRANCH  13  14
ENDBRANCH  11  13
ENDBRANCH   1  11
BRANCH   6  18
ATOM     18  C   LIG d   1       5.520   0.825  -2.686  0.00  0.00     0.072 C 
ATOM     19  O   LIG d   1       5.992   1.799  -3.254  0.00  0.00    -0.545 OA
ATOM     20  O   LIG d   1       4.948   0.960  -1.613  0.00  0.00    -0.545 OA
ENDBRANCH   6  18
TORSDOF 4
ENDMDL
MODEL 7
REMARK VINA RESULT:      -4.8      1.503      2.234
REMARK  4 active torsions:
REMARK  status: ('A' for Active; 'I' for Inactive)
REMARK    1  A    between atoms: C_1  and  O_2 
REMARK    2  A    between atoms: O_2  and  C_3 
REMARK    3  A    between atoms: C_3  and  C_5 
REMARK    4  A    between atoms: C_10  and  C_11 
ROOT
ATOM      1  C   LIG d   1       4.766  -0.807  -4.387  0.00  0.00     0.068 A 
ATOM      2  C   LIG d   1       4.572  -2.184  -4.426  0.00  0.00    -0.047 A 
ATOM      3  C   LIG d   1       4.170  -2.858  -3.287  0.00  0.00    -0.061 A 
ATOM      4  C   LIG d   1       3.959  -2.171  -2.105  0.00  0.00    -0.061 A 
ATOM      5  C   LIG d   1       4.146  -0.803  -2.047  0.00  0.00    -0.052 A 
ATOM      6  C   LIG d   1       4.556  -0.108  -3.182  0.00  0.00     0.011 A 
ATOM      7  H   LIG d   1       4.733  -2.726  -5.346  0.00  0.00     0.063 H 
ATOM      8  H   LIG d   1       4.020  -3.928  -3.322  0.00  0.00     0.062 H 
ATOM      9  H   LIG d   1       3.646  -2.709  -1.222  0.00  0.00     0.062 H 
ATOM     10  H   LIG d   1       3.980  -0.274  -1.121  0.00  0.00     0.062 H 
ENDROOT
BRANCH   1  11
ATOM     11  C   LIG d   1       5.195  -0.081  -5.603  0.00  0.00     0.340 C 
ATOM     12  O   LIG d   1       6.360   0.232  -5.744  0.00  0.00    -0.245 OA
BRANCH  11  13
ATOM     13  O   LIG d   1       4.293   0.232  -6.553  0.00  0.00    -0.464 OA
BRANCH  13  14
ATOM     14  C   LIG d   1       2.917   0.226  -6.168  0.00  0.00     0.082 C 
ATOM     15  H   LIG d   1       2.332   0.784  -6.900  0.00  0.00     0.066 H 
ATOM     16  H   LIG d   1       2.557  -0.801  -6.122  0.00  0.00     0.066 H 
ATOM     17  H   LIG d   1       2.812   0.692  -5.189  0.00  0.00     0.066 H 
ENDBRANCH  13  14
ENDBRANCH  11  13
ENDBRANCH   1  11
BRANCH   6  18
ATOM     18  C   LIG d   1       4.764   1.352  -3.124  0.00  0.00     0.072 C 
ATOM     19  O   LIG d   1       3.823   2.112  -3.300  0.00  0.00    -0.545 OA
ATOM     20  O   LIG d   1       5.879   1.802  -2.899  0.00  0.00    -0.545 OA
ENDBRANCH   6  18
TORSDOF 4
ENDMDL
MODEL 8
REMARK VINA RESULT:      -4.8      2.467      3.284
REMARK  4 active torsions:
REMARK  status: ('A' for Active; 'I' for Inactive)
REMARK    1  A    between atoms: C_1  and  O_2 
REMARK    2  A    between atoms: O_2  and  C_3 
REMARK    3  A    between atoms: C_3  and  C_5 
REMARK    4  A    between atoms: C_10  and  C_11 
ROOT
ATOM      1  C   LIG d   1       4.540  -0.814  -4.730  0.00  0.00     0.068 A 
ATOM      2  C   LIG d   1       5.487  -1.589  -4.068  0.00  0.00    -0.047 A 
ATOM      3  C   LIG d   1       5.383  -1.794  -2.705  0.00  0.00    -0.061 A 
ATOM      4  C   LIG d   1       4.340  -1.231  -1.990  0.00  0.00    -0.061 A 
ATOM      5  C   LIG d   1       3.390  -0.458  -2.629  0.00  0.00    -0.052 A 
ATOM      6  C   LIG d   1       3.482  -0.236  -4.002  0.00  0.00     0.011 A 
ATOM      7  H   LIG d   1       6.302  -2.033  -4.620  0.00  0.00     0.063 H 
ATOM      8  H   LIG d   1       6.120  -2.397  -2.195  0.00  0.00     0.062 H 
ATOM      9  H   LIG d   1       4.270  -1.397  -0.925  0.00  0.00     0.062 H 
ATOM     10  H   LIG d   1       2.579  -0.022  -2.065  0.00  0.00     0.062 H 
ENDROOT
BRANCH   1  11
ATOM     11  C   LIG d   1       4.647  -0.592  -6.189  0.00  0.00     0.340 C 
ATOM     12  O   LIG d   1       5.323   0.321  -6.617  0.00  0.00    -0.245 OA
BRANCH  11  13
ATOM     13  O   LIG d   1       3.994  -1.405  -7.043  0.00  0.00    -0.464 OA
BRANCH  13  14
ATOM     14  C   LIG d   1       3.242  -0.781  -8.085  0.00  0.00     0.082 C 
ATOM     15  H   LIG d   1       2.547  -1.502  -8.514  0.00  0.00     0.066 H 
ATOM     16  H   LIG d   1       2.685   0.062  -7.677  0.00  0.00     0.066 H 
ATOM     17  H   LIG d   1       3.921  -0.426  -8.860  0.00  0.00     0.066 H 
ENDBRANCH  13  14
ENDBRANCH  11  13
ENDBRANCH   1  11
BRANCH   6  18
ATOM     18  C   LIG d   1       2.473   0.595  -4.689  0.00  0.00     0.072 C 
ATOM     19  O   LIG d   1       2.688   1.782  -4.885  0.00  0.00    -0.545 OA
ATOM     20  O   LIG d   1       1.421   0.094  -5.062  0.00  0.00    -0.545 OA
ENDBRANCH   6  18
TORSDOF 4
ENDMDL
MODEL 9
REMARK VINA RESULT:      -4.6      2.327      3.545
REMARK  4 active torsions:
REMARK  status: ('A' for Active; 'I' for Inactive)
REMARK    1  A    between atoms: C_1  and  O_2 
REMARK    2  A    between atoms: O_2  and  C_3 
REMARK    3  A    between atoms: C_3  and  C_5 
REMARK    4  A    between atoms: C_10  and  C_11 
ROOT
ATOM      1  C   LIG d   1       4.396  -0.141  -4.499  0.00  0.00     0.068 A 
ATOM      2  C   LIG d   1       3.215  -0.091  -3.764  0.00  0.00    -0.047 A 
ATOM      3  C   LIG d   1       3.233   0.361  -2.457  0.00  0.00    -0.061 A 
ATOM      4  C   LIG d   1       4.419   0.766  -1.872  0.00  0.00    -0.061 A 
ATOM      5  C   LIG d   1       5.602   0.723  -2.586  0.00  0.00    -0.052 A 
ATOM      6  C   LIG d   1       5.605   0.265  -3.902  0.00  0.00     0.011 A 
ATOM      7  H   LIG d   1       2.285  -0.404  -4.215  0.00  0.00     0.063 H 
ATOM      8  H   LIG d   1       2.314   0.399  -1.891  0.00  0.00     0.062 H 
ATOM      9  H   LIG d   1       4.421   1.116  -0.851  0.00  0.00     0.062 H 
ATOM     10  H   LIG d   1       6.525   1.040  -2.123  0.00  0.00     0.062 H 
ENDROOT
BRANCH   1  11
ATOM     11  C   LIG d   1       4.382  -0.624  -5.897  0.00  0.00     0.340 C 
ATOM     12  O   LIG d   1       4.495  -1.811  -6.132  0.00  0.00    -0.245 OA
BRANCH  11  13
ATOM     13  O   LIG d   1       4.244   0.253  -6.911  0.00  0.00    -0.464 OA
BRANCH  13  14
ATOM     14  C   LIG d   1       5.130   0.105  -8.022  0.00  0.00     0.082 C 
ATOM     15  H   LIG d   1       6.112  -0.205  -7.665  0.00  0.00     0.066 H 
ATOM     16  H   LIG d   1       4.736  -0.650  -8.702  0.00  0.00     0.066 H 
ATOM     17  H   LIG d   1       5.218   1.056  -8.546  0.00  0.00     0.066 H 
ENDBRANCH  13  14
ENDBRANCH  11  13
ENDBRANCH   1  11
BRANCH   6  18
ATOM     18  C   LIG d   1       6.867   0.211  -4.667  0.00  0.00     0.072 C 
ATOM     19  O   LIG d   1       7.222   1.175  -5.330  0.00  0.00    -0.545 OA
ATOM     20  O   LIG d   1       7.557  -0.799  -4.637  0.00  0.00    -0.545 OA
ENDBRANCH   6  18
TORSDOF 4
ENDMDL
MODEL 10
REMARK VINA RESULT:      -4.6      2.740      3.862
REMARK  4 active torsions:
REMARK  status: ('A' for Active; 'I' for Inactive)
REMARK    1  A    between atoms: C_1  and  O_2 
REMARK    2  A    between atoms: O_2  and  C_3 
REMARK    3  A    between atoms: C_3  and  C_5 
REMARK    4  A    between atoms: C_10  and  C_11 
ROOT
ATOM      1  C   LIG d   1       4.065  -0.170  -4.350  0.00  0.00     0.068 A 
ATOM      2  C   LIG d   1       3.693   0.897  -3.536  0.00  0.00    -0.047 A 
ATOM      3  C   LIG d   1       3.864   0.813  -2.166  0.00  0.00    -0.061 A 
ATOM      4  C   LIG d   1       4.404  -0.326  -1.596  0.00  0.00    -0.061 A 
ATOM      5  C   LIG d   1       4.779  -1.395  -2.388  0.00  0.00    -0.052 A 
ATOM      6  C   LIG d   1       4.609  -1.332  -3.769  0.00  0.00     0.011 A 
ATOM      7  H   LIG d   1       3.273   1.789  -3.975  0.00  0.00     0.063 H 
ATOM      8  H   LIG d   1       3.575   1.644  -1.538  0.00  0.00     0.062 H 
ATOM      9  H   LIG d   1       4.532  -0.380  -0.525  0.00  0.00     0.062 H 
ATOM     10  H   LIG d   1       5.199  -2.281  -1.936  0.00  0.00     0.062 H 
ENDROOT
BRANCH   1  11
ATOM     11  C   LIG d   1       3.885  -0.085  -5.816  0.00  0.00     0.340 C 
ATOM     12  O   LIG d   1       2.781  -0.234  -6.302  0.00  0.00    -0.245 OA
BRANCH  11  13
ATOM     13  O   LIG d   1       4.945   0.157  -6.612  0.00  0.00    -0.464 OA
BRANCH  13  14
ATOM     14  C   LIG d   1       4.963  -0.494  -7.883  0.00  0.00     0.082 C 
ATOM     15  H   LIG d   1       5.989  -0.747  -8.148  0.00  0.00     0.066 H 
ATOM     16  H   LIG d   1       4.366  -1.405  -7.834  0.00  0.00     0.066 H 
ATOM     17  H   LIG d   1       4.547   0.172  -8.638  0.00  0.00     0.066 H 
ENDBRANCH  13  14
ENDBRANCH  11  13
ENDBRANCH   1  11
BRANCH   6  18
ATOM     18  C   LIG d   1       5.002  -2.474  -4.619  0.00  0.00     0.072 C 
ATOM     19  O   LIG d   1       4.204  -3.373  -4.843  0.00  0.00    -0.545 OA
ATOM     20  O   LIG d   1       6.126  -2.519  -5.099  0.00  0.00    -0.545 OA
ENDBRANCH   6  18
TORSDOF 4
ENDMDL
