MODEL 1
REMARK VINA RESULT:      -4.3      0.000      0.000
REMARK  3 active torsions:
REMARK  status: ('A' for Active; 'I' for Inactive)
REMARK    1  A    between atoms: C_1  and  C_2 
REMARK    2  A    between atoms: C_3  and  C_8 
REMARK    3  A    between atoms: C_5  and  N_7 
ROOT
ATOM      1  C   LIG d   1       4.917  -1.305  -2.929  0.00  0.00     0.056 A 
ATOM      2  C   LIG d   1       4.874   0.056  -3.203  0.00  0.00     0.059 A 
ATOM      3  S   LIG d   1       6.543   0.328  -3.782  0.00  0.00    -0.051 SA
ATOM      4  C   LIG d   1       7.107  -1.307  -3.623  0.00  0.00     0.156 A 
ATOM      5  N   LIG d   1       6.038  -1.936  -3.157  0.00  0.00    -0.230 NA
ENDROOT
BRANCH   1   6
ATOM      6  C   LIG d   1       3.710  -2.029  -2.391  0.00  0.00    -0.021 C 
ATOM      7  H   LIG d   1       3.962  -2.497  -1.439  0.00  0.00     0.029 H 
ATOM      8  H   LIG d   1       2.897  -1.319  -2.242  0.00  0.00     0.029 H 
ATOM      9  H   LIG d   1       3.399  -2.794  -3.101  0.00  0.00     0.029 H 
ENDBRANCH   1   6
BRANCH   2  10
ATOM     10  C   LIG d   1       3.805   0.976  -3.058  0.00  0.00     0.080 C 
ATOM     11  O   LIG d   1       3.505   1.389  -1.953  0.00  0.00    -0.544 OA
ATOM     12  O   LIG d   1       3.121   1.392  -4.143  0.00  0.00    -0.544 OA
ENDBRANCH   2  10
BRANCH   4  13
ATOM     13  N   LIG d   1       8.355  -1.819  -3.908  0.00  0.00    -0.338 N 
ATOM     14  H   LIG d   1       9.147  -1.408  -3.530  0.00  0.00     0.144 HD
ATOM     15  H   LIG d   1       8.440  -2.592  -4.488  0.00  0.00     0.144 HD
ENDBRANCH   4  13
TORSDOF 3
ENDMDL
MODEL 2
REMARK VINA RESULT:      -4.1      2.480      3.023
REMARK  3 active torsions:
REMARK  status: ('A' for Active; 'I' for Inactive)
REMARK    1  A    between atoms: C_1  and  C_2 
REMARK    2  A    between atoms: C_3  and  C_8 
REMARK    3  A    between atoms: C_5  and  N_7 
ROOT
ATOM      1  C   LIG d   1       5.013   0.696  -2.899  0.00  0.00     0.056 A 
ATOM      2  C   LIG d   1       5.207  -0.636  -3.243  0.00  0.00     0.059 A 
ATOM      3  S   LIG d   1       6.891  -0.579  -3.839  0.00  0.00    -0.051 SA
ATOM      4  C   LIG d   1       7.167   1.115  -3.579  0.00  0.00     0.156 A 
ATOM      5  N   LIG d   1       6.011   1.521  -3.077  0.00  0.00    -0.230 NA
ENDROOT
BRANCH   1   6
ATOM      6  C   LIG d   1       3.699   1.170  -2.335  0.00  0.00    -0.021 C 
ATOM      7  H   LIG d   1       3.877   1.709  -1.404  0.00  0.00     0.029 H 
ATOM      8  H   LIG d   1       3.215   1.834  -3.052  0.00  0.00     0.029 H 
ATOM      9  H   LIG d   1       3.056   0.313  -2.142  0.00  0.00     0.029 H 
ENDBRANCH   1   6
BRANCH   2  10
ATOM     10  C   LIG d   1       4.314  -1.734  -3.154  0.00  0.00     0.080 C 
ATOM     11  O   LIG d   1       3.913  -2.274  -4.167  0.00  0.00    -0.544 OA
ATOM     12  O   LIG d   1       3.909  -2.176  -1.946  0.00  0.00    -0.544 OA
ENDBRANCH   2  10
BRANCH   4  13
ATOM     13  N   LIG d   1       8.304   1.852  -3.834  0.00  0.00    -0.338 N 
ATOM     14  H   LIG d   1       9.116   1.680  -3.333  0.00  0.00     0.144 HD
ATOM     15  H   LIG d   1       8.290   2.543  -4.514  0.00  0.00     0.144 HD
ENDBRANCH   4  13
TORSDOF 3
ENDMDL
MODEL 3
REMARK VINA RESULT:      -4.0      1.851      2.584
REMARK  3 active torsions:
REMARK  status: ('A' for Active; 'I' for Inactive)
REMARK    1  A    between atoms: C_1  and  C_2 
REMARK    2  A    between atoms: C_3  and  C_8 
REMARK    3  A    between atoms: C_5  and  N_7 
ROOT
ATOM      1  C   LIG d   1       5.872  -0.667  -3.760  0.00  0.00     0.056 A 
ATOM      2  C   LIG d   1       4.743  -0.172  -3.120  0.00  0.00     0.059 A 
ATOM      3  S   LIG d   1       3.634  -1.562  -3.288  0.00  0.00    -0.051 SA
ATOM      4  C   LIG d   1       4.719  -2.617  -4.139  0.00  0.00     0.156 A 
ATOM      5  N   LIG d   1       5.816  -1.880  -4.242  0.00  0.00    -0.230 NA
ENDROOT
BRANCH   1   6
ATOM      6  C   LIG d   1       7.121   0.166  -3.889  0.00  0.00    -0.021 C 
ATOM      7  H   LIG d   1       7.966  -0.481  -4.127  0.00  0.00     0.029 H 
ATOM      8  H   LIG d   1       6.989   0.898  -4.687  0.00  0.00     0.029 H 
ATOM      9  H   LIG d   1       7.312   0.683  -2.950  0.00  0.00     0.029 H 
ENDBRANCH   1   6
BRANCH   2  10
ATOM     10  C   LIG d   1       4.529   1.089  -2.508  0.00  0.00     0.080 C 
ATOM     11  O   LIG d   1       4.813   1.253  -1.337  0.00  0.00    -0.544 OA
ATOM     12  O   LIG d   1       4.007   2.106  -3.225  0.00  0.00    -0.544 OA
ENDBRANCH   2  10
BRANCH   4  13
ATOM     13  N   LIG d   1       4.495  -3.898  -4.595  0.00  0.00    -0.338 N 
ATOM     14  H   LIG d   1       3.830  -4.060  -5.282  0.00  0.00     0.144 HD
ATOM     15  H   LIG d   1       5.003  -4.639  -4.228  0.00  0.00     0.144 HD
ENDBRANCH   4  13
TORSDOF 3
ENDMDL
MODEL 4
REMARK VINA RESULT:      -3.9      2.846      3.635
REMARK  3 active torsions:
REMARK  status: ('A' for Active; 'I' for Inactive)
REMARK    1  A    between atoms: C_1  and  C_2 
REMARK    2  A    between atoms: C_3  and  C_8 
REMARK    3  A    between atoms: C_5  and  N_7 
ROOT
ATOM      1  C   LIG d   1       5.158  -0.157  -4.517  0.00  0.00     0.056 A 
ATOM      2  C   LIG d   1       4.278  -0.016  -3.452  0.00  0.00     0.059 A 
ATOM      3  S   LIG d   1       2.721   0.079  -4.323  0.00  0.00    -0.051 SA
ATOM      4  C   LIG d   1       3.351  -0.079  -5.933  0.00  0.00     0.156 A 
ATOM      5  N   LIG d   1       4.655  -0.189  -5.722  0.00  0.00    -0.230 NA
ENDROOT
BRANCH   1   6
ATOM      6  C   LIG d   1       6.643  -0.274  -4.289  0.00  0.00    -0.021 C 
ATOM      7  H   LIG d   1       7.042   0.694  -3.985  0.00  0.00     0.029 H 
ATOM      8  H   LIG d   1       6.834  -1.008  -3.506  0.00  0.00     0.029 H 
ATOM      9  H   LIG d   1       7.128  -0.593  -5.211  0.00  0.00     0.029 H 
ENDBRANCH   1   6
BRANCH   2  10
ATOM     10  C   LIG d   1       4.543   0.043  -2.060  0.00  0.00     0.080 C 
ATOM     11  O   LIG d   1       4.479  -0.967  -1.386  0.00  0.00    -0.544 OA
ATOM     12  O   LIG d   1       4.864   1.220  -1.485  0.00  0.00    -0.544 OA
ENDBRANCH   2  10
BRANCH   4  13
ATOM     13  N   LIG d   1       2.667  -0.086  -7.129  0.00  0.00    -0.338 N 
ATOM     14  H   LIG d   1       3.125   0.143  -7.952  0.00  0.00     0.144 HD
ATOM     15  H   LIG d   1       1.725  -0.320  -7.147  0.00  0.00     0.144 HD
ENDBRANCH   4  13
TORSDOF 3
ENDMDL
MODEL 5
REMARK VINA RESULT:      -3.8     10.817     11.451
REMARK  3 active torsions:
REMARK  status: ('A' for Active; 'I' for Inactive)
REMARK    1  A    between atoms: C_1  and  C_2 
REMARK    2  A    between atoms: C_3  and  C_8 
REMARK    3  A    between atoms: C_5  and  N_7 
ROOT
ATOM      1  C   LIG d   1      10.825   9.021   0.585  0.00  0.00     0.056 A 
ATOM      2  C   LIG d   1      10.668   7.696   0.199  0.00  0.00     0.059 A 
ATOM      3  S   LIG d   1       9.426   7.870  -1.073  0.00  0.00    -0.051 SA
ATOM      4  C   LIG d   1       9.248   9.595  -0.984  0.00  0.00     0.156 A 
ATOM      5  N   LIG d   1      10.107   9.924  -0.031  0.00  0.00    -0.230 NA
ENDROOT
BRANCH   1   6
ATOM      6  C   LIG d   1      11.793   9.405   1.674  0.00  0.00    -0.021 C 
ATOM      7  H   LIG d   1      11.303   9.317   2.644  0.00  0.00     0.029 H 
ATOM      8  H   LIG d   1      12.657   8.742   1.643  0.00  0.00     0.029 H 
ATOM      9  H   LIG d   1      12.119  10.434   1.524  0.00  0.00     0.029 H 
ENDBRANCH   1   6
BRANCH   2  10
ATOM     10  C   LIG d   1      11.310   6.530   0.685  0.00  0.00     0.080 C 
ATOM     11  O   LIG d   1      10.719   5.779   1.438  0.00  0.00    -0.544 OA
ATOM     12  O   LIG d   1      12.577   6.253   0.313  0.00  0.00    -0.544 OA
ENDBRANCH   2  10
BRANCH   4  13
ATOM     13  N   LIG d   1       8.419  10.415  -1.719  0.00  0.00    -0.338 N 
ATOM     14  H   LIG d   1       7.494  10.531  -1.457  0.00  0.00     0.144 HD
ATOM     15  H   LIG d   1       8.764  10.875  -2.501  0.00  0.00     0.144 HD
ENDBRANCH   4  13
TORSDOF 3
ENDMDL
MODEL 6
REMARK VINA RESULT:      -3.7      2.589      2.937
REMARK  3 active torsions:
REMARK  status: ('A' for Active; 'I' for Inactive)
REMARK    1  A    between atoms: C_1  and  C_2 
REMARK    2  A    between atoms: C_3  and  C_8 
REMARK    3  A    between atoms: C_5  and  N_7 
ROOT
ATOM      1  C   LIG d   1       4.291  -2.373  -3.743  0.00  0.00     0.056 A 
ATOM      2  C   LIG d   1       4.535  -1.348  -4.648  0.00  0.00     0.059 A 
ATOM      3  S   LIG d   1       4.995  -2.291  -6.095  0.00  0.00    -0.051 SA
ATOM      4  C   LIG d   1       4.819  -3.872  -5.401  0.00  0.00     0.156 A 
ATOM      5  N   LIG d   1       4.438  -3.602  -4.161  0.00  0.00    -0.230 NA
ENDROOT
BRANCH   1   6
ATOM      6  C   LIG d   1       3.865  -2.076  -2.328  0.00  0.00    -0.021 C 
ATOM      7  H   LIG d   1       3.396  -1.093  -2.288  0.00  0.00     0.029 H 
ATOM      8  H   LIG d   1       3.152  -2.832  -1.997  0.00  0.00     0.029 H 
ATOM      9  H   LIG d   1       4.737  -2.090  -1.676  0.00  0.00     0.029 H 
ENDBRANCH   1   6
BRANCH   2  10
ATOM     10  C   LIG d   1       4.451   0.056  -4.471  0.00  0.00     0.080 C 
ATOM     11  O   LIG d   1       3.419   0.642  -4.740  0.00  0.00    -0.544 OA
ATOM     12  O   LIG d   1       5.515   0.742  -4.005  0.00  0.00    -0.544 OA
ENDBRANCH   2  10
BRANCH   4  13
ATOM     13  N   LIG d   1       5.026  -5.100  -5.992  0.00  0.00    -0.338 N 
ATOM     14  H   LIG d   1       5.285  -5.153  -6.924  0.00  0.00     0.144 HD
ATOM     15  H   LIG d   1       4.912  -5.913  -5.473  0.00  0.00     0.144 HD
ENDBRANCH   4  13
TORSDOF 3
ENDMDL
MODEL 7
REMARK VINA RESULT:      -3.6      2.500      2.834
REMARK  3 active torsions:
REMARK  status: ('A' for Active; 'I' for Inactive)
REMARK    1  A    between atoms: C_1  and  C_2 
REMARK    2  A    between atoms: C_3  and  C_8 
REMARK    3  A    between atoms: C_5  and  N_7 
ROOT
ATOM      1  C   LIG d   1       5.310   0.171  -3.697  0.00  0.00     0.056 A 
ATOM      2  C   LIG d   1       4.505  -0.936  -3.932  0.00  0.00     0.059 A 
ATOM      3  S   LIG d   1       5.108  -1.446  -5.535  0.00  0.00    -0.051 SA
ATOM      4  C   LIG d   1       6.314  -0.212  -5.727  0.00  0.00     0.156 A 
ATOM      5  N   LIG d   1       6.192   0.487  -4.608  0.00  0.00    -0.230 NA
ENDROOT
BRANCH   1   6
ATOM      6  C   LIG d   1       5.174   0.978  -2.431  0.00  0.00    -0.021 C 
ATOM      7  H   LIG d   1       6.073   0.859  -1.826  0.00  0.00     0.029 H 
ATOM      8  H   LIG d   1       5.043   2.031  -2.684  0.00  0.00     0.029 H 
ATOM      9  H   LIG d   1       4.308   0.629  -1.870  0.00  0.00     0.029 H 
ENDBRANCH   1   6
BRANCH   2  10
ATOM     10  C   LIG d   1       3.483  -1.500  -3.127  0.00  0.00     0.080 C 
ATOM     11  O   LIG d   1       3.686  -2.538  -2.527  0.00  0.00    -0.544 OA
ATOM     12  O   LIG d   1       2.286  -0.886  -3.029  0.00  0.00    -0.544 OA
ENDBRANCH   2  10
BRANCH   4  13
ATOM     13  N   LIG d   1       7.180  -0.010  -6.780  0.00  0.00    -0.338 N 
ATOM     14  H   LIG d   1       6.871  -0.123  -7.692  0.00  0.00     0.144 HD
ATOM     15  H   LIG d   1       8.101   0.245  -6.608  0.00  0.00     0.144 HD
ENDBRANCH   4  13
TORSDOF 3
ENDMDL
MODEL 8
REMARK VINA RESULT:      -3.5     10.038     10.628
REMARK  3 active torsions:
REMARK  status: ('A' for Active; 'I' for Inactive)
REMARK    1  A    between atoms: C_1  and  C_2 
REMARK    2  A    between atoms: C_3  and  C_8 
REMARK    3  A    between atoms: C_5  and  N_7 
ROOT
ATOM      1  C   LIG d   1      10.036   7.014  -1.195  0.00  0.00     0.056 A 
ATOM      2  C   LIG d   1      10.819   7.298  -0.084  0.00  0.00     0.059 A 
ATOM      3  S   LIG d   1      10.386   9.009   0.194  0.00  0.00    -0.051 SA
ATOM      4  C   LIG d   1       9.259   9.174  -1.116  0.00  0.00     0.156 A 
ATOM      5  N   LIG d   1       9.278   7.969  -1.666  0.00  0.00    -0.230 NA
ENDROOT
BRANCH   1   6
ATOM      6  C   LIG d   1      10.057   5.650  -1.834  0.00  0.00    -0.021 C 
ATOM      7  H   LIG d   1      11.082   5.277  -1.862  0.00  0.00     0.029 H 
ATOM      8  H   LIG d   1       9.439   4.966  -1.252  0.00  0.00     0.029 H 
ATOM      9  H   LIG d   1       9.667   5.717  -2.849  0.00  0.00     0.029 H 
ENDBRANCH   1   6
BRANCH   2  10
ATOM     10  C   LIG d   1      11.718   6.464   0.627  0.00  0.00     0.080 C 
ATOM     11  O   LIG d   1      12.862   6.328   0.235  0.00  0.00    -0.544 OA
ATOM     12  O   LIG d   1      11.305   5.820   1.738  0.00  0.00    -0.544 OA
ENDBRANCH   2  10
BRANCH   4  13
ATOM     13  N   LIG d   1       8.529  10.282  -1.490  0.00  0.00    -0.338 N 
ATOM     14  H   LIG d   1       8.952  11.154  -1.525  0.00  0.00     0.144 HD
ATOM     15  H   LIG d   1       7.591  10.189  -1.718  0.00  0.00     0.144 HD
ENDBRANCH   4  13
TORSDOF 3
ENDMDL
MODEL 9
REMARK VINA RESULT:      -3.5      8.841      9.444
REMARK  3 active torsions:
REMARK  status: ('A' for Active; 'I' for Inactive)
REMARK    1  A    between atoms: C_1  and  C_2 
REMARK    2  A    between atoms: C_3  and  C_8 
REMARK    3  A    between atoms: C_5  and  N_7 
ROOT
ATOM      1  C   LIG d   1      10.673   6.168  -0.443  0.00  0.00     0.056 A 
ATOM      2  C   LIG d   1      10.676   5.632  -1.725  0.00  0.00     0.059 A 
ATOM      3  S   LIG d   1       9.590   6.777  -2.563  0.00  0.00    -0.051 SA
ATOM      4  C   LIG d   1       9.259   7.810  -1.207  0.00  0.00     0.156 A 
ATOM      5  N   LIG d   1       9.964   7.246  -0.237  0.00  0.00    -0.230 NA
ENDROOT
BRANCH   1   6
ATOM      6  C   LIG d   1      11.464   5.530   0.669  0.00  0.00    -0.021 C 
ATOM      7  H   LIG d   1      12.505   5.849   0.604  0.00  0.00     0.029 H 
ATOM      8  H   LIG d   1      11.050   5.835   1.631  0.00  0.00     0.029 H 
ATOM      9  H   LIG d   1      11.410   4.446   0.578  0.00  0.00     0.029 H 
ENDBRANCH   1   6
BRANCH   2  10
ATOM     10  C   LIG d   1      11.349   4.489  -2.226  0.00  0.00     0.080 C 
ATOM     11  O   LIG d   1      12.520   4.564  -2.546  0.00  0.00    -0.544 OA
ATOM     12  O   LIG d   1      10.688   3.319  -2.351  0.00  0.00    -0.544 OA
ENDBRANCH   2  10
BRANCH   4  13
ATOM     13  N   LIG d   1       8.462   8.933  -1.153  0.00  0.00    -0.338 N 
ATOM     14  H   LIG d   1       8.841   9.785  -0.889  0.00  0.00     0.144 HD
ATOM     15  H   LIG d   1       7.521   8.870  -1.380  0.00  0.00     0.144 HD
ENDBRANCH   4  13
TORSDOF 3
ENDMDL
MODEL 10
REMARK VINA RESULT:      -3.4      8.579      9.221
REMARK  3 active torsions:
REMARK  status: ('A' for Active; 'I' for Inactive)
REMARK    1  A    between atoms: C_1  and  C_2 
REMARK    2  A    between atoms: C_3  and  C_8 
REMARK    3  A    between atoms: C_5  and  N_7 
ROOT
ATOM      1  C   LIG d   1       9.873   6.917  -1.502  0.00  0.00     0.056 A 
ATOM      2  C   LIG d   1      10.709   6.018  -0.853  0.00  0.00     0.059 A 
ATOM      3  S   LIG d   1      10.797   4.713  -2.070  0.00  0.00    -0.051 SA
ATOM      4  C   LIG d   1       9.776   5.449  -3.266  0.00  0.00     0.156 A 
ATOM      5  N   LIG d   1       9.442   6.596  -2.693  0.00  0.00    -0.230 NA
ENDROOT
BRANCH   1   6
ATOM      6  C   LIG d   1       9.480   8.220  -0.856  0.00  0.00    -0.021 C 
ATOM      7  H   LIG d   1       9.934   9.048  -1.402  0.00  0.00     0.029 H 
ATOM      8  H   LIG d   1       8.395   8.324  -0.878  0.00  0.00     0.029 H 
ATOM      9  H   LIG d   1       9.826   8.233   0.176  0.00  0.00     0.029 H 
ENDBRANCH   1   6
BRANCH   2  10
ATOM     10  C   LIG d   1      11.319   6.109   0.424  0.00  0.00     0.080 C 
ATOM     11  O   LIG d   1      12.447   6.552   0.529  0.00  0.00    -0.544 OA
ATOM     12  O   LIG d   1      10.648   5.702   1.521  0.00  0.00    -0.544 OA
ENDBRANCH   2  10
BRANCH   4  13
ATOM     13  N   LIG d   1       9.405   4.961  -4.501  0.00  0.00    -0.338 N 
ATOM     14  H   LIG d   1       9.618   4.047  -4.746  0.00  0.00     0.144 HD
ATOM     15  H   LIG d   1       8.931   5.532  -5.125  0.00  0.00     0.144 HD
ENDBRANCH   4  13
TORSDOF 3
ENDMDL
