MODEL 1
REMARK VINA RESULT:      -7.5      0.000      0.000
REMARK  7 active torsions:
REMARK  status: ('A' for Active; 'I' for Inactive)
REMARK    1  A    between atoms: C_1  and  C_2 
REMARK    2  A    between atoms: C_8  and  C_36 
REMARK    3  A    between atoms: C_9  and  O_35 
REMARK    4  A    between atoms: C_19  and  C_21 
REMARK    5  A    between atoms: C_21  and  N_66 
REMARK    6  A    between atoms: C_24  and  C_27 
REMARK    7  A    between atoms: C_24  and  O_34 
ROOT
ATOM      1  C   LIG d   1       4.094  -0.974  -2.849  0.00  0.00    -0.032 C 
ATOM      2  H   LIG d   1       3.225  -0.565  -3.357  0.00  0.00     0.031 H 
ATOM      3  C   LIG d   1       4.429  -0.081  -1.654  0.00  0.00    -0.046 C 
ATOM      4  C   LIG d   1       4.668   1.343  -2.168  0.00  0.00    -0.034 C 
ATOM      5  C   LIG d   1       5.740   1.303  -3.217  0.00  0.00    -0.084 C 
ATOM      6  C   LIG d   1       5.993   0.251  -3.939  0.00  0.00    -0.061 C 
ATOM      7  C   LIG d   1       5.271  -1.059  -3.816  0.00  0.00     0.018 C 
ATOM      8  C   LIG d   1       4.782  -1.508  -5.186  0.00  0.00     0.072 C 
ATOM      9  H   LIG d   1       4.565  -2.586  -5.135  0.00  0.00     0.061 H 
ATOM     10  C   LIG d   1       5.706  -1.280  -6.340  0.00  0.00     0.041 C 
ATOM     11  H   LIG d   1       5.085  -1.305  -7.258  0.00  0.00     0.037 H 
ATOM     12  C   LIG d   1       6.483   0.043  -6.360  0.00  0.00     0.113 C 
ATOM     13  H   LIG d   1       5.863   0.878  -6.716  0.00  0.00     0.074 H 
ATOM     14  C   LIG d   1       7.086   0.347  -4.984  0.00  0.00     0.006 C 
ATOM     15  O   LIG d   1       7.616  -0.237  -7.252  0.00  0.00    -0.460 OA
ATOM     16  C   LIG d   1       7.853  -1.555  -7.342  0.00  0.00     0.316 C 
ATOM     17  O   LIG d   1       8.752  -2.068  -7.973  0.00  0.00    -0.250 OA
ATOM     18  C   LIG d   1       6.818  -2.321  -6.528  0.00  0.00     0.105 C 
ATOM     19  H   LIG d   1       7.245  -2.643  -5.585  0.00  0.00     0.047 H 
ATOM     20  H   LIG d   1       5.322  -0.447  -1.150  0.00  0.00     0.027 H 
ATOM     21  H   LIG d   1       3.591  -0.081  -0.953  0.00  0.00     0.027 H 
ATOM     22  H   LIG d   1       4.984   1.981  -1.342  0.00  0.00     0.031 H 
ATOM     23  H   LIG d   1       3.746   1.735  -2.599  0.00  0.00     0.031 H 
ATOM     24  H   LIG d   1       6.326   2.195  -3.387  0.00  0.00     0.057 H 
ATOM     25  H   LIG d   1       7.876  -0.363  -4.764  0.00  0.00     0.035 H 
ATOM     26  H   LIG d   1       7.492   1.358  -4.987  0.00  0.00     0.035 H 
ENDROOT
BRANCH  18  27
ATOM     27  C   LIG d   1       6.305  -3.523  -7.326  0.00  0.00    -0.018 C 
ATOM     28  H   LIG d   1       6.986  -3.731  -8.150  0.00  0.00     0.082 H 
ATOM     29  H   LIG d   1       5.313  -3.300  -7.721  0.00  0.00     0.082 H 
BRANCH  27  30
ATOM     30  N   LIG d   1       6.253  -4.697  -6.430  0.00  0.00     0.236 N 
ATOM     31  C   LIG d   1       4.885  -5.260  -6.416  0.00  0.00    -0.029 C 
ATOM     32  C   LIG d   1       4.827  -6.398  -5.393  0.00  0.00     0.021 C 
ATOM     33  H   LIG d   1       4.619  -5.644  -7.401  0.00  0.00     0.082 H 
ATOM     34  H   LIG d   1       4.182  -4.479  -6.129  0.00  0.00     0.082 H 
ATOM     35  C   LIG d   1       5.831  -7.485  -5.789  0.00  0.00     0.101 C 
ATOM     36  H   LIG d   1       3.823  -6.820  -5.374  0.00  0.00     0.035 H 
ATOM     37  H   LIG d   1       5.080  -6.013  -4.405  0.00  0.00     0.035 H 
ATOM     38  C   LIG d   1       7.232  -6.873  -5.873  0.00  0.00     0.021 C 
ATOM     39  C   LIG d   1       7.219  -5.721  -6.881  0.00  0.00    -0.029 C 
ATOM     40  H   LIG d   1       7.523  -6.494  -4.893  0.00  0.00     0.035 H 
ATOM     41  H   LIG d   1       7.942  -7.632  -6.196  0.00  0.00     0.035 H 
ATOM     42  H   LIG d   1       6.942  -6.101  -7.864  0.00  0.00     0.082 H 
ATOM     43  H   LIG d   1       8.211  -5.271  -6.932  0.00  0.00     0.082 H 
ATOM     44  H   LIG d   1       6.500  -4.401  -5.479  0.00  0.00     0.203 HD
BRANCH  35  45
ATOM     45  C   LIG d   1       5.821  -8.580  -4.753  0.00  0.00    -0.016 A 
ATOM     46  C   LIG d   1       6.980  -8.896  -4.071  0.00  0.00    -0.054 A 
ATOM     47  C   LIG d   1       6.972  -9.900  -3.122  0.00  0.00    -0.043 A 
ATOM     48  H   LIG d   1       7.894  -8.358  -4.279  0.00  0.00     0.062 H 
ATOM     49  C   LIG d   1       5.801 -10.586  -2.850  0.00  0.00     0.041 A 
ATOM     50  H   LIG d   1       7.878 -10.148  -2.588  0.00  0.00     0.063 H 
ATOM     51  C   LIG d   1       4.643 -10.274  -3.538  0.00  0.00    -0.043 A 
ATOM     52 CL   LIG d   1       5.788 -11.842  -1.652  0.00  0.00    -0.084 Cl
ATOM     53  C   LIG d   1       4.652  -9.269  -4.488  0.00  0.00    -0.054 A 
ATOM     54  H   LIG d   1       3.729 -10.811  -3.330  0.00  0.00     0.063 H 
ATOM     55  H   LIG d   1       3.746  -9.022  -5.022  0.00  0.00     0.062 H 
ENDBRANCH  35  45
BRANCH  35  56
ATOM     56  O   LIG d   1       5.470  -8.028  -7.060  0.00  0.00    -0.384 OA
ATOM     57  H   LIG d   1       4.896  -7.453  -7.586  0.00  0.00     0.211 HD
ENDBRANCH  35  56
ENDBRANCH  27  30
ENDBRANCH  18  27
BRANCH   8  58
ATOM     58  O   LIG d   1       3.542  -0.848  -5.482  0.00  0.00    -0.391 OA
ATOM     59  H   LIG d   1       3.647   0.014  -5.908  0.00  0.00     0.210 HD
ENDBRANCH   8  58
BRANCH   7  60
ATOM     60  C   LIG d   1       6.240  -2.107  -3.252  0.00  0.00    -0.053 C 
ATOM     61  H   LIG d   1       6.988  -2.353  -4.006  0.00  0.00     0.024 H 
ATOM     62  H   LIG d   1       6.735  -1.705  -2.368  0.00  0.00     0.024 H 
ATOM     63  H   LIG d   1       5.686  -3.007  -2.982  0.00  0.00     0.024 H 
ENDBRANCH   7  60
BRANCH   1  64
ATOM     64  C   LIG d   1       3.768  -2.379  -2.338  0.00  0.00    -0.061 C 
ATOM     65  H   LIG d   1       3.459  -3.007  -3.174  0.00  0.00     0.023 H 
ATOM     66  H   LIG d   1       4.653  -2.809  -1.869  0.00  0.00     0.023 H 
ATOM     67  H   LIG d   1       2.960  -2.323  -1.608  0.00  0.00     0.023 H 
ENDBRANCH   1  64
TORSDOF 7
ENDMDL
MODEL 2
REMARK VINA RESULT:      -7.4     13.008     17.417
REMARK  7 active torsions:
REMARK  status: ('A' for Active; 'I' for Inactive)
REMARK    1  A    between atoms: C_1  and  C_2 
REMARK    2  A    between atoms: C_8  and  C_36 
REMARK    3  A    between atoms: C_9  and  O_35 
REMARK    4  A    between atoms: C_19  and  C_21 
REMARK    5  A    between atoms: C_21  and  N_66 
REMARK    6  A    between atoms: C_24  and  C_27 
REMARK    7  A    between atoms: C_24  and  O_34 
ROOT
ATOM      1  C   LIG d   1      10.069   6.390  -1.247  0.00  0.00    -0.032 C 
ATOM      2  H   LIG d   1       9.091   6.232  -0.801  0.00  0.00     0.031 H 
ATOM      3  C   LIG d   1      11.103   5.580  -0.465  0.00  0.00    -0.046 C 
ATOM      4  C   LIG d   1      11.051   6.019   1.002  0.00  0.00    -0.034 C 
ATOM      5  C   LIG d   1      11.265   7.503   1.068  0.00  0.00    -0.084 C 
ATOM      6  C   LIG d   1      10.976   8.311   0.090  0.00  0.00    -0.061 C 
ATOM      7  C   LIG d   1      10.414   7.877  -1.233  0.00  0.00     0.018 C 
ATOM      8  C   LIG d   1       9.173   8.697  -1.558  0.00  0.00     0.072 C 
ATOM      9  H   LIG d   1       8.979   8.610  -2.638  0.00  0.00     0.061 H 
ATOM     10  C   LIG d   1       9.219  10.153  -1.217  0.00  0.00     0.041 C 
ATOM     11  H   LIG d   1       8.169  10.503  -1.162  0.00  0.00     0.037 H 
ATOM     12  C   LIG d   1       9.889  10.538   0.109  0.00  0.00     0.113 C 
ATOM     13  H   LIG d   1       9.222  10.377   0.967  0.00  0.00     0.074 H 
ATOM     14  C   LIG d   1      11.216   9.793   0.291  0.00  0.00     0.006 C 
ATOM     15  O   LIG d   1      10.235  11.953  -0.078  0.00  0.00    -0.460 OA
ATOM     16  C   LIG d   1      10.303  12.271  -1.380  0.00  0.00     0.316 C 
ATOM     17  O   LIG d   1      10.610  13.356  -1.825  0.00  0.00    -0.250 OA
ATOM     18  C   LIG d   1       9.937  11.059  -2.226  0.00  0.00     0.105 C 
ATOM     19  H   LIG d   1      10.832  10.598  -2.630  0.00  0.00     0.047 H 
ATOM     20  H   LIG d   1      12.099   5.753  -0.868  0.00  0.00     0.027 H 
ATOM     21  H   LIG d   1      10.862   4.517  -0.537  0.00  0.00     0.027 H 
ATOM     22  H   LIG d   1      11.834   5.509   1.564  0.00  0.00     0.031 H 
ATOM     23  H   LIG d   1      10.077   5.770   1.424  0.00  0.00     0.031 H 
ATOM     24  H   LIG d   1      11.671   7.924   1.977  0.00  0.00     0.057 H 
ATOM     25  H   LIG d   1      11.942  10.155  -0.430  0.00  0.00     0.035 H 
ATOM     26  H   LIG d   1      11.587   9.963   1.301  0.00  0.00     0.035 H 
ENDROOT
BRANCH  18  27
ATOM     27  C   LIG d   1       8.987  11.472  -3.354  0.00  0.00    -0.018 C 
ATOM     28  H   LIG d   1       8.395  12.330  -3.037  0.00  0.00     0.082 H 
ATOM     29  H   LIG d   1       8.324  10.640  -3.593  0.00  0.00     0.082 H 
BRANCH  27  30
ATOM     30  N   LIG d   1       9.792  11.846  -4.536  0.00  0.00     0.236 N 
ATOM     31  C   LIG d   1       9.572  10.870  -5.625  0.00  0.00    -0.029 C 
ATOM     32  C   LIG d   1      10.504  11.210  -6.792  0.00  0.00     0.021 C 
ATOM     33  H   LIG d   1       8.537  10.903  -5.966  0.00  0.00     0.082 H 
ATOM     34  H   LIG d   1       9.803   9.871  -5.257  0.00  0.00     0.082 H 
ATOM     35  C   LIG d   1      10.191  12.623  -7.292  0.00  0.00     0.101 C 
ATOM     36  H   LIG d   1      10.351  10.496  -7.600  0.00  0.00     0.035 H 
ATOM     37  H   LIG d   1      11.540  11.165  -6.456  0.00  0.00     0.035 H 
ATOM     38  C   LIG d   1      10.349  13.615  -6.137  0.00  0.00     0.021 C 
ATOM     39  C   LIG d   1       9.423  13.204  -4.989  0.00  0.00    -0.029 C 
ATOM     40  H   LIG d   1      11.382  13.608  -5.789  0.00  0.00     0.035 H 
ATOM     41  H   LIG d   1      10.086  14.616  -6.477  0.00  0.00     0.035 H 
ATOM     42  H   LIG d   1       8.389  13.225  -5.332  0.00  0.00     0.082 H 
ATOM     43  H   LIG d   1       9.545  13.899  -4.157  0.00  0.00     0.082 H 
ATOM     44  H   LIG d   1      10.785  11.839  -4.279  0.00  0.00     0.203 HD
BRANCH  35  45
ATOM     45  C   LIG d   1      11.144  12.986  -8.402  0.00  0.00    -0.016 A 
ATOM     46  C   LIG d   1      11.816  11.993  -9.088  0.00  0.00    -0.054 A 
ATOM     47  C   LIG d   1      12.691  12.325 -10.105  0.00  0.00    -0.043 A 
ATOM     48  H   LIG d   1      11.657  10.956  -8.831  0.00  0.00     0.062 H 
ATOM     49  C   LIG d   1      12.891  13.653 -10.440  0.00  0.00     0.041 A 
ATOM     50  H   LIG d   1      13.216  11.549 -10.642  0.00  0.00     0.063 H 
ATOM     51  C   LIG d   1      12.223  14.647  -9.748  0.00  0.00    -0.043 A 
ATOM     52 CL   LIG d   1      13.984  14.071 -11.722  0.00  0.00    -0.084 Cl
ATOM     53  C   LIG d   1      11.349  14.314  -8.730  0.00  0.00    -0.054 A 
ATOM     54  H   LIG d   1      12.381  15.684 -10.005  0.00  0.00     0.063 H 
ATOM     55  H   LIG d   1      10.824  15.090  -8.193  0.00  0.00     0.062 H 
ENDBRANCH  35  45
BRANCH  35  56
ATOM     56  O   LIG d   1       8.850  12.670  -7.782  0.00  0.00    -0.384 OA
ATOM     57  H   LIG d   1       8.636  13.479  -8.268  0.00  0.00     0.211 HD
ENDBRANCH  35  56
ENDBRANCH  27  30
ENDBRANCH  18  27
BRANCH   8  58
ATOM     58  O   LIG d   1       8.041   8.126  -0.884  0.00  0.00    -0.391 OA
ATOM     59  H   LIG d   1       8.049   8.255   0.074  0.00  0.00     0.210 HD
ENDBRANCH   8  58
BRANCH   7  60
ATOM     60  C   LIG d   1      11.474   8.102  -2.320  0.00  0.00    -0.053 C 
ATOM     61  H   LIG d   1      12.219   8.810  -1.959  0.00  0.00     0.024 H 
ATOM     62  H   LIG d   1      11.957   7.155  -2.557  0.00  0.00     0.024 H 
ATOM     63  H   LIG d   1      10.997   8.501  -3.215  0.00  0.00     0.024 H 
ENDBRANCH   7  60
BRANCH   1  64
ATOM     64  C   LIG d   1      10.051   5.899  -2.696  0.00  0.00    -0.061 C 
ATOM     65  H   LIG d   1      10.840   5.162  -2.841  0.00  0.00     0.023 H 
ATOM     66  H   LIG d   1       9.084   5.445  -2.913  0.00  0.00     0.023 H 
ATOM     67  H   LIG d   1      10.214   6.742  -3.368  0.00  0.00     0.023 H 
ENDBRANCH   1  64
TORSDOF 7
ENDMDL
MODEL 3
REMARK VINA RESULT:      -7.1      1.494      2.012
REMARK  7 active torsions:
REMARK  status: ('A' for Active; 'I' for Inactive)
REMARK    1  A    between atoms: C_1  and  C_2 
REMARK    2  A    between atoms: C_8  and  C_36 
REMARK    3  A    between atoms: C_9  and  O_35 
REMARK    4  A    between atoms: C_19  and  C_21 
REMARK    5  A    between atoms: C_21  and  N_66 
REMARK    6  A    between atoms: C_24  and  C_27 
REMARK    7  A    between atoms: C_24  and  O_34 
ROOT
ATOM      1  C   LIG d   1       3.800  -0.328  -3.267  0.00  0.00    -0.032 C 
ATOM      2  H   LIG d   1       3.227   0.489  -3.696  0.00  0.00     0.031 H 
ATOM      3  C   LIG d   1       4.321   0.102  -1.896  0.00  0.00    -0.046 C 
ATOM      4  C   LIG d   1       5.158   1.373  -2.074  0.00  0.00    -0.034 C 
ATOM      5  C   LIG d   1       6.241   1.100  -3.077  0.00  0.00    -0.084 C 
ATOM      6  C   LIG d   1       6.140   0.197  -4.008  0.00  0.00    -0.061 C 
ATOM      7  C   LIG d   1       4.951  -0.700  -4.197  0.00  0.00     0.018 C 
ATOM      8  C   LIG d   1       4.485  -0.638  -5.646  0.00  0.00     0.072 C 
ATOM      9  H   LIG d   1       3.857  -1.520  -5.841  0.00  0.00     0.061 H 
ATOM     10  C   LIG d   1       5.550  -0.591  -6.696  0.00  0.00     0.041 C 
ATOM     11  H   LIG d   1       5.079  -0.183  -7.612  0.00  0.00     0.037 H 
ATOM     12  C   LIG d   1       6.782   0.275  -6.401  0.00  0.00     0.113 C 
ATOM     13  H   LIG d   1       6.586   1.342  -6.579  0.00  0.00     0.074 H 
ATOM     14  C   LIG d   1       7.294   0.036  -4.976  0.00  0.00     0.006 C 
ATOM     15  O   LIG d   1       7.807  -0.267  -7.302  0.00  0.00    -0.460 OA
ATOM     16  C   LIG d   1       7.514  -1.522  -7.676  0.00  0.00     0.316 C 
ATOM     17  O   LIG d   1       8.204  -2.227  -8.381  0.00  0.00    -0.250 OA
ATOM     18  C   LIG d   1       6.176  -1.938  -7.080  0.00  0.00     0.105 C 
ATOM     19  H   LIG d   1       6.330  -2.582  -6.221  0.00  0.00     0.047 H 
ATOM     20  H   LIG d   1       4.933  -0.686  -1.462  0.00  0.00     0.027 H 
ATOM     21  H   LIG d   1       3.476   0.310  -1.235  0.00  0.00     0.027 H 
ATOM     22  H   LIG d   1       5.603   1.654  -1.119  0.00  0.00     0.031 H 
ATOM     23  H   LIG d   1       4.521   2.182  -2.432  0.00  0.00     0.031 H 
ATOM     24  H   LIG d   1       7.145   1.688  -3.030  0.00  0.00     0.057 H 
ATOM     25  H   LIG d   1       7.710  -0.964  -4.898  0.00  0.00     0.035 H 
ATOM     26  H   LIG d   1       8.063   0.772  -4.743  0.00  0.00     0.035 H 
ENDROOT
BRANCH  18  27
ATOM     27  C   LIG d   1       5.325  -2.647  -8.138  0.00  0.00    -0.018 C 
ATOM     28  H   LIG d   1       5.765  -2.491  -9.123  0.00  0.00     0.082 H 
ATOM     29  H   LIG d   1       4.313  -2.242  -8.122  0.00  0.00     0.082 H 
BRANCH  27  30
ATOM     30  N   LIG d   1       5.308  -4.095  -7.838  0.00  0.00     0.236 N 
ATOM     31  C   LIG d   1       6.044  -4.358  -6.583  0.00  0.00    -0.029 C 
ATOM     32  C   LIG d   1       6.114  -5.870  -6.357  0.00  0.00     0.021 C 
ATOM     33  H   LIG d   1       5.541  -3.888  -5.738  0.00  0.00     0.082 H 
ATOM     34  H   LIG d   1       7.053  -3.958  -6.673  0.00  0.00     0.082 H 
ATOM     35  C   LIG d   1       4.693  -6.432  -6.251  0.00  0.00     0.101 C 
ATOM     36  H   LIG d   1       6.656  -6.076  -5.434  0.00  0.00     0.035 H 
ATOM     37  H   LIG d   1       6.629  -6.340  -7.195  0.00  0.00     0.035 H 
ATOM     38  C   LIG d   1       3.918  -6.088  -7.526  0.00  0.00     0.021 C 
ATOM     39  C   LIG d   1       3.913  -4.569  -7.719  0.00  0.00    -0.029 C 
ATOM     40  H   LIG d   1       4.398  -6.560  -8.383  0.00  0.00     0.035 H 
ATOM     41  H   LIG d   1       2.894  -6.448  -7.438  0.00  0.00     0.035 H 
ATOM     42  H   LIG d   1       3.420  -4.097  -6.868  0.00  0.00     0.082 H 
ATOM     43  H   LIG d   1       3.375  -4.321  -8.634  0.00  0.00     0.082 H 
ATOM     44  H   LIG d   1       5.767  -4.599  -8.605  0.00  0.00     0.203 HD
BRANCH  35  45
ATOM     45  C   LIG d   1       4.755  -7.929  -6.088  0.00  0.00    -0.016 A 
ATOM     46  C   LIG d   1       4.620  -8.750  -7.192  0.00  0.00    -0.054 A 
ATOM     47  C   LIG d   1       4.676 -10.123  -7.043  0.00  0.00    -0.043 A 
ATOM     48  H   LIG d   1       4.471  -8.319  -8.171  0.00  0.00     0.062 H 
ATOM     49  C   LIG d   1       4.873 -10.676  -5.790  0.00  0.00     0.041 A 
ATOM     50  H   LIG d   1       4.571 -10.765  -7.905  0.00  0.00     0.063 H 
ATOM     51  C   LIG d   1       5.002  -9.854  -4.685  0.00  0.00    -0.043 A 
ATOM     52 CL   LIG d   1       4.952 -12.400  -5.603  0.00  0.00    -0.084 Cl
ATOM     53  C   LIG d   1       4.945  -8.480  -4.834  0.00  0.00    -0.054 A 
ATOM     54  H   LIG d   1       5.151 -10.284  -3.705  0.00  0.00     0.063 H 
ATOM     55  H   LIG d   1       5.050  -7.838  -3.973  0.00  0.00     0.062 H 
ENDBRANCH  35  45
BRANCH  35  56
ATOM     56  O   LIG d   1       4.035  -5.856  -5.122  0.00  0.00    -0.384 OA
ATOM     57  H   LIG d   1       3.096  -6.079  -5.057  0.00  0.00     0.211 HD
ENDBRANCH  35  56
ENDBRANCH  27  30
ENDBRANCH  18  27
BRANCH   8  58
ATOM     58  O   LIG d   1       3.648   0.516  -5.821  0.00  0.00    -0.391 OA
ATOM     59  H   LIG d   1       3.609   0.839  -6.731  0.00  0.00     0.210 HD
ENDBRANCH   8  58
BRANCH   7  60
ATOM     60  C   LIG d   1       5.358  -2.140  -3.855  0.00  0.00    -0.053 C 
ATOM     61  H   LIG d   1       4.922  -2.422  -2.897  0.00  0.00     0.024 H 
ATOM     62  H   LIG d   1       4.996  -2.814  -4.631  0.00  0.00     0.024 H 
ATOM     63  H   LIG d   1       6.444  -2.206  -3.794  0.00  0.00     0.024 H 
ENDBRANCH   7  60
BRANCH   1  64
ATOM     64  C   LIG d   1       2.891  -1.546  -3.091  0.00  0.00    -0.061 C 
ATOM     65  H   LIG d   1       1.868  -1.215  -2.917  0.00  0.00     0.023 H 
ATOM     66  H   LIG d   1       2.926  -2.160  -3.991  0.00  0.00     0.023 H 
ATOM     67  H   LIG d   1       3.232  -2.134  -2.238  0.00  0.00     0.023 H 
ENDBRANCH   1  64
TORSDOF 7
ENDMDL
MODEL 4
REMARK VINA RESULT:      -6.9      6.006      9.496
REMARK  7 active torsions:
REMARK  status: ('A' for Active; 'I' for Inactive)
REMARK    1  A    between atoms: C_1  and  C_2 
REMARK    2  A    between atoms: C_8  and  C_36 
REMARK    3  A    between atoms: C_9  and  O_35 
REMARK    4  A    between atoms: C_19  and  C_21 
REMARK    5  A    between atoms: C_21  and  N_66 
REMARK    6  A    between atoms: C_24  and  C_27 
REMARK    7  A    between atoms: C_24  and  O_34 
ROOT
ATOM      1  C   LIG d   1       4.448  -2.086 -10.925  0.00  0.00    -0.032 C 
ATOM      2  H   LIG d   1       5.092  -1.308 -11.326  0.00  0.00     0.031 H 
ATOM      3  C   LIG d   1       3.280  -2.303 -11.886  0.00  0.00    -0.046 C 
ATOM      4  C   LIG d   1       2.546  -0.970 -12.062  0.00  0.00    -0.034 C 
ATOM      5  C   LIG d   1       2.134  -0.465 -10.710  0.00  0.00    -0.084 C 
ATOM      6  C   LIG d   1       2.758  -0.776  -9.612  0.00  0.00    -0.061 C 
ATOM      7  C   LIG d   1       3.950  -1.686  -9.540  0.00  0.00     0.018 C 
ATOM      8  C   LIG d   1       5.071  -1.007  -8.764  0.00  0.00     0.072 C 
ATOM      9  H   LIG d   1       5.780  -1.782  -8.438  0.00  0.00     0.061 H 
ATOM     10  C   LIG d   1       4.672  -0.215  -7.559  0.00  0.00     0.041 C 
ATOM     11  H   LIG d   1       5.503   0.487  -7.348  0.00  0.00     0.037 H 
ATOM     12  C   LIG d   1       3.393   0.626  -7.669  0.00  0.00     0.113 C 
ATOM     13  H   LIG d   1       3.566   1.568  -8.208  0.00  0.00     0.074 H 
ATOM     14  C   LIG d   1       2.259  -0.180  -8.311  0.00  0.00     0.006 C 
ATOM     15  O   LIG d   1       3.002   0.842  -6.270  0.00  0.00    -0.460 OA
ATOM     16  C   LIG d   1       3.542  -0.085  -5.463  0.00  0.00     0.316 C 
ATOM     17  O   LIG d   1       3.355  -0.176  -4.269  0.00  0.00    -0.250 OA
ATOM     18  C   LIG d   1       4.432  -1.018  -6.274  0.00  0.00     0.105 C 
ATOM     19  H   LIG d   1       3.921  -1.956  -6.464  0.00  0.00     0.047 H 
ATOM     20  H   LIG d   1       2.599  -3.051 -11.487  0.00  0.00     0.027 H 
ATOM     21  H   LIG d   1       3.662  -2.640 -12.853  0.00  0.00     0.027 H 
ATOM     22  H   LIG d   1       1.662  -1.118 -12.684  0.00  0.00     0.031 H 
ATOM     23  H   LIG d   1       3.209  -0.247 -12.537  0.00  0.00     0.031 H 
ATOM     24  H   LIG d   1       1.283   0.197 -10.645  0.00  0.00     0.057 H 
ATOM     25  H   LIG d   1       1.941  -0.969  -7.637  0.00  0.00     0.035 H 
ATOM     26  H   LIG d   1       1.420   0.484  -8.520  0.00  0.00     0.035 H 
ENDROOT
BRANCH  18  27
ATOM     27  C   LIG d   1       5.750  -1.263  -5.535  0.00  0.00    -0.018 C 
ATOM     28  H   LIG d   1       6.403  -1.882  -6.150  0.00  0.00     0.082 H 
ATOM     29  H   LIG d   1       5.548  -1.771  -4.591  0.00  0.00     0.082 H 
BRANCH  27  30
ATOM     30  N   LIG d   1       6.405   0.040  -5.290  0.00  0.00     0.236 N 
ATOM     31  C   LIG d   1       6.807   0.143  -3.871  0.00  0.00    -0.029 C 
ATOM     32  C   LIG d   1       7.372   1.543  -3.616  0.00  0.00     0.021 C 
ATOM     33  H   LIG d   1       7.565  -0.603  -3.633  0.00  0.00     0.082 H 
ATOM     34  H   LIG d   1       5.932  -0.015  -3.241  0.00  0.00     0.082 H 
ATOM     35  C   LIG d   1       8.590   1.768  -4.517  0.00  0.00     0.101 C 
ATOM     36  H   LIG d   1       7.672   1.630  -2.572  0.00  0.00     0.035 H 
ATOM     37  H   LIG d   1       6.611   2.290  -3.841  0.00  0.00     0.035 H 
ATOM     38  C   LIG d   1       8.177   1.584  -5.980  0.00  0.00     0.021 C 
ATOM     39  C   LIG d   1       7.587   0.184  -6.166  0.00  0.00    -0.029 C 
ATOM     40  H   LIG d   1       7.427   2.331  -6.243  0.00  0.00     0.035 H 
ATOM     41  H   LIG d   1       9.049   1.701  -6.622  0.00  0.00     0.035 H 
ATOM     42  H   LIG d   1       8.341  -0.563  -5.917  0.00  0.00     0.082 H 
ATOM     43  H   LIG d   1       7.276   0.055  -7.203  0.00  0.00     0.082 H 
ATOM     44  H   LIG d   1       5.739   0.792  -5.502  0.00  0.00     0.203 HD
BRANCH  35  45
ATOM     45  C   LIG d   1       9.115   3.166  -4.313  0.00  0.00    -0.016 A 
ATOM     46  C   LIG d   1       9.168   4.046  -5.378  0.00  0.00    -0.054 A 
ATOM     47  C   LIG d   1       9.649   5.328  -5.192  0.00  0.00    -0.043 A 
ATOM     48  H   LIG d   1       8.833   3.732  -6.356  0.00  0.00     0.062 H 
ATOM     49  C   LIG d   1      10.073   5.733  -3.939  0.00  0.00     0.041 A 
ATOM     50  H   LIG d   1       9.691   6.016  -6.023  0.00  0.00     0.063 H 
ATOM     51  C   LIG d   1      10.026   4.850  -2.875  0.00  0.00    -0.043 A 
ATOM     52 CL   LIG d   1      10.671   7.346  -3.702  0.00  0.00    -0.084 Cl
ATOM     53  C   LIG d   1       9.545   3.567  -3.062  0.00  0.00    -0.054 A 
ATOM     54  H   LIG d   1      10.361   5.163  -1.897  0.00  0.00     0.063 H 
ATOM     55  H   LIG d   1       9.504   2.879  -2.231  0.00  0.00     0.062 H 
ENDBRANCH  35  45
BRANCH  35  56
ATOM     56  O   LIG d   1       9.610   0.823  -4.187  0.00  0.00    -0.384 OA
ATOM     57  H   LIG d   1       9.339  -0.100  -4.287  0.00  0.00     0.211 HD
ENDBRANCH  35  56
ENDBRANCH  27  30
ENDBRANCH  18  27
BRANCH   8  58
ATOM     58  O   LIG d   1       5.788  -0.130  -9.646  0.00  0.00    -0.391 OA
ATOM     59  H   LIG d   1       6.731  -0.331  -9.719  0.00  0.00     0.210 HD
ENDBRANCH   8  58
BRANCH   7  60
ATOM     60  C   LIG d   1       3.543  -2.979  -8.819  0.00  0.00    -0.053 C 
ATOM     61  H   LIG d   1       3.139  -3.686  -9.542  0.00  0.00     0.024 H 
ATOM     62  H   LIG d   1       4.417  -3.415  -8.334  0.00  0.00     0.024 H 
ATOM     63  H   LIG d   1       2.785  -2.754  -8.068  0.00  0.00     0.024 H 
ENDBRANCH   7  60
BRANCH   1  64
ATOM     64  C   LIG d   1       5.242  -3.390 -10.810  0.00  0.00    -0.061 C 
ATOM     65  H   LIG d   1       5.433  -3.788 -11.806  0.00  0.00     0.023 H 
ATOM     66  H   LIG d   1       6.190  -3.195 -10.308  0.00  0.00     0.023 H 
ATOM     67  H   LIG d   1       4.668  -4.115 -10.233  0.00  0.00     0.023 H 
ENDBRANCH   1  64
TORSDOF 7
ENDMDL
MODEL 5
REMARK VINA RESULT:      -6.9     12.765     16.218
REMARK  7 active torsions:
REMARK  status: ('A' for Active; 'I' for Inactive)
REMARK    1  A    between atoms: C_1  and  C_2 
REMARK    2  A    between atoms: C_8  and  C_36 
REMARK    3  A    between atoms: C_9  and  O_35 
REMARK    4  A    between atoms: C_19  and  C_21 
REMARK    5  A    between atoms: C_21  and  N_66 
REMARK    6  A    between atoms: C_24  and  C_27 
REMARK    7  A    between atoms: C_24  and  O_34 
ROOT
ATOM      1  C   LIG d   1      10.233   6.278  -0.995  0.00  0.00    -0.032 C 
ATOM      2  H   LIG d   1       9.228   6.109  -0.617  0.00  0.00     0.031 H 
ATOM      3  C   LIG d   1      11.225   5.531  -0.104  0.00  0.00    -0.046 C 
ATOM      4  C   LIG d   1      11.049   6.027   1.336  0.00  0.00    -0.034 C 
ATOM      5  C   LIG d   1      11.218   7.518   1.355  0.00  0.00    -0.084 C 
ATOM      6  C   LIG d   1      10.983   8.276   0.325  0.00  0.00    -0.061 C 
ATOM      7  C   LIG d   1      10.535   7.773  -1.017  0.00  0.00     0.018 C 
ATOM      8  C   LIG d   1       9.301   8.543  -1.469  0.00  0.00     0.072 C 
ATOM      9  H   LIG d   1       9.193   8.407  -2.556  0.00  0.00     0.061 H 
ATOM     10  C   LIG d   1       9.282  10.012  -1.187  0.00  0.00     0.041 C 
ATOM     11  H   LIG d   1       8.222  10.332  -1.226  0.00  0.00     0.037 H 
ATOM     12  C   LIG d   1       9.838  10.469   0.168  0.00  0.00     0.113 C 
ATOM     13  H   LIG d   1       9.112  10.323   0.980  0.00  0.00     0.074 H 
ATOM     14  C   LIG d   1      11.167   9.772   0.481  0.00  0.00     0.006 C 
ATOM     15  O   LIG d   1      10.159  11.885  -0.051  0.00  0.00    -0.460 OA
ATOM     16  C   LIG d   1      10.318  12.154  -1.357  0.00  0.00     0.316 C 
ATOM     17  O   LIG d   1      10.629  13.228  -1.823  0.00  0.00    -0.250 OA
ATOM     18  C   LIG d   1      10.050  10.898  -2.176  0.00  0.00     0.105 C 
ATOM     19  H   LIG d   1      10.985  10.448  -2.492  0.00  0.00     0.047 H 
ATOM     20  H   LIG d   1      12.244   5.717  -0.437  0.00  0.00     0.027 H 
ATOM     21  H   LIG d   1      11.019   4.459  -0.149  0.00  0.00     0.027 H 
ATOM     22  H   LIG d   1      11.800   5.563   1.976  0.00  0.00     0.031 H 
ATOM     23  H   LIG d   1      10.053   5.765   1.693  0.00  0.00     0.031 H 
ATOM     24  H   LIG d   1      11.541   7.987   2.273  0.00  0.00     0.057 H 
ATOM     25  H   LIG d   1      11.936  10.127  -0.198  0.00  0.00     0.035 H 
ATOM     26  H   LIG d   1      11.455   9.993   1.508  0.00  0.00     0.035 H 
ENDROOT
BRANCH  18  27
ATOM     27  C   LIG d   1       9.179  11.236  -3.389  0.00  0.00    -0.018 C 
ATOM     28  H   LIG d   1       8.817  12.261  -3.303  0.00  0.00     0.082 H 
ATOM     29  H   LIG d   1       8.331  10.552  -3.430  0.00  0.00     0.082 H 
BRANCH  27  30
ATOM     30  N   LIG d   1      10.001  11.113  -4.611  0.00  0.00     0.236 N 
ATOM     31  C   LIG d   1       9.981   9.716  -5.094  0.00  0.00    -0.029 C 
ATOM     32  C   LIG d   1      10.932   9.589  -6.287  0.00  0.00     0.021 C 
ATOM     33  H   LIG d   1       8.974   9.431  -5.401  0.00  0.00     0.082 H 
ATOM     34  H   LIG d   1      10.316   9.058  -4.292  0.00  0.00     0.082 H 
ATOM     35  C   LIG d   1      10.470  10.529  -7.404  0.00  0.00     0.101 C 
ATOM     36  H   LIG d   1      10.925   8.562  -6.650  0.00  0.00     0.035 H 
ATOM     37  H   LIG d   1      11.941   9.860  -5.978  0.00  0.00     0.035 H 
ATOM     38  C   LIG d   1      10.424  11.963  -6.870  0.00  0.00     0.021 C 
ATOM     39  C   LIG d   1       9.488  12.021  -5.659  0.00  0.00    -0.029 C 
ATOM     40  H   LIG d   1      11.425  12.272  -6.569  0.00  0.00     0.035 H 
ATOM     41  H   LIG d   1      10.054  12.630  -7.648  0.00  0.00     0.035 H 
ATOM     42  H   LIG d   1       8.484  11.725  -5.963  0.00  0.00     0.082 H 
ATOM     43  H   LIG d   1       9.465  13.037  -5.266  0.00  0.00     0.082 H 
ATOM     44  H   LIG d   1      10.969  11.374  -4.389  0.00  0.00     0.203 HD
BRANCH  35  45
ATOM     45  C   LIG d   1      11.437  10.452  -8.558  0.00  0.00    -0.016 A 
ATOM     46  C   LIG d   1      11.874   9.222  -9.012  0.00  0.00    -0.054 A 
ATOM     47  C   LIG d   1      12.761   9.151 -10.069  0.00  0.00    -0.043 A 
ATOM     48  H   LIG d   1      11.523   8.316  -8.540  0.00  0.00     0.062 H 
ATOM     49  C   LIG d   1      13.207  10.311 -10.678  0.00  0.00     0.041 A 
ATOM     50  H   LIG d   1      13.103   8.190 -10.424  0.00  0.00     0.063 H 
ATOM     51  C   LIG d   1      12.774  11.542 -10.218  0.00  0.00    -0.043 A 
ATOM     52 CL   LIG d   1      14.315  10.223 -12.011  0.00  0.00    -0.084 Cl
ATOM     53  C   LIG d   1      11.887  11.612  -9.160  0.00  0.00    -0.054 A 
ATOM     54  H   LIG d   1      13.124  12.448 -10.689  0.00  0.00     0.063 H 
ATOM     55  H   LIG d   1      11.545  12.573  -8.804  0.00  0.00     0.062 H 
ENDBRANCH  35  45
BRANCH  35  56
ATOM     56  O   LIG d   1       9.168  10.141  -7.846  0.00  0.00    -0.384 OA
ATOM     57  H   LIG d   1       9.172   9.504  -8.573  0.00  0.00     0.211 HD
ENDBRANCH  35  56
ENDBRANCH  27  30
ENDBRANCH  18  27
BRANCH   8  58
ATOM     58  O   LIG d   1       8.137   7.965  -0.859  0.00  0.00    -0.391 OA
ATOM     59  H   LIG d   1       7.327   8.078  -1.374  0.00  0.00     0.210 HD
ENDBRANCH   8  58
BRANCH   7  60
ATOM     60  C   LIG d   1      11.669   7.987  -2.030  0.00  0.00    -0.053 C 
ATOM     61  H   LIG d   1      11.972   9.033  -2.019  0.00  0.00     0.024 H 
ATOM     62  H   LIG d   1      12.518   7.360  -1.761  0.00  0.00     0.024 H 
ATOM     63  H   LIG d   1      11.320   7.719  -3.028  0.00  0.00     0.024 H 
ENDBRANCH   7  60
BRANCH   1  64
ATOM     64  C   LIG d   1      10.338   5.729  -2.419  0.00  0.00    -0.061 C 
ATOM     65  H   LIG d   1      11.058   6.320  -2.985  0.00  0.00     0.023 H 
ATOM     66  H   LIG d   1      10.668   4.691  -2.385  0.00  0.00     0.023 H 
ATOM     67  H   LIG d   1       9.363   5.784  -2.904  0.00  0.00     0.023 H 
ENDBRANCH   1  64
TORSDOF 7
ENDMDL
MODEL 6
REMARK VINA RESULT:      -6.8      2.557      4.333
REMARK  7 active torsions:
REMARK  status: ('A' for Active; 'I' for Inactive)
REMARK    1  A    between atoms: C_1  and  C_2 
REMARK    2  A    between atoms: C_8  and  C_36 
REMARK    3  A    between atoms: C_9  and  O_35 
REMARK    4  A    between atoms: C_19  and  C_21 
REMARK    5  A    between atoms: C_21  and  N_66 
REMARK    6  A    between atoms: C_24  and  C_27 
REMARK    7  A    between atoms: C_24  and  O_34 
ROOT
ATOM      1  C   LIG d   1       4.980   0.399  -9.438  0.00  0.00    -0.032 C 
ATOM      2  H   LIG d   1       5.714   1.171  -9.225  0.00  0.00     0.031 H 
ATOM      3  C   LIG d   1       3.839   1.015 -10.247  0.00  0.00    -0.046 C 
ATOM      4  C   LIG d   1       3.249   2.178  -9.441  0.00  0.00    -0.034 C 
ATOM      5  C   LIG d   1       2.831   1.666  -8.094  0.00  0.00    -0.084 C 
ATOM      6  C   LIG d   1       3.373   0.629  -7.525  0.00  0.00    -0.061 C 
ATOM      7  C   LIG d   1       4.464  -0.202  -8.134  0.00  0.00     0.018 C 
ATOM      8  C   LIG d   1       5.612  -0.351  -7.145  0.00  0.00     0.072 C 
ATOM      9  H   LIG d   1       6.226  -1.208  -7.460  0.00  0.00     0.061 H 
ATOM     10  C   LIG d   1       5.242  -0.555  -5.709  0.00  0.00     0.041 C 
ATOM     11  H   LIG d   1       6.129  -0.274  -5.107  0.00  0.00     0.037 H 
ATOM     12  C   LIG d   1       4.059   0.261  -5.171  0.00  0.00     0.113 C 
ATOM     13  H   LIG d   1       4.348   1.294  -4.931  0.00  0.00     0.074 H 
ATOM     14  C   LIG d   1       2.879   0.229  -6.149  0.00  0.00     0.006 C 
ATOM     15  O   LIG d   1       3.631  -0.494  -3.986  0.00  0.00    -0.460 OA
ATOM     16  C   LIG d   1       4.040  -1.771  -4.047  0.00  0.00     0.316 C 
ATOM     17  O   LIG d   1       3.794  -2.630  -3.228  0.00  0.00    -0.250 OA
ATOM     18  C   LIG d   1       4.868  -1.987  -5.307  0.00  0.00     0.105 C 
ATOM     19  H   LIG d   1       4.275  -2.487  -6.066  0.00  0.00     0.047 H 
ATOM     20  H   LIG d   1       3.069   0.270 -10.440  0.00  0.00     0.027 H 
ATOM     21  H   LIG d   1       4.227   1.389 -11.197  0.00  0.00     0.027 H 
ATOM     22  H   LIG d   1       2.383   2.583  -9.965  0.00  0.00     0.031 H 
ATOM     23  H   LIG d   1       4.001   2.958  -9.321  0.00  0.00     0.031 H 
ATOM     24  H   LIG d   1       2.048   2.190  -7.565  0.00  0.00     0.057 H 
ATOM     25  H   LIG d   1       2.455  -0.770  -6.181  0.00  0.00     0.035 H 
ATOM     26  H   LIG d   1       2.121   0.938  -5.820  0.00  0.00     0.035 H 
ENDROOT
BRANCH  18  27
ATOM     27  C   LIG d   1       6.122  -2.803  -4.980  0.00  0.00    -0.018 C 
ATOM     28  H   LIG d   1       6.452  -2.573  -3.967  0.00  0.00     0.082 H 
ATOM     29  H   LIG d   1       6.913  -2.552  -5.688  0.00  0.00     0.082 H 
BRANCH  27  30
ATOM     30  N   LIG d   1       5.787  -4.240  -5.067  0.00  0.00     0.236 N 
ATOM     31  C   LIG d   1       4.697  -4.445  -6.045  0.00  0.00    -0.029 C 
ATOM     32  C   LIG d   1       4.288  -5.920  -6.030  0.00  0.00     0.021 C 
ATOM     33  H   LIG d   1       5.026  -4.170  -7.048  0.00  0.00     0.082 H 
ATOM     34  H   LIG d   1       3.844  -3.829  -5.761  0.00  0.00     0.082 H 
ATOM     35  C   LIG d   1       5.495  -6.783  -6.411  0.00  0.00     0.101 C 
ATOM     36  H   LIG d   1       3.484  -6.082  -6.747  0.00  0.00     0.035 H 
ATOM     37  H   LIG d   1       3.947  -6.193  -5.032  0.00  0.00     0.035 H 
ATOM     38  C   LIG d   1       6.642  -6.506  -5.435  0.00  0.00     0.021 C 
ATOM     39  C   LIG d   1       6.981  -5.014  -5.467  0.00  0.00    -0.029 C 
ATOM     40  H   LIG d   1       6.338  -6.787  -4.427  0.00  0.00     0.035 H 
ATOM     41  H   LIG d   1       7.517  -7.086  -5.728  0.00  0.00     0.035 H 
ATOM     42  H   LIG d   1       7.299  -4.735  -6.472  0.00  0.00     0.082 H 
ATOM     43  H   LIG d   1       7.787  -4.809  -4.762  0.00  0.00     0.082 H 
ATOM     44  H   LIG d   1       5.472  -4.565  -4.146  0.00  0.00     0.203 HD
BRANCH  35  45
ATOM     45  C   LIG d   1       5.113  -8.240  -6.339  0.00  0.00    -0.016 A 
ATOM     46  C   LIG d   1       4.971  -8.857  -5.111  0.00  0.00    -0.054 A 
ATOM     47  C   LIG d   1       4.622 -10.193  -5.045  0.00  0.00    -0.043 A 
ATOM     48  H   LIG d   1       5.131  -8.296  -4.202  0.00  0.00     0.062 H 
ATOM     49  C   LIG d   1       4.410 -10.911  -6.209  0.00  0.00     0.041 A 
ATOM     50  H   LIG d   1       4.510 -10.675  -4.086  0.00  0.00     0.063 H 
ATOM     51  C   LIG d   1       4.560 -10.294  -7.438  0.00  0.00    -0.043 A 
ATOM     52 CL   LIG d   1       3.964 -12.587  -6.127  0.00  0.00    -0.084 Cl
ATOM     53  C   LIG d   1       4.909  -8.958  -7.503  0.00  0.00    -0.054 A 
ATOM     54  H   LIG d   1       4.399 -10.855  -8.347  0.00  0.00     0.063 H 
ATOM     55  H   LIG d   1       5.021  -8.475  -8.462  0.00  0.00     0.062 H 
ENDBRANCH  35  45
BRANCH  35  56
ATOM     56  O   LIG d   1       5.910  -6.464  -7.740  0.00  0.00    -0.384 OA
ATOM     57  H   LIG d   1       6.218  -7.225  -8.251  0.00  0.00     0.211 HD
ENDBRANCH  35  56
ENDBRANCH  27  30
ENDBRANCH  18  27
BRANCH   8  58
ATOM     58  O   LIG d   1       6.450   0.812  -7.219  0.00  0.00    -0.391 OA
ATOM     59  H   LIG d   1       6.072   1.597  -6.800  0.00  0.00     0.210 HD
ENDBRANCH   8  58
BRANCH   7  60
ATOM     60  C   LIG d   1       3.899  -1.589  -8.472  0.00  0.00    -0.053 C 
ATOM     61  H   LIG d   1       3.908  -1.731  -9.552  0.00  0.00     0.024 H 
ATOM     62  H   LIG d   1       4.514  -2.356  -8.000  0.00  0.00     0.024 H 
ATOM     63  H   LIG d   1       2.876  -1.665  -8.103  0.00  0.00     0.024 H 
ENDBRANCH   7  60
BRANCH   1  64
ATOM     64  C   LIG d   1       5.634  -0.707 -10.270  0.00  0.00    -0.061 C 
ATOM     65  H   LIG d   1       5.013  -0.925 -11.138  0.00  0.00     0.023 H 
ATOM     66  H   LIG d   1       6.619  -0.378 -10.601  0.00  0.00     0.023 H 
ATOM     67  H   LIG d   1       5.737  -1.606  -9.663  0.00  0.00     0.023 H 
ENDBRANCH   1  64
TORSDOF 7
ENDMDL
MODEL 7
REMARK VINA RESULT:      -6.8      5.655      9.782
REMARK  7 active torsions:
REMARK  status: ('A' for Active; 'I' for Inactive)
REMARK    1  A    between atoms: C_1  and  C_2 
REMARK    2  A    between atoms: C_8  and  C_36 
REMARK    3  A    between atoms: C_9  and  O_35 
REMARK    4  A    between atoms: C_19  and  C_21 
REMARK    5  A    between atoms: C_21  and  N_66 
REMARK    6  A    between atoms: C_24  and  C_27 
REMARK    7  A    between atoms: C_24  and  O_34 
ROOT
ATOM      1  C   LIG d   1       2.722   0.660  -8.330  0.00  0.00    -0.032 C 
ATOM      2  H   LIG d   1       1.858   0.556  -7.679  0.00  0.00     0.031 H 
ATOM      3  C   LIG d   1       2.312   0.290  -9.755  0.00  0.00    -0.046 C 
ATOM      4  C   LIG d   1       1.758  -1.139  -9.742  0.00  0.00    -0.034 C 
ATOM      5  C   LIG d   1       2.793  -2.051  -9.151  0.00  0.00    -0.084 C 
ATOM      6  C   LIG d   1       3.702  -1.650  -8.312  0.00  0.00    -0.061 C 
ATOM      7  C   LIG d   1       3.856  -0.234  -7.837  0.00  0.00     0.018 C 
ATOM      8  C   LIG d   1       3.912  -0.205  -6.315  0.00  0.00     0.072 C 
ATOM      9  H   LIG d   1       4.350   0.757  -6.008  0.00  0.00     0.061 H 
ATOM     10  C   LIG d   1       4.688  -1.296  -5.648  0.00  0.00     0.041 C 
ATOM     11  H   LIG d   1       4.330  -1.350  -4.601  0.00  0.00     0.037 H 
ATOM     12  C   LIG d   1       4.557  -2.706  -6.239  0.00  0.00     0.113 C 
ATOM     13  H   LIG d   1       3.628  -3.200  -5.922  0.00  0.00     0.074 H 
ATOM     14  C   LIG d   1       4.675  -2.675  -7.767  0.00  0.00     0.006 C 
ATOM     15  O   LIG d   1       5.757  -3.398  -5.749  0.00  0.00    -0.460 OA
ATOM     16  C   LIG d   1       6.718  -2.525  -5.406  0.00  0.00     0.316 C 
ATOM     17  O   LIG d   1       7.826  -2.817  -5.011  0.00  0.00    -0.250 OA
ATOM     18  C   LIG d   1       6.209  -1.101  -5.589  0.00  0.00     0.105 C 
ATOM     19  H   LIG d   1       6.606  -0.674  -6.503  0.00  0.00     0.047 H 
ATOM     20  H   LIG d   1       3.171   0.348 -10.421  0.00  0.00     0.027 H 
ATOM     21  H   LIG d   1       1.538   0.979 -10.101  0.00  0.00     0.027 H 
ATOM     22  H   LIG d   1       1.531  -1.452 -10.761  0.00  0.00     0.031 H 
ATOM     23  H   LIG d   1       0.851  -1.173  -9.139  0.00  0.00     0.031 H 
ATOM     24  H   LIG d   1       2.777  -3.095  -9.429  0.00  0.00     0.057 H 
ATOM     25  H   LIG d   1       5.690  -2.416  -8.052  0.00  0.00     0.035 H 
ATOM     26  H   LIG d   1       4.422  -3.657  -8.166  0.00  0.00     0.035 H 
ENDROOT
BRANCH  18  27
ATOM     27  C   LIG d   1       6.598  -0.244  -4.381  0.00  0.00    -0.018 C 
ATOM     28  H   LIG d   1       7.361  -0.760  -3.799  0.00  0.00     0.082 H 
ATOM     29  H   LIG d   1       5.718  -0.073  -3.759  0.00  0.00     0.082 H 
BRANCH  27  30
ATOM     30  N   LIG d   1       7.144   1.040  -4.869  0.00  0.00     0.236 N 
ATOM     31  C   LIG d   1       7.963   1.672  -3.813  0.00  0.00    -0.029 C 
ATOM     32  C   LIG d   1       8.418   3.052  -4.297  0.00  0.00     0.021 C 
ATOM     33  H   LIG d   1       8.837   1.061  -3.587  0.00  0.00     0.082 H 
ATOM     34  H   LIG d   1       7.357   1.786  -2.914  0.00  0.00     0.082 H 
ATOM     35  C   LIG d   1       9.252   2.890  -5.571  0.00  0.00     0.101 C 
ATOM     36  H   LIG d   1       9.022   3.528  -3.525  0.00  0.00     0.035 H 
ATOM     37  H   LIG d   1       7.546   3.669  -4.510  0.00  0.00     0.035 H 
ATOM     38  C   LIG d   1       8.418   2.167  -6.632  0.00  0.00     0.021 C 
ATOM     39  C   LIG d   1       7.962   0.814  -6.079  0.00  0.00    -0.029 C 
ATOM     40  H   LIG d   1       7.544   2.769  -6.882  0.00  0.00     0.035 H 
ATOM     41  H   LIG d   1       9.021   2.011  -7.526  0.00  0.00     0.035 H 
ATOM     42  H   LIG d   1       8.835   0.206  -5.843  0.00  0.00     0.082 H 
ATOM     43  H   LIG d   1       7.354   0.302  -6.826  0.00  0.00     0.082 H 
ATOM     44  H   LIG d   1       6.365   1.665  -5.105  0.00  0.00     0.203 HD
BRANCH  35  45
ATOM     45  C   LIG d   1       9.653   4.249  -6.086  0.00  0.00    -0.016 A 
ATOM     46  C   LIG d   1       9.552   5.356  -5.265  0.00  0.00    -0.054 A 
ATOM     47  C   LIG d   1       9.918   6.602  -5.736  0.00  0.00    -0.043 A 
ATOM     48  H   LIG d   1       9.187   5.248  -4.254  0.00  0.00     0.062 H 
ATOM     49  C   LIG d   1      10.392   6.741  -7.029  0.00  0.00     0.041 A 
ATOM     50  H   LIG d   1       9.840   7.467  -5.095  0.00  0.00     0.063 H 
ATOM     51  C   LIG d   1      10.486   5.634  -7.853  0.00  0.00    -0.043 A 
ATOM     52 CL   LIG d   1      10.860   8.305  -7.620  0.00  0.00    -0.084 Cl
ATOM     53  C   LIG d   1      10.118   4.387  -7.381  0.00  0.00    -0.054 A 
ATOM     54  H   LIG d   1      10.851   5.741  -8.863  0.00  0.00     0.063 H 
ATOM     55  H   LIG d   1      10.197   3.522  -8.022  0.00  0.00     0.062 H 
ENDBRANCH  35  45
BRANCH  35  56
ATOM     56  O   LIG d   1      10.424   2.126  -5.282  0.00  0.00    -0.384 OA
ATOM     57  H   LIG d   1      11.179   2.656  -4.993  0.00  0.00     0.211 HD
ENDBRANCH  35  56
ENDBRANCH  27  30
ENDBRANCH  18  27
BRANCH   8  58
ATOM     58  O   LIG d   1       2.574  -0.239  -5.795  0.00  0.00    -0.391 OA
ATOM     59  H   LIG d   1       1.893  -0.357  -6.471  0.00  0.00     0.210 HD
ENDBRANCH   8  58
BRANCH   7  60
ATOM     60  C   LIG d   1       5.161   0.341  -8.406  0.00  0.00    -0.053 C 
ATOM     61  H   LIG d   1       5.568   1.073  -7.710  0.00  0.00     0.024 H 
ATOM     62  H   LIG d   1       5.880  -0.466  -8.548  0.00  0.00     0.024 H 
ATOM     63  H   LIG d   1       4.959   0.821  -9.364  0.00  0.00     0.024 H 
ENDBRANCH   7  60
BRANCH   1  64
ATOM     64  C   LIG d   1       3.196   2.115  -8.315  0.00  0.00    -0.061 C 
ATOM     65  H   LIG d   1       3.870   2.270  -7.473  0.00  0.00     0.023 H 
ATOM     66  H   LIG d   1       3.719   2.337  -9.245  0.00  0.00     0.023 H 
ATOM     67  H   LIG d   1       2.335   2.777  -8.216  0.00  0.00     0.023 H 
ENDBRANCH   1  64
TORSDOF 7
ENDMDL
MODEL 8
REMARK VINA RESULT:      -6.6      6.626     10.009
REMARK  7 active torsions:
REMARK  status: ('A' for Active; 'I' for Inactive)
REMARK    1  A    between atoms: C_1  and  C_2 
REMARK    2  A    between atoms: C_8  and  C_36 
REMARK    3  A    between atoms: C_9  and  O_35 
REMARK    4  A    between atoms: C_19  and  C_21 
REMARK    5  A    between atoms: C_21  and  N_66 
REMARK    6  A    between atoms: C_24  and  C_27 
REMARK    7  A    between atoms: C_24  and  O_34 
ROOT
ATOM      1  C   LIG d   1      10.543   5.310 -11.379  0.00  0.00    -0.032 C 
ATOM      2  H   LIG d   1      11.602   5.527 -11.492  0.00  0.00     0.031 H 
ATOM      3  C   LIG d   1       9.776   6.008 -12.501  0.00  0.00    -0.046 C 
ATOM      4  C   LIG d   1      10.076   7.509 -12.431  0.00  0.00    -0.034 C 
ATOM      5  C   LIG d   1       9.730   8.005 -11.057  0.00  0.00    -0.084 C 
ATOM      6  C   LIG d   1       9.733   7.244 -10.002  0.00  0.00    -0.061 C 
ATOM      7  C   LIG d   1      10.060   5.779 -10.010  0.00  0.00     0.018 C 
ATOM      8  C   LIG d   1      11.120   5.482  -8.958  0.00  0.00     0.072 C 
ATOM      9  H   LIG d   1      11.101   4.402  -8.749  0.00  0.00     0.061 H 
ATOM     10  C   LIG d   1      10.996   6.204  -7.653  0.00  0.00     0.041 C 
ATOM     11  H   LIG d   1      11.994   6.174  -7.174  0.00  0.00     0.037 H 
ATOM     12  C   LIG d   1      10.570   7.677  -7.709  0.00  0.00     0.113 C 
ATOM     13  H   LIG d   1      11.409   8.337  -7.972  0.00  0.00     0.074 H 
ATOM     14  C   LIG d   1       9.389   7.872  -8.666  0.00  0.00     0.006 C 
ATOM     15  O   LIG d   1      10.052   7.937  -6.359  0.00  0.00    -0.460 OA
ATOM     16  C   LIG d   1       9.692   6.798  -5.747  0.00  0.00     0.316 C 
ATOM     17  O   LIG d   1       9.193   6.718  -4.645  0.00  0.00    -0.250 OA
ATOM     18  C   LIG d   1      10.002   5.609  -6.647  0.00  0.00     0.105 C 
ATOM     19  H   LIG d   1       9.096   5.252  -7.125  0.00  0.00     0.047 H 
ATOM     20  H   LIG d   1       8.707   5.839 -12.387  0.00  0.00     0.027 H 
ATOM     21  H   LIG d   1      10.104   5.614 -13.466  0.00  0.00     0.027 H 
ATOM     22  H   LIG d   1       9.478   8.037 -13.174  0.00  0.00     0.031 H 
ATOM     23  H   LIG d   1      11.135   7.679 -12.626  0.00  0.00     0.031 H 
ATOM     24  H   LIG d   1       9.474   9.048 -10.936  0.00  0.00     0.057 H 
ATOM     25  H   LIG d   1       8.500   7.407  -8.252  0.00  0.00     0.035 H 
ATOM     26  H   LIG d   1       9.213   8.939  -8.806  0.00  0.00     0.035 H 
ENDROOT
BRANCH  18  27
ATOM     27  C   LIG d   1      10.659   4.490  -5.834  0.00  0.00    -0.018 C 
ATOM     28  H   LIG d   1      11.215   4.923  -5.002  0.00  0.00     0.082 H 
ATOM     29  H   LIG d   1      11.340   3.928  -6.474  0.00  0.00     0.082 H 
BRANCH  27  30
ATOM     30  N   LIG d   1       9.599   3.606  -5.304  0.00  0.00     0.236 N 
ATOM     31  C   LIG d   1       9.315   2.525  -6.272  0.00  0.00    -0.029 C 
ATOM     32  C   LIG d   1       8.136   1.696  -5.756  0.00  0.00     0.021 C 
ATOM     33  H   LIG d   1      10.186   1.881  -6.393  0.00  0.00     0.082 H 
ATOM     34  H   LIG d   1       9.053   2.968  -7.232  0.00  0.00     0.082 H 
ATOM     35  C   LIG d   1       8.499   1.091  -4.397  0.00  0.00     0.101 C 
ATOM     36  H   LIG d   1       7.916   0.896  -6.462  0.00  0.00     0.035 H 
ATOM     37  H   LIG d   1       7.260   2.336  -5.646  0.00  0.00     0.035 H 
ATOM     38  C   LIG d   1       8.865   2.217  -3.425  0.00  0.00     0.021 C 
ATOM     39  C   LIG d   1      10.021   3.032  -4.009  0.00  0.00    -0.029 C 
ATOM     40  H   LIG d   1       8.001   2.867  -3.279  0.00  0.00     0.035 H 
ATOM     41  H   LIG d   1       9.166   1.790  -2.469  0.00  0.00     0.035 H 
ATOM     42  H   LIG d   1      10.889   2.386  -4.142  0.00  0.00     0.082 H 
ATOM     43  H   LIG d   1      10.274   3.844  -3.327  0.00  0.00     0.082 H 
ATOM     44  H   LIG d   1       8.746   4.158  -5.162  0.00  0.00     0.203 HD
BRANCH  35  45
ATOM     45  C   LIG d   1       7.320   0.323  -3.856  0.00  0.00    -0.016 A 
ATOM     46  C   LIG d   1       6.280   0.995  -3.244  0.00  0.00    -0.054 A 
ATOM     47  C   LIG d   1       5.199   0.291  -2.747  0.00  0.00    -0.043 A 
ATOM     48  H   LIG d   1       6.310   2.071  -3.152  0.00  0.00     0.062 H 
ATOM     49  C   LIG d   1       5.156  -1.087  -2.869  0.00  0.00     0.041 A 
ATOM     50  H   LIG d   1       4.386   0.815  -2.269  0.00  0.00     0.063 H 
ATOM     51  C   LIG d   1       6.201  -1.760  -3.477  0.00  0.00    -0.043 A 
ATOM     52 CL   LIG d   1       3.795  -1.972  -2.254  0.00  0.00    -0.084 Cl
ATOM     53  C   LIG d   1       7.282  -1.054  -3.972  0.00  0.00    -0.054 A 
ATOM     54  H   LIG d   1       6.171  -2.835  -3.569  0.00  0.00     0.063 H 
ATOM     55  H   LIG d   1       8.096  -1.579  -4.451  0.00  0.00     0.062 H 
ENDBRANCH  35  45
BRANCH  35  56
ATOM     56  O   LIG d   1       9.614   0.211  -4.548  0.00  0.00    -0.384 OA
ATOM     57  H   LIG d   1       9.439  -0.551  -5.118  0.00  0.00     0.211 HD
ENDBRANCH  35  56
ENDBRANCH  27  30
ENDBRANCH  18  27
BRANCH   8  58
ATOM     58  O   LIG d   1      12.416   5.779  -9.500  0.00  0.00    -0.391 OA
ATOM     59  H   LIG d   1      12.926   6.411  -8.975  0.00  0.00     0.210 HD
ENDBRANCH   8  58
BRANCH   7  60
ATOM     60  C   LIG d   1       8.786   4.986  -9.688  0.00  0.00    -0.053 C 
ATOM     61  H   LIG d   1       8.138   5.584  -9.047  0.00  0.00     0.024 H 
ATOM     62  H   LIG d   1       8.262   4.749 -10.614  0.00  0.00     0.024 H 
ATOM     63  H   LIG d   1       9.053   4.062  -9.174  0.00  0.00     0.024 H 
ENDBRANCH   7  60
BRANCH   1  64
ATOM     64  C   LIG d   1      10.321   3.800 -11.493  0.00  0.00    -0.061 C 
ATOM     65  H   LIG d   1       9.259   3.598 -11.633  0.00  0.00     0.023 H 
ATOM     66  H   LIG d   1      10.879   3.414 -12.346  0.00  0.00     0.023 H 
ATOM     67  H   LIG d   1      10.666   3.311 -10.582  0.00  0.00     0.023 H 
ENDBRANCH   1  64
TORSDOF 7
ENDMDL
MODEL 9
REMARK VINA RESULT:      -6.5      6.636      9.531
REMARK  7 active torsions:
REMARK  status: ('A' for Active; 'I' for Inactive)
REMARK    1  A    between atoms: C_1  and  C_2 
REMARK    2  A    between atoms: C_8  and  C_36 
REMARK    3  A    between atoms: C_9  and  O_35 
REMARK    4  A    between atoms: C_19  and  C_21 
REMARK    5  A    between atoms: C_21  and  N_66 
REMARK    6  A    between atoms: C_24  and  C_27 
REMARK    7  A    between atoms: C_24  and  O_34 
ROOT
ATOM      1  C   LIG d   1      12.363   6.446  -0.740  0.00  0.00    -0.032 C 
ATOM      2  H   LIG d   1      11.615   5.896  -0.176  0.00  0.00     0.031 H 
ATOM      3  C   LIG d   1      12.668   7.753  -0.010  0.00  0.00    -0.046 C 
ATOM      4  C   LIG d   1      11.360   8.537   0.144  0.00  0.00    -0.034 C 
ATOM      5  C   LIG d   1      10.750   8.727  -1.214  0.00  0.00    -0.084 C 
ATOM      6  C   LIG d   1      10.965   7.921  -2.212  0.00  0.00    -0.061 C 
ATOM      7  C   LIG d   1      11.856   6.714  -2.154  0.00  0.00     0.018 C 
ATOM      8  C   LIG d   1      11.105   5.495  -2.673  0.00  0.00     0.072 C 
ATOM      9  H   LIG d   1      11.846   4.724  -2.935  0.00  0.00     0.061 H 
ATOM     10  C   LIG d   1      10.221   5.704  -3.862  0.00  0.00     0.041 C 
ATOM     11  H   LIG d   1       9.496   4.865  -3.873  0.00  0.00     0.037 H 
ATOM     12  C   LIG d   1       9.403   7.001  -3.903  0.00  0.00     0.113 C 
ATOM     13  H   LIG d   1       8.507   6.942  -3.269  0.00  0.00     0.074 H 
ATOM     14  C   LIG d   1      10.269   8.209  -3.527  0.00  0.00     0.006 C 
ATOM     15  O   LIG d   1       9.076   7.158  -5.326  0.00  0.00    -0.460 OA
ATOM     16  C   LIG d   1       9.929   6.470  -6.101  0.00  0.00     0.316 C 
ATOM     17  O   LIG d   1       9.923   6.452  -7.313  0.00  0.00    -0.250 OA
ATOM     18  C   LIG d   1      10.918   5.707  -5.228  0.00  0.00     0.105 C 
ATOM     19  H   LIG d   1      11.872   6.222  -5.202  0.00  0.00     0.047 H 
ATOM     20  H   LIG d   1      13.387   8.342  -0.576  0.00  0.00     0.027 H 
ATOM     21  H   LIG d   1      13.079   7.531   0.977  0.00  0.00     0.027 H 
ATOM     22  H   LIG d   1      11.566   9.508   0.594  0.00  0.00     0.031 H 
ATOM     23  H   LIG d   1      10.673   7.978   0.780  0.00  0.00     0.031 H 
ATOM     24  H   LIG d   1      10.092   9.570  -1.368  0.00  0.00     0.057 H 
ATOM     25  H   LIG d   1      11.002   8.392  -4.306  0.00  0.00     0.035 H 
ATOM     26  H   LIG d   1       9.631   9.085  -3.411  0.00  0.00     0.035 H 
ENDROOT
BRANCH  18  27
ATOM     27  C   LIG d   1      11.090   4.279  -5.752  0.00  0.00    -0.018 C 
ATOM     28  H   LIG d   1      12.055   3.887  -5.431  0.00  0.00     0.082 H 
ATOM     29  H   LIG d   1      11.042   4.283  -6.841  0.00  0.00     0.082 H 
BRANCH  27  30
ATOM     30  N   LIG d   1      10.013   3.436  -5.190  0.00  0.00     0.236 N 
ATOM     31  C   LIG d   1       9.275   2.768  -6.283  0.00  0.00    -0.029 C 
ATOM     32  C   LIG d   1       8.094   1.998  -5.686  0.00  0.00     0.021 C 
ATOM     33  H   LIG d   1       9.926   2.076  -6.818  0.00  0.00     0.082 H 
ATOM     34  H   LIG d   1       8.902   3.524  -6.974  0.00  0.00     0.082 H 
ATOM     35  C   LIG d   1       8.620   0.950  -4.701  0.00  0.00     0.101 C 
ATOM     36  H   LIG d   1       7.542   1.502  -6.484  0.00  0.00     0.035 H 
ATOM     37  H   LIG d   1       7.435   2.691  -5.162  0.00  0.00     0.035 H 
ATOM     38  C   LIG d   1       9.445   1.648  -3.616  0.00  0.00     0.021 C 
ATOM     39  C   LIG d   1      10.586   2.429  -4.273  0.00  0.00    -0.029 C 
ATOM     40  H   LIG d   1       8.809   2.336  -3.059  0.00  0.00     0.035 H 
ATOM     41  H   LIG d   1       9.858   0.902  -2.936  0.00  0.00     0.035 H 
ATOM     42  H   LIG d   1      11.231   1.739  -4.818  0.00  0.00     0.082 H 
ATOM     43  H   LIG d   1      11.167   2.940  -3.505  0.00  0.00     0.082 H 
ATOM     44  H   LIG d   1       9.363   4.033  -4.666  0.00  0.00     0.203 HD
BRANCH  35  45
ATOM     45  C   LIG d   1       7.459   0.230  -4.065  0.00  0.00    -0.016 A 
ATOM     46  C   LIG d   1       7.350  -1.143  -4.181  0.00  0.00    -0.054 A 
ATOM     47  C   LIG d   1       6.285  -1.804  -3.599  0.00  0.00    -0.043 A 
ATOM     48  H   LIG d   1       8.098  -1.700  -4.727  0.00  0.00     0.062 H 
ATOM     49  C   LIG d   1       5.330  -1.092  -2.895  0.00  0.00     0.041 A 
ATOM     50  H   LIG d   1       6.200  -2.876  -3.689  0.00  0.00     0.063 H 
ATOM     51  C   LIG d   1       5.436   0.283  -2.785  0.00  0.00    -0.043 A 
ATOM     52 CL   LIG d   1       3.996  -1.922  -2.156  0.00  0.00    -0.084 Cl
ATOM     53  C   LIG d   1       6.501   0.944  -3.368  0.00  0.00    -0.054 A 
ATOM     54  H   LIG d   1       4.689   0.841  -2.239  0.00  0.00     0.063 H 
ATOM     55  H   LIG d   1       6.586   2.016  -3.278  0.00  0.00     0.062 H 
ENDBRANCH  35  45
BRANCH  35  56
ATOM     56  O   LIG d   1       9.441   0.011  -5.396  0.00  0.00    -0.384 OA
ATOM     57  H   LIG d   1       9.112  -0.898  -5.366  0.00  0.00     0.211 HD
ENDBRANCH  35  56
ENDBRANCH  27  30
ENDBRANCH  18  27
BRANCH   8  58
ATOM     58  O   LIG d   1      10.297   4.955  -1.616  0.00  0.00    -0.391 OA
ATOM     59  H   LIG d   1       9.481   5.447  -1.455  0.00  0.00     0.210 HD
ENDBRANCH   8  58
BRANCH   7  60
ATOM     60  C   LIG d   1      13.089   6.966  -3.034  0.00  0.00    -0.053 C 
ATOM     61  H   LIG d   1      13.964   6.514  -2.569  0.00  0.00     0.024 H 
ATOM     62  H   LIG d   1      12.929   6.523  -4.016  0.00  0.00     0.024 H 
ATOM     63  H   LIG d   1      13.246   8.040  -3.140  0.00  0.00     0.024 H 
ENDBRANCH   7  60
BRANCH   1  64
ATOM     64  C   LIG d   1      13.646   5.616  -0.823  0.00  0.00    -0.061 C 
ATOM     65  H   LIG d   1      14.456   6.146  -0.323  0.00  0.00     0.023 H 
ATOM     66  H   LIG d   1      13.488   4.653  -0.336  0.00  0.00     0.023 H 
ATOM     67  H   LIG d   1      13.909   5.455  -1.869  0.00  0.00     0.023 H 
ENDBRANCH   1  64
TORSDOF 7
ENDMDL
