MODEL 1
REMARK VINA RESULT:      -7.5      0.000      0.000
REMARK  9 active torsions:
REMARK  status: ('A' for Active; 'I' for Inactive)
REMARK    1  A    between atoms: C_5  and  O_7 
REMARK    2  A    between atoms: O_7  and  C_8 
REMARK    3  A    between atoms: C_8  and  C_9 
REMARK    4  A    between atoms: C_9  and  C_10 
REMARK    5  A    between atoms: C_9  and  O_26 
REMARK    6  A    between atoms: C_10  and  O_11 
REMARK    7  A    between atoms: O_11  and  C_12 
REMARK    8  A    between atoms: C_21  and  C_23 
REMARK    9  A    between atoms: C_30  and  C_32 
ROOT
ATOM      1  C   LIG d   1       4.752  -3.161  -6.049  0.00  0.00     0.123 C 
ATOM      2  H   LIG d   1       4.147  -3.928  -6.532  0.00  0.00     0.066 H 
ENDROOT
BRANCH   1   3
ATOM      3  C   LIG d   1       4.722  -3.366  -4.534  0.00  0.00     0.119 C 
ATOM      4  H   LIG d   1       4.799  -4.430  -4.309  0.00  0.00     0.072 H 
ATOM      5  H   LIG d   1       3.788  -2.975  -4.131  0.00  0.00     0.072 H 
BRANCH   3   6
ATOM      6  O   LIG d   1       5.822  -2.673  -3.938  0.00  0.00    -0.488 OA
BRANCH   6   7
ATOM      7  C   LIG d   1       5.553  -1.478  -3.354  0.00  0.00     0.135 A 
ATOM      8  C   LIG d   1       6.333  -0.355  -3.653  0.00  0.00     0.105 A 
ATOM      9  C   LIG d   1       6.047   0.888  -3.059  0.00  0.00     0.143 A 
ATOM     10  C   LIG d   1       7.472  -0.432  -4.585  0.00  0.00     0.197 C 
ATOM     11  C   LIG d   1       4.990   0.980  -2.161  0.00  0.00    -0.018 A 
ATOM     12  O   LIG d   1       6.788   1.971  -3.360  0.00  0.00    -0.453 OA
ATOM     13  C   LIG d   1       4.232  -0.135  -1.867  0.00  0.00    -0.055 A 
ATOM     14  H   LIG d   1       4.762   1.926  -1.692  0.00  0.00     0.065 H 
ATOM     15  C   LIG d   1       4.505  -1.357  -2.458  0.00  0.00    -0.019 A 
ATOM     16  H   LIG d   1       3.417  -0.053  -1.164  0.00  0.00     0.062 H 
ATOM     17  H   LIG d   1       3.899  -2.218  -2.219  0.00  0.00     0.065 H 
ATOM     18  C   LIG d   1       7.978   1.863  -3.969  0.00  0.00     0.154 C 
ATOM     19  C   LIG d   1       8.381   0.731  -4.594  0.00  0.00     0.030 C 
ATOM     20  H   LIG d   1       9.341   0.680  -5.085  0.00  0.00     0.069 H 
ATOM     21  O   LIG d   1       7.652  -1.399  -5.304  0.00  0.00    -0.287 OA
BRANCH  18  22
ATOM     22  C   LIG d   1       8.889   3.030  -3.958  0.00  0.00     0.107 C 
ATOM     23  O   LIG d   1       9.078   3.668  -4.984  0.00  0.00    -0.542 OA
ATOM     24  O   LIG d   1       9.454   3.355  -2.924  0.00  0.00    -0.542 OA
ENDBRANCH  18  22
ENDBRANCH   6   7
ENDBRANCH   3   6
ENDBRANCH   1   3
BRANCH   1  25
ATOM     25  C   LIG d   1       4.188  -1.778  -6.387  0.00  0.00     0.119 C 
ATOM     26  H   LIG d   1       3.124  -1.753  -6.152  0.00  0.00     0.072 H 
ATOM     27  H   LIG d   1       4.708  -1.021  -5.801  0.00  0.00     0.072 H 
BRANCH  25  28
ATOM     28  O   LIG d   1       4.375  -1.516  -7.780  0.00  0.00    -0.488 OA
BRANCH  28  29
ATOM     29  C   LIG d   1       4.202  -0.235  -8.193  0.00  0.00     0.135 A 
ATOM     30  C   LIG d   1       5.307   0.557  -8.521  0.00  0.00     0.105 A 
ATOM     31  C   LIG d   1       5.128   1.880  -8.967  0.00  0.00     0.143 A 
ATOM     32  C   LIG d   1       6.683   0.042  -8.411  0.00  0.00     0.197 C 
ATOM     33  C   LIG d   1       3.840   2.394  -9.054  0.00  0.00    -0.018 A 
ATOM     34  O   LIG d   1       6.192   2.634  -9.302  0.00  0.00    -0.453 OA
ATOM     35  C   LIG d   1       2.757   1.609  -8.716  0.00  0.00    -0.055 A 
ATOM     36  H   LIG d   1       3.686   3.410  -9.386  0.00  0.00     0.065 H 
ATOM     37  C   LIG d   1       2.928   0.303  -8.291  0.00  0.00    -0.019 A 
ATOM     38  H   LIG d   1       1.759   2.020  -8.785  0.00  0.00     0.062 H 
ATOM     39  H   LIG d   1       2.069  -0.299  -8.034  0.00  0.00     0.065 H 
ATOM     40  C   LIG d   1       7.439   2.293  -8.934  0.00  0.00     0.154 C 
ATOM     41  C   LIG d   1       7.760   1.049  -8.504  0.00  0.00     0.030 C 
ATOM     42  H   LIG d   1       8.776   0.801  -8.235  0.00  0.00     0.069 H 
ATOM     43  O   LIG d   1       6.919  -1.142  -8.254  0.00  0.00    -0.287 OA
BRANCH  40  44
ATOM     44  C   LIG d   1       8.508   3.314  -9.015  0.00  0.00     0.107 C 
ATOM     45  O   LIG d   1       9.590   3.108  -8.486  0.00  0.00    -0.542 OA
ATOM     46  O   LIG d   1       8.308   4.362  -9.610  0.00  0.00    -0.542 OA
ENDBRANCH  40  44
ENDBRANCH  28  29
ENDBRANCH  25  28
ENDBRANCH   1  25
BRANCH   1  47
ATOM     47  O   LIG d   1       6.099  -3.252  -6.517  0.00  0.00    -0.385 OA
ATOM     48  H   LIG d   1       6.199  -3.767  -7.330  0.00  0.00     0.210 HD
ENDBRANCH   1  47
TORSDOF 9
ENDMDL
MODEL 2
REMARK VINA RESULT:      -7.4      3.239      6.947
REMARK  9 active torsions:
REMARK  status: ('A' for Active; 'I' for Inactive)
REMARK    1  A    between atoms: C_5  and  O_7 
REMARK    2  A    between atoms: O_7  and  C_8 
REMARK    3  A    between atoms: C_8  and  C_9 
REMARK    4  A    between atoms: C_9  and  C_10 
REMARK    5  A    between atoms: C_9  and  O_26 
REMARK    6  A    between atoms: C_10  and  O_11 
REMARK    7  A    between atoms: O_11  and  C_12 
REMARK    8  A    between atoms: C_21  and  C_23 
REMARK    9  A    between atoms: C_30  and  C_32 
ROOT
ATOM      1  C   LIG d   1       8.333   0.962  -5.068  0.00  0.00     0.123 C 
ATOM      2  H   LIG d   1       7.936   0.165  -5.696  0.00  0.00     0.066 H 
ENDROOT
BRANCH   1   3
ATOM      3  C   LIG d   1       7.331   1.286  -3.958  0.00  0.00     0.119 C 
ATOM      4  H   LIG d   1       6.371   1.548  -4.401  0.00  0.00     0.072 H 
ATOM      5  H   LIG d   1       7.701   2.125  -3.368  0.00  0.00     0.072 H 
BRANCH   3   6
ATOM      6  O   LIG d   1       7.171   0.145  -3.113  0.00  0.00    -0.488 OA
BRANCH   6   7
ATOM      7  C   LIG d   1       5.931  -0.401  -3.043  0.00  0.00     0.135 A 
ATOM      8  C   LIG d   1       5.693  -1.681  -3.555  0.00  0.00     0.105 A 
ATOM      9  C   LIG d   1       4.409  -2.252  -3.471  0.00  0.00     0.143 A 
ATOM     10  C   LIG d   1       6.760  -2.466  -4.198  0.00  0.00     0.197 C 
ATOM     11  C   LIG d   1       3.381  -1.522  -2.887  0.00  0.00    -0.018 A 
ATOM     12  O   LIG d   1       4.186  -3.491  -3.949  0.00  0.00    -0.453 OA
ATOM     13  C   LIG d   1       3.624  -0.257  -2.393  0.00  0.00    -0.055 A 
ATOM     14  H   LIG d   1       2.390  -1.945  -2.822  0.00  0.00     0.065 H 
ATOM     15  C   LIG d   1       4.888   0.304  -2.465  0.00  0.00    -0.019 A 
ATOM     16  H   LIG d   1       2.818   0.304  -1.946  0.00  0.00     0.062 H 
ATOM     17  H   LIG d   1       5.061   1.294  -2.069  0.00  0.00     0.065 H 
ATOM     18  C   LIG d   1       5.052  -4.094  -4.777  0.00  0.00     0.154 C 
ATOM     19  C   LIG d   1       6.325  -3.662  -4.946  0.00  0.00     0.030 C 
ATOM     20  H   LIG d   1       7.002  -4.177  -5.611  0.00  0.00     0.069 H 
ATOM     21  O   LIG d   1       7.934  -2.147  -4.116  0.00  0.00    -0.287 OA
BRANCH  18  22
ATOM     22  C   LIG d   1       4.601  -5.282  -5.535  0.00  0.00     0.107 C 
ATOM     23  O   LIG d   1       5.376  -6.204  -5.747  0.00  0.00    -0.542 OA
ATOM     24  O   LIG d   1       3.452  -5.342  -5.950  0.00  0.00    -0.542 OA
ENDBRANCH  18  22
ENDBRANCH   6   7
ENDBRANCH   3   6
ENDBRANCH   1   3
BRANCH   1  25
ATOM     25  C   LIG d   1       8.572   2.212  -5.919  0.00  0.00     0.119 C 
ATOM     26  H   LIG d   1       8.635   1.929  -6.970  0.00  0.00     0.072 H 
ATOM     27  H   LIG d   1       7.748   2.910  -5.778  0.00  0.00     0.072 H 
BRANCH  25  28
ATOM     28  O   LIG d   1       9.796   2.833  -5.518  0.00  0.00    -0.488 OA
BRANCH  28  29
ATOM     29  C   LIG d   1       9.849   4.187  -5.584  0.00  0.00     0.135 A 
ATOM     30  C   LIG d   1       9.976   4.946  -4.416  0.00  0.00     0.105 A 
ATOM     31  C   LIG d   1      10.049   6.350  -4.483  0.00  0.00     0.143 A 
ATOM     32  C   LIG d   1      10.037   4.312  -3.087  0.00  0.00     0.197 C 
ATOM     33  C   LIG d   1       9.968   6.971  -5.724  0.00  0.00    -0.018 A 
ATOM     34  O   LIG d   1      10.193   7.078  -3.360  0.00  0.00    -0.453 OA
ATOM     35  C   LIG d   1       9.830   6.214  -6.869  0.00  0.00    -0.055 A 
ATOM     36  H   LIG d   1      10.014   8.048  -5.792  0.00  0.00     0.065 H 
ATOM     37  C   LIG d   1       9.773   4.832  -6.808  0.00  0.00    -0.019 A 
ATOM     38  H   LIG d   1       9.766   6.708  -7.829  0.00  0.00     0.062 H 
ATOM     39  H   LIG d   1       9.668   4.256  -7.714  0.00  0.00     0.065 H 
ATOM     40  C   LIG d   1       9.955   6.551  -2.146  0.00  0.00     0.154 C 
ATOM     41  C   LIG d   1       9.880   5.216  -1.930  0.00  0.00     0.030 C 
ATOM     42  H   LIG d   1       9.708   4.824  -0.939  0.00  0.00     0.069 H 
ATOM     43  O   LIG d   1      10.207   3.114  -2.951  0.00  0.00    -0.287 OA
BRANCH  40  44
ATOM     44  C   LIG d   1       9.782   7.467  -0.996  0.00  0.00     0.107 C 
ATOM     45  O   LIG d   1       8.725   8.059  -0.840  0.00  0.00    -0.542 OA
ATOM     46  O   LIG d   1      10.696   7.631  -0.202  0.00  0.00    -0.542 OA
ENDBRANCH  40  44
ENDBRANCH  28  29
ENDBRANCH  25  28
ENDBRANCH   1  25
BRANCH   1  47
ATOM     47  O   LIG d   1       9.568   0.539  -4.487  0.00  0.00    -0.385 OA
ATOM     48  H   LIG d   1       9.905  -0.295  -4.842  0.00  0.00     0.210 HD
ENDBRANCH   1  47
TORSDOF 9
ENDMDL
MODEL 3
REMARK VINA RESULT:      -7.4      3.575      7.405
REMARK  9 active torsions:
REMARK  status: ('A' for Active; 'I' for Inactive)
REMARK    1  A    between atoms: C_5  and  O_7 
REMARK    2  A    between atoms: O_7  and  C_8 
REMARK    3  A    between atoms: C_8  and  C_9 
REMARK    4  A    between atoms: C_9  and  C_10 
REMARK    5  A    between atoms: C_9  and  O_26 
REMARK    6  A    between atoms: C_10  and  O_11 
REMARK    7  A    between atoms: O_11  and  C_12 
REMARK    8  A    between atoms: C_21  and  C_23 
REMARK    9  A    between atoms: C_30  and  C_32 
ROOT
ATOM      1  C   LIG d   1       8.722   1.799  -3.911  0.00  0.00     0.123 C 
ATOM      2  H   LIG d   1       9.088   2.130  -2.939  0.00  0.00     0.066 H 
ENDROOT
BRANCH   1   3
ATOM      3  C   LIG d   1       8.863   2.938  -4.923  0.00  0.00     0.119 C 
ATOM      4  H   LIG d   1       7.964   3.554  -4.905  0.00  0.00     0.072 H 
ATOM      5  H   LIG d   1       8.999   2.523  -5.921  0.00  0.00     0.072 H 
BRANCH   3   6
ATOM      6  O   LIG d   1       9.997   3.739  -4.583  0.00  0.00    -0.488 OA
BRANCH   6   7
ATOM      7  C   LIG d   1       9.913   5.068  -4.845  0.00  0.00     0.135 A 
ATOM      8  C   LIG d   1       9.971   5.999  -3.802  0.00  0.00     0.105 A 
ATOM      9  C   LIG d   1       9.897   7.377  -4.075  0.00  0.00     0.143 A 
ATOM     10  C   LIG d   1      10.104   5.576  -2.397  0.00  0.00     0.197 C 
ATOM     11  C   LIG d   1       9.751   7.799  -5.391  0.00  0.00    -0.018 A 
ATOM     12  O   LIG d   1       9.971   8.272  -3.071  0.00  0.00    -0.453 OA
ATOM     13  C   LIG d   1       9.687   6.873  -6.412  0.00  0.00    -0.055 A 
ATOM     14  H   LIG d   1       9.687   8.853  -5.614  0.00  0.00     0.065 H 
ATOM     15  C   LIG d   1       9.769   5.516  -6.148  0.00  0.00    -0.019 A 
ATOM     16  H   LIG d   1       9.567   7.211  -7.430  0.00  0.00     0.062 H 
ATOM     17  H   LIG d   1       9.720   4.806  -6.959  0.00  0.00     0.065 H 
ATOM     18  C   LIG d   1       9.806   7.909  -1.791  0.00  0.00     0.154 C 
ATOM     19  C   LIG d   1       9.866   6.620  -1.381  0.00  0.00     0.030 C 
ATOM     20  H   LIG d   1       9.740   6.362  -0.341  0.00  0.00     0.069 H 
ATOM     21  O   LIG d   1      10.395   4.432  -2.093  0.00  0.00    -0.287 OA
BRANCH  18  22
ATOM     22  C   LIG d   1       9.550   8.962  -0.782  0.00  0.00     0.107 C 
ATOM     23  O   LIG d   1       8.465   9.526  -0.747  0.00  0.00    -0.542 OA
ATOM     24  O   LIG d   1      10.424   9.269   0.016  0.00  0.00    -0.542 OA
ENDBRANCH  18  22
ENDBRANCH   6   7
ENDBRANCH   3   6
ENDBRANCH   1   3
BRANCH   1  25
ATOM     25  C   LIG d   1       7.249   1.401  -3.794  0.00  0.00     0.119 C 
ATOM     26  H   LIG d   1       6.700   2.185  -3.275  0.00  0.00     0.072 H 
ATOM     27  H   LIG d   1       6.831   1.262  -4.791  0.00  0.00     0.072 H 
BRANCH  25  28
ATOM     28  O   LIG d   1       7.144   0.179  -3.059  0.00  0.00    -0.488 OA
BRANCH  28  29
ATOM     29  C   LIG d   1       5.917  -0.396  -2.994  0.00  0.00     0.135 A 
ATOM     30  C   LIG d   1       5.693  -1.649  -3.574  0.00  0.00     0.105 A 
ATOM     31  C   LIG d   1       4.425  -2.255  -3.491  0.00  0.00     0.143 A 
ATOM     32  C   LIG d   1       6.762  -2.373  -4.284  0.00  0.00     0.197 C 
ATOM     33  C   LIG d   1       3.394  -1.580  -2.847  0.00  0.00    -0.018 A 
ATOM     34  O   LIG d   1       4.216  -3.471  -4.031  0.00  0.00    -0.453 OA
ATOM     35  C   LIG d   1       3.623  -0.338  -2.290  0.00  0.00    -0.055 A 
ATOM     36  H   LIG d   1       2.414  -2.027  -2.783  0.00  0.00     0.065 H 
ATOM     37  C   LIG d   1       4.872   0.254  -2.357  0.00  0.00    -0.019 A 
ATOM     38  H   LIG d   1       2.814   0.179  -1.794  0.00  0.00     0.062 H 
ATOM     39  H   LIG d   1       5.034   1.224  -1.912  0.00  0.00     0.065 H 
ATOM     40  C   LIG d   1       5.073  -4.002  -4.920  0.00  0.00     0.154 C 
ATOM     41  C   LIG d   1       6.333  -3.533  -5.091  0.00  0.00     0.030 C 
ATOM     42  H   LIG d   1       7.004  -3.995  -5.799  0.00  0.00     0.069 H 
ATOM     43  O   LIG d   1       7.929  -2.035  -4.210  0.00  0.00    -0.287 OA
BRANCH  40  44
ATOM     44  C   LIG d   1       4.628  -5.154  -5.735  0.00  0.00     0.107 C 
ATOM     45  O   LIG d   1       5.452  -5.926  -6.204  0.00  0.00    -0.542 OA
ATOM     46  O   LIG d   1       3.437  -5.334  -5.941  0.00  0.00    -0.542 OA
ENDBRANCH  40  44
ENDBRANCH  28  29
ENDBRANCH  25  28
ENDBRANCH   1  25
BRANCH   1  47
ATOM     47  O   LIG d   1       9.487   0.675  -4.349  0.00  0.00    -0.385 OA
ATOM     48  H   LIG d   1      10.422   0.870  -4.503  0.00  0.00     0.210 HD
ENDBRANCH   1  47
TORSDOF 9
ENDMDL
MODEL 4
REMARK VINA RESULT:      -7.3      2.137      7.273
REMARK  9 active torsions:
REMARK  status: ('A' for Active; 'I' for Inactive)
REMARK    1  A    between atoms: C_5  and  O_7 
REMARK    2  A    between atoms: O_7  and  C_8 
REMARK    3  A    between atoms: C_8  and  C_9 
REMARK    4  A    between atoms: C_9  and  C_10 
REMARK    5  A    between atoms: C_9  and  O_26 
REMARK    6  A    between atoms: C_10  and  O_11 
REMARK    7  A    between atoms: O_11  and  C_12 
REMARK    8  A    between atoms: C_21  and  C_23 
REMARK    9  A    between atoms: C_30  and  C_32 
ROOT
ATOM      1  C   LIG d   1       8.615   1.580  -4.518  0.00  0.00     0.123 C 
ATOM      2  H   LIG d   1       9.151   2.415  -4.069  0.00  0.00     0.066 H 
ENDROOT
BRANCH   1   3
ATOM      3  C   LIG d   1       8.329   1.888  -5.989  0.00  0.00     0.119 C 
ATOM      4  H   LIG d   1       9.136   1.495  -6.607  0.00  0.00     0.072 H 
ATOM      5  H   LIG d   1       8.258   2.967  -6.127  0.00  0.00     0.072 H 
BRANCH   3   6
ATOM      6  O   LIG d   1       7.094   1.278  -6.372  0.00  0.00    -0.488 OA
BRANCH   6   7
ATOM      7  C   LIG d   1       6.996   0.839  -7.652  0.00  0.00     0.135 A 
ATOM      8  C   LIG d   1       5.900   0.066  -8.051  0.00  0.00     0.105 A 
ATOM      9  C   LIG d   1       5.791  -0.380  -9.381  0.00  0.00     0.143 A 
ATOM     10  C   LIG d   1       4.836  -0.311  -7.104  0.00  0.00     0.197 C 
ATOM     11  C   LIG d   1       6.793  -0.054 -10.287  0.00  0.00    -0.018 A 
ATOM     12  O   LIG d   1       4.727  -1.109  -9.767  0.00  0.00    -0.453 OA
ATOM     13  C   LIG d   1       7.874   0.702  -9.883  0.00  0.00    -0.055 A 
ATOM     14  H   LIG d   1       6.725  -0.394 -11.310  0.00  0.00     0.065 H 
ATOM     15  C   LIG d   1       7.979   1.151  -8.576  0.00  0.00    -0.019 A 
ATOM     16  H   LIG d   1       8.649   0.945 -10.593  0.00  0.00     0.062 H 
ATOM     17  H   LIG d   1       8.830   1.744  -8.278  0.00  0.00     0.065 H 
ATOM     18  C   LIG d   1       3.912  -1.693  -8.876  0.00  0.00     0.154 C 
ATOM     19  C   LIG d   1       3.898  -1.354  -7.565  0.00  0.00     0.030 C 
ATOM     20  H   LIG d   1       3.222  -1.835  -6.875  0.00  0.00     0.069 H 
ATOM     21  O   LIG d   1       4.736   0.208  -6.006  0.00  0.00    -0.287 OA
BRANCH  18  22
ATOM     22  C   LIG d   1       2.987  -2.749  -9.345  0.00  0.00     0.107 C 
ATOM     23  O   LIG d   1       3.201  -3.919  -9.061  0.00  0.00    -0.542 OA
ATOM     24  O   LIG d   1       2.010  -2.452 -10.017  0.00  0.00    -0.542 OA
ENDBRANCH  18  22
ENDBRANCH   6   7
ENDBRANCH   3   6
ENDBRANCH   1   3
BRANCH   1  25
ATOM     25  C   LIG d   1       7.293   1.363  -3.777  0.00  0.00     0.119 C 
ATOM     26  H   LIG d   1       7.198   2.100  -2.980  0.00  0.00     0.072 H 
ATOM     27  H   LIG d   1       6.463   1.471  -4.475  0.00  0.00     0.072 H 
BRANCH  25  28
ATOM     28  O   LIG d   1       7.274   0.048  -3.215  0.00  0.00    -0.488 OA
BRANCH  28  29
ATOM     29  C   LIG d   1       6.059  -0.536  -3.057  0.00  0.00     0.135 A 
ATOM     30  C   LIG d   1       5.789  -1.773  -3.649  0.00  0.00     0.105 A 
ATOM     31  C   LIG d   1       4.535  -2.389  -3.472  0.00  0.00     0.143 A 
ATOM     32  C   LIG d   1       6.793  -2.471  -4.472  0.00  0.00     0.197 C 
ATOM     33  C   LIG d   1       3.564  -1.738  -2.721  0.00  0.00    -0.018 A 
ATOM     34  O   LIG d   1       4.284  -3.590  -4.025  0.00  0.00    -0.453 OA
ATOM     35  C   LIG d   1       3.836  -0.511  -2.152  0.00  0.00    -0.055 A 
ATOM     36  H   LIG d   1       2.594  -2.192  -2.583  0.00  0.00     0.065 H 
ATOM     37  C   LIG d   1       5.073   0.091  -2.312  0.00  0.00    -0.019 A 
ATOM     38  H   LIG d   1       3.073  -0.012  -1.571  0.00  0.00     0.062 H 
ATOM     39  H   LIG d   1       5.270   1.049  -1.856  0.00  0.00     0.065 H 
ATOM     40  C   LIG d   1       5.061  -4.091  -5.001  0.00  0.00     0.154 C 
ATOM     41  C   LIG d   1       6.299  -3.611  -5.269  0.00  0.00     0.030 C 
ATOM     42  H   LIG d   1       6.906  -4.049  -6.047  0.00  0.00     0.069 H 
ATOM     43  O   LIG d   1       7.961  -2.128  -4.492  0.00  0.00    -0.287 OA
BRANCH  40  44
ATOM     44  C   LIG d   1       4.549  -5.223  -5.806  0.00  0.00     0.107 C 
ATOM     45  O   LIG d   1       3.363  -5.282  -6.092  0.00  0.00    -0.542 OA
ATOM     46  O   LIG d   1       5.312  -6.099  -6.185  0.00  0.00    -0.542 OA
ENDBRANCH  40  44
ENDBRANCH  28  29
ENDBRANCH  25  28
ENDBRANCH   1  25
BRANCH   1  47
ATOM     47  O   LIG d   1       9.412   0.398  -4.425  0.00  0.00    -0.385 OA
ATOM     48  H   LIG d   1       9.039  -0.285  -3.850  0.00  0.00     0.210 HD
ENDBRANCH   1  47
TORSDOF 9
ENDMDL
MODEL 5
REMARK VINA RESULT:      -7.3      0.404      5.125
REMARK  9 active torsions:
REMARK  status: ('A' for Active; 'I' for Inactive)
REMARK    1  A    between atoms: C_5  and  O_7 
REMARK    2  A    between atoms: O_7  and  C_8 
REMARK    3  A    between atoms: C_8  and  C_9 
REMARK    4  A    between atoms: C_9  and  C_10 
REMARK    5  A    between atoms: C_9  and  O_26 
REMARK    6  A    between atoms: C_10  and  O_11 
REMARK    7  A    between atoms: O_11  and  C_12 
REMARK    8  A    between atoms: C_21  and  C_23 
REMARK    9  A    between atoms: C_30  and  C_32 
ROOT
ATOM      1  C   LIG d   1       4.734  -3.104  -6.101  0.00  0.00     0.123 C 
ATOM      2  H   LIG d   1       5.767  -3.181  -6.441  0.00  0.00     0.066 H 
ENDROOT
BRANCH   1   3
ATOM      3  C   LIG d   1       4.196  -1.706  -6.414  0.00  0.00     0.119 C 
ATOM      4  H   LIG d   1       4.774  -0.963  -5.865  0.00  0.00     0.072 H 
ATOM      5  H   LIG d   1       3.149  -1.645  -6.118  0.00  0.00     0.072 H 
BRANCH   3   6
ATOM      6  O   LIG d   1       4.309  -1.456  -7.817  0.00  0.00    -0.488 OA
BRANCH   6   7
ATOM      7  C   LIG d   1       4.165  -0.170  -8.227  0.00  0.00     0.135 A 
ATOM      8  C   LIG d   1       5.288   0.598  -8.551  0.00  0.00     0.105 A 
ATOM      9  C   LIG d   1       5.138   1.927  -8.989  0.00  0.00     0.143 A 
ATOM     10  C   LIG d   1       6.653   0.053  -8.443  0.00  0.00     0.197 C 
ATOM     11  C   LIG d   1       3.862   2.468  -9.080  0.00  0.00    -0.018 A 
ATOM     12  O   LIG d   1       6.220   2.659  -9.317  0.00  0.00    -0.453 OA
ATOM     13  C   LIG d   1       2.760   1.706  -8.750  0.00  0.00    -0.055 A 
ATOM     14  H   LIG d   1       3.732   3.489  -9.408  0.00  0.00     0.065 H 
ATOM     15  C   LIG d   1       2.904   0.394  -8.328  0.00  0.00    -0.019 A 
ATOM     16  H   LIG d   1       1.774   2.138  -8.818  0.00  0.00     0.062 H 
ATOM     17  H   LIG d   1       2.031  -0.189  -8.078  0.00  0.00     0.065 H 
ATOM     18  C   LIG d   1       7.458   2.287  -8.959  0.00  0.00     0.154 C 
ATOM     19  C   LIG d   1       7.751   1.035  -8.532  0.00  0.00     0.030 C 
ATOM     20  H   LIG d   1       8.761   0.764  -8.262  0.00  0.00     0.069 H 
ATOM     21  O   LIG d   1       6.861  -1.137  -8.290  0.00  0.00    -0.287 OA
BRANCH  18  22
ATOM     22  C   LIG d   1       8.549   3.284  -9.036  0.00  0.00     0.107 C 
ATOM     23  O   LIG d   1       9.635   3.042  -8.529  0.00  0.00    -0.542 OA
ATOM     24  O   LIG d   1       8.364   4.350  -9.606  0.00  0.00    -0.542 OA
ENDBRANCH  18  22
ENDBRANCH   6   7
ENDBRANCH   3   6
ENDBRANCH   1   3
BRANCH   1  25
ATOM     25  C   LIG d   1       4.673  -3.346  -4.591  0.00  0.00     0.119 C 
ATOM     26  H   LIG d   1       3.740  -2.946  -4.196  0.00  0.00     0.072 H 
ATOM     27  H   LIG d   1       4.723  -4.417  -4.393  0.00  0.00     0.072 H 
BRANCH  25  28
ATOM     28  O   LIG d   1       5.778  -2.693  -3.960  0.00  0.00    -0.488 OA
BRANCH  28  29
ATOM     29  C   LIG d   1       5.526  -1.504  -3.358  0.00  0.00     0.135 A 
ATOM     30  C   LIG d   1       6.311  -0.383  -3.652  0.00  0.00     0.105 A 
ATOM     31  C   LIG d   1       6.040   0.856  -3.041  0.00  0.00     0.143 A 
ATOM     32  C   LIG d   1       7.436  -0.458  -4.600  0.00  0.00     0.197 C 
ATOM     33  C   LIG d   1       4.998   0.943  -2.124  0.00  0.00    -0.018 A 
ATOM     34  O   LIG d   1       6.782   1.938  -3.341  0.00  0.00    -0.453 OA
ATOM     35  C   LIG d   1       4.239  -0.171  -1.832  0.00  0.00    -0.055 A 
ATOM     36  H   LIG d   1       4.784   1.884  -1.641  0.00  0.00     0.065 H 
ATOM     37  C   LIG d   1       4.493  -1.388  -2.441  0.00  0.00    -0.019 A 
ATOM     38  H   LIG d   1       3.433  -0.092  -1.116  0.00  0.00     0.062 H 
ATOM     39  H   LIG d   1       3.886  -2.248  -2.203  0.00  0.00     0.065 H 
ATOM     40  C   LIG d   1       7.970   1.825  -3.960  0.00  0.00     0.154 C 
ATOM     41  C   LIG d   1       8.355   0.699  -4.606  0.00  0.00     0.030 C 
ATOM     42  H   LIG d   1       9.308   0.647  -5.111  0.00  0.00     0.069 H 
ATOM     43  O   LIG d   1       7.600  -1.415  -5.334  0.00  0.00    -0.287 OA
BRANCH  40  44
ATOM     44  C   LIG d   1       8.891   2.985  -3.946  0.00  0.00     0.107 C 
ATOM     45  O   LIG d   1       9.482   3.283  -2.919  0.00  0.00    -0.542 OA
ATOM     46  O   LIG d   1       9.060   3.644  -4.961  0.00  0.00    -0.542 OA
ENDBRANCH  40  44
ENDBRANCH  28  29
ENDBRANCH  25  28
ENDBRANCH   1  25
BRANCH   1  47
ATOM     47  O   LIG d   1       3.939  -4.082  -6.773  0.00  0.00    -0.385 OA
ATOM     48  H   LIG d   1       2.998  -4.047  -6.549  0.00  0.00     0.210 HD
ENDBRANCH   1  47
TORSDOF 9
ENDMDL
MODEL 6
REMARK VINA RESULT:      -7.0      2.962      6.743
REMARK  9 active torsions:
REMARK  status: ('A' for Active; 'I' for Inactive)
REMARK    1  A    between atoms: C_5  and  O_7 
REMARK    2  A    between atoms: O_7  and  C_8 
REMARK    3  A    between atoms: C_8  and  C_9 
REMARK    4  A    between atoms: C_9  and  C_10 
REMARK    5  A    between atoms: C_9  and  O_26 
REMARK    6  A    between atoms: C_10  and  O_11 
REMARK    7  A    between atoms: O_11  and  C_12 
REMARK    8  A    between atoms: C_21  and  C_23 
REMARK    9  A    between atoms: C_30  and  C_32 
ROOT
ATOM      1  C   LIG d   1       8.712   1.552  -4.360  0.00  0.00     0.123 C 
ATOM      2  H   LIG d   1       8.613   2.029  -5.335  0.00  0.00     0.066 H 
ENDROOT
BRANCH   1   3
ATOM      3  C   LIG d   1       7.362   1.578  -3.640  0.00  0.00     0.119 C 
ATOM      4  H   LIG d   1       7.042   2.610  -3.504  0.00  0.00     0.072 H 
ATOM      5  H   LIG d   1       7.459   1.096  -2.667  0.00  0.00     0.072 H 
BRANCH   3   6
ATOM      6  O   LIG d   1       6.392   0.877  -4.423  0.00  0.00    -0.488 OA
BRANCH   6   7
ATOM      7  C   LIG d   1       5.630  -0.043  -3.779  0.00  0.00     0.135 A 
ATOM      8  C   LIG d   1       5.499  -1.337  -4.296  0.00  0.00     0.105 A 
ATOM      9  C   LIG d   1       4.720  -2.295  -3.622  0.00  0.00     0.143 A 
ATOM     10  C   LIG d   1       6.158  -1.737  -5.551  0.00  0.00     0.197 C 
ATOM     11  C   LIG d   1       4.072  -1.935  -2.447  0.00  0.00    -0.018 A 
ATOM     12  O   LIG d   1       4.608  -3.545  -4.112  0.00  0.00    -0.453 OA
ATOM     13  C   LIG d   1       4.201  -0.654  -1.949  0.00  0.00    -0.055 A 
ATOM     14  H   LIG d   1       3.465  -2.658  -1.922  0.00  0.00     0.065 H 
ATOM     15  C   LIG d   1       4.975   0.289  -2.605  0.00  0.00    -0.019 A 
ATOM     16  H   LIG d   1       3.689  -0.383  -1.039  0.00  0.00     0.062 H 
ATOM     17  H   LIG d   1       5.067   1.285  -2.200  0.00  0.00     0.065 H 
ATOM     18  C   LIG d   1       4.956  -3.841  -5.372  0.00  0.00     0.154 C 
ATOM     19  C   LIG d   1       5.715  -3.018  -6.135  0.00  0.00     0.030 C 
ATOM     20  H   LIG d   1       5.988  -3.291  -7.143  0.00  0.00     0.069 H 
ATOM     21  O   LIG d   1       7.018  -1.051  -6.074  0.00  0.00    -0.287 OA
BRANCH  18  22
ATOM     22  C   LIG d   1       4.493  -5.121  -5.955  0.00  0.00     0.107 C 
ATOM     23  O   LIG d   1       3.297  -5.365  -6.022  0.00  0.00    -0.542 OA
ATOM     24  O   LIG d   1       5.307  -5.934  -6.368  0.00  0.00    -0.542 OA
ENDBRANCH  18  22
ENDBRANCH   6   7
ENDBRANCH   3   6
ENDBRANCH   1   3
BRANCH   1  25
ATOM     25  C   LIG d   1       9.749   2.306  -3.525  0.00  0.00     0.119 C 
ATOM     26  H   LIG d   1       9.268   2.728  -2.643  0.00  0.00     0.072 H 
ATOM     27  H   LIG d   1      10.537   1.619  -3.216  0.00  0.00     0.072 H 
BRANCH  25  28
ATOM     28  O   LIG d   1      10.315   3.360  -4.308  0.00  0.00    -0.488 OA
BRANCH  28  29
ATOM     29  C   LIG d   1      10.108   4.629  -3.875  0.00  0.00     0.135 A 
ATOM     30  C   LIG d   1       9.824   5.649  -4.788  0.00  0.00     0.105 A 
ATOM     31  C   LIG d   1       9.591   6.963  -4.338  0.00  0.00     0.143 A 
ATOM     32  C   LIG d   1       9.760   5.392  -6.237  0.00  0.00     0.197 C 
ATOM     33  C   LIG d   1       9.672   7.234  -2.977  0.00  0.00    -0.018 A 
ATOM     34  O   LIG d   1       9.297   7.940  -5.217  0.00  0.00    -0.453 OA
ATOM     35  C   LIG d   1       9.965   6.223  -2.086  0.00  0.00    -0.055 A 
ATOM     36  H   LIG d   1       9.504   8.238  -2.617  0.00  0.00     0.065 H 
ATOM     37  C   LIG d   1      10.180   4.927  -2.524  0.00  0.00    -0.019 A 
ATOM     38  H   LIG d   1      10.027   6.446  -1.030  0.00  0.00     0.062 H 
ATOM     39  H   LIG d   1      10.405   4.147  -1.812  0.00  0.00     0.065 H 
ATOM     40  C   LIG d   1       9.522   7.792  -6.533  0.00  0.00     0.154 C 
ATOM     41  C   LIG d   1       9.741   6.585  -7.107  0.00  0.00     0.030 C 
ATOM     42  H   LIG d   1       9.899   6.497  -8.172  0.00  0.00     0.069 H 
ATOM     43  O   LIG d   1       9.724   4.262  -6.691  0.00  0.00    -0.287 OA
BRANCH  40  44
ATOM     44  C   LIG d   1       9.519   8.997  -7.394  0.00  0.00     0.107 C 
ATOM     45  O   LIG d   1       9.191   8.908  -8.568  0.00  0.00    -0.542 OA
ATOM     46  O   LIG d   1       9.843  10.080  -6.932  0.00  0.00    -0.542 OA
ENDBRANCH  40  44
ENDBRANCH  28  29
ENDBRANCH  25  28
ENDBRANCH   1  25
BRANCH   1  47
ATOM     47  O   LIG d   1       9.134   0.198  -4.533  0.00  0.00    -0.385 OA
ATOM     48  H   LIG d   1      10.041   0.107  -4.857  0.00  0.00     0.210 HD
ENDBRANCH   1  47
TORSDOF 9
ENDMDL
MODEL 7
REMARK VINA RESULT:      -7.0      1.862      3.004
REMARK  9 active torsions:
REMARK  status: ('A' for Active; 'I' for Inactive)
REMARK    1  A    between atoms: C_5  and  O_7 
REMARK    2  A    between atoms: O_7  and  C_8 
REMARK    3  A    between atoms: C_8  and  C_9 
REMARK    4  A    between atoms: C_9  and  C_10 
REMARK    5  A    between atoms: C_9  and  O_26 
REMARK    6  A    between atoms: C_10  and  O_11 
REMARK    7  A    between atoms: O_11  and  C_12 
REMARK    8  A    between atoms: C_21  and  C_23 
REMARK    9  A    between atoms: C_30  and  C_32 
ROOT
ATOM      1  C   LIG d   1       5.286  -4.554  -5.361  0.00  0.00     0.123 C 
ATOM      2  H   LIG d   1       5.413  -5.456  -4.763  0.00  0.00     0.066 H 
ENDROOT
BRANCH   1   3
ATOM      3  C   LIG d   1       4.720  -3.435  -4.484  0.00  0.00     0.119 C 
ATOM      4  H   LIG d   1       4.040  -3.860  -3.746  0.00  0.00     0.072 H 
ATOM      5  H   LIG d   1       4.181  -2.721  -5.106  0.00  0.00     0.072 H 
BRANCH   3   6
ATOM      6  O   LIG d   1       5.793  -2.768  -3.814  0.00  0.00    -0.488 OA
BRANCH   6   7
ATOM      7  C   LIG d   1       5.518  -1.555  -3.269  0.00  0.00     0.135 A 
ATOM      8  C   LIG d   1       6.305  -0.443  -3.589  0.00  0.00     0.105 A 
ATOM      9  C   LIG d   1       6.013   0.817  -3.035  0.00  0.00     0.143 A 
ATOM     10  C   LIG d   1       7.457  -0.549  -4.501  0.00  0.00     0.197 C 
ATOM     11  C   LIG d   1       4.943   0.937  -2.155  0.00  0.00    -0.018 A 
ATOM     12  O   LIG d   1       6.761   1.889  -3.357  0.00  0.00    -0.453 OA
ATOM     13  C   LIG d   1       4.178  -0.168  -1.840  0.00  0.00    -0.055 A 
ATOM     14  H   LIG d   1       4.711   1.896  -1.717  0.00  0.00     0.065 H 
ATOM     15  C   LIG d   1       4.457  -1.407  -2.391  0.00  0.00    -0.019 A 
ATOM     16  H   LIG d   1       3.354  -0.065  -1.151  0.00  0.00     0.062 H 
ATOM     17  H   LIG d   1       3.846  -2.260  -2.136  0.00  0.00     0.065 H 
ATOM     18  C   LIG d   1       7.959   1.762  -3.945  0.00  0.00     0.154 C 
ATOM     19  C   LIG d   1       8.368   0.612  -4.532  0.00  0.00     0.030 C 
ATOM     20  H   LIG d   1       9.335   0.545  -5.007  0.00  0.00     0.069 H 
ATOM     21  O   LIG d   1       7.644  -1.536  -5.190  0.00  0.00    -0.287 OA
BRANCH  18  22
ATOM     22  C   LIG d   1       8.872   2.927  -3.955  0.00  0.00     0.107 C 
ATOM     23  O   LIG d   1       9.064   3.545  -4.993  0.00  0.00    -0.542 OA
ATOM     24  O   LIG d   1       9.436   3.270  -2.926  0.00  0.00    -0.542 OA
ENDBRANCH  18  22
ENDBRANCH   6   7
ENDBRANCH   3   6
ENDBRANCH   1   3
BRANCH   1  25
ATOM     25  C   LIG d   1       4.318  -4.836  -6.513  0.00  0.00     0.119 C 
ATOM     26  H   LIG d   1       4.235  -5.912  -6.663  0.00  0.00     0.072 H 
ATOM     27  H   LIG d   1       3.338  -4.425  -6.272  0.00  0.00     0.072 H 
BRANCH  25  28
ATOM     28  O   LIG d   1       4.811  -4.225  -7.708  0.00  0.00    -0.488 OA
BRANCH  28  29
ATOM     29  C   LIG d   1       3.895  -3.648  -8.526  0.00  0.00     0.135 A 
ATOM     30  C   LIG d   1       3.880  -2.260  -8.702  0.00  0.00     0.105 A 
ATOM     31  C   LIG d   1       2.942  -1.662  -9.565  0.00  0.00     0.143 A 
ATOM     32  C   LIG d   1       4.833  -1.384  -7.999  0.00  0.00     0.197 C 
ATOM     33  C   LIG d   1       2.017  -2.467 -10.219  0.00  0.00    -0.018 A 
ATOM     34  O   LIG d   1       2.943  -0.328  -9.749  0.00  0.00    -0.453 OA
ATOM     35  C   LIG d   1       2.032  -3.833 -10.029  0.00  0.00    -0.055 A 
ATOM     36  H   LIG d   1       1.286  -2.022 -10.877  0.00  0.00     0.065 H 
ATOM     37  C   LIG d   1       2.962  -4.427  -9.193  0.00  0.00    -0.019 A 
ATOM     38  H   LIG d   1       1.307  -4.450 -10.541  0.00  0.00     0.062 H 
ATOM     39  H   LIG d   1       2.962  -5.498  -9.059  0.00  0.00     0.065 H 
ATOM     40  C   LIG d   1       3.592   0.497  -8.909  0.00  0.00     0.154 C 
ATOM     41  C   LIG d   1       4.534   0.062  -8.039  0.00  0.00     0.030 C 
ATOM     42  H   LIG d   1       5.052   0.754  -7.392  0.00  0.00     0.069 H 
ATOM     43  O   LIG d   1       5.809  -1.825  -7.419  0.00  0.00    -0.287 OA
BRANCH  40  44
ATOM     44  C   LIG d   1       3.273   1.942  -8.946  0.00  0.00     0.107 C 
ATOM     45  O   LIG d   1       3.499   2.592  -9.956  0.00  0.00    -0.542 OA
ATOM     46  O   LIG d   1       2.783   2.485  -7.967  0.00  0.00    -0.542 OA
ENDBRANCH  40  44
ENDBRANCH  28  29
ENDBRANCH  25  28
ENDBRANCH   1  25
BRANCH   1  47
ATOM     47  O   LIG d   1       6.551  -4.152  -5.890  0.00  0.00    -0.385 OA
ATOM     48  H   LIG d   1       7.290  -4.708  -5.607  0.00  0.00     0.210 HD
ENDBRANCH   1  47
TORSDOF 9
ENDMDL
MODEL 8
REMARK VINA RESULT:      -6.8      4.021      7.772
REMARK  9 active torsions:
REMARK  status: ('A' for Active; 'I' for Inactive)
REMARK    1  A    between atoms: C_5  and  O_7 
REMARK    2  A    between atoms: O_7  and  C_8 
REMARK    3  A    between atoms: C_8  and  C_9 
REMARK    4  A    between atoms: C_9  and  C_10 
REMARK    5  A    between atoms: C_9  and  O_26 
REMARK    6  A    between atoms: C_10  and  O_11 
REMARK    7  A    between atoms: O_11  and  C_12 
REMARK    8  A    between atoms: C_21  and  C_23 
REMARK    9  A    between atoms: C_30  and  C_32 
ROOT
ATOM      1  C   LIG d   1       4.290  -3.944  -6.015  0.00  0.00     0.123 C 
ATOM      2  H   LIG d   1       3.882  -3.025  -6.434  0.00  0.00     0.066 H 
ENDROOT
BRANCH   1   3
ATOM      3  C   LIG d   1       4.576  -3.743  -4.525  0.00  0.00     0.119 C 
ATOM      4  H   LIG d   1       4.813  -4.703  -4.067  0.00  0.00     0.072 H 
ATOM      5  H   LIG d   1       3.698  -3.315  -4.041  0.00  0.00     0.072 H 
BRANCH   3   6
ATOM      6  O   LIG d   1       5.685  -2.854  -4.370  0.00  0.00    -0.488 OA
BRANCH   6   7
ATOM      7  C   LIG d   1       5.478  -1.734  -3.631  0.00  0.00     0.135 A 
ATOM      8  C   LIG d   1       6.227  -0.578  -3.875  0.00  0.00     0.105 A 
ATOM      9  C   LIG d   1       6.003   0.587  -3.118  0.00  0.00     0.143 A 
ATOM     10  C   LIG d   1       7.268  -0.539  -4.917  0.00  0.00     0.197 C 
ATOM     11  C   LIG d   1       5.040   0.567  -2.117  0.00  0.00    -0.018 A 
ATOM     12  O   LIG d   1       6.714   1.703  -3.366  0.00  0.00    -0.453 OA
ATOM     13  C   LIG d   1       4.312  -0.580  -1.878  0.00  0.00    -0.055 A 
ATOM     14  H   LIG d   1       4.862   1.452  -1.524  0.00  0.00     0.065 H 
ATOM     15  C   LIG d   1       4.523  -1.726  -2.628  0.00  0.00    -0.019 A 
ATOM     16  H   LIG d   1       3.570  -0.586  -1.094  0.00  0.00     0.062 H 
ATOM     17  H   LIG d   1       3.942  -2.613  -2.429  0.00  0.00     0.065 H 
ATOM     18  C   LIG d   1       7.838   1.676  -4.097  0.00  0.00     0.154 C 
ATOM     19  C   LIG d   1       8.174   0.626  -4.883  0.00  0.00     0.030 C 
ATOM     20  H   LIG d   1       9.081   0.639  -5.469  0.00  0.00     0.069 H 
ATOM     21  O   LIG d   1       7.374  -1.417  -5.756  0.00  0.00    -0.287 OA
BRANCH  18  22
ATOM     22  C   LIG d   1       8.748   2.842  -4.044  0.00  0.00     0.107 C 
ATOM     23  O   LIG d   1       8.990   3.476  -5.061  0.00  0.00    -0.542 OA
ATOM     24  O   LIG d   1       9.258   3.171  -2.983  0.00  0.00    -0.542 OA
ENDBRANCH  18  22
ENDBRANCH   6   7
ENDBRANCH   3   6
ENDBRANCH   1   3
BRANCH   1  25
ATOM     25  C   LIG d   1       5.590  -4.303  -6.739  0.00  0.00     0.119 C 
ATOM     26  H   LIG d   1       5.589  -3.854  -7.732  0.00  0.00     0.072 H 
ATOM     27  H   LIG d   1       6.439  -3.925  -6.169  0.00  0.00     0.072 H 
BRANCH  25  28
ATOM     28  O   LIG d   1       5.691  -5.724  -6.858  0.00  0.00    -0.488 OA
BRANCH  28  29
ATOM     29  C   LIG d   1       6.547  -6.353  -6.014  0.00  0.00     0.135 A 
ATOM     30  C   LIG d   1       6.190  -7.569  -5.423  0.00  0.00     0.105 A 
ATOM     31  C   LIG d   1       7.085  -8.232  -4.561  0.00  0.00     0.143 A 
ATOM     32  C   LIG d   1       4.880  -8.194  -5.675  0.00  0.00     0.197 C 
ATOM     33  C   LIG d   1       8.316  -7.648  -4.289  0.00  0.00    -0.018 A 
ATOM     34  O   LIG d   1       6.748  -9.413  -4.009  0.00  0.00    -0.453 OA
ATOM     35  C   LIG d   1       8.654  -6.442  -4.867  0.00  0.00    -0.055 A 
ATOM     36  H   LIG d   1       9.010  -8.140  -3.623  0.00  0.00     0.065 H 
ATOM     37  C   LIG d   1       7.783  -5.795  -5.727  0.00  0.00    -0.019 A 
ATOM     38  H   LIG d   1       9.614  -5.997  -4.647  0.00  0.00     0.062 H 
ATOM     39  H   LIG d   1       8.065  -4.854  -6.174  0.00  0.00     0.065 H 
ATOM     40  C   LIG d   1       5.474  -9.841  -3.990  0.00  0.00     0.154 C 
ATOM     41  C   LIG d   1       4.511  -9.309  -4.781  0.00  0.00     0.030 C 
ATOM     42  H   LIG d   1       3.500  -9.690  -4.756  0.00  0.00     0.069 H 
ATOM     43  O   LIG d   1       4.145  -7.813  -6.568  0.00  0.00    -0.287 OA
BRANCH  40  44
ATOM     44  C   LIG d   1       5.110 -10.949  -3.077  0.00  0.00     0.107 C 
ATOM     45  O   LIG d   1       5.984 -11.557  -2.477  0.00  0.00    -0.542 OA
ATOM     46  O   LIG d   1       3.938 -11.255  -2.924  0.00  0.00    -0.542 OA
ENDBRANCH  40  44
ENDBRANCH  28  29
ENDBRANCH  25  28
ENDBRANCH   1  25
BRANCH   1  47
ATOM     47  O   LIG d   1       3.345  -5.003  -6.180  0.00  0.00    -0.385 OA
ATOM     48  H   LIG d   1       2.905  -5.007  -7.041  0.00  0.00     0.210 HD
ENDBRANCH   1  47
TORSDOF 9
ENDMDL
MODEL 9
REMARK VINA RESULT:      -6.7      2.208      6.286
REMARK  9 active torsions:
REMARK  status: ('A' for Active; 'I' for Inactive)
REMARK    1  A    between atoms: C_5  and  O_7 
REMARK    2  A    between atoms: O_7  and  C_8 
REMARK    3  A    between atoms: C_8  and  C_9 
REMARK    4  A    between atoms: C_9  and  C_10 
REMARK    5  A    between atoms: C_9  and  O_26 
REMARK    6  A    between atoms: C_10  and  O_11 
REMARK    7  A    between atoms: O_11  and  C_12 
REMARK    8  A    between atoms: C_21  and  C_23 
REMARK    9  A    between atoms: C_30  and  C_32 
ROOT
ATOM      1  C   LIG d   1       3.715   0.778  -2.901  0.00  0.00     0.123 C 
ATOM      2  H   LIG d   1       2.968   0.988  -2.137  0.00  0.00     0.066 H 
ENDROOT
BRANCH   1   3
ATOM      3  C   LIG d   1       3.041   0.120  -4.107  0.00  0.00     0.119 C 
ATOM      4  H   LIG d   1       2.055   0.560  -4.257  0.00  0.00     0.072 H 
ATOM      5  H   LIG d   1       2.938  -0.950  -3.927  0.00  0.00     0.072 H 
BRANCH   3   6
ATOM      6  O   LIG d   1       3.840   0.332  -5.273  0.00  0.00    -0.488 OA
BRANCH   6   7
ATOM      7  C   LIG d   1       4.018  -0.731  -6.099  0.00  0.00     0.135 A 
ATOM      8  C   LIG d   1       3.650  -0.646  -7.446  0.00  0.00     0.105 A 
ATOM      9  C   LIG d   1       3.846  -1.743  -8.306  0.00  0.00     0.143 A 
ATOM     10  C   LIG d   1       3.046   0.575  -8.007  0.00  0.00     0.197 C 
ATOM     11  C   LIG d   1       4.395  -2.913  -7.795  0.00  0.00    -0.018 A 
ATOM     12  O   LIG d   1       3.507  -1.654  -9.606  0.00  0.00    -0.453 OA
ATOM     13  C   LIG d   1       4.747  -2.989  -6.463  0.00  0.00    -0.055 A 
ATOM     14  H   LIG d   1       4.545  -3.764  -8.441  0.00  0.00     0.065 H 
ATOM     15  C   LIG d   1       4.565  -1.908  -5.616  0.00  0.00    -0.019 A 
ATOM     16  H   LIG d   1       5.167  -3.904  -6.074  0.00  0.00     0.062 H 
ATOM     17  H   LIG d   1       4.849  -1.984  -4.578  0.00  0.00     0.065 H 
ATOM     18  C   LIG d   1       2.710  -0.677 -10.062  0.00  0.00     0.154 C 
ATOM     19  C   LIG d   1       2.444   0.443  -9.348  0.00  0.00     0.030 C 
ATOM     20  H   LIG d   1       1.807   1.217  -9.748  0.00  0.00     0.069 H 
ATOM     21  O   LIG d   1       3.046   1.631  -7.399  0.00  0.00    -0.287 OA
BRANCH  18  22
ATOM     22  C   LIG d   1       2.097  -0.827 -11.401  0.00  0.00     0.107 C 
ATOM     23  O   LIG d   1       0.883  -0.923 -11.511  0.00  0.00    -0.542 OA
ATOM     24  O   LIG d   1       2.805  -0.855 -12.397  0.00  0.00    -0.542 OA
ENDBRANCH  18  22
ENDBRANCH   6   7
ENDBRANCH   3   6
ENDBRANCH   1   3
BRANCH   1  25
ATOM     25  C   LIG d   1       4.776  -0.167  -2.332  0.00  0.00     0.119 C 
ATOM     26  H   LIG d   1       4.700  -0.186  -1.245  0.00  0.00     0.072 H 
ATOM     27  H   LIG d   1       4.617  -1.171  -2.726  0.00  0.00     0.072 H 
BRANCH  25  28
ATOM     28  O   LIG d   1       6.075   0.293  -2.711  0.00  0.00    -0.488 OA
BRANCH  28  29
ATOM     29  C   LIG d   1       6.856  -0.573  -3.406  0.00  0.00     0.135 A 
ATOM     30  C   LIG d   1       7.637  -0.119  -4.473  0.00  0.00     0.105 A 
ATOM     31  C   LIG d   1       8.462  -1.013  -5.182  0.00  0.00     0.143 A 
ATOM     32  C   LIG d   1       7.626   1.294  -4.891  0.00  0.00     0.197 C 
ATOM     33  C   LIG d   1       8.469  -2.355  -4.823  0.00  0.00    -0.018 A 
ATOM     34  O   LIG d   1       9.229  -0.570  -6.196  0.00  0.00    -0.453 OA
ATOM     35  C   LIG d   1       7.685  -2.795  -3.776  0.00  0.00    -0.055 A 
ATOM     36  H   LIG d   1       9.089  -3.055  -5.362  0.00  0.00     0.065 H 
ATOM     37  C   LIG d   1       6.884  -1.916  -3.067  0.00  0.00    -0.019 A 
ATOM     38  H   LIG d   1       7.697  -3.841  -3.506  0.00  0.00     0.062 H 
ATOM     39  H   LIG d   1       6.280  -2.277  -2.248  0.00  0.00     0.065 H 
ATOM     40  C   LIG d   1       9.013   0.626  -6.771  0.00  0.00     0.154 C 
ATOM     41  C   LIG d   1       8.258   1.590  -6.192  0.00  0.00     0.030 C 
ATOM     42  H   LIG d   1       8.120   2.548  -6.671  0.00  0.00     0.069 H 
ATOM     43  O   LIG d   1       7.126   2.166  -4.204  0.00  0.00    -0.287 OA
BRANCH  40  44
ATOM     44  C   LIG d   1       9.637   0.906  -8.084  0.00  0.00     0.107 C 
ATOM     45  O   LIG d   1       9.951  -0.017  -8.821  0.00  0.00    -0.542 OA
ATOM     46  O   LIG d   1       9.839   2.060  -8.431  0.00  0.00    -0.542 OA
ENDBRANCH  40  44
ENDBRANCH  28  29
ENDBRANCH  25  28
ENDBRANCH   1  25
BRANCH   1  47
ATOM     47  O   LIG d   1       4.335   1.999  -3.309  0.00  0.00    -0.385 OA
ATOM     48  H   LIG d   1       5.103   1.877  -3.884  0.00  0.00     0.210 HD
ENDBRANCH   1  47
TORSDOF 9
ENDMDL
MODEL 10
REMARK VINA RESULT:      -6.5      3.277      7.258
REMARK  9 active torsions:
REMARK  status: ('A' for Active; 'I' for Inactive)
REMARK    1  A    between atoms: C_5  and  O_7 
REMARK    2  A    between atoms: O_7  and  C_8 
REMARK    3  A    between atoms: C_8  and  C_9 
REMARK    4  A    between atoms: C_9  and  C_10 
REMARK    5  A    between atoms: C_9  and  O_26 
REMARK    6  A    between atoms: C_10  and  O_11 
REMARK    7  A    between atoms: O_11  and  C_12 
REMARK    8  A    between atoms: C_21  and  C_23 
REMARK    9  A    between atoms: C_30  and  C_32 
ROOT
ATOM      1  C   LIG d   1       8.738   1.360  -4.571  0.00  0.00     0.123 C 
ATOM      2  H   LIG d   1       9.539   1.449  -3.837  0.00  0.00     0.066 H 
ENDROOT
BRANCH   1   3
ATOM      3  C   LIG d   1       8.740   2.590  -5.480  0.00  0.00     0.119 C 
ATOM      4  H   LIG d   1       7.885   3.222  -5.239  0.00  0.00     0.072 H 
ATOM      5  H   LIG d   1       8.676   2.274  -6.521  0.00  0.00     0.072 H 
BRANCH   3   6
ATOM      6  O   LIG d   1       9.949   3.327  -5.281  0.00  0.00    -0.488 OA
BRANCH   6   7
ATOM      7  C   LIG d   1       9.867   4.450  -4.522  0.00  0.00     0.135 A 
ATOM      8  C   LIG d   1       9.754   5.705  -5.130  0.00  0.00     0.105 A 
ATOM      9  C   LIG d   1       9.656   6.869  -4.345  0.00  0.00     0.143 A 
ATOM     10  C   LIG d   1       9.740   5.855  -6.596  0.00  0.00     0.197 C 
ATOM     11  C   LIG d   1       9.688   6.754  -2.960  0.00  0.00    -0.018 A 
ATOM     12  O   LIG d   1       9.530   8.074  -4.931  0.00  0.00    -0.453 OA
ATOM     13  C   LIG d   1       9.808   5.512  -2.370  0.00  0.00    -0.055 A 
ATOM     14  H   LIG d   1       9.620   7.638  -2.345  0.00  0.00     0.065 H 
ATOM     15  C   LIG d   1       9.895   4.364  -3.140  0.00  0.00    -0.019 A 
ATOM     16  H   LIG d   1       9.838   5.435  -1.294  0.00  0.00     0.062 H 
ATOM     17  H   LIG d   1       9.985   3.401  -2.662  0.00  0.00     0.065 H 
ATOM     18  C   LIG d   1       9.798   8.256  -6.232  0.00  0.00     0.154 C 
ATOM     19  C   LIG d   1       9.907   7.229  -7.108  0.00  0.00     0.030 C 
ATOM     20  H   LIG d   1      10.112   7.410  -8.152  0.00  0.00     0.069 H 
ATOM     21  O   LIG d   1       9.597   4.901  -7.339  0.00  0.00    -0.287 OA
BRANCH  18  22
ATOM     22  C   LIG d   1       9.981   9.637  -6.733  0.00  0.00     0.107 C 
ATOM     23  O   LIG d   1       9.606  10.587  -6.060  0.00  0.00    -0.542 OA
ATOM     24  O   LIG d   1      10.506   9.829  -7.821  0.00  0.00    -0.542 OA
ENDBRANCH  18  22
ENDBRANCH   6   7
ENDBRANCH   3   6
ENDBRANCH   1   3
BRANCH   1  25
ATOM     25  C   LIG d   1       7.392   1.262  -3.850  0.00  0.00     0.119 C 
ATOM     26  H   LIG d   1       7.309   2.071  -3.124  0.00  0.00     0.072 H 
ATOM     27  H   LIG d   1       6.584   1.340  -4.577  0.00  0.00     0.072 H 
BRANCH  25  28
ATOM     28  O   LIG d   1       7.305   0.005  -3.174  0.00  0.00    -0.488 OA
BRANCH  28  29
ATOM     29  C   LIG d   1       6.069  -0.541  -3.047  0.00  0.00     0.135 A 
ATOM     30  C   LIG d   1       5.792  -1.796  -3.598  0.00  0.00     0.105 A 
ATOM     31  C   LIG d   1       4.515  -2.372  -3.451  0.00  0.00     0.143 A 
ATOM     32  C   LIG d   1       6.812  -2.554  -4.344  0.00  0.00     0.197 C 
ATOM     33  C   LIG d   1       3.530  -1.664  -2.773  0.00  0.00    -0.018 A 
ATOM     34  O   LIG d   1       4.256  -3.590  -3.964  0.00  0.00    -0.453 OA
ATOM     35  C   LIG d   1       3.810  -0.421  -2.245  0.00  0.00    -0.055 A 
ATOM     36  H   LIG d   1       2.543  -2.088  -2.660  0.00  0.00     0.065 H 
ATOM     37  C   LIG d   1       5.068   0.142  -2.375  0.00  0.00    -0.019 A 
ATOM     38  H   LIG d   1       3.036   0.121  -1.721  0.00  0.00     0.062 H 
ATOM     39  H   LIG d   1       5.271   1.114  -1.952  0.00  0.00     0.065 H 
ATOM     40  C   LIG d   1       5.062  -4.152  -4.881  0.00  0.00     0.154 C 
ATOM     41  C   LIG d   1       6.322  -3.715  -5.114  0.00  0.00     0.030 C 
ATOM     42  H   LIG d   1       6.952  -4.202  -5.844  0.00  0.00     0.069 H 
ATOM     43  O   LIG d   1       7.989  -2.242  -4.326  0.00  0.00    -0.287 OA
BRANCH  40  44
ATOM     44  C   LIG d   1       4.555  -5.305  -5.660  0.00  0.00     0.107 C 
ATOM     45  O   LIG d   1       3.401  -5.311  -6.062  0.00  0.00    -0.542 OA
ATOM     46  O   LIG d   1       5.291  -6.250  -5.901  0.00  0.00    -0.542 OA
ENDBRANCH  40  44
ENDBRANCH  28  29
ENDBRANCH  25  28
ENDBRANCH   1  25
BRANCH   1  47
ATOM     47  O   LIG d   1       8.943   0.185  -5.359  0.00  0.00    -0.385 OA
ATOM     48  H   LIG d   1       9.088  -0.617  -4.838  0.00  0.00     0.210 HD
ENDBRANCH   1  47
TORSDOF 9
ENDMDL
