MODEL 1
REMARK VINA RESULT:      -7.2      0.000      0.000
REMARK  5 active torsions:
REMARK  status: ('A' for Active; 'I' for Inactive)
REMARK    1  A    between atoms: C_4  and  C_7 
REMARK    2  A    between atoms: C_8  and  C_26 
REMARK    3  A    between atoms: C_11  and  O_16 
REMARK    4  A    between atoms: O_16  and  C_17 
REMARK    5  A    between atoms: C_17  and  C_18 
ROOT
ATOM      1  C   LIG d   1      10.314   7.462  -2.172  0.00  0.00     0.145 A 
ATOM      2  C   LIG d   1      10.549   6.220  -1.603  0.00  0.00     0.051 A 
ATOM      3  C   LIG d   1      10.124   5.236  -2.618  0.00  0.00     0.033 A 
ATOM      4  C   LIG d   1      10.101   3.846  -2.665  0.00  0.00    -0.009 A 
ATOM      5  C   LIG d   1       9.628   3.207  -3.797  0.00  0.00     0.122 A 
ATOM      6  C   LIG d   1       9.177   3.955  -4.881  0.00  0.00    -0.016 A 
ATOM      7  C   LIG d   1       9.196   5.332  -4.840  0.00  0.00    -0.015 A 
ATOM      8  C   LIG d   1       9.669   5.990  -3.711  0.00  0.00     0.137 A 
ATOM      9  O   LIG d   1       9.801   7.298  -3.401  0.00  0.00    -0.454 OA
ATOM     10  H   LIG d   1      10.452   3.268  -1.822  0.00  0.00     0.066 H 
ATOM     11  H   LIG d   1       8.808   3.451  -5.762  0.00  0.00     0.066 H 
ATOM     12  H   LIG d   1       8.844   5.901  -5.688  0.00  0.00     0.066 H 
ENDROOT
BRANCH   5  13
ATOM     13  O   LIG d   1       9.598   1.849  -3.849  0.00  0.00    -0.487 OA
BRANCH  13  14
ATOM     14  C   LIG d   1       8.719   1.256  -4.807  0.00  0.00     0.116 C 
ATOM     15  H   LIG d   1       8.313   2.032  -5.456  0.00  0.00     0.075 H 
ATOM     16  H   LIG d   1       9.271   0.532  -5.407  0.00  0.00     0.075 H 
BRANCH  14  17
ATOM     17  C   LIG d   1       7.591   0.559  -4.091  0.00  0.00     0.008 A 
ATOM     18  C   LIG d   1       7.528  -0.823  -4.081  0.00  0.00     0.049 A 
ATOM     19  C   LIG d   1       6.495  -1.464  -3.418  0.00  0.00    -0.025 A 
ATOM     20 CL   LIG d   1       8.749  -1.754  -4.892  0.00  0.00    -0.083 Cl
ATOM     21  C   LIG d   1       5.521  -0.721  -2.777  0.00  0.00     0.042 A 
ATOM     22  H   LIG d   1       6.448  -2.543  -3.408  0.00  0.00     0.065 H 
ATOM     23  C   LIG d   1       5.583   0.662  -2.792  0.00  0.00    -0.043 A 
ATOM     24 CL   LIG d   1       4.222  -1.524  -1.951  0.00  0.00    -0.084 Cl
ATOM     25  C   LIG d   1       6.617   1.300  -3.449  0.00  0.00    -0.053 A 
ATOM     26  H   LIG d   1       4.822   1.241  -2.291  0.00  0.00     0.063 H 
ATOM     27  H   LIG d   1       6.664   2.379  -3.461  0.00  0.00     0.062 H 
ENDBRANCH  14  17
ENDBRANCH  13  14
ENDBRANCH   5  13
BRANCH   2  28
ATOM     28  C   LIG d   1      11.102   5.942  -0.275  0.00  0.00     0.076 C 
ATOM     29  O   LIG d   1      10.402   6.061   0.713  0.00  0.00    -0.544 OA
ATOM     30  O   LIG d   1      12.388   5.554  -0.148  0.00  0.00    -0.544 OA
ENDBRANCH   2  28
BRANCH   1  31
ATOM     31  C   LIG d   1      10.586   8.761  -1.528  0.00  0.00     0.018 A 
ATOM     32  C   LIG d   1      11.772   9.447  -1.802  0.00  0.00    -0.051 A 
ATOM     33  C   LIG d   1      12.018  10.661  -1.197  0.00  0.00    -0.061 A 
ATOM     34  H   LIG d   1      12.493   9.027  -2.487  0.00  0.00     0.062 H 
ATOM     35  C   LIG d   1      11.095  11.200  -0.318  0.00  0.00    -0.062 A 
ATOM     36  H   LIG d   1      12.935  11.192  -1.408  0.00  0.00     0.062 H 
ATOM     37  C   LIG d   1       9.919  10.526  -0.041  0.00  0.00    -0.061 A 
ATOM     38  H   LIG d   1      11.293  12.152   0.153  0.00  0.00     0.062 H 
ATOM     39  C   LIG d   1       9.655   9.313  -0.643  0.00  0.00    -0.051 A 
ATOM     40  H   LIG d   1       9.203  10.952   0.646  0.00  0.00     0.062 H 
ATOM     41  H   LIG d   1       8.735   8.791  -0.430  0.00  0.00     0.062 H 
ENDBRANCH   1  31
TORSDOF 5
ENDMDL
MODEL 2
REMARK VINA RESULT:      -7.1      7.251     10.365
REMARK  5 active torsions:
REMARK  status: ('A' for Active; 'I' for Inactive)
REMARK    1  A    between atoms: C_4  and  C_7 
REMARK    2  A    between atoms: C_8  and  C_26 
REMARK    3  A    between atoms: C_11  and  O_16 
REMARK    4  A    between atoms: O_16  and  C_17 
REMARK    5  A    between atoms: C_17  and  C_18 
ROOT
ATOM      1  C   LIG d   1       6.659  -2.183  -3.549  0.00  0.00     0.145 A 
ATOM      2  C   LIG d   1       6.270  -3.099  -4.514  0.00  0.00     0.051 A 
ATOM      3  C   LIG d   1       7.413  -4.022  -4.663  0.00  0.00     0.033 A 
ATOM      4  C   LIG d   1       7.653  -5.139  -5.457  0.00  0.00    -0.009 A 
ATOM      5  C   LIG d   1       8.864  -5.802  -5.354  0.00  0.00     0.122 A 
ATOM      6  C   LIG d   1       9.832  -5.350  -4.463  0.00  0.00    -0.016 A 
ATOM      7  C   LIG d   1       9.599  -4.243  -3.675  0.00  0.00    -0.015 A 
ATOM      8  C   LIG d   1       8.389  -3.566  -3.765  0.00  0.00     0.137 A 
ATOM      9  O   LIG d   1       7.899  -2.479  -3.130  0.00  0.00    -0.454 OA
ATOM     10  H   LIG d   1       6.900  -5.488  -6.148  0.00  0.00     0.066 H 
ATOM     11  H   LIG d   1      10.775  -5.871  -4.388  0.00  0.00     0.066 H 
ATOM     12  H   LIG d   1      10.358  -3.902  -2.987  0.00  0.00     0.066 H 
ENDROOT
BRANCH   5  13
ATOM     13  O   LIG d   1       9.110  -6.891  -6.130  0.00  0.00    -0.487 OA
BRANCH  13  14
ATOM     14  C   LIG d   1       9.498  -8.091  -5.458  0.00  0.00     0.116 C 
ATOM     15  H   LIG d   1       9.901  -8.798  -6.182  0.00  0.00     0.075 H 
ATOM     16  H   LIG d   1      10.259  -7.860  -4.712  0.00  0.00     0.075 H 
BRANCH  14  17
ATOM     17  C   LIG d   1       8.297  -8.697  -4.778  0.00  0.00     0.008 A 
ATOM     18  C   LIG d   1       8.287  -8.855  -3.404  0.00  0.00     0.049 A 
ATOM     19  C   LIG d   1       7.182  -9.408  -2.779  0.00  0.00    -0.025 A 
ATOM     20 CL   LIG d   1       9.657  -8.354  -2.462  0.00  0.00    -0.083 Cl
ATOM     21  C   LIG d   1       6.094  -9.811  -3.531  0.00  0.00     0.042 A 
ATOM     22  H   LIG d   1       7.173  -9.528  -1.706  0.00  0.00     0.065 H 
ATOM     23  C   LIG d   1       6.108  -9.657  -4.907  0.00  0.00    -0.043 A 
ATOM     24 CL   LIG d   1       4.710 -10.510  -2.749  0.00  0.00    -0.084 Cl
ATOM     25  C   LIG d   1       7.209  -9.101  -5.529  0.00  0.00    -0.053 A 
ATOM     26  H   LIG d   1       5.258  -9.972  -5.493  0.00  0.00     0.063 H 
ATOM     27  H   LIG d   1       7.219  -8.981  -6.602  0.00  0.00     0.062 H 
ENDBRANCH  14  17
ENDBRANCH  13  14
ENDBRANCH   5  13
BRANCH   2  28
ATOM     28  C   LIG d   1       4.994  -3.143  -5.234  0.00  0.00     0.076 C 
ATOM     29  O   LIG d   1       4.213  -4.053  -5.032  0.00  0.00    -0.544 OA
ATOM     30  O   LIG d   1       4.686  -2.173  -6.120  0.00  0.00    -0.544 OA
ENDBRANCH   2  28
BRANCH   1  31
ATOM     31  C   LIG d   1       5.839  -1.058  -3.060  0.00  0.00     0.018 A 
ATOM     32  C   LIG d   1       4.672  -1.304  -2.333  0.00  0.00    -0.051 A 
ATOM     33  C   LIG d   1       3.911  -0.248  -1.878  0.00  0.00    -0.061 A 
ATOM     34  H   LIG d   1       4.366  -2.320  -2.128  0.00  0.00     0.062 H 
ATOM     35  C   LIG d   1       4.301   1.054  -2.141  0.00  0.00    -0.062 A 
ATOM     36  H   LIG d   1       3.008  -0.436  -1.316  0.00  0.00     0.062 H 
ATOM     37  C   LIG d   1       5.455   1.305  -2.862  0.00  0.00    -0.061 A 
ATOM     38  H   LIG d   1       3.701   1.877  -1.782  0.00  0.00     0.062 H 
ATOM     39  C   LIG d   1       6.230   0.258  -3.318  0.00  0.00    -0.051 A 
ATOM     40  H   LIG d   1       5.753   2.323  -3.064  0.00  0.00     0.062 H 
ATOM     41  H   LIG d   1       7.132   0.456  -3.875  0.00  0.00     0.062 H 
ENDBRANCH   1  31
TORSDOF 5
ENDMDL
MODEL 3
REMARK VINA RESULT:      -7.0      7.815     10.519
REMARK  5 active torsions:
REMARK  status: ('A' for Active; 'I' for Inactive)
REMARK    1  A    between atoms: C_4  and  C_7 
REMARK    2  A    between atoms: C_8  and  C_26 
REMARK    3  A    between atoms: C_11  and  O_16 
REMARK    4  A    between atoms: O_16  and  C_17 
REMARK    5  A    between atoms: C_17  and  C_18 
ROOT
ATOM      1  C   LIG d   1       4.917  -2.454  -4.206  0.00  0.00     0.145 A 
ATOM      2  C   LIG d   1       6.230  -2.879  -4.336  0.00  0.00     0.051 A 
ATOM      3  C   LIG d   1       6.155  -4.187  -5.016  0.00  0.00     0.033 A 
ATOM      4  C   LIG d   1       7.106  -5.116  -5.430  0.00  0.00    -0.009 A 
ATOM      5  C   LIG d   1       6.696  -6.279  -6.058  0.00  0.00     0.122 A 
ATOM      6  C   LIG d   1       5.342  -6.515  -6.271  0.00  0.00    -0.016 A 
ATOM      7  C   LIG d   1       4.396  -5.600  -5.863  0.00  0.00    -0.015 A 
ATOM      8  C   LIG d   1       4.790  -4.426  -5.231  0.00  0.00     0.137 A 
ATOM      9  O   LIG d   1       4.098  -3.376  -4.737  0.00  0.00    -0.454 OA
ATOM     10  H   LIG d   1       8.156  -4.930  -5.263  0.00  0.00     0.066 H 
ATOM     11  H   LIG d   1       5.028  -7.425  -6.762  0.00  0.00     0.066 H 
ATOM     12  H   LIG d   1       3.348  -5.794  -6.034  0.00  0.00     0.066 H 
ENDROOT
BRANCH   5  13
ATOM     13  O   LIG d   1       7.617  -7.194  -6.461  0.00  0.00    -0.487 OA
BRANCH  13  14
ATOM     14  C   LIG d   1       8.650  -7.527  -5.532  0.00  0.00     0.116 C 
ATOM     15  H   LIG d   1       9.437  -8.079  -6.045  0.00  0.00     0.075 H 
ATOM     16  H   LIG d   1       9.066  -6.612  -5.107  0.00  0.00     0.075 H 
BRANCH  14  17
ATOM     17  C   LIG d   1       8.078  -8.377  -4.427  0.00  0.00     0.008 A 
ATOM     18  C   LIG d   1       8.481  -8.175  -3.119  0.00  0.00     0.049 A 
ATOM     19  C   LIG d   1       7.951  -8.953  -2.104  0.00  0.00    -0.025 A 
ATOM     20 CL   LIG d   1       9.645  -6.941  -2.750  0.00  0.00    -0.083 Cl
ATOM     21  C   LIG d   1       7.029  -9.940  -2.400  0.00  0.00     0.042 A 
ATOM     22  H   LIG d   1       8.263  -8.793  -1.083  0.00  0.00     0.065 H 
ATOM     23  C   LIG d   1       6.630 -10.144  -3.710  0.00  0.00    -0.043 A 
ATOM     24 CL   LIG d   1       6.368 -10.920  -1.128  0.00  0.00    -0.084 Cl
ATOM     25  C   LIG d   1       7.155  -9.364  -4.722  0.00  0.00    -0.053 A 
ATOM     26  H   LIG d   1       5.909 -10.914  -3.941  0.00  0.00     0.063 H 
ATOM     27  H   LIG d   1       6.845  -9.523  -5.743  0.00  0.00     0.062 H 
ENDBRANCH  14  17
ENDBRANCH  13  14
ENDBRANCH   5  13
BRANCH   2  28
ATOM     28  C   LIG d   1       7.438  -2.178  -3.892  0.00  0.00     0.076 C 
ATOM     29  O   LIG d   1       8.039  -2.566  -2.908  0.00  0.00    -0.544 OA
ATOM     30  O   LIG d   1       7.882  -1.102  -4.574  0.00  0.00    -0.544 OA
ENDBRANCH   2  28
BRANCH   1  31
ATOM     31  C   LIG d   1       4.487  -1.189  -3.584  0.00  0.00     0.018 A 
ATOM     32  C   LIG d   1       4.848  -0.895  -2.267  0.00  0.00    -0.051 A 
ATOM     33  C   LIG d   1       4.443   0.291  -1.692  0.00  0.00    -0.061 A 
ATOM     34  H   LIG d   1       5.445  -1.596  -1.701  0.00  0.00     0.062 H 
ATOM     35  C   LIG d   1       3.678   1.189  -2.415  0.00  0.00    -0.062 A 
ATOM     36  H   LIG d   1       4.721   0.519  -0.673  0.00  0.00     0.062 H 
ATOM     37  C   LIG d   1       3.315   0.905  -3.720  0.00  0.00    -0.061 A 
ATOM     38  H   LIG d   1       3.364   2.116  -1.959  0.00  0.00     0.062 H 
ATOM     39  C   LIG d   1       3.719  -0.275  -4.311  0.00  0.00    -0.051 A 
ATOM     40  H   LIG d   1       2.718   1.610  -4.278  0.00  0.00     0.062 H 
ATOM     41  H   LIG d   1       3.439  -0.493  -5.330  0.00  0.00     0.062 H 
ENDBRANCH   1  31
TORSDOF 5
ENDMDL
MODEL 4
REMARK VINA RESULT:      -7.0      8.577     11.113
REMARK  5 active torsions:
REMARK  status: ('A' for Active; 'I' for Inactive)
REMARK    1  A    between atoms: C_4  and  C_7 
REMARK    2  A    between atoms: C_8  and  C_26 
REMARK    3  A    between atoms: C_11  and  O_16 
REMARK    4  A    between atoms: O_16  and  C_17 
REMARK    5  A    between atoms: C_17  and  C_18 
ROOT
ATOM      1  C   LIG d   1       3.932  -0.098  -5.700  0.00  0.00     0.145 A 
ATOM      2  C   LIG d   1       4.524  -0.738  -6.777  0.00  0.00     0.051 A 
ATOM      3  C   LIG d   1       4.081   0.008  -7.971  0.00  0.00     0.033 A 
ATOM      4  C   LIG d   1       4.319  -0.125  -9.335  0.00  0.00    -0.009 A 
ATOM      5  C   LIG d   1       3.736   0.765 -10.220  0.00  0.00     0.122 A 
ATOM      6  C   LIG d   1       2.917   1.784  -9.745  0.00  0.00    -0.016 A 
ATOM      7  C   LIG d   1       2.677   1.920  -8.395  0.00  0.00    -0.015 A 
ATOM      8  C   LIG d   1       3.254   1.035  -7.492  0.00  0.00     0.137 A 
ATOM      9  O   LIG d   1       3.196   0.933  -6.146  0.00  0.00    -0.454 OA
ATOM     10  H   LIG d   1       4.955  -0.917  -9.702  0.00  0.00     0.066 H 
ATOM     11  H   LIG d   1       2.464   2.475 -10.441  0.00  0.00     0.066 H 
ATOM     12  H   LIG d   1       2.039   2.715  -8.038  0.00  0.00     0.066 H 
ENDROOT
BRANCH   5  13
ATOM     13  O   LIG d   1       3.959   0.639 -11.555  0.00  0.00    -0.487 OA
BRANCH  13  14
ATOM     14  C   LIG d   1       4.266  -0.668 -12.042  0.00  0.00     0.116 C 
ATOM     15  H   LIG d   1       5.065  -0.603 -12.780  0.00  0.00     0.075 H 
ATOM     16  H   LIG d   1       4.588  -1.298 -11.212  0.00  0.00     0.075 H 
BRANCH  14  17
ATOM     17  C   LIG d   1       3.040  -1.268 -12.680  0.00  0.00     0.008 A 
ATOM     18  C   LIG d   1       3.084  -1.696 -13.995  0.00  0.00     0.049 A 
ATOM     19  C   LIG d   1       1.959  -2.251 -14.580  0.00  0.00    -0.025 A 
ATOM     20 CL   LIG d   1       4.552  -1.544 -14.909  0.00  0.00    -0.083 Cl
ATOM     21  C   LIG d   1       0.788  -2.367 -13.853  0.00  0.00     0.042 A 
ATOM     22  H   LIG d   1       1.994  -2.589 -15.605  0.00  0.00     0.065 H 
ATOM     23  C   LIG d   1       0.744  -1.934 -12.539  0.00  0.00    -0.043 A 
ATOM     24 CL   LIG d   1      -0.625  -3.058 -14.587  0.00  0.00    -0.084 Cl
ATOM     25  C   LIG d   1       1.869  -1.384 -11.954  0.00  0.00    -0.053 A 
ATOM     26  H   LIG d   1      -0.170  -2.024 -11.971  0.00  0.00     0.063 H 
ATOM     27  H   LIG d   1       1.834  -1.046 -10.929  0.00  0.00     0.062 H 
ENDBRANCH  14  17
ENDBRANCH  13  14
ENDBRANCH   5  13
BRANCH   2  28
ATOM     28  C   LIG d   1       5.405  -1.908  -6.738  0.00  0.00     0.076 C 
ATOM     29  O   LIG d   1       6.585  -1.773  -6.471  0.00  0.00    -0.544 OA
ATOM     30  O   LIG d   1       4.909  -3.135  -6.998  0.00  0.00    -0.544 OA
ENDBRANCH   2  28
BRANCH   1  31
ATOM     31  C   LIG d   1       4.084  -0.488  -4.285  0.00  0.00     0.018 A 
ATOM     32  C   LIG d   1       4.506   0.450  -3.340  0.00  0.00    -0.051 A 
ATOM     33  C   LIG d   1       4.645   0.078  -2.019  0.00  0.00    -0.061 A 
ATOM     34  H   LIG d   1       4.722   1.464  -3.643  0.00  0.00     0.062 H 
ATOM     35  C   LIG d   1       4.369  -1.220  -1.629  0.00  0.00    -0.062 A 
ATOM     36  H   LIG d   1       4.972   0.802  -1.287  0.00  0.00     0.062 H 
ATOM     37  C   LIG d   1       3.951  -2.155  -2.560  0.00  0.00    -0.061 A 
ATOM     38  H   LIG d   1       4.479  -1.506  -0.594  0.00  0.00     0.062 H 
ATOM     39  C   LIG d   1       3.801  -1.796  -3.884  0.00  0.00    -0.051 A 
ATOM     40  H   LIG d   1       3.738  -3.167  -2.250  0.00  0.00     0.062 H 
ATOM     41  H   LIG d   1       3.471  -2.525  -4.608  0.00  0.00     0.062 H 
ENDBRANCH   1  31
TORSDOF 5
ENDMDL
MODEL 5
REMARK VINA RESULT:      -6.9      4.906      8.993
REMARK  5 active torsions:
REMARK  status: ('A' for Active; 'I' for Inactive)
REMARK    1  A    between atoms: C_4  and  C_7 
REMARK    2  A    between atoms: C_8  and  C_26 
REMARK    3  A    between atoms: C_11  and  O_16 
REMARK    4  A    between atoms: O_16  and  C_17 
REMARK    5  A    between atoms: C_17  and  C_18 
ROOT
ATOM      1  C   LIG d   1       7.272   1.233  -3.933  0.00  0.00     0.145 A 
ATOM      2  C   LIG d   1       7.605   1.156  -5.277  0.00  0.00     0.051 A 
ATOM      3  C   LIG d   1       8.682   2.147  -5.473  0.00  0.00     0.033 A 
ATOM      4  C   LIG d   1       9.433   2.551  -6.572  0.00  0.00    -0.009 A 
ATOM      5  C   LIG d   1      10.395   3.533  -6.419  0.00  0.00     0.122 A 
ATOM      6  C   LIG d   1      10.606   4.112  -5.171  0.00  0.00    -0.016 A 
ATOM      7  C   LIG d   1       9.865   3.717  -4.079  0.00  0.00    -0.015 A 
ATOM      8  C   LIG d   1       8.895   2.731  -4.215  0.00  0.00     0.137 A 
ATOM      9  O   LIG d   1       8.040   2.160  -3.338  0.00  0.00    -0.454 OA
ATOM     10  H   LIG d   1       9.267   2.100  -7.540  0.00  0.00     0.066 H 
ATOM     11  H   LIG d   1      11.358   4.879  -5.058  0.00  0.00     0.066 H 
ATOM     12  H   LIG d   1      10.038   4.173  -3.116  0.00  0.00     0.066 H 
ENDROOT
BRANCH   5  13
ATOM     13  O   LIG d   1      11.130   3.938  -7.488  0.00  0.00    -0.487 OA
BRANCH  13  14
ATOM     14  C   LIG d   1      10.421   4.548  -8.569  0.00  0.00     0.116 C 
ATOM     15  H   LIG d   1      10.964   4.382  -9.499  0.00  0.00     0.075 H 
ATOM     16  H   LIG d   1       9.426   4.108  -8.645  0.00  0.00     0.075 H 
BRANCH  14  17
ATOM     17  C   LIG d   1      10.297   6.028  -8.316  0.00  0.00     0.008 A 
ATOM     18  C   LIG d   1       9.234   6.734  -8.851  0.00  0.00     0.049 A 
ATOM     19  C   LIG d   1       9.118   8.093  -8.615  0.00  0.00    -0.025 A 
ATOM     20 CL   LIG d   1       8.043   5.915  -9.812  0.00  0.00    -0.083 Cl
ATOM     21  C   LIG d   1      10.070   8.746  -7.854  0.00  0.00     0.042 A 
ATOM     22  H   LIG d   1       8.287   8.644  -9.029  0.00  0.00     0.065 H 
ATOM     23  C   LIG d   1      11.136   8.039  -7.323  0.00  0.00    -0.043 A 
ATOM     24 CL   LIG d   1       9.928  10.452  -7.562  0.00  0.00    -0.084 Cl
ATOM     25  C   LIG d   1      11.249   6.682  -7.556  0.00  0.00    -0.053 A 
ATOM     26  H   LIG d   1      11.879   8.549  -6.729  0.00  0.00     0.063 H 
ATOM     27  H   LIG d   1      12.080   6.131  -7.142  0.00  0.00     0.062 H 
ENDBRANCH  14  17
ENDBRANCH  13  14
ENDBRANCH   5  13
BRANCH   2  28
ATOM     28  C   LIG d   1       7.013   0.277  -6.288  0.00  0.00     0.076 C 
ATOM     29  O   LIG d   1       5.961   0.582  -6.818  0.00  0.00    -0.544 OA
ATOM     30  O   LIG d   1       7.634  -0.870  -6.633  0.00  0.00    -0.544 OA
ENDBRANCH   2  28
BRANCH   1  31
ATOM     31  C   LIG d   1       6.238   0.425  -3.262  0.00  0.00     0.018 A 
ATOM     32  C   LIG d   1       6.287  -0.970  -3.323  0.00  0.00    -0.051 A 
ATOM     33  C   LIG d   1       5.316  -1.719  -2.692  0.00  0.00    -0.061 A 
ATOM     34  H   LIG d   1       7.084  -1.460  -3.862  0.00  0.00     0.062 H 
ATOM     35  C   LIG d   1       4.294  -1.093  -2.000  0.00  0.00    -0.062 A 
ATOM     36  H   LIG d   1       5.353  -2.798  -2.738  0.00  0.00     0.062 H 
ATOM     37  C   LIG d   1       4.238   0.288  -1.937  0.00  0.00    -0.061 A 
ATOM     38  H   LIG d   1       3.536  -1.685  -1.508  0.00  0.00     0.062 H 
ATOM     39  C   LIG d   1       5.205   1.051  -2.558  0.00  0.00    -0.051 A 
ATOM     40  H   LIG d   1       3.437   0.771  -1.397  0.00  0.00     0.062 H 
ATOM     41  H   LIG d   1       5.163   2.128  -2.504  0.00  0.00     0.062 H 
ENDBRANCH   1  31
TORSDOF 5
ENDMDL
MODEL 6
REMARK VINA RESULT:      -6.9      8.801     11.306
REMARK  5 active torsions:
REMARK  status: ('A' for Active; 'I' for Inactive)
REMARK    1  A    between atoms: C_4  and  C_7 
REMARK    2  A    between atoms: C_8  and  C_26 
REMARK    3  A    between atoms: C_11  and  O_16 
REMARK    4  A    between atoms: O_16  and  C_17 
REMARK    5  A    between atoms: C_17  and  C_18 
ROOT
ATOM      1  C   LIG d   1       4.095  -1.407  -7.939  0.00  0.00     0.145 A 
ATOM      2  C   LIG d   1       4.438  -1.846  -6.669  0.00  0.00     0.051 A 
ATOM      3  C   LIG d   1       4.336  -3.317  -6.721  0.00  0.00     0.033 A 
ATOM      4  C   LIG d   1       4.546  -4.332  -5.792  0.00  0.00    -0.009 A 
ATOM      5  C   LIG d   1       4.359  -5.651  -6.168  0.00  0.00     0.122 A 
ATOM      6  C   LIG d   1       3.963  -5.956  -7.466  0.00  0.00    -0.016 A 
ATOM      7  C   LIG d   1       3.754  -4.955  -8.390  0.00  0.00    -0.015 A 
ATOM      8  C   LIG d   1       3.937  -3.625  -8.030  0.00  0.00     0.137 A 
ATOM      9  O   LIG d   1       3.807  -2.466  -8.711  0.00  0.00    -0.454 OA
ATOM     10  H   LIG d   1       4.853  -4.093  -4.785  0.00  0.00     0.066 H 
ATOM     11  H   LIG d   1       3.819  -6.987  -7.753  0.00  0.00     0.066 H 
ATOM     12  H   LIG d   1       3.446  -5.204  -9.395  0.00  0.00     0.066 H 
ENDROOT
BRANCH   5  13
ATOM     13  O   LIG d   1       4.557  -6.649  -5.266  0.00  0.00    -0.487 OA
BRANCH  13  14
ATOM     14  C   LIG d   1       5.005  -7.905  -5.777  0.00  0.00     0.116 C 
ATOM     15  H   LIG d   1       4.234  -8.334  -6.415  0.00  0.00     0.075 H 
ATOM     16  H   LIG d   1       5.917  -7.757  -6.357  0.00  0.00     0.075 H 
BRANCH  14  17
ATOM     17  C   LIG d   1       5.287  -8.842  -4.630  0.00  0.00     0.008 A 
ATOM     18  C   LIG d   1       6.571  -8.951  -4.126  0.00  0.00     0.049 A 
ATOM     19  C   LIG d   1       6.828  -9.808  -3.070  0.00  0.00    -0.025 A 
ATOM     20 CL   LIG d   1       7.857  -8.009  -4.813  0.00  0.00    -0.083 Cl
ATOM     21  C   LIG d   1       5.804 -10.563  -2.527  0.00  0.00     0.042 A 
ATOM     22  H   LIG d   1       7.830  -9.891  -2.674  0.00  0.00     0.065 H 
ATOM     23  C   LIG d   1       4.521 -10.456  -3.036  0.00  0.00    -0.043 A 
ATOM     24 CL   LIG d   1       6.128 -11.642  -1.206  0.00  0.00    -0.084 Cl
ATOM     25  C   LIG d   1       4.264  -9.597  -4.087  0.00  0.00    -0.053 A 
ATOM     26  H   LIG d   1       3.722 -11.045  -2.612  0.00  0.00     0.063 H 
ATOM     27  H   LIG d   1       3.263  -9.514  -4.484  0.00  0.00     0.062 H 
ENDBRANCH  14  17
ENDBRANCH  13  14
ENDBRANCH   5  13
BRANCH   2  28
ATOM     28  C   LIG d   1       4.821  -1.022  -5.519  0.00  0.00     0.076 C 
ATOM     29  O   LIG d   1       5.993  -0.914  -5.212  0.00  0.00    -0.544 OA
ATOM     30  O   LIG d   1       3.874  -0.385  -4.801  0.00  0.00    -0.544 OA
ENDBRANCH   2  28
BRANCH   1  31
ATOM     31  C   LIG d   1       4.053   0.002  -8.372  0.00  0.00     0.018 A 
ATOM     32  C   LIG d   1       5.211   0.629  -8.838  0.00  0.00    -0.051 A 
ATOM     33  C   LIG d   1       5.163   1.946  -9.243  0.00  0.00    -0.061 A 
ATOM     34  H   LIG d   1       6.141   0.082  -8.882  0.00  0.00     0.062 H 
ATOM     35  C   LIG d   1       3.971   2.648  -9.188  0.00  0.00    -0.062 A 
ATOM     36  H   LIG d   1       6.058   2.433  -9.603  0.00  0.00     0.062 H 
ATOM     37  C   LIG d   1       2.820   2.034  -8.726  0.00  0.00    -0.061 A 
ATOM     38  H   LIG d   1       3.940   3.680  -9.506  0.00  0.00     0.062 H 
ATOM     39  C   LIG d   1       2.851   0.715  -8.323  0.00  0.00    -0.051 A 
ATOM     40  H   LIG d   1       1.894   2.588  -8.685  0.00  0.00     0.062 H 
ATOM     41  H   LIG d   1       1.952   0.236  -7.969  0.00  0.00     0.062 H 
ENDBRANCH   1  31
TORSDOF 5
ENDMDL
MODEL 7
REMARK VINA RESULT:      -6.7      5.215      9.115
REMARK  5 active torsions:
REMARK  status: ('A' for Active; 'I' for Inactive)
REMARK    1  A    between atoms: C_4  and  C_7 
REMARK    2  A    between atoms: C_8  and  C_26 
REMARK    3  A    between atoms: C_11  and  O_16 
REMARK    4  A    between atoms: O_16  and  C_17 
REMARK    5  A    between atoms: C_17  and  C_18 
ROOT
ATOM      1  C   LIG d   1       6.672   0.796  -3.861  0.00  0.00     0.145 A 
ATOM      2  C   LIG d   1       7.213   0.709  -5.134  0.00  0.00     0.051 A 
ATOM      3  C   LIG d   1       8.379   1.614  -5.129  0.00  0.00     0.033 A 
ATOM      4  C   LIG d   1       9.328   1.970  -6.083  0.00  0.00    -0.009 A 
ATOM      5  C   LIG d   1      10.324   2.872  -5.751  0.00  0.00     0.122 A 
ATOM      6  C   LIG d   1      10.372   3.417  -4.473  0.00  0.00    -0.016 A 
ATOM      7  C   LIG d   1       9.435   3.068  -3.524  0.00  0.00    -0.015 A 
ATOM      8  C   LIG d   1       8.428   2.164  -3.840  0.00  0.00     0.137 A 
ATOM      9  O   LIG d   1       7.401   1.652  -3.127  0.00  0.00    -0.454 OA
ATOM     10  H   LIG d   1       9.288   1.545  -7.075  0.00  0.00     0.066 H 
ATOM     11  H   LIG d   1      11.152   4.121  -4.220  0.00  0.00     0.066 H 
ATOM     12  H   LIG d   1       9.483   3.498  -2.535  0.00  0.00     0.066 H 
ENDROOT
BRANCH   5  13
ATOM     13  O   LIG d   1      11.252   3.230  -6.678  0.00  0.00    -0.487 OA
BRANCH  13  14
ATOM     14  C   LIG d   1      11.463   4.629  -6.878  0.00  0.00     0.116 C 
ATOM     15  H   LIG d   1      11.042   5.183  -6.040  0.00  0.00     0.075 H 
ATOM     16  H   LIG d   1      12.533   4.829  -6.945  0.00  0.00     0.075 H 
BRANCH  14  17
ATOM     17  C   LIG d   1      10.791   5.061  -8.156  0.00  0.00     0.008 A 
ATOM     18  C   LIG d   1       9.922   6.138  -8.150  0.00  0.00     0.049 A 
ATOM     19  C   LIG d   1       9.309   6.537  -9.325  0.00  0.00    -0.025 A 
ATOM     20 CL   LIG d   1       9.608   6.992  -6.672  0.00  0.00    -0.083 Cl
ATOM     21  C   LIG d   1       9.556   5.852 -10.500  0.00  0.00     0.042 A 
ATOM     22  H   LIG d   1       8.633   7.380  -9.321  0.00  0.00     0.065 H 
ATOM     23  C   LIG d   1      10.421   4.772 -10.504  0.00  0.00    -0.043 A 
ATOM     24 CL   LIG d   1       8.782   6.349 -11.973  0.00  0.00    -0.084 Cl
ATOM     25  C   LIG d   1      11.037   4.377  -9.331  0.00  0.00    -0.053 A 
ATOM     26  H   LIG d   1      10.614   4.238 -11.422  0.00  0.00     0.063 H 
ATOM     27  H   LIG d   1      11.712   3.534  -9.334  0.00  0.00     0.062 H 
ENDBRANCH  14  17
ENDBRANCH  13  14
ENDBRANCH   5  13
BRANCH   2  28
ATOM     28  C   LIG d   1       6.728  -0.108  -6.250  0.00  0.00     0.076 C 
ATOM     29  O   LIG d   1       7.277  -1.161  -6.516  0.00  0.00    -0.544 OA
ATOM     30  O   LIG d   1       5.674   0.306  -6.981  0.00  0.00    -0.544 OA
ENDBRANCH   2  28
BRANCH   1  31
ATOM     31  C   LIG d   1       5.484   0.064  -3.386  0.00  0.00     0.018 A 
ATOM     32  C   LIG d   1       5.566  -1.301  -3.102  0.00  0.00    -0.051 A 
ATOM     33  C   LIG d   1       4.450  -1.979  -2.658  0.00  0.00    -0.061 A 
ATOM     34  H   LIG d   1       6.502  -1.825  -3.231  0.00  0.00     0.062 H 
ATOM     35  C   LIG d   1       3.250  -1.310  -2.493  0.00  0.00    -0.062 A 
ATOM     36  H   LIG d   1       4.513  -3.035  -2.439  0.00  0.00     0.062 H 
ATOM     37  C   LIG d   1       3.160   0.042  -2.772  0.00  0.00    -0.061 A 
ATOM     38  H   LIG d   1       2.380  -1.846  -2.144  0.00  0.00     0.062 H 
ATOM     39  C   LIG d   1       4.270   0.735  -3.212  0.00  0.00    -0.051 A 
ATOM     40  H   LIG d   1       2.221   0.558  -2.642  0.00  0.00     0.062 H 
ATOM     41  H   LIG d   1       4.200   1.790  -3.425  0.00  0.00     0.062 H 
ENDBRANCH   1  31
TORSDOF 5
ENDMDL
MODEL 8
REMARK VINA RESULT:      -6.5      7.767     11.448
REMARK  5 active torsions:
REMARK  status: ('A' for Active; 'I' for Inactive)
REMARK    1  A    between atoms: C_4  and  C_7 
REMARK    2  A    between atoms: C_8  and  C_26 
REMARK    3  A    between atoms: C_11  and  O_16 
REMARK    4  A    between atoms: O_16  and  C_17 
REMARK    5  A    between atoms: C_17  and  C_18 
ROOT
ATOM      1  C   LIG d   1       4.483  -2.069  -4.875  0.00  0.00     0.145 A 
ATOM      2  C   LIG d   1       4.393  -1.899  -6.248  0.00  0.00     0.051 A 
ATOM      3  C   LIG d   1       4.443  -3.260  -6.817  0.00  0.00     0.033 A 
ATOM      4  C   LIG d   1       4.398  -3.767  -8.112  0.00  0.00    -0.009 A 
ATOM      5  C   LIG d   1       4.470  -5.134  -8.314  0.00  0.00     0.122 A 
ATOM      6  C   LIG d   1       4.586  -5.993  -7.226  0.00  0.00    -0.016 A 
ATOM      7  C   LIG d   1       4.631  -5.497  -5.941  0.00  0.00    -0.015 A 
ATOM      8  C   LIG d   1       4.560  -4.127  -5.720  0.00  0.00     0.137 A 
ATOM      9  O   LIG d   1       4.580  -3.378  -4.596  0.00  0.00    -0.454 OA
ATOM     10  H   LIG d   1       4.308  -3.098  -8.955  0.00  0.00     0.066 H 
ATOM     11  H   LIG d   1       4.642  -7.059  -7.390  0.00  0.00     0.066 H 
ATOM     12  H   LIG d   1       4.721  -6.174  -5.104  0.00  0.00     0.066 H 
ENDROOT
BRANCH   5  13
ATOM     13  O   LIG d   1       4.432  -5.638  -9.576  0.00  0.00    -0.487 OA
BRANCH  13  14
ATOM     14  C   LIG d   1       3.468  -5.078 -10.470  0.00  0.00     0.116 C 
ATOM     15  H   LIG d   1       3.242  -4.056 -10.167  0.00  0.00     0.075 H 
ATOM     16  H   LIG d   1       3.870  -5.077 -11.483  0.00  0.00     0.075 H 
BRANCH  14  17
ATOM     17  C   LIG d   1       2.208  -5.904 -10.430  0.00  0.00     0.008 A 
ATOM     18  C   LIG d   1       0.973  -5.281 -10.428  0.00  0.00     0.049 A 
ATOM     19  C   LIG d   1      -0.184  -6.041 -10.396  0.00  0.00    -0.025 A 
ATOM     20 CL   LIG d   1       0.874  -3.549 -10.472  0.00  0.00    -0.083 Cl
ATOM     21  C   LIG d   1      -0.104  -7.420 -10.355  0.00  0.00     0.042 A 
ATOM     22  H   LIG d   1      -1.149  -5.555 -10.398  0.00  0.00     0.065 H 
ATOM     23  C   LIG d   1       1.133  -8.042 -10.353  0.00  0.00    -0.043 A 
ATOM     24 CL   LIG d   1      -1.555  -8.373 -10.310  0.00  0.00    -0.084 Cl
ATOM     25  C   LIG d   1       2.287  -7.284 -10.389  0.00  0.00    -0.053 A 
ATOM     26  H   LIG d   1       1.195  -9.119 -10.321  0.00  0.00     0.063 H 
ATOM     27  H   LIG d   1       3.252  -7.769 -10.386  0.00  0.00     0.062 H 
ENDBRANCH  14  17
ENDBRANCH  13  14
ENDBRANCH   5  13
BRANCH   2  28
ATOM     28  C   LIG d   1       4.273  -0.635  -6.980  0.00  0.00     0.076 C 
ATOM     29  O   LIG d   1       5.247   0.081  -7.121  0.00  0.00    -0.544 OA
ATOM     30  O   LIG d   1       3.083  -0.265  -7.497  0.00  0.00    -0.544 OA
ENDBRANCH   2  28
BRANCH   1  31
ATOM     31  C   LIG d   1       4.474  -0.982  -3.878  0.00  0.00     0.018 A 
ATOM     32  C   LIG d   1       5.665  -0.342  -3.527  0.00  0.00    -0.051 A 
ATOM     33  C   LIG d   1       5.648   0.674  -2.594  0.00  0.00    -0.061 A 
ATOM     34  H   LIG d   1       6.596  -0.641  -3.985  0.00  0.00     0.062 H 
ATOM     35  C   LIG d   1       4.457   1.059  -2.006  0.00  0.00    -0.062 A 
ATOM     36  H   LIG d   1       6.569   1.170  -2.321  0.00  0.00     0.062 H 
ATOM     37  C   LIG d   1       3.273   0.428  -2.348  0.00  0.00    -0.061 A 
ATOM     38  H   LIG d   1       4.450   1.855  -1.276  0.00  0.00     0.062 H 
ATOM     39  C   LIG d   1       3.273  -0.586  -3.284  0.00  0.00    -0.051 A 
ATOM     40  H   LIG d   1       2.347   0.733  -1.884  0.00  0.00     0.062 H 
ATOM     41  H   LIG d   1       2.349  -1.073  -3.553  0.00  0.00     0.062 H 
ENDBRANCH   1  31
TORSDOF 5
ENDMDL
MODEL 9
REMARK VINA RESULT:      -6.4      8.819     11.492
REMARK  5 active torsions:
REMARK  status: ('A' for Active; 'I' for Inactive)
REMARK    1  A    between atoms: C_4  and  C_7 
REMARK    2  A    between atoms: C_8  and  C_26 
REMARK    3  A    between atoms: C_11  and  O_16 
REMARK    4  A    between atoms: O_16  and  C_17 
REMARK    5  A    between atoms: C_17  and  C_18 
ROOT
ATOM      1  C   LIG d   1       4.134  -1.284  -7.925  0.00  0.00     0.145 A 
ATOM      2  C   LIG d   1       4.463  -1.716  -6.650  0.00  0.00     0.051 A 
ATOM      3  C   LIG d   1       4.349  -3.187  -6.691  0.00  0.00     0.033 A 
ATOM      4  C   LIG d   1       4.542  -4.197  -5.754  0.00  0.00    -0.009 A 
ATOM      5  C   LIG d   1       4.348  -5.517  -6.122  0.00  0.00     0.122 A 
ATOM      6  C   LIG d   1       3.960  -5.828  -7.421  0.00  0.00    -0.016 A 
ATOM      7  C   LIG d   1       3.766  -4.832  -8.354  0.00  0.00    -0.015 A 
ATOM      8  C   LIG d   1       3.958  -3.501  -8.002  0.00  0.00     0.137 A 
ATOM      9  O   LIG d   1       3.844  -2.346  -8.693  0.00  0.00    -0.454 OA
ATOM     10  H   LIG d   1       4.843  -3.953  -4.746  0.00  0.00     0.066 H 
ATOM     11  H   LIG d   1       3.809  -6.860  -7.702  0.00  0.00     0.066 H 
ATOM     12  H   LIG d   1       3.465  -5.086  -9.359  0.00  0.00     0.066 H 
ENDROOT
BRANCH   5  13
ATOM     13  O   LIG d   1       4.529  -6.510  -5.211  0.00  0.00    -0.487 OA
BRANCH  13  14
ATOM     14  C   LIG d   1       5.614  -7.410  -5.440  0.00  0.00     0.116 C 
ATOM     15  H   LIG d   1       6.149  -7.112  -6.341  0.00  0.00     0.075 H 
ATOM     16  H   LIG d   1       6.294  -7.385  -4.588  0.00  0.00     0.075 H 
BRANCH  14  17
ATOM     17  C   LIG d   1       5.079  -8.808  -5.613  0.00  0.00     0.008 A 
ATOM     18  C   LIG d   1       5.137  -9.423  -6.851  0.00  0.00     0.049 A 
ATOM     19  C   LIG d   1       4.649 -10.709  -7.008  0.00  0.00    -0.025 A 
ATOM     20 CL   LIG d   1       5.828  -8.585  -8.205  0.00  0.00    -0.083 Cl
ATOM     21  C   LIG d   1       4.094 -11.373  -5.930  0.00  0.00     0.042 A 
ATOM     22  H   LIG d   1       4.698 -11.190  -7.974  0.00  0.00     0.065 H 
ATOM     23  C   LIG d   1       4.032 -10.755  -4.693  0.00  0.00    -0.043 A 
ATOM     24 CL   LIG d   1       3.477 -12.984  -6.128  0.00  0.00    -0.084 Cl
ATOM     25  C   LIG d   1       4.523  -9.473  -4.536  0.00  0.00    -0.053 A 
ATOM     26  H   LIG d   1       3.598 -11.274  -3.852  0.00  0.00     0.063 H 
ATOM     27  H   LIG d   1       4.474  -8.991  -3.571  0.00  0.00     0.062 H 
ENDBRANCH  14  17
ENDBRANCH  13  14
ENDBRANCH   5  13
BRANCH   2  28
ATOM     28  C   LIG d   1       4.843  -0.888  -5.503  0.00  0.00     0.076 C 
ATOM     29  O   LIG d   1       5.948  -0.380  -5.459  0.00  0.00    -0.544 OA
ATOM     30  O   LIG d   1       3.968  -0.687  -4.496  0.00  0.00    -0.544 OA
ENDBRANCH   2  28
BRANCH   1  31
ATOM     31  C   LIG d   1       4.107   0.122  -8.370  0.00  0.00     0.018 A 
ATOM     32  C   LIG d   1       2.920   0.856  -8.309  0.00  0.00    -0.051 A 
ATOM     33  C   LIG d   1       2.903   2.170  -8.725  0.00  0.00    -0.061 A 
ATOM     34  H   LIG d   1       2.018   0.394  -7.935  0.00  0.00     0.062 H 
ATOM     35  C   LIG d   1       4.058   2.763  -9.204  0.00  0.00    -0.062 A 
ATOM     36  H   LIG d   1       1.985   2.739  -8.679  0.00  0.00     0.062 H 
ATOM     37  C   LIG d   1       5.237   2.042  -9.269  0.00  0.00    -0.061 A 
ATOM     38  H   LIG d   1       4.039   3.793  -9.529  0.00  0.00     0.062 H 
ATOM     39  C   LIG d   1       5.271   0.728  -8.850  0.00  0.00    -0.051 A 
ATOM     40  H   LIG d   1       6.135   2.511  -9.645  0.00  0.00     0.062 H 
ATOM     41  H   LIG d   1       6.193   0.169  -8.897  0.00  0.00     0.062 H 
ENDBRANCH   1  31
TORSDOF 5
ENDMDL
MODEL 10
REMARK VINA RESULT:      -6.3      9.914     12.542
REMARK  5 active torsions:
REMARK  status: ('A' for Active; 'I' for Inactive)
REMARK    1  A    between atoms: C_4  and  C_7 
REMARK    2  A    between atoms: C_8  and  C_26 
REMARK    3  A    between atoms: C_11  and  O_16 
REMARK    4  A    between atoms: O_16  and  C_17 
REMARK    5  A    between atoms: C_17  and  C_18 
ROOT
ATOM      1  C   LIG d   1       4.066  -1.503  -7.907  0.00  0.00     0.145 A 
ATOM      2  C   LIG d   1       3.616  -2.663  -8.518  0.00  0.00     0.051 A 
ATOM      3  C   LIG d   1       3.985  -3.759  -7.603  0.00  0.00     0.033 A 
ATOM      4  C   LIG d   1       3.819  -5.141  -7.635  0.00  0.00    -0.009 A 
ATOM      5  C   LIG d   1       4.293  -5.910  -6.587  0.00  0.00     0.122 A 
ATOM      6  C   LIG d   1       4.931  -5.303  -5.510  0.00  0.00    -0.016 A 
ATOM      7  C   LIG d   1       5.099  -3.936  -5.473  0.00  0.00    -0.015 A 
ATOM      8  C   LIG d   1       4.629  -3.147  -6.517  0.00  0.00     0.137 A 
ATOM      9  O   LIG d   1       4.653  -1.815  -6.741  0.00  0.00    -0.454 OA
ATOM     10  H   LIG d   1       3.323  -5.609  -8.472  0.00  0.00     0.066 H 
ATOM     11  H   LIG d   1       5.299  -5.909  -4.695  0.00  0.00     0.066 H 
ATOM     12  H   LIG d   1       5.596  -3.476  -4.632  0.00  0.00     0.066 H 
ENDROOT
BRANCH   5  13
ATOM     13  O   LIG d   1       4.140  -7.261  -6.613  0.00  0.00    -0.487 OA
BRANCH  13  14
ATOM     14  C   LIG d   1       4.810  -8.009  -5.596  0.00  0.00     0.116 C 
ATOM     15  H   LIG d   1       5.865  -7.736  -5.580  0.00  0.00     0.075 H 
ATOM     16  H   LIG d   1       4.362  -7.787  -4.627  0.00  0.00     0.075 H 
BRANCH  14  17
ATOM     17  C   LIG d   1       4.676  -9.482  -5.886  0.00  0.00     0.008 A 
ATOM     18  C   LIG d   1       4.290 -10.351  -4.881  0.00  0.00     0.049 A 
ATOM     19  C   LIG d   1       4.162 -11.703  -5.149  0.00  0.00    -0.025 A 
ATOM     20 CL   LIG d   1       3.957  -9.746  -3.289  0.00  0.00    -0.083 Cl
ATOM     21  C   LIG d   1       4.433 -12.185  -6.416  0.00  0.00     0.042 A 
ATOM     22  H   LIG d   1       3.857 -12.382  -4.366  0.00  0.00     0.065 H 
ATOM     23  C   LIG d   1       4.824 -11.315  -7.419  0.00  0.00    -0.043 A 
ATOM     24 CL   LIG d   1       4.278 -13.882  -6.751  0.00  0.00    -0.084 Cl
ATOM     25  C   LIG d   1       4.947  -9.964  -7.153  0.00  0.00    -0.053 A 
ATOM     26  H   LIG d   1       5.035 -11.691  -8.408  0.00  0.00     0.063 H 
ATOM     27  H   LIG d   1       5.252  -9.286  -7.934  0.00  0.00     0.062 H 
ENDBRANCH  14  17
ENDBRANCH  13  14
ENDBRANCH   5  13
BRANCH   2  28
ATOM     28  C   LIG d   1       2.920  -2.775  -9.803  0.00  0.00     0.076 C 
ATOM     29  O   LIG d   1       3.499  -3.237 -10.769  0.00  0.00    -0.544 OA
ATOM     30  O   LIG d   1       1.639  -2.368  -9.915  0.00  0.00    -0.544 OA
ENDBRANCH   2  28
BRANCH   1  31
ATOM     31  C   LIG d   1       3.923  -0.139  -8.451  0.00  0.00     0.018 A 
ATOM     32  C   LIG d   1       2.981   0.738  -7.909  0.00  0.00    -0.051 A 
ATOM     33  C   LIG d   1       2.854   2.011  -8.422  0.00  0.00    -0.061 A 
ATOM     34  H   LIG d   1       2.354   0.419  -7.089  0.00  0.00     0.062 H 
ATOM     35  C   LIG d   1       3.656   2.421  -9.473  0.00  0.00    -0.062 A 
ATOM     36  H   LIG d   1       2.125   2.691  -8.004  0.00  0.00     0.062 H 
ATOM     37  C   LIG d   1       4.590   1.557 -10.016  0.00  0.00    -0.061 A 
ATOM     38  H   LIG d   1       3.552   3.420  -9.871  0.00  0.00     0.062 H 
ATOM     39  C   LIG d   1       4.733   0.282  -9.508  0.00  0.00    -0.051 A 
ATOM     40  H   LIG d   1       5.213   1.883 -10.836  0.00  0.00     0.062 H 
ATOM     41  H   LIG d   1       5.466  -0.389  -9.929  0.00  0.00     0.062 H 
ENDBRANCH   1  31
TORSDOF 5
ENDMDL
