MODEL 1
REMARK VINA RESULT:      -5.1      0.000      0.000
REMARK  4 active torsions:
REMARK  status: ('A' for Active; 'I' for Inactive)
REMARK    1  A    between atoms: C_1  and  C_2 
REMARK    2  A    between atoms: C_2  and  O_3 
REMARK    3  A    between atoms: O_3  and  C_4 
REMARK    4  A    between atoms: C_4  and  C_6 
ROOT
ATOM      1  C   LIG d   1       4.738  -0.747  -2.971  0.00  0.00     0.087 C 
ATOM      2  H   LIG d   1       5.183  -0.820  -1.978  0.00  0.00     0.046 H 
ATOM      3  C   LIG d   1       4.436  -2.131  -3.505  0.00  0.00    -0.017 C 
ATOM      4  C   LIG d   1       5.210  -2.743  -4.393  0.00  0.00     0.197 C 
ATOM      5  O   LIG d   1       6.361  -2.196  -4.891  0.00  0.00    -0.454 OA
ATOM      6  C   LIG d   1       6.881  -1.136  -4.108  0.00  0.00     0.206 C 
ATOM      7  H   LIG d   1       7.187  -1.513  -3.133  0.00  0.00     0.106 H 
ATOM      8  C   LIG d   1       5.725  -0.104  -3.937  0.00  0.00     0.040 C 
ATOM      9  H   LIG d   1       5.252   0.132  -4.890  0.00  0.00     0.037 H 
ATOM     10  C   LIG d   1       6.494   1.094  -3.363  0.00  0.00    -0.020 C 
ATOM     11  C   LIG d   1       7.931   0.886  -3.904  0.00  0.00     0.052 C 
ATOM     12  O   LIG d   1       7.926  -0.349  -4.671  0.00  0.00    -0.341 OA
ATOM     13  C   LIG d   1       4.822  -4.043  -4.853  0.00  0.00     0.137 C 
ATOM     14  N   LIG d   1       4.513  -5.073  -5.218  0.00  0.00    -0.188 NA
ATOM     15  H   LIG d   1       3.554  -2.643  -3.148  0.00  0.00     0.062 H 
ATOM     16  H   LIG d   1       6.075   2.031  -3.730  0.00  0.00     0.029 H 
ATOM     17  H   LIG d   1       6.486   1.070  -2.273  0.00  0.00     0.029 H 
ATOM     18  H   LIG d   1       8.210   1.723  -4.546  0.00  0.00     0.056 H 
ATOM     19  H   LIG d   1       8.632   0.802  -3.074  0.00  0.00     0.056 H 
ENDROOT
BRANCH   1  20
ATOM     20  C   LIG d   1       3.473   0.069  -2.909  0.00  0.00     0.315 C 
ATOM     21  O   LIG d   1       3.338   0.912  -2.055  0.00  0.00    -0.250 OA
BRANCH  20  22
ATOM     22  O   LIG d   1       2.496  -0.141  -3.806  0.00  0.00    -0.465 OA
BRANCH  22  23
ATOM     23  C   LIG d   1       2.373   0.810  -4.865  0.00  0.00     0.090 C 
ATOM     24  H   LIG d   1       2.978   1.688  -4.639  0.00  0.00     0.069 H 
ATOM     25  H   LIG d   1       1.329   1.106  -4.969  0.00  0.00     0.069 H 
BRANCH  23  26
ATOM     26  C   LIG d   1       2.856   0.181  -6.174  0.00  0.00    -0.031 C 
ATOM     27  H   LIG d   1       2.579   0.824  -7.010  0.00  0.00     0.026 H 
ATOM     28  H   LIG d   1       3.940   0.069  -6.145  0.00  0.00     0.026 H 
ATOM     29  H   LIG d   1       2.392  -0.797  -6.299  0.00  0.00     0.026 H 
ENDBRANCH  23  26
ENDBRANCH  22  23
ENDBRANCH  20  22
ENDBRANCH   1  20
TORSDOF 4
ENDMDL
MODEL 2
REMARK VINA RESULT:      -5.0      2.391      4.567
REMARK  4 active torsions:
REMARK  status: ('A' for Active; 'I' for Inactive)
REMARK    1  A    between atoms: C_1  and  C_2 
REMARK    2  A    between atoms: C_2  and  O_3 
REMARK    3  A    between atoms: O_3  and  C_4 
REMARK    4  A    between atoms: C_4  and  C_6 
ROOT
ATOM      1  C   LIG d   1       5.108  -1.344  -4.535  0.00  0.00     0.087 C 
ATOM      2  H   LIG d   1       6.088  -0.866  -4.518  0.00  0.00     0.046 H 
ATOM      3  C   LIG d   1       4.432  -1.089  -5.866  0.00  0.00    -0.017 C 
ATOM      4  C   LIG d   1       3.485  -0.172  -6.027  0.00  0.00     0.197 C 
ATOM      5  O   LIG d   1       3.047   0.642  -5.018  0.00  0.00    -0.454 OA
ATOM      6  C   LIG d   1       3.937   0.726  -3.919  0.00  0.00     0.206 C 
ATOM      7  H   LIG d   1       4.868   1.198  -4.233  0.00  0.00     0.106 H 
ATOM      8  C   LIG d   1       4.214  -0.738  -3.460  0.00  0.00     0.040 C 
ATOM      9  H   LIG d   1       3.291  -1.305  -3.345  0.00  0.00     0.037 H 
ATOM     10  C   LIG d   1       4.911  -0.489  -2.115  0.00  0.00    -0.020 C 
ATOM     11  C   LIG d   1       4.351   0.887  -1.675  0.00  0.00     0.052 C 
ATOM     12  O   LIG d   1       3.460   1.345  -2.728  0.00  0.00    -0.341 OA
ATOM     13  C   LIG d   1       2.892  -0.027  -7.323  0.00  0.00     0.137 C 
ATOM     14  N   LIG d   1       2.422   0.088  -8.350  0.00  0.00    -0.188 NA
ATOM     15  H   LIG d   1       4.733  -1.677  -6.721  0.00  0.00     0.062 H 
ATOM     16  H   LIG d   1       4.643  -1.263  -1.395  0.00  0.00     0.029 H 
ATOM     17  H   LIG d   1       5.992  -0.442  -2.245  0.00  0.00     0.029 H 
ATOM     18  H   LIG d   1       3.800   0.781  -0.739  0.00  0.00     0.056 H 
ATOM     19  H   LIG d   1       5.168   1.597  -1.549  0.00  0.00     0.056 H 
ENDROOT
BRANCH   1  20
ATOM     20  C   LIG d   1       5.254  -2.826  -4.307  0.00  0.00     0.315 C 
ATOM     21  O   LIG d   1       4.294  -3.487  -3.991  0.00  0.00    -0.250 OA
BRANCH  20  22
ATOM     22  O   LIG d   1       6.453  -3.412  -4.455  0.00  0.00    -0.465 OA
BRANCH  22  23
ATOM     23  C   LIG d   1       7.592  -2.683  -3.993  0.00  0.00     0.090 C 
ATOM     24  H   LIG d   1       7.312  -2.079  -3.130  0.00  0.00     0.069 H 
ATOM     25  H   LIG d   1       7.955  -2.033  -4.788  0.00  0.00     0.069 H 
BRANCH  23  26
ATOM     26  C   LIG d   1       8.697  -3.663  -3.592  0.00  0.00    -0.031 C 
ATOM     27  H   LIG d   1       9.311  -3.893  -4.463  0.00  0.00     0.026 H 
ATOM     28  H   LIG d   1       9.318  -3.214  -2.817  0.00  0.00     0.026 H 
ATOM     29  H   LIG d   1       8.247  -4.581  -3.213  0.00  0.00     0.026 H 
ENDBRANCH  23  26
ENDBRANCH  22  23
ENDBRANCH  20  22
ENDBRANCH   1  20
TORSDOF 4
ENDMDL
MODEL 3
REMARK VINA RESULT:      -4.9      2.353      3.271
REMARK  4 active torsions:
REMARK  status: ('A' for Active; 'I' for Inactive)
REMARK    1  A    between atoms: C_1  and  C_2 
REMARK    2  A    between atoms: C_2  and  O_3 
REMARK    3  A    between atoms: O_3  and  C_4 
REMARK    4  A    between atoms: C_4  and  C_6 
ROOT
ATOM      1  C   LIG d   1       5.578  -1.321  -3.585  0.00  0.00     0.087 C 
ATOM      2  H   LIG d   1       5.851  -0.266  -3.564  0.00  0.00     0.046 H 
ATOM      3  C   LIG d   1       6.795  -2.177  -3.302  0.00  0.00    -0.017 C 
ATOM      4  C   LIG d   1       7.472  -2.800  -4.258  0.00  0.00     0.197 C 
ATOM      5  O   LIG d   1       7.153  -2.713  -5.585  0.00  0.00    -0.454 OA
ATOM      6  C   LIG d   1       6.326  -1.610  -5.908  0.00  0.00     0.206 C 
ATOM      7  H   LIG d   1       6.860  -0.679  -5.719  0.00  0.00     0.106 H 
ATOM      8  C   LIG d   1       5.080  -1.703  -4.974  0.00  0.00     0.040 C 
ATOM      9  H   LIG d   1       4.647  -2.702  -4.980  0.00  0.00     0.037 H 
ATOM     10  C   LIG d   1       4.154  -0.668  -5.628  0.00  0.00    -0.020 C 
ATOM     11  C   LIG d   1       4.627  -0.651  -7.104  0.00  0.00     0.052 C 
ATOM     12  O   LIG d   1       5.744  -1.576  -7.207  0.00  0.00    -0.341 OA
ATOM     13  C   LIG d   1       8.595  -3.605  -3.881  0.00  0.00     0.137 C 
ATOM     14  N   LIG d   1       9.485  -4.244  -3.582  0.00  0.00    -0.188 NA
ATOM     15  H   LIG d   1       7.125  -2.283  -2.279  0.00  0.00     0.062 H 
ATOM     16  H   LIG d   1       3.114  -0.987  -5.561  0.00  0.00     0.029 H 
ATOM     17  H   LIG d   1       4.288   0.312  -5.170  0.00  0.00     0.029 H 
ATOM     18  H   LIG d   1       3.815  -0.971  -7.758  0.00  0.00     0.056 H 
ATOM     19  H   LIG d   1       4.953   0.352  -7.377  0.00  0.00     0.056 H 
ENDROOT
BRANCH   1  20
ATOM     20  C   LIG d   1       4.505  -1.595  -2.563  0.00  0.00     0.315 C 
ATOM     21  O   LIG d   1       3.830  -2.593  -2.646  0.00  0.00    -0.250 OA
BRANCH  20  22
ATOM     22  O   LIG d   1       4.301  -0.729  -1.557  0.00  0.00    -0.465 OA
BRANCH  22  23
ATOM     23  C   LIG d   1       4.698   0.626  -1.779  0.00  0.00     0.090 C 
ATOM     24  H   LIG d   1       5.568   0.647  -2.435  0.00  0.00     0.069 H 
ATOM     25  H   LIG d   1       4.950   1.091  -0.826  0.00  0.00     0.069 H 
BRANCH  23  26
ATOM     26  C   LIG d   1       3.548   1.394  -2.432  0.00  0.00    -0.031 C 
ATOM     27  H   LIG d   1       3.621   2.450  -2.171  0.00  0.00     0.026 H 
ATOM     28  H   LIG d   1       3.604   1.283  -3.515  0.00  0.00     0.026 H 
ATOM     29  H   LIG d   1       2.597   0.998  -2.075  0.00  0.00     0.026 H 
ENDBRANCH  23  26
ENDBRANCH  22  23
ENDBRANCH  20  22
ENDBRANCH   1  20
TORSDOF 4
ENDMDL
MODEL 4
REMARK VINA RESULT:      -4.8      2.463      4.438
REMARK  4 active torsions:
REMARK  status: ('A' for Active; 'I' for Inactive)
REMARK    1  A    between atoms: C_1  and  C_2 
REMARK    2  A    between atoms: C_2  and  O_3 
REMARK    3  A    between atoms: O_3  and  C_4 
REMARK    4  A    between atoms: C_4  and  C_6 
ROOT
ATOM      1  C   LIG d   1       5.237  -1.655  -4.805  0.00  0.00     0.087 C 
ATOM      2  H   LIG d   1       6.208  -1.169  -4.708  0.00  0.00     0.046 H 
ATOM      3  C   LIG d   1       4.581  -1.245  -6.107  0.00  0.00    -0.017 C 
ATOM      4  C   LIG d   1       3.622  -0.329  -6.170  0.00  0.00     0.197 C 
ATOM      5  O   LIG d   1       3.153   0.345  -5.076  0.00  0.00    -0.454 OA
ATOM      6  C   LIG d   1       4.021   0.304  -3.958  0.00  0.00     0.206 C 
ATOM      7  H   LIG d   1       4.949   0.825  -4.191  0.00  0.00     0.106 H 
ATOM      8  C   LIG d   1       4.315  -1.202  -3.681  0.00  0.00     0.040 C 
ATOM      9  H   LIG d   1       3.399  -1.792  -3.656  0.00  0.00     0.037 H 
ATOM     10  C   LIG d   1       4.982  -1.114  -2.302  0.00  0.00    -0.020 C 
ATOM     11  C   LIG d   1       4.392   0.187  -1.703  0.00  0.00     0.052 C 
ATOM     12  O   LIG d   1       3.512   0.761  -2.708  0.00  0.00    -0.341 OA
ATOM     13  C   LIG d   1       3.050  -0.031  -7.449  0.00  0.00     0.137 C 
ATOM     14  N   LIG d   1       2.596   0.206  -8.463  0.00  0.00    -0.188 NA
ATOM     15  H   LIG d   1       4.907  -1.716  -7.022  0.00  0.00     0.062 H 
ATOM     16  H   LIG d   1       4.715  -1.976  -1.690  0.00  0.00     0.029 H 
ATOM     17  H   LIG d   1       6.065  -1.035  -2.403  0.00  0.00     0.029 H 
ATOM     18  H   LIG d   1       3.826  -0.043  -0.800  0.00  0.00     0.056 H 
ATOM     19  H   LIG d   1       5.195   0.888  -1.473  0.00  0.00     0.056 H 
ENDROOT
BRANCH   1  20
ATOM     20  C   LIG d   1       5.404  -3.152  -4.762  0.00  0.00     0.315 C 
ATOM     21  O   LIG d   1       6.504  -3.635  -4.640  0.00  0.00    -0.250 OA
BRANCH  20  22
ATOM     22  O   LIG d   1       4.328  -3.949  -4.857  0.00  0.00    -0.465 OA
BRANCH  22  23
ATOM     23  C   LIG d   1       4.476  -5.150  -5.617  0.00  0.00     0.090 C 
ATOM     24  H   LIG d   1       3.985  -5.972  -5.097  0.00  0.00     0.069 H 
ATOM     25  H   LIG d   1       5.535  -5.377  -5.736  0.00  0.00     0.069 H 
BRANCH  23  26
ATOM     26  C   LIG d   1       3.837  -4.964  -6.995  0.00  0.00    -0.031 C 
ATOM     27  H   LIG d   1       3.268  -4.034  -7.009  0.00  0.00     0.026 H 
ATOM     28  H   LIG d   1       4.616  -4.925  -7.755  0.00  0.00     0.026 H 
ATOM     29  H   LIG d   1       3.169  -5.801  -7.201  0.00  0.00     0.026 H 
ENDBRANCH  23  26
ENDBRANCH  22  23
ENDBRANCH  20  22
ENDBRANCH   1  20
TORSDOF 4
ENDMDL
MODEL 5
REMARK VINA RESULT:      -4.7      2.625      3.566
REMARK  4 active torsions:
REMARK  status: ('A' for Active; 'I' for Inactive)
REMARK    1  A    between atoms: C_1  and  C_2 
REMARK    2  A    between atoms: C_2  and  O_3 
REMARK    3  A    between atoms: O_3  and  C_4 
REMARK    4  A    between atoms: C_4  and  C_6 
ROOT
ATOM      1  C   LIG d   1       4.267  -0.986  -5.162  0.00  0.00     0.087 C 
ATOM      2  H   LIG d   1       3.886  -2.002  -5.264  0.00  0.00     0.046 H 
ATOM      3  C   LIG d   1       4.269  -0.297  -6.510  0.00  0.00    -0.017 C 
ATOM      4  C   LIG d   1       5.368  -0.150  -7.240  0.00  0.00     0.197 C 
ATOM      5  O   LIG d   1       6.593  -0.625  -6.859  0.00  0.00    -0.454 OA
ATOM      6  C   LIG d   1       6.537  -1.621  -5.853  0.00  0.00     0.206 C 
ATOM      7  H   LIG d   1       6.036  -2.508  -6.239  0.00  0.00     0.106 H 
ATOM      8  C   LIG d   1       5.710  -1.017  -4.677  0.00  0.00     0.040 C 
ATOM      9  H   LIG d   1       6.061  -0.022  -4.409  0.00  0.00     0.037 H 
ATOM     10  C   LIG d   1       5.992  -2.045  -3.573  0.00  0.00    -0.020 C 
ATOM     11  C   LIG d   1       7.367  -2.634  -3.977  0.00  0.00     0.052 C 
ATOM     12  O   LIG d   1       7.759  -1.993  -5.222  0.00  0.00    -0.341 OA
ATOM     13  C   LIG d   1       5.266   0.539  -8.491  0.00  0.00     0.137 C 
ATOM     14  N   LIG d   1       5.186   1.086  -9.483  0.00  0.00    -0.188 NA
ATOM     15  H   LIG d   1       3.337   0.091  -6.894  0.00  0.00     0.062 H 
ATOM     16  H   LIG d   1       6.053  -1.557  -2.600  0.00  0.00     0.029 H 
ATOM     17  H   LIG d   1       5.227  -2.822  -3.566  0.00  0.00     0.029 H 
ATOM     18  H   LIG d   1       8.104  -2.423  -3.201  0.00  0.00     0.056 H 
ATOM     19  H   LIG d   1       7.280  -3.710  -4.128  0.00  0.00     0.056 H 
ENDROOT
BRANCH   1  20
ATOM     20  C   LIG d   1       3.415  -0.213  -4.189  0.00  0.00     0.315 C 
ATOM     21  O   LIG d   1       2.422  -0.717  -3.721  0.00  0.00    -0.250 OA
BRANCH  20  22
ATOM     22  O   LIG d   1       3.760   1.037  -3.842  0.00  0.00    -0.465 OA
BRANCH  22  23
ATOM     23  C   LIG d   1       3.572   1.406  -2.474  0.00  0.00     0.090 C 
ATOM     24  H   LIG d   1       2.629   0.996  -2.114  0.00  0.00     0.069 H 
ATOM     25  H   LIG d   1       3.551   2.492  -2.391  0.00  0.00     0.069 H 
BRANCH  23  26
ATOM     26  C   LIG d   1       4.725   0.852  -1.634  0.00  0.00    -0.031 C 
ATOM     27  H   LIG d   1       5.449   1.645  -1.444  0.00  0.00     0.026 H 
ATOM     28  H   LIG d   1       4.337   0.479  -0.686  0.00  0.00     0.026 H 
ATOM     29  H   LIG d   1       5.210   0.040  -2.174  0.00  0.00     0.026 H 
ENDBRANCH  23  26
ENDBRANCH  22  23
ENDBRANCH  20  22
ENDBRANCH   1  20
TORSDOF 4
ENDMDL
MODEL 6
REMARK VINA RESULT:      -4.6      2.427      4.596
REMARK  4 active torsions:
REMARK  status: ('A' for Active; 'I' for Inactive)
REMARK    1  A    between atoms: C_1  and  C_2 
REMARK    2  A    between atoms: C_2  and  O_3 
REMARK    3  A    between atoms: O_3  and  C_4 
REMARK    4  A    between atoms: C_4  and  C_6 
ROOT
ATOM      1  C   LIG d   1       6.778   0.419  -4.374  0.00  0.00     0.087 C 
ATOM      2  H   LIG d   1       6.012   0.530  -5.141  0.00  0.00     0.046 H 
ATOM      3  C   LIG d   1       7.494  -0.904  -4.544  0.00  0.00    -0.017 C 
ATOM      4  C   LIG d   1       7.231  -1.965  -3.791  0.00  0.00     0.197 C 
ATOM      5  O   LIG d   1       6.277  -1.974  -2.811  0.00  0.00    -0.454 OA
ATOM      6  C   LIG d   1       5.325  -0.930  -2.924  0.00  0.00     0.206 C 
ATOM      7  H   LIG d   1       4.744  -1.058  -3.837  0.00  0.00     0.106 H 
ATOM      8  C   LIG d   1       6.134   0.401  -2.993  0.00  0.00     0.040 C 
ATOM      9  H   LIG d   1       6.882   0.458  -2.204  0.00  0.00     0.037 H 
ATOM     10  C   LIG d   1       5.010   1.428  -2.798  0.00  0.00    -0.020 C 
ATOM     11  C   LIG d   1       3.943   0.640  -1.998  0.00  0.00     0.052 C 
ATOM     12  O   LIG d   1       4.450  -0.711  -1.821  0.00  0.00    -0.341 OA
ATOM     13  C   LIG d   1       7.982  -3.163  -4.018  0.00  0.00     0.137 C 
ATOM     14  N   LIG d   1       8.579  -4.113  -4.197  0.00  0.00    -0.188 NA
ATOM     15  H   LIG d   1       8.251  -0.988  -5.310  0.00  0.00     0.062 H 
ATOM     16  H   LIG d   1       5.368   2.284  -2.225  0.00  0.00     0.029 H 
ATOM     17  H   LIG d   1       4.611   1.749  -3.761  0.00  0.00     0.029 H 
ATOM     18  H   LIG d   1       3.786   1.110  -1.026  0.00  0.00     0.056 H 
ATOM     19  H   LIG d   1       3.007   0.613  -2.555  0.00  0.00     0.056 H 
ENDROOT
BRANCH   1  20
ATOM     20  C   LIG d   1       7.765   1.555  -4.464  0.00  0.00     0.315 C 
ATOM     21  O   LIG d   1       7.907   2.151  -5.505  0.00  0.00    -0.250 OA
BRANCH  20  22
ATOM     22  O   LIG d   1       8.486   1.903  -3.387  0.00  0.00    -0.465 OA
BRANCH  22  23
ATOM     23  C   LIG d   1       9.302   3.071  -3.503  0.00  0.00     0.090 C 
ATOM     24  H   LIG d   1       8.815   3.906  -2.999  0.00  0.00     0.069 H 
ATOM     25  H   LIG d   1       9.441   3.314  -4.555  0.00  0.00     0.069 H 
BRANCH  23  26
ATOM     26  C   LIG d   1      10.664   2.808  -2.856  0.00  0.00    -0.031 C 
ATOM     27  H   LIG d   1      10.553   2.066  -2.065  0.00  0.00     0.026 H 
ATOM     28  H   LIG d   1      11.358   2.436  -3.609  0.00  0.00     0.026 H 
ATOM     29  H   LIG d   1      11.049   3.735  -2.433  0.00  0.00     0.026 H 
ENDBRANCH  23  26
ENDBRANCH  22  23
ENDBRANCH  20  22
ENDBRANCH   1  20
TORSDOF 4
ENDMDL
MODEL 7
REMARK VINA RESULT:      -4.6      2.971      4.629
REMARK  4 active torsions:
REMARK  status: ('A' for Active; 'I' for Inactive)
REMARK    1  A    between atoms: C_1  and  C_2 
REMARK    2  A    between atoms: C_2  and  O_3 
REMARK    3  A    between atoms: O_3  and  C_4 
REMARK    4  A    between atoms: C_4  and  C_6 
ROOT
ATOM      1  C   LIG d   1       5.727  -0.572  -5.129  0.00  0.00     0.087 C 
ATOM      2  H   LIG d   1       5.929  -1.604  -4.841  0.00  0.00     0.046 H 
ATOM      3  C   LIG d   1       6.958   0.279  -4.898  0.00  0.00    -0.017 C 
ATOM      4  C   LIG d   1       7.091   1.078  -3.846  0.00  0.00     0.197 C 
ATOM      5  O   LIG d   1       6.147   1.190  -2.863  0.00  0.00    -0.454 OA
ATOM      6  C   LIG d   1       5.222   0.117  -2.826  0.00  0.00     0.206 C 
ATOM      7  H   LIG d   1       5.740  -0.807  -2.570  0.00  0.00     0.106 H 
ATOM      8  C   LIG d   1       4.618   0.004  -4.259  0.00  0.00     0.040 C 
ATOM      9  H   LIG d   1       4.283   0.972  -4.631  0.00  0.00     0.037 H 
ATOM     10  C   LIG d   1       3.446  -0.952  -4.000  0.00  0.00    -0.020 C 
ATOM     11  C   LIG d   1       3.114  -0.712  -2.506  0.00  0.00     0.052 C 
ATOM     12  O   LIG d   1       4.067   0.267  -2.007  0.00  0.00    -0.341 OA
ATOM     13  C   LIG d   1       8.285   1.861  -3.734  0.00  0.00     0.137 C 
ATOM     14  N   LIG d   1       9.232   2.482  -3.644  0.00  0.00    -0.188 NA
ATOM     15  H   LIG d   1       7.761   0.236  -5.619  0.00  0.00     0.062 H 
ATOM     16  H   LIG d   1       2.594  -0.694  -4.630  0.00  0.00     0.029 H 
ATOM     17  H   LIG d   1       3.749  -1.986  -4.166  0.00  0.00     0.029 H 
ATOM     18  H   LIG d   1       2.099  -0.327  -2.408  0.00  0.00     0.056 H 
ATOM     19  H   LIG d   1       3.216  -1.643  -1.949  0.00  0.00     0.056 H 
ENDROOT
BRANCH   1  20
ATOM     20  C   LIG d   1       5.325  -0.513  -6.581  0.00  0.00     0.315 C 
ATOM     21  O   LIG d   1       5.573  -1.438  -7.315  0.00  0.00    -0.250 OA
BRANCH  20  22
ATOM     22  O   LIG d   1       4.689   0.570  -7.056  0.00  0.00    -0.465 OA
BRANCH  22  23
ATOM     23  C   LIG d   1       3.443   0.350  -7.722  0.00  0.00     0.090 C 
ATOM     24  H   LIG d   1       2.698   0.019  -6.999  0.00  0.00     0.069 H 
ATOM     25  H   LIG d   1       3.571  -0.414  -8.488  0.00  0.00     0.069 H 
BRANCH  23  26
ATOM     26  C   LIG d   1       2.977   1.654  -8.374  0.00  0.00    -0.031 C 
ATOM     27  H   LIG d   1       3.828   2.149  -8.842  0.00  0.00     0.026 H 
ATOM     28  H   LIG d   1       2.223   1.433  -9.129  0.00  0.00     0.026 H 
ATOM     29  H   LIG d   1       2.550   2.307  -7.614  0.00  0.00     0.026 H 
ENDBRANCH  23  26
ENDBRANCH  22  23
ENDBRANCH  20  22
ENDBRANCH   1  20
TORSDOF 4
ENDMDL
MODEL 8
REMARK VINA RESULT:      -4.4      2.242      3.410
REMARK  4 active torsions:
REMARK  status: ('A' for Active; 'I' for Inactive)
REMARK    1  A    between atoms: C_1  and  C_2 
REMARK    2  A    between atoms: C_2  and  O_3 
REMARK    3  A    between atoms: O_3  and  C_4 
REMARK    4  A    between atoms: C_4  and  C_6 
ROOT
ATOM      1  C   LIG d   1       4.787  -1.192  -5.491  0.00  0.00     0.087 C 
ATOM      2  H   LIG d   1       3.860  -1.763  -5.536  0.00  0.00     0.046 H 
ATOM      3  C   LIG d   1       5.966  -2.130  -5.335  0.00  0.00    -0.017 C 
ATOM      4  C   LIG d   1       6.569  -2.338  -4.171  0.00  0.00     0.197 C 
ATOM      5  O   LIG d   1       6.172  -1.747  -3.002  0.00  0.00    -0.454 OA
ATOM      6  C   LIG d   1       4.853  -1.233  -3.035  0.00  0.00     0.206 C 
ATOM      7  H   LIG d   1       4.141  -2.049  -3.155  0.00  0.00     0.106 H 
ATOM      8  C   LIG d   1       4.779  -0.282  -4.269  0.00  0.00     0.040 C 
ATOM      9  H   LIG d   1       5.615   0.416  -4.288  0.00  0.00     0.037 H 
ATOM     10  C   LIG d   1       3.443   0.425  -4.006  0.00  0.00    -0.020 C 
ATOM     11  C   LIG d   1       3.293   0.341  -2.466  0.00  0.00     0.052 C 
ATOM     12  O   LIG d   1       4.445  -0.390  -1.962  0.00  0.00    -0.341 OA
ATOM     13  C   LIG d   1       7.691  -3.228  -4.136  0.00  0.00     0.137 C 
ATOM     14  N   LIG d   1       8.581  -3.932  -4.108  0.00  0.00    -0.188 NA
ATOM     15  H   LIG d   1       6.330  -2.652  -6.207  0.00  0.00     0.062 H 
ATOM     16  H   LIG d   1       3.486   1.464  -4.333  0.00  0.00     0.029 H 
ATOM     17  H   LIG d   1       2.626  -0.101  -4.501  0.00  0.00     0.029 H 
ATOM     18  H   LIG d   1       3.273   1.345  -2.040  0.00  0.00     0.056 H 
ATOM     19  H   LIG d   1       2.378  -0.191  -2.210  0.00  0.00     0.056 H 
ENDROOT
BRANCH   1  20
ATOM     20  C   LIG d   1       4.946  -0.369  -6.743  0.00  0.00     0.315 C 
ATOM     21  O   LIG d   1       5.851   0.426  -6.834  0.00  0.00    -0.250 OA
BRANCH  20  22
ATOM     22  O   LIG d   1       4.080  -0.520  -7.758  0.00  0.00    -0.465 OA
BRANCH  22  23
ATOM     23  C   LIG d   1       2.824   0.153  -7.644  0.00  0.00     0.090 C 
ATOM     24  H   LIG d   1       2.591   0.312  -6.591  0.00  0.00     0.069 H 
ATOM     25  H   LIG d   1       2.044  -0.455  -8.100  0.00  0.00     0.069 H 
BRANCH  23  26
ATOM     26  C   LIG d   1       2.902   1.503  -8.360  0.00  0.00    -0.031 C 
ATOM     27  H   LIG d   1       2.251   1.489  -9.234  0.00  0.00     0.026 H 
ATOM     28  H   LIG d   1       2.582   2.294  -7.681  0.00  0.00     0.026 H 
ATOM     29  H   LIG d   1       3.929   1.688  -8.675  0.00  0.00     0.026 H 
ENDBRANCH  23  26
ENDBRANCH  22  23
ENDBRANCH  20  22
ENDBRANCH   1  20
TORSDOF 4
ENDMDL
MODEL 9
REMARK VINA RESULT:      -4.4     10.633     12.498
REMARK  4 active torsions:
REMARK  status: ('A' for Active; 'I' for Inactive)
REMARK    1  A    between atoms: C_1  and  C_2 
REMARK    2  A    between atoms: C_2  and  O_3 
REMARK    3  A    between atoms: O_3  and  C_4 
REMARK    4  A    between atoms: C_4  and  C_6 
ROOT
ATOM      1  C   LIG d   1      10.243   8.938  -1.488  0.00  0.00     0.087 C 
ATOM      2  H   LIG d   1      11.292   8.807  -1.223  0.00  0.00     0.046 H 
ATOM      3  C   LIG d   1      10.092   8.987  -2.994  0.00  0.00    -0.017 C 
ATOM      4  C   LIG d   1       9.932  10.122  -3.663  0.00  0.00     0.197 C 
ATOM      5  O   LIG d   1       9.914  11.352  -3.064  0.00  0.00    -0.454 OA
ATOM      6  C   LIG d   1      10.475  11.368  -1.764  0.00  0.00     0.206 C 
ATOM      7  H   LIG d   1      11.538  11.134  -1.818  0.00  0.00     0.106 H 
ATOM      8  C   LIG d   1       9.732  10.267  -0.947  0.00  0.00     0.040 C 
ATOM      9  H   LIG d   1       8.651  10.350  -1.052  0.00  0.00     0.037 H 
ATOM     10  C   LIG d   1      10.201  10.602   0.476  0.00  0.00    -0.020 C 
ATOM     11  C   LIG d   1      10.521  12.116   0.398  0.00  0.00     0.052 C 
ATOM     12  O   LIG d   1      10.278  12.536  -0.973  0.00  0.00    -0.341 OA
ATOM     13  C   LIG d   1       9.774  10.056  -5.085  0.00  0.00     0.137 C 
ATOM     14  N   LIG d   1       9.647  10.004  -6.213  0.00  0.00    -0.188 NA
ATOM     15  H   LIG d   1      10.114   8.059  -3.546  0.00  0.00     0.062 H 
ATOM     16  H   LIG d   1       9.406  10.413   1.197  0.00  0.00     0.029 H 
ATOM     17  H   LIG d   1      11.095  10.032   0.730  0.00  0.00     0.029 H 
ATOM     18  H   LIG d   1       9.872  12.668   1.078  0.00  0.00     0.056 H 
ATOM     19  H   LIG d   1      11.566  12.288   0.656  0.00  0.00     0.056 H 
ENDROOT
BRANCH   1  20
ATOM     20  C   LIG d   1       9.425   7.805  -0.924  0.00  0.00     0.315 C 
ATOM     21  O   LIG d   1       8.220   7.883  -0.900  0.00  0.00    -0.250 OA
BRANCH  20  22
ATOM     22  O   LIG d   1      10.036   6.709  -0.448  0.00  0.00    -0.465 OA
BRANCH  22  23
ATOM     23  C   LIG d   1      11.079   6.912   0.508  0.00  0.00     0.090 C 
ATOM     24  H   LIG d   1      10.954   7.886   0.982  0.00  0.00     0.069 H 
ATOM     25  H   LIG d   1      12.045   6.874   0.006  0.00  0.00     0.069 H 
BRANCH  23  26
ATOM     26  C   LIG d   1      11.016   5.815   1.573  0.00  0.00    -0.031 C 
ATOM     27  H   LIG d   1      10.922   6.271   2.559  0.00  0.00     0.026 H 
ATOM     28  H   LIG d   1      10.153   5.175   1.385  0.00  0.00     0.026 H 
ATOM     29  H   LIG d   1      11.927   5.218   1.534  0.00  0.00     0.026 H 
ENDBRANCH  23  26
ENDBRANCH  22  23
ENDBRANCH  20  22
ENDBRANCH   1  20
TORSDOF 4
ENDMDL
