MODEL 1
REMARK VINA RESULT:      -7.0      0.000      0.000
REMARK  5 active torsions:
REMARK  status: ('A' for Active; 'I' for Inactive)
REMARK    1  A    between atoms: C_4  and  C_7 
REMARK       I    between atoms: C_7  and  N_9 
REMARK    2  A    between atoms: N_9  and  C_10 
REMARK    3  A    between atoms: C_15  and  O_17 
REMARK    4  A    between atoms: O_17  and  C_18 
REMARK    5  A    between atoms: C_18  and  C_20 
ROOT
ATOM      1  C   LIG d   1       3.975  -1.172  -7.583  0.00  0.00     0.070 C 
ATOM      2  H   LIG d   1       3.185  -1.903  -7.410  0.00  0.00     0.054 H 
ATOM      3  C   LIG d   1       4.421  -1.266  -9.055  0.00  0.00     0.016 C 
ATOM      4  S   LIG d   1       3.963   0.381  -9.741  0.00  0.00    -0.155 SA
ATOM      5  C   LIG d   1       2.786   0.900  -8.416  0.00  0.00     0.033 C 
ATOM      6  C   LIG d   1       3.454   0.212  -7.196  0.00  0.00     0.131 C 
ATOM      7  H   LIG d   1       4.285   0.824  -6.845  0.00  0.00     0.076 H 
ATOM      8  H   LIG d   1       5.497  -1.425  -9.121  0.00  0.00     0.040 H 
ATOM      9  H   LIG d   1       3.881  -2.060  -9.570  0.00  0.00     0.040 H 
ATOM     10  H   LIG d   1       2.770   1.984  -8.301  0.00  0.00     0.041 H 
ATOM     11  H   LIG d   1       1.786   0.508  -8.598  0.00  0.00     0.041 H 
ENDROOT
BRANCH   1  12
ATOM     12  N   LIG d   1       5.115  -1.502  -6.725  0.00  0.00    -0.304 N 
ATOM     13  C   LIG d   1       5.197  -2.719  -6.153  0.00  0.00     0.244 C 
ATOM     14  O   LIG d   1       4.326  -3.543  -6.349  0.00  0.00    -0.270 OA
ATOM     15  H   LIG d   1       5.810  -0.843  -6.568  0.00  0.00     0.149 HD
BRANCH  13  16
ATOM     16  C   LIG d   1       6.349  -3.052  -5.286  0.00  0.00     0.037 A 
ATOM     17  C   LIG d   1       6.759  -2.163  -4.292  0.00  0.00    -0.050 A 
ATOM     18  C   LIG d   1       7.834  -2.480  -3.487  0.00  0.00    -0.061 A 
ATOM     19  H   LIG d   1       6.235  -1.228  -4.153  0.00  0.00     0.062 H 
ATOM     20  C   LIG d   1       8.505  -3.676  -3.666  0.00  0.00    -0.062 A 
ATOM     21  H   LIG d   1       8.151  -1.792  -2.718  0.00  0.00     0.062 H 
ATOM     22  C   LIG d   1       8.104  -4.562  -4.649  0.00  0.00    -0.061 A 
ATOM     23  H   LIG d   1       9.349  -3.918  -3.036  0.00  0.00     0.062 H 
ATOM     24  C   LIG d   1       7.031  -4.258  -5.461  0.00  0.00    -0.050 A 
ATOM     25  H   LIG d   1       8.632  -5.495  -4.783  0.00  0.00     0.062 H 
ATOM     26  H   LIG d   1       6.718  -4.950  -6.228  0.00  0.00     0.062 H 
ENDBRANCH  13  16
ENDBRANCH   1  12
BRANCH   6  27
ATOM     27  O   LIG d   1       2.491   0.079  -6.148  0.00  0.00    -0.455 OA
BRANCH  27  28
ATOM     28  C   LIG d   1       2.709   0.788  -5.024  0.00  0.00     0.340 C 
ATOM     29  O   LIG d   1       2.412   1.965  -4.982  0.00  0.00    -0.245 OA
BRANCH  28  30
ATOM     30  C   LIG d   1       3.309   0.135  -3.842  0.00  0.00     0.059 A 
ATOM     31  C   LIG d   1       4.077   0.879  -2.945  0.00  0.00    -0.048 A 
ATOM     32  C   LIG d   1       4.630   0.265  -1.840  0.00  0.00    -0.061 A 
ATOM     33  H   LIG d   1       4.236   1.934  -3.113  0.00  0.00     0.063 H 
ATOM     34  C   LIG d   1       4.432  -1.088  -1.627  0.00  0.00    -0.062 A 
ATOM     35  H   LIG d   1       5.221   0.839  -1.143  0.00  0.00     0.062 H 
ATOM     36  C   LIG d   1       3.676  -1.833  -2.515  0.00  0.00    -0.061 A 
ATOM     37  H   LIG d   1       4.871  -1.566  -0.763  0.00  0.00     0.062 H 
ATOM     38  C   LIG d   1       3.114  -1.230  -3.621  0.00  0.00    -0.048 A 
ATOM     39  H   LIG d   1       3.526  -2.888  -2.342  0.00  0.00     0.062 H 
ATOM     40  H   LIG d   1       2.524  -1.811  -4.313  0.00  0.00     0.063 H 
ENDBRANCH  28  30
ENDBRANCH  27  28
ENDBRANCH   6  27
TORSDOF 5
ENDMDL
MODEL 2
REMARK VINA RESULT:      -6.8      2.535      3.014
REMARK  5 active torsions:
REMARK  status: ('A' for Active; 'I' for Inactive)
REMARK    1  A    between atoms: C_4  and  C_7 
REMARK       I    between atoms: C_7  and  N_9 
REMARK    2  A    between atoms: N_9  and  C_10 
REMARK    3  A    between atoms: C_15  and  O_17 
REMARK    4  A    between atoms: O_17  and  C_18 
REMARK    5  A    between atoms: C_18  and  C_20 
ROOT
ATOM      1  C   LIG d   1       4.540  -0.367  -7.768  0.00  0.00     0.070 C 
ATOM      2  H   LIG d   1       4.587  -1.344  -7.288  0.00  0.00     0.054 H 
ATOM      3  C   LIG d   1       4.845  -0.538  -9.269  0.00  0.00     0.016 C 
ATOM      4  S   LIG d   1       3.273  -0.031 -10.081  0.00  0.00    -0.155 SA
ATOM      5  C   LIG d   1       2.163  -0.159  -8.610  0.00  0.00     0.033 C 
ATOM      6  C   LIG d   1       3.166   0.245  -7.497  0.00  0.00     0.131 C 
ATOM      7  H   LIG d   1       3.256   1.332  -7.467  0.00  0.00     0.076 H 
ATOM      8  H   LIG d   1       5.664   0.114  -9.572  0.00  0.00     0.040 H 
ATOM      9  H   LIG d   1       5.078  -1.579  -9.498  0.00  0.00     0.040 H 
ATOM     10  H   LIG d   1       1.335   0.546  -8.674  0.00  0.00     0.041 H 
ATOM     11  H   LIG d   1       1.803  -1.179  -8.472  0.00  0.00     0.041 H 
ENDROOT
BRANCH   1  12
ATOM     12  N   LIG d   1       5.565   0.496  -7.176  0.00  0.00    -0.304 N 
ATOM     13  C   LIG d   1       6.352   0.027  -6.189  0.00  0.00     0.244 C 
ATOM     14  O   LIG d   1       6.213  -1.112  -5.789  0.00  0.00    -0.270 OA
ATOM     15  H   LIG d   1       5.675   1.406  -7.495  0.00  0.00     0.149 HD
BRANCH  13  16
ATOM     16  C   LIG d   1       7.387   0.899  -5.591  0.00  0.00     0.037 A 
ATOM     17  C   LIG d   1       8.273   1.598  -6.411  0.00  0.00    -0.050 A 
ATOM     18  C   LIG d   1       9.237   2.410  -5.848  0.00  0.00    -0.061 A 
ATOM     19  H   LIG d   1       8.205   1.505  -7.486  0.00  0.00     0.062 H 
ATOM     20  C   LIG d   1       9.325   2.530  -4.472  0.00  0.00    -0.062 A 
ATOM     21  H   LIG d   1       9.922   2.951  -6.482  0.00  0.00     0.062 H 
ATOM     22  C   LIG d   1       8.449   1.840  -3.654  0.00  0.00    -0.061 A 
ATOM     23  H   LIG d   1      10.083   3.163  -4.036  0.00  0.00     0.062 H 
ATOM     24  C   LIG d   1       7.481   1.025  -4.204  0.00  0.00    -0.050 A 
ATOM     25  H   LIG d   1       8.523   1.938  -2.581  0.00  0.00     0.062 H 
ATOM     26  H   LIG d   1       6.798   0.487  -3.565  0.00  0.00     0.062 H 
ENDBRANCH  13  16
ENDBRANCH   1  12
BRANCH   6  27
ATOM     27  O   LIG d   1       2.681  -0.222  -6.236  0.00  0.00    -0.455 OA
BRANCH  27  28
ATOM     28  C   LIG d   1       2.785   0.621  -5.191  0.00  0.00     0.340 C 
ATOM     29  O   LIG d   1       2.383   1.762  -5.289  0.00  0.00    -0.245 OA
BRANCH  28  30
ATOM     30  C   LIG d   1       3.389   0.157  -3.925  0.00  0.00     0.059 A 
ATOM     31  C   LIG d   1       3.968   1.074  -3.046  0.00  0.00    -0.048 A 
ATOM     32  C   LIG d   1       4.524   0.635  -1.863  0.00  0.00    -0.061 A 
ATOM     33  H   LIG d   1       3.977   2.126  -3.291  0.00  0.00     0.063 H 
ATOM     34  C   LIG d   1       4.519  -0.713  -1.551  0.00  0.00    -0.062 A 
ATOM     35  H   LIG d   1       4.969   1.344  -1.180  0.00  0.00     0.062 H 
ATOM     36  C   LIG d   1       3.952  -1.629  -2.420  0.00  0.00    -0.061 A 
ATOM     37  H   LIG d   1       4.961  -1.053  -0.626  0.00  0.00     0.062 H 
ATOM     38  C   LIG d   1       3.387  -1.203  -3.604  0.00  0.00    -0.048 A 
ATOM     39  H   LIG d   1       3.951  -2.679  -2.170  0.00  0.00     0.062 H 
ATOM     40  H   LIG d   1       2.944  -1.917  -4.281  0.00  0.00     0.063 H 
ENDBRANCH  28  30
ENDBRANCH  27  28
ENDBRANCH   6  27
TORSDOF 5
ENDMDL
MODEL 3
REMARK VINA RESULT:      -6.5      2.418      5.345
REMARK  5 active torsions:
REMARK  status: ('A' for Active; 'I' for Inactive)
REMARK    1  A    between atoms: C_4  and  C_7 
REMARK       I    between atoms: C_7  and  N_9 
REMARK    2  A    between atoms: N_9  and  C_10 
REMARK    3  A    between atoms: C_15  and  O_17 
REMARK    4  A    between atoms: O_17  and  C_18 
REMARK    5  A    between atoms: C_18  and  C_20 
ROOT
ATOM      1  C   LIG d   1       5.153  -2.836  -7.076  0.00  0.00     0.070 C 
ATOM      2  H   LIG d   1       4.550  -3.694  -6.779  0.00  0.00     0.054 H 
ATOM      3  C   LIG d   1       6.638  -3.248  -7.061  0.00  0.00     0.016 C 
ATOM      4  S   LIG d   1       7.138  -3.090  -8.826  0.00  0.00    -0.155 SA
ATOM      5  C   LIG d   1       5.450  -3.070  -9.577  0.00  0.00     0.033 C 
ATOM      6  C   LIG d   1       4.674  -2.350  -8.443  0.00  0.00     0.131 C 
ATOM      7  H   LIG d   1       4.836  -1.274  -8.519  0.00  0.00     0.076 H 
ATOM      8  H   LIG d   1       7.219  -2.572  -6.434  0.00  0.00     0.040 H 
ATOM      9  H   LIG d   1       6.748  -4.278  -6.722  0.00  0.00     0.040 H 
ATOM     10  H   LIG d   1       5.432  -2.492 -10.500  0.00  0.00     0.041 H 
ATOM     11  H   LIG d   1       5.076  -4.081  -9.737  0.00  0.00     0.041 H 
ENDROOT
BRANCH   1  12
ATOM     12  N   LIG d   1       4.955  -1.763  -6.098  0.00  0.00    -0.304 N 
ATOM     13  C   LIG d   1       4.475  -2.049  -4.873  0.00  0.00     0.244 C 
ATOM     14  O   LIG d   1       4.207  -3.197  -4.576  0.00  0.00    -0.270 OA
ATOM     15  H   LIG d   1       5.168  -0.847  -6.335  0.00  0.00     0.149 HD
BRANCH  13  16
ATOM     16  C   LIG d   1       4.275  -0.965  -3.886  0.00  0.00     0.037 A 
ATOM     17  C   LIG d   1       4.800  -1.084  -2.599  0.00  0.00    -0.050 A 
ATOM     18  C   LIG d   1       4.610  -0.070  -1.682  0.00  0.00    -0.061 A 
ATOM     19  H   LIG d   1       5.356  -1.968  -2.320  0.00  0.00     0.062 H 
ATOM     20  C   LIG d   1       3.899   1.063  -2.039  0.00  0.00    -0.062 A 
ATOM     21  H   LIG d   1       5.017  -0.160  -0.687  0.00  0.00     0.062 H 
ATOM     22  C   LIG d   1       3.375   1.186  -3.313  0.00  0.00    -0.061 A 
ATOM     23  H   LIG d   1       3.749   1.852  -1.317  0.00  0.00     0.062 H 
ATOM     24  C   LIG d   1       3.558   0.180  -4.238  0.00  0.00    -0.050 A 
ATOM     25  H   LIG d   1       2.821   2.073  -3.585  0.00  0.00     0.062 H 
ATOM     26  H   LIG d   1       3.149   0.277  -5.232  0.00  0.00     0.062 H 
ENDBRANCH  13  16
ENDBRANCH   1  12
BRANCH   6  27
ATOM     27  O   LIG d   1       3.278  -2.626  -8.580  0.00  0.00    -0.455 OA
BRANCH  27  28
ATOM     28  C   LIG d   1       2.564  -1.795  -9.363  0.00  0.00     0.340 C 
ATOM     29  O   LIG d   1       1.636  -2.226 -10.018  0.00  0.00    -0.245 OA
BRANCH  28  30
ATOM     30  C   LIG d   1       2.910  -0.360  -9.426  0.00  0.00     0.059 A 
ATOM     31  C   LIG d   1       3.500   0.169 -10.575  0.00  0.00    -0.048 A 
ATOM     32  C   LIG d   1       3.815   1.511 -10.631  0.00  0.00    -0.061 A 
ATOM     33  H   LIG d   1       3.707  -0.470 -11.421  0.00  0.00     0.063 H 
ATOM     34  C   LIG d   1       3.556   2.330  -9.545  0.00  0.00    -0.062 A 
ATOM     35  H   LIG d   1       4.268   1.923 -11.520  0.00  0.00     0.062 H 
ATOM     36  C   LIG d   1       2.977   1.812  -8.401  0.00  0.00    -0.061 A 
ATOM     37  H   LIG d   1       3.810   3.379  -9.591  0.00  0.00     0.062 H 
ATOM     38  C   LIG d   1       2.652   0.472  -8.335  0.00  0.00    -0.048 A 
ATOM     39  H   LIG d   1       2.778   2.456  -7.559  0.00  0.00     0.062 H 
ATOM     40  H   LIG d   1       2.199   0.069  -7.442  0.00  0.00     0.063 H 
ENDBRANCH  28  30
ENDBRANCH  27  28
ENDBRANCH   6  27
TORSDOF 5
ENDMDL
MODEL 4
REMARK VINA RESULT:      -6.5      2.348      5.252
REMARK  5 active torsions:
REMARK  status: ('A' for Active; 'I' for Inactive)
REMARK    1  A    between atoms: C_4  and  C_7 
REMARK       I    between atoms: C_7  and  N_9 
REMARK    2  A    between atoms: N_9  and  C_10 
REMARK    3  A    between atoms: C_15  and  O_17 
REMARK    4  A    between atoms: O_17  and  C_18 
REMARK    5  A    between atoms: C_18  and  C_20 
ROOT
ATOM      1  C   LIG d   1       7.254  -2.290  -6.372  0.00  0.00     0.070 C 
ATOM      2  H   LIG d   1       7.803  -1.504  -5.854  0.00  0.00     0.054 H 
ATOM      3  C   LIG d   1       8.218  -3.017  -7.331  0.00  0.00     0.016 C 
ATOM      4  S   LIG d   1       8.277  -4.727  -6.652  0.00  0.00    -0.155 SA
ATOM      5  C   LIG d   1       7.599  -4.368  -4.972  0.00  0.00     0.033 C 
ATOM      6  C   LIG d   1       6.625  -3.214  -5.331  0.00  0.00     0.131 C 
ATOM      7  H   LIG d   1       5.701  -3.631  -5.731  0.00  0.00     0.076 H 
ATOM      8  H   LIG d   1       7.822  -3.019  -8.346  0.00  0.00     0.040 H 
ATOM      9  H   LIG d   1       9.206  -2.558  -7.303  0.00  0.00     0.040 H 
ATOM     10  H   LIG d   1       7.064  -5.228  -4.567  0.00  0.00     0.041 H 
ATOM     11  H   LIG d   1       8.381  -4.034  -4.292  0.00  0.00     0.041 H 
ENDROOT
BRANCH   1  12
ATOM     12  N   LIG d   1       6.185  -1.673  -7.161  0.00  0.00    -0.304 N 
ATOM     13  C   LIG d   1       5.891  -0.369  -6.992  0.00  0.00     0.244 C 
ATOM     14  O   LIG d   1       6.513   0.296  -6.188  0.00  0.00    -0.270 OA
ATOM     15  H   LIG d   1       5.688  -2.204  -7.803  0.00  0.00     0.149 HD
BRANCH  13  16
ATOM     16  C   LIG d   1       4.811   0.254  -7.789  0.00  0.00     0.037 A 
ATOM     17  C   LIG d   1       3.510  -0.247  -7.719  0.00  0.00    -0.050 A 
ATOM     18  C   LIG d   1       2.507   0.339  -8.465  0.00  0.00    -0.061 A 
ATOM     19  H   LIG d   1       3.289  -1.091  -7.083  0.00  0.00     0.062 H 
ATOM     20  C   LIG d   1       2.790   1.420  -9.281  0.00  0.00    -0.062 A 
ATOM     21  H   LIG d   1       1.501  -0.048  -8.411  0.00  0.00     0.062 H 
ATOM     22  C   LIG d   1       4.077   1.921  -9.354  0.00  0.00    -0.061 A 
ATOM     23  H   LIG d   1       2.003   1.872  -9.866  0.00  0.00     0.062 H 
ATOM     24  C   LIG d   1       5.089   1.345  -8.614  0.00  0.00    -0.050 A 
ATOM     25  H   LIG d   1       4.292   2.766  -9.992  0.00  0.00     0.062 H 
ATOM     26  H   LIG d   1       6.093   1.737  -8.672  0.00  0.00     0.062 H 
ENDBRANCH  13  16
ENDBRANCH   1  12
BRANCH   6  27
ATOM     27  O   LIG d   1       6.330  -2.465  -4.150  0.00  0.00    -0.455 OA
BRANCH  27  28
ATOM     28  C   LIG d   1       5.033  -2.342  -3.811  0.00  0.00     0.340 C 
ATOM     29  O   LIG d   1       4.293  -3.302  -3.882  0.00  0.00    -0.245 OA
BRANCH  28  30
ATOM     30  C   LIG d   1       4.509  -1.038  -3.355  0.00  0.00     0.059 A 
ATOM     31  C   LIG d   1       3.597  -0.334  -4.142  0.00  0.00    -0.048 A 
ATOM     32  C   LIG d   1       3.106   0.880  -3.708  0.00  0.00    -0.061 A 
ATOM     33  H   LIG d   1       3.272  -0.741  -5.089  0.00  0.00     0.063 H 
ATOM     34  C   LIG d   1       3.526   1.405  -2.498  0.00  0.00    -0.062 A 
ATOM     35  H   LIG d   1       2.397   1.423  -4.314  0.00  0.00     0.062 H 
ATOM     36  C   LIG d   1       4.435   0.716  -1.714  0.00  0.00    -0.061 A 
ATOM     37  H   LIG d   1       3.143   2.358  -2.164  0.00  0.00     0.062 H 
ATOM     38  C   LIG d   1       4.928  -0.502  -2.135  0.00  0.00    -0.048 A 
ATOM     39  H   LIG d   1       4.757   1.131  -0.772  0.00  0.00     0.062 H 
ATOM     40  H   LIG d   1       5.636  -1.039  -1.523  0.00  0.00     0.063 H 
ENDBRANCH  28  30
ENDBRANCH  27  28
ENDBRANCH   6  27
TORSDOF 5
ENDMDL
MODEL 5
REMARK VINA RESULT:      -6.2      3.396      5.480
REMARK  5 active torsions:
REMARK  status: ('A' for Active; 'I' for Inactive)
REMARK    1  A    between atoms: C_4  and  C_7 
REMARK       I    between atoms: C_7  and  N_9 
REMARK    2  A    between atoms: N_9  and  C_10 
REMARK    3  A    between atoms: C_15  and  O_17 
REMARK    4  A    between atoms: O_17  and  C_18 
REMARK    5  A    between atoms: C_18  and  C_20 
ROOT
ATOM      1  C   LIG d   1       8.125   0.632  -5.921  0.00  0.00     0.070 C 
ATOM      2  H   LIG d   1       8.324  -0.319  -6.414  0.00  0.00     0.054 H 
ATOM      3  C   LIG d   1       9.268   0.922  -4.928  0.00  0.00     0.016 C 
ATOM      4  S   LIG d   1      10.043   2.447  -5.610  0.00  0.00    -0.155 SA
ATOM      5  C   LIG d   1       9.335   2.363  -7.314  0.00  0.00     0.033 C 
ATOM      6  C   LIG d   1       7.964   1.712  -6.989  0.00  0.00     0.131 C 
ATOM      7  H   LIG d   1       7.277   2.478  -6.627  0.00  0.00     0.076 H 
ATOM      8  H   LIG d   1       8.873   1.105  -3.929  0.00  0.00     0.040 H 
ATOM      9  H   LIG d   1       9.984   0.100  -4.915  0.00  0.00     0.040 H 
ATOM     10  H   LIG d   1       9.212   3.357  -7.742  0.00  0.00     0.041 H 
ATOM     11  H   LIG d   1       9.937   1.725  -7.962  0.00  0.00     0.041 H 
ENDROOT
BRANCH   1  12
ATOM     12  N   LIG d   1       6.871   0.520  -5.172  0.00  0.00    -0.304 N 
ATOM     13  C   LIG d   1       6.295  -0.686  -5.002  0.00  0.00     0.244 C 
ATOM     14  O   LIG d   1       6.816  -1.681  -5.467  0.00  0.00    -0.270 OA
ATOM     15  H   LIG d   1       6.455   1.314  -4.801  0.00  0.00     0.149 HD
BRANCH  13  16
ATOM     16  C   LIG d   1       5.028  -0.800  -4.246  0.00  0.00     0.037 A 
ATOM     17  C   LIG d   1       3.904  -0.079  -4.650  0.00  0.00    -0.050 A 
ATOM     18  C   LIG d   1       2.726  -0.189  -3.941  0.00  0.00    -0.061 A 
ATOM     19  H   LIG d   1       3.956   0.565  -5.516  0.00  0.00     0.062 H 
ATOM     20  C   LIG d   1       2.658  -1.012  -2.830  0.00  0.00    -0.062 A 
ATOM     21  H   LIG d   1       1.856   0.369  -4.252  0.00  0.00     0.062 H 
ATOM     22  C   LIG d   1       3.769  -1.730  -2.425  0.00  0.00    -0.061 A 
ATOM     23  H   LIG d   1       1.734  -1.092  -2.276  0.00  0.00     0.062 H 
ATOM     24  C   LIG d   1       4.953  -1.629  -3.125  0.00  0.00    -0.050 A 
ATOM     25  H   LIG d   1       3.710  -2.371  -1.558  0.00  0.00     0.062 H 
ATOM     26  H   LIG d   1       5.819  -2.189  -2.808  0.00  0.00     0.062 H 
ENDBRANCH  13  16
ENDBRANCH   1  12
BRANCH   6  27
ATOM     27  O   LIG d   1       7.431   1.125  -8.178  0.00  0.00    -0.455 OA
BRANCH  27  28
ATOM     28  C   LIG d   1       6.386   1.751  -8.754  0.00  0.00     0.340 C 
ATOM     29  O   LIG d   1       6.558   2.797  -9.348  0.00  0.00    -0.245 OA
BRANCH  28  30
ATOM     30  C   LIG d   1       5.033   1.167  -8.663  0.00  0.00     0.059 A 
ATOM     31  C   LIG d   1       3.910   1.953  -8.927  0.00  0.00    -0.048 A 
ATOM     32  C   LIG d   1       2.649   1.400  -8.847  0.00  0.00    -0.061 A 
ATOM     33  H   LIG d   1       4.028   2.992  -9.198  0.00  0.00     0.063 H 
ATOM     34  C   LIG d   1       2.496   0.070  -8.494  0.00  0.00    -0.062 A 
ATOM     35  H   LIG d   1       1.780   2.005  -9.055  0.00  0.00     0.062 H 
ATOM     36  C   LIG d   1       3.603  -0.714  -8.225  0.00  0.00    -0.061 A 
ATOM     37  H   LIG d   1       1.506  -0.357  -8.427  0.00  0.00     0.062 H 
ATOM     38  C   LIG d   1       4.870  -0.174  -8.307  0.00  0.00    -0.048 A 
ATOM     39  H   LIG d   1       3.476  -1.750  -7.950  0.00  0.00     0.062 H 
ATOM     40  H   LIG d   1       5.734  -0.787  -8.098  0.00  0.00     0.063 H 
ENDBRANCH  28  30
ENDBRANCH  27  28
ENDBRANCH   6  27
TORSDOF 5
ENDMDL
MODEL 6
REMARK VINA RESULT:      -6.1      1.819      4.641
REMARK  5 active torsions:
REMARK  status: ('A' for Active; 'I' for Inactive)
REMARK    1  A    between atoms: C_4  and  C_7 
REMARK       I    between atoms: C_7  and  N_9 
REMARK    2  A    between atoms: N_9  and  C_10 
REMARK    3  A    between atoms: C_15  and  O_17 
REMARK    4  A    between atoms: O_17  and  C_18 
REMARK    5  A    between atoms: C_18  and  C_20 
ROOT
ATOM      1  C   LIG d   1       3.697  -0.971  -8.156  0.00  0.00     0.070 C 
ATOM      2  H   LIG d   1       4.373  -0.145  -8.378  0.00  0.00     0.054 H 
ATOM      3  C   LIG d   1       2.277  -0.585  -8.618  0.00  0.00     0.016 C 
ATOM      4  S   LIG d   1       1.918  -1.810  -9.945  0.00  0.00    -0.155 SA
ATOM      5  C   LIG d   1       3.649  -2.369 -10.264  0.00  0.00     0.033 C 
ATOM      6  C   LIG d   1       4.230  -2.234  -8.831  0.00  0.00     0.131 C 
ATOM      7  H   LIG d   1       3.944  -3.105  -8.241  0.00  0.00     0.076 H 
ATOM      8  H   LIG d   1       1.566  -0.684  -7.799  0.00  0.00     0.040 H 
ATOM      9  H   LIG d   1       2.266   0.430  -9.018  0.00  0.00     0.040 H 
ATOM     10  H   LIG d   1       3.675  -3.403 -10.608  0.00  0.00     0.041 H 
ATOM     11  H   LIG d   1       4.156  -1.707 -10.965  0.00  0.00     0.041 H 
ENDROOT
BRANCH   1  12
ATOM     12  N   LIG d   1       3.677  -1.184  -6.707  0.00  0.00    -0.304 N 
ATOM     13  C   LIG d   1       4.470  -0.445  -5.907  0.00  0.00     0.244 C 
ATOM     14  O   LIG d   1       5.202   0.399  -6.387  0.00  0.00    -0.270 OA
ATOM     15  H   LIG d   1       3.093  -1.858  -6.325  0.00  0.00     0.149 HD
BRANCH  13  16
ATOM     16  C   LIG d   1       4.450  -0.661  -4.444  0.00  0.00     0.037 A 
ATOM     17  C   LIG d   1       3.814  -1.781  -3.909  0.00  0.00    -0.050 A 
ATOM     18  C   LIG d   1       3.798  -1.977  -2.543  0.00  0.00    -0.061 A 
ATOM     19  H   LIG d   1       3.335  -2.496  -4.563  0.00  0.00     0.062 H 
ATOM     20  C   LIG d   1       4.412  -1.063  -1.704  0.00  0.00    -0.062 A 
ATOM     21  H   LIG d   1       3.307  -2.844  -2.129  0.00  0.00     0.062 H 
ATOM     22  C   LIG d   1       5.044   0.050  -2.228  0.00  0.00    -0.061 A 
ATOM     23  H   LIG d   1       4.393  -1.218  -0.636  0.00  0.00     0.062 H 
ATOM     24  C   LIG d   1       5.067   0.258  -3.592  0.00  0.00    -0.050 A 
ATOM     25  H   LIG d   1       5.521   0.760  -1.569  0.00  0.00     0.062 H 
ATOM     26  H   LIG d   1       5.560   1.126  -4.000  0.00  0.00     0.062 H 
ENDBRANCH  13  16
ENDBRANCH   1  12
BRANCH   6  27
ATOM     27  O   LIG d   1       5.655  -2.163  -8.908  0.00  0.00    -0.455 OA
BRANCH  27  28
ATOM     28  C   LIG d   1       6.350  -3.130  -8.278  0.00  0.00     0.340 C 
ATOM     29  O   LIG d   1       6.578  -4.180  -8.844  0.00  0.00    -0.245 OA
BRANCH  28  30
ATOM     30  C   LIG d   1       6.833  -2.914  -6.899  0.00  0.00     0.059 A 
ATOM     31  C   LIG d   1       6.388  -3.737  -5.863  0.00  0.00    -0.048 A 
ATOM     32  C   LIG d   1       6.848  -3.534  -4.578  0.00  0.00    -0.061 A 
ATOM     33  H   LIG d   1       5.689  -4.534  -6.068  0.00  0.00     0.063 H 
ATOM     34  C   LIG d   1       7.740  -2.510  -4.314  0.00  0.00    -0.062 A 
ATOM     35  H   LIG d   1       6.509  -4.173  -3.777  0.00  0.00     0.062 H 
ATOM     36  C   LIG d   1       8.181  -1.686  -5.334  0.00  0.00    -0.061 A 
ATOM     37  H   LIG d   1       8.093  -2.351  -3.305  0.00  0.00     0.062 H 
ATOM     38  C   LIG d   1       7.733  -1.882  -6.625  0.00  0.00    -0.048 A 
ATOM     39  H   LIG d   1       8.877  -0.889  -5.121  0.00  0.00     0.062 H 
ATOM     40  H   LIG d   1       8.078  -1.239  -7.421  0.00  0.00     0.063 H 
ENDBRANCH  28  30
ENDBRANCH  27  28
ENDBRANCH   6  27
TORSDOF 5
ENDMDL
MODEL 7
REMARK VINA RESULT:      -6.1      6.539      8.096
REMARK  5 active torsions:
REMARK  status: ('A' for Active; 'I' for Inactive)
REMARK    1  A    between atoms: C_4  and  C_7 
REMARK       I    between atoms: C_7  and  N_9 
REMARK    2  A    between atoms: N_9  and  C_10 
REMARK    3  A    between atoms: C_15  and  O_17 
REMARK    4  A    between atoms: O_17  and  C_18 
REMARK    5  A    between atoms: C_18  and  C_20 
ROOT
ATOM      1  C   LIG d   1       9.696   1.698  -4.409  0.00  0.00     0.070 C 
ATOM      2  H   LIG d   1       9.269   2.093  -5.330  0.00  0.00     0.054 H 
ATOM      3  C   LIG d   1      10.748   0.631  -4.770  0.00  0.00     0.016 C 
ATOM      4  S   LIG d   1      12.319   1.359  -4.143  0.00  0.00    -0.155 SA
ATOM      5  C   LIG d   1      11.750   3.108  -3.975  0.00  0.00     0.033 C 
ATOM      6  C   LIG d   1      10.266   2.860  -3.596  0.00  0.00     0.131 C 
ATOM      7  H   LIG d   1      10.198   2.624  -2.534  0.00  0.00     0.076 H 
ATOM      8  H   LIG d   1      10.531  -0.310  -4.265  0.00  0.00     0.040 H 
ATOM      9  H   LIG d   1      10.795   0.487  -5.849  0.00  0.00     0.040 H 
ATOM     10  H   LIG d   1      12.283   3.625  -3.176  0.00  0.00     0.041 H 
ATOM     11  H   LIG d   1      11.837   3.646  -4.919  0.00  0.00     0.041 H 
ENDROOT
BRANCH   1  12
ATOM     12  N   LIG d   1       8.629   1.061  -3.634  0.00  0.00    -0.304 N 
ATOM     13  C   LIG d   1       7.372   1.028  -4.118  0.00  0.00     0.244 C 
ATOM     14  O   LIG d   1       7.123   1.526  -5.198  0.00  0.00    -0.270 OA
ATOM     15  H   LIG d   1       8.827   0.664  -2.771  0.00  0.00     0.149 HD
BRANCH  13  16
ATOM     16  C   LIG d   1       6.294   0.384  -3.335  0.00  0.00     0.037 A 
ATOM     17  C   LIG d   1       6.158  -1.004  -3.340  0.00  0.00    -0.050 A 
ATOM     18  C   LIG d   1       5.151  -1.599  -2.608  0.00  0.00    -0.061 A 
ATOM     19  H   LIG d   1       6.841  -1.614  -3.916  0.00  0.00     0.062 H 
ATOM     20  C   LIG d   1       4.277  -0.820  -1.870  0.00  0.00    -0.062 A 
ATOM     21  H   LIG d   1       5.045  -2.673  -2.611  0.00  0.00     0.062 H 
ATOM     22  C   LIG d   1       4.406   0.557  -1.861  0.00  0.00    -0.061 A 
ATOM     23  H   LIG d   1       3.487  -1.290  -1.302  0.00  0.00     0.062 H 
ATOM     24  C   LIG d   1       5.409   1.164  -2.589  0.00  0.00    -0.050 A 
ATOM     25  H   LIG d   1       3.721   1.159  -1.284  0.00  0.00     0.062 H 
ATOM     26  H   LIG d   1       5.509   2.238  -2.582  0.00  0.00     0.062 H 
ENDBRANCH  13  16
ENDBRANCH   1  12
BRANCH   6  27
ATOM     27  O   LIG d   1       9.509   4.042  -3.866  0.00  0.00    -0.455 OA
BRANCH  27  28
ATOM     28  C   LIG d   1       9.809   5.138  -3.144  0.00  0.00     0.340 C 
ATOM     29  O   LIG d   1      10.086   5.033  -1.967  0.00  0.00    -0.245 OA
BRANCH  28  30
ATOM     30  C   LIG d   1       9.801   6.469  -3.785  0.00  0.00     0.059 A 
ATOM     31  C   LIG d   1       9.325   6.616  -5.089  0.00  0.00    -0.048 A 
ATOM     32  C   LIG d   1       9.313   7.863  -5.681  0.00  0.00    -0.061 A 
ATOM     33  H   LIG d   1       8.963   5.757  -5.634  0.00  0.00     0.063 H 
ATOM     34  C   LIG d   1       9.782   8.965  -4.986  0.00  0.00    -0.062 A 
ATOM     35  H   LIG d   1       8.942   7.979  -6.688  0.00  0.00     0.062 H 
ATOM     36  C   LIG d   1      10.261   8.826  -3.695  0.00  0.00    -0.061 A 
ATOM     37  H   LIG d   1       9.776   9.938  -5.455  0.00  0.00     0.062 H 
ATOM     38  C   LIG d   1      10.273   7.586  -3.091  0.00  0.00    -0.048 A 
ATOM     39  H   LIG d   1      10.625   9.689  -3.160  0.00  0.00     0.062 H 
ATOM     40  H   LIG d   1      10.645   7.478  -2.084  0.00  0.00     0.063 H 
ENDBRANCH  28  30
ENDBRANCH  27  28
ENDBRANCH   6  27
TORSDOF 5
ENDMDL
MODEL 8
REMARK VINA RESULT:      -6.1      5.739      7.177
REMARK  5 active torsions:
REMARK  status: ('A' for Active; 'I' for Inactive)
REMARK    1  A    between atoms: C_4  and  C_7 
REMARK       I    between atoms: C_7  and  N_9 
REMARK    2  A    between atoms: N_9  and  C_10 
REMARK    3  A    between atoms: C_15  and  O_17 
REMARK    4  A    between atoms: O_17  and  C_18 
REMARK    5  A    between atoms: C_18  and  C_20 
ROOT
ATOM      1  C   LIG d   1       9.581   0.227  -5.333  0.00  0.00     0.070 C 
ATOM      2  H   LIG d   1       9.109   0.604  -6.241  0.00  0.00     0.054 H 
ATOM      3  C   LIG d   1      10.323  -1.082  -5.669  0.00  0.00     0.016 C 
ATOM      4  S   LIG d   1      12.087  -0.660  -5.352  0.00  0.00    -0.155 SA
ATOM      5  C   LIG d   1      11.924   1.180  -5.363  0.00  0.00     0.033 C 
ATOM      6  C   LIG d   1      10.496   1.314  -4.771  0.00  0.00     0.131 C 
ATOM      7  H   LIG d   1      10.543   1.218  -3.685  0.00  0.00     0.076 H 
ATOM      8  H   LIG d   1       9.995  -1.888  -5.013  0.00  0.00     0.040 H 
ATOM      9  H   LIG d   1      10.173  -1.351  -6.714  0.00  0.00     0.040 H 
ATOM     10  H   LIG d   1      12.667   1.648  -4.718  0.00  0.00     0.041 H 
ATOM     11  H   LIG d   1      11.975   1.576  -6.377  0.00  0.00     0.041 H 
ENDROOT
BRANCH   1  12
ATOM     12  N   LIG d   1       8.536  -0.065  -4.349  0.00  0.00    -0.304 N 
ATOM     13  C   LIG d   1       7.270   0.337  -4.571  0.00  0.00     0.244 C 
ATOM     14  O   LIG d   1       6.993   0.941  -5.589  0.00  0.00    -0.270 OA
ATOM     15  H   LIG d   1       8.757  -0.546  -3.536  0.00  0.00     0.149 HD
BRANCH  13  16
ATOM     16  C   LIG d   1       6.215   0.043  -3.577  0.00  0.00     0.037 A 
ATOM     17  C   LIG d   1       5.623   1.079  -2.854  0.00  0.00    -0.050 A 
ATOM     18  C   LIG d   1       4.640   0.798  -1.928  0.00  0.00    -0.061 A 
ATOM     19  H   LIG d   1       5.934   2.101  -3.020  0.00  0.00     0.062 H 
ATOM     20  C   LIG d   1       4.241  -0.510  -1.715  0.00  0.00    -0.062 A 
ATOM     21  H   LIG d   1       4.182   1.599  -1.369  0.00  0.00     0.062 H 
ATOM     22  C   LIG d   1       4.824  -1.542  -2.428  0.00  0.00    -0.061 A 
ATOM     23  H   LIG d   1       3.474  -0.726  -0.986  0.00  0.00     0.062 H 
ATOM     24  C   LIG d   1       5.808  -1.275  -3.357  0.00  0.00    -0.050 A 
ATOM     25  H   LIG d   1       4.508  -2.561  -2.258  0.00  0.00     0.062 H 
ATOM     26  H   LIG d   1       6.262  -2.081  -3.913  0.00  0.00     0.062 H 
ENDBRANCH  13  16
ENDBRANCH   1  12
BRANCH   6  27
ATOM     27  O   LIG d   1       9.967   2.598  -5.107  0.00  0.00    -0.455 OA
BRANCH  27  28
ATOM     28  C   LIG d   1       9.529   3.365  -4.091  0.00  0.00     0.340 C 
ATOM     29  O   LIG d   1       9.044   2.847  -3.105  0.00  0.00    -0.245 OA
BRANCH  28  30
ATOM     30  C   LIG d   1       9.637   4.836  -4.175  0.00  0.00     0.059 A 
ATOM     31  C   LIG d   1       9.838   5.592  -3.020  0.00  0.00    -0.048 A 
ATOM     32  C   LIG d   1       9.945   6.965  -3.105  0.00  0.00    -0.061 A 
ATOM     33  H   LIG d   1       9.914   5.103  -2.059  0.00  0.00     0.063 H 
ATOM     34  C   LIG d   1       9.842   7.593  -4.334  0.00  0.00    -0.062 A 
ATOM     35  H   LIG d   1      10.105   7.550  -2.213  0.00  0.00     0.062 H 
ATOM     36  C   LIG d   1       9.636   6.851  -5.484  0.00  0.00    -0.061 A 
ATOM     37  H   LIG d   1       9.921   8.669  -4.396  0.00  0.00     0.062 H 
ATOM     38  C   LIG d   1       9.534   5.477  -5.412  0.00  0.00    -0.048 A 
ATOM     39  H   LIG d   1       9.557   7.348  -6.439  0.00  0.00     0.062 H 
ATOM     40  H   LIG d   1       9.374   4.899  -6.309  0.00  0.00     0.063 H 
ENDBRANCH  28  30
ENDBRANCH  27  28
ENDBRANCH   6  27
TORSDOF 5
ENDMDL
MODEL 9
REMARK VINA RESULT:      -6.1      5.688      7.119
REMARK  5 active torsions:
REMARK  status: ('A' for Active; 'I' for Inactive)
REMARK    1  A    between atoms: C_4  and  C_7 
REMARK       I    between atoms: C_7  and  N_9 
REMARK    2  A    between atoms: N_9  and  C_10 
REMARK    3  A    between atoms: C_15  and  O_17 
REMARK    4  A    between atoms: O_17  and  C_18 
REMARK    5  A    between atoms: C_18  and  C_20 
ROOT
ATOM      1  C   LIG d   1      10.494   1.279  -5.079  0.00  0.00     0.070 C 
ATOM      2  H   LIG d   1      10.799   0.768  -4.166  0.00  0.00     0.054 H 
ATOM      3  C   LIG d   1      11.632   1.163  -6.113  0.00  0.00     0.016 C 
ATOM      4  S   LIG d   1      10.874   0.171  -7.466  0.00  0.00    -0.155 SA
ATOM      5  C   LIG d   1       9.444  -0.516  -6.519  0.00  0.00     0.033 C 
ATOM      6  C   LIG d   1       9.176   0.675  -5.560  0.00  0.00     0.131 C 
ATOM      7  H   LIG d   1       8.600   1.439  -6.084  0.00  0.00     0.076 H 
ATOM      8  H   LIG d   1      11.924   2.148  -6.475  0.00  0.00     0.040 H 
ATOM      9  H   LIG d   1      12.488   0.640  -5.686  0.00  0.00     0.040 H 
ATOM     10  H   LIG d   1       8.589  -0.702  -7.170  0.00  0.00     0.041 H 
ATOM     11  H   LIG d   1       9.726  -1.415  -5.972  0.00  0.00     0.041 H 
ENDROOT
BRANCH   1  12
ATOM     12  N   LIG d   1      10.279   2.696  -4.775  0.00  0.00    -0.304 N 
ATOM     13  C   LIG d   1      10.348   3.128  -3.501  0.00  0.00     0.244 C 
ATOM     14  O   LIG d   1      10.590   2.345  -2.604  0.00  0.00    -0.270 OA
ATOM     15  H   LIG d   1      10.086   3.321  -5.491  0.00  0.00     0.149 HD
BRANCH  13  16
ATOM     16  C   LIG d   1      10.131   4.559  -3.193  0.00  0.00     0.037 A 
ATOM     17  C   LIG d   1       9.625   5.417  -4.171  0.00  0.00    -0.050 A 
ATOM     18  C   LIG d   1       9.425   6.751  -3.878  0.00  0.00    -0.061 A 
ATOM     19  H   LIG d   1       9.390   5.038  -5.155  0.00  0.00     0.062 H 
ATOM     20  C   LIG d   1       9.726   7.237  -2.618  0.00  0.00    -0.062 A 
ATOM     21  H   LIG d   1       9.034   7.415  -4.633  0.00  0.00     0.062 H 
ATOM     22  C   LIG d   1      10.228   6.392  -1.645  0.00  0.00    -0.061 A 
ATOM     23  H   LIG d   1       9.572   8.283  -2.395  0.00  0.00     0.062 H 
ATOM     24  C   LIG d   1      10.433   5.057  -1.924  0.00  0.00    -0.050 A 
ATOM     25  H   LIG d   1      10.461   6.778  -0.664  0.00  0.00     0.062 H 
ATOM     26  H   LIG d   1      10.825   4.398  -1.165  0.00  0.00     0.062 H 
ENDBRANCH  13  16
ENDBRANCH   1  12
BRANCH   6  27
ATOM     27  O   LIG d   1       8.429   0.211  -4.434  0.00  0.00    -0.455 OA
BRANCH  27  28
ATOM     28  C   LIG d   1       7.326   0.908  -4.102  0.00  0.00     0.340 C 
ATOM     29  O   LIG d   1       7.220   2.071  -4.435  0.00  0.00    -0.245 OA
BRANCH  28  30
ATOM     30  C   LIG d   1       6.245   0.258  -3.332  0.00  0.00     0.059 A 
ATOM     31  C   LIG d   1       5.387   1.026  -2.544  0.00  0.00    -0.048 A 
ATOM     32  C   LIG d   1       4.375   0.414  -1.832  0.00  0.00    -0.061 A 
ATOM     33  H   LIG d   1       5.511   2.098  -2.494  0.00  0.00     0.063 H 
ATOM     34  C   LIG d   1       4.219  -0.960  -1.890  0.00  0.00    -0.062 A 
ATOM     35  H   LIG d   1       3.707   1.007  -1.226  0.00  0.00     0.062 H 
ATOM     36  C   LIG d   1       5.070  -1.728  -2.665  0.00  0.00    -0.061 A 
ATOM     37  H   LIG d   1       3.429  -1.435  -1.327  0.00  0.00     0.062 H 
ATOM     38  C   LIG d   1       6.081  -1.128  -3.386  0.00  0.00    -0.048 A 
ATOM     39  H   LIG d   1       4.941  -2.799  -2.705  0.00  0.00     0.062 H 
ATOM     40  H   LIG d   1       6.745  -1.728  -3.990  0.00  0.00     0.063 H 
ENDBRANCH  28  30
ENDBRANCH  27  28
ENDBRANCH   6  27
TORSDOF 5
ENDMDL
MODEL 10
REMARK VINA RESULT:      -5.9      2.356      4.342
REMARK  5 active torsions:
REMARK  status: ('A' for Active; 'I' for Inactive)
REMARK    1  A    between atoms: C_4  and  C_7 
REMARK       I    between atoms: C_7  and  N_9 
REMARK    2  A    between atoms: N_9  and  C_10 
REMARK    3  A    between atoms: C_15  and  O_17 
REMARK    4  A    between atoms: O_17  and  C_18 
REMARK    5  A    between atoms: C_18  and  C_20 
ROOT
ATOM      1  C   LIG d   1       3.423   0.097  -7.962  0.00  0.00     0.070 C 
ATOM      2  H   LIG d   1       3.099   1.125  -7.797  0.00  0.00     0.054 H 
ATOM      3  C   LIG d   1       2.266  -0.688  -8.610  0.00  0.00     0.016 C 
ATOM      4  S   LIG d   1       2.939  -1.146 -10.261  0.00  0.00    -0.155 SA
ATOM      5  C   LIG d   1       4.334   0.063 -10.322  0.00  0.00     0.033 C 
ATOM      6  C   LIG d   1       4.693   0.116  -8.813  0.00  0.00     0.131 C 
ATOM      7  H   LIG d   1       5.310  -0.746  -8.556  0.00  0.00     0.076 H 
ATOM      8  H   LIG d   1       2.033  -1.580  -8.028  0.00  0.00     0.040 H 
ATOM      9  H   LIG d   1       1.384  -0.056  -8.716  0.00  0.00     0.040 H 
ATOM     10  H   LIG d   1       5.166  -0.319 -10.914  0.00  0.00     0.041 H 
ATOM     11  H   LIG d   1       4.002   1.034 -10.688  0.00  0.00     0.041 H 
ENDROOT
BRANCH   1  12
ATOM     12  N   LIG d   1       3.734  -0.509  -6.665  0.00  0.00    -0.304 N 
ATOM     13  C   LIG d   1       3.435   0.145  -5.527  0.00  0.00     0.244 C 
ATOM     14  O   LIG d   1       2.906   1.238  -5.574  0.00  0.00    -0.270 OA
ATOM     15  H   LIG d   1       4.157  -1.382  -6.628  0.00  0.00     0.149 HD
BRANCH  13  16
ATOM     16  C   LIG d   1       3.749  -0.468  -4.217  0.00  0.00     0.037 A 
ATOM     17  C   LIG d   1       3.878  -1.853  -4.105  0.00  0.00    -0.050 A 
ATOM     18  C   LIG d   1       4.171  -2.418  -2.881  0.00  0.00    -0.061 A 
ATOM     19  H   LIG d   1       3.749  -2.481  -4.975  0.00  0.00     0.062 H 
ATOM     20  C   LIG d   1       4.336  -1.615  -1.766  0.00  0.00    -0.062 A 
ATOM     21  H   LIG d   1       4.271  -3.489  -2.793  0.00  0.00     0.062 H 
ATOM     22  C   LIG d   1       4.210  -0.241  -1.871  0.00  0.00    -0.061 A 
ATOM     23  H   LIG d   1       4.561  -2.063  -0.809  0.00  0.00     0.062 H 
ATOM     24  C   LIG d   1       3.917   0.337  -3.089  0.00  0.00    -0.050 A 
ATOM     25  H   LIG d   1       4.340   0.381  -0.998  0.00  0.00     0.062 H 
ATOM     26  H   LIG d   1       3.818   1.409  -3.170  0.00  0.00     0.062 H 
ENDBRANCH  13  16
ENDBRANCH   1  12
BRANCH   6  27
ATOM     27  O   LIG d   1       5.424   1.314  -8.546  0.00  0.00    -0.455 OA
BRANCH  27  28
ATOM     28  C   LIG d   1       6.698   1.175  -8.134  0.00  0.00     0.340 C 
ATOM     29  O   LIG d   1       7.596   1.716  -8.747  0.00  0.00    -0.245 OA
BRANCH  28  30
ATOM     30  C   LIG d   1       7.004   0.364  -6.938  0.00  0.00     0.059 A 
ATOM     31  C   LIG d   1       7.203  -1.013  -7.057  0.00  0.00    -0.048 A 
ATOM     32  C   LIG d   1       7.495  -1.764  -5.937  0.00  0.00    -0.061 A 
ATOM     33  H   LIG d   1       7.133  -1.488  -8.024  0.00  0.00     0.063 H 
ATOM     34  C   LIG d   1       7.579  -1.157  -4.696  0.00  0.00    -0.062 A 
ATOM     35  H   LIG d   1       7.654  -2.828  -6.028  0.00  0.00     0.062 H 
ATOM     36  C   LIG d   1       7.377   0.206  -4.570  0.00  0.00    -0.061 A 
ATOM     37  H   LIG d   1       7.802  -1.751  -3.822  0.00  0.00     0.062 H 
ATOM     38  C   LIG d   1       7.091   0.970  -5.683  0.00  0.00    -0.048 A 
ATOM     39  H   LIG d   1       7.445   0.673  -3.599  0.00  0.00     0.062 H 
ATOM     40  H   LIG d   1       6.934   2.033  -5.584  0.00  0.00     0.063 H 
ENDBRANCH  28  30
ENDBRANCH  27  28
ENDBRANCH   6  27
TORSDOF 5
ENDMDL
