MODEL 1
REMARK VINA RESULT:      -6.7      0.000      0.000
REMARK  11 active torsions:
REMARK  status: ('A' for Active; 'I' for Inactive)
REMARK    1  A    between atoms: C_1  and  O_2 
REMARK    2  A    between atoms: O_2  and  C_3 
REMARK    3  A    between atoms: C_3  and  C_4 
REMARK    4  A    between atoms: C_4  and  O_5 
REMARK    5  A    between atoms: O_5  and  C_6 
REMARK    6  A    between atoms: C_10  and  C_12 
REMARK    7  A    between atoms: C_14  and  C_17 
REMARK    8  A    between atoms: N_22  and  C_23 
REMARK    9  A    between atoms: C_23  and  C_24 
REMARK   10  A    between atoms: C_27  and  S_30 
REMARK   11  A    between atoms: S_30  and  C_33 
ROOT
ATOM      1  C   LIG d   1       4.876   0.099  -3.166  0.00  0.00     0.060 C 
ATOM      2  H   LIG d   1       4.328   0.986  -2.846  0.00  0.00     0.095 H 
ATOM      3  C   LIG d   1       4.940  -0.923  -2.012  0.00  0.00     0.004 C 
ATOM      4  C   LIG d   1       3.773  -1.892  -2.340  0.00  0.00    -0.007 C 
ATOM      5  C   LIG d   1       3.824  -1.930  -3.889  0.00  0.00    -0.031 C 
ATOM      6  N   LIG d   1       4.173  -0.546  -4.289  0.00  0.00     0.247 N 
ATOM      7  H   LIG d   1       5.893  -1.451  -2.017  0.00  0.00     0.033 H 
ATOM      8  H   LIG d   1       4.774  -0.433  -1.053  0.00  0.00     0.033 H 
ATOM      9  H   LIG d   1       3.958  -2.881  -1.919  0.00  0.00     0.032 H 
ATOM     10  H   LIG d   1       2.822  -1.493  -1.991  0.00  0.00     0.032 H 
ATOM     11  H   LIG d   1       4.589  -2.629  -4.226  0.00  0.00     0.082 H 
ATOM     12  H   LIG d   1       2.851  -2.207  -4.293  0.00  0.00     0.082 H 
ATOM     13  H   LIG d   1       3.333  -0.032  -4.505  0.00  0.00     0.204 HD
ENDROOT
BRANCH   1  14
ATOM     14  C   LIG d   1       6.272   0.484  -3.588  0.00  0.00     0.276 A 
ATOM     15  N   LIG d   1       6.698   1.697  -3.789  0.00  0.00    -0.181 NA
ATOM     16  C   LIG d   1       7.993   1.675  -4.154  0.00  0.00     0.267 A 
ATOM     17  N   LIG d   1       8.396   0.429  -4.191  0.00  0.00    -0.050 NA
ATOM     18  O   LIG d   1       7.281  -0.365  -3.817  0.00  0.00    -0.332 OA
BRANCH  16  19
ATOM     19  C   LIG d   1       8.824   2.864  -4.468  0.00  0.00     0.257 A 
ATOM     20  N   LIG d   1       9.129   3.139  -5.730  0.00  0.00    -0.208 N 
ATOM     21  C   LIG d   1       9.864   4.183  -6.055  0.00  0.00     0.174 A 
ATOM     22  H   LIG d   1       8.802   2.555  -6.432  0.00  0.00     0.453 HD
ATOM     23  C   LIG d   1      10.349   5.039  -5.087  0.00  0.00     0.044 A 
ATOM     24  H   LIG d   1      10.090   4.373  -7.095  0.00  0.00     0.138 H 
ATOM     25  C   LIG d   1      10.055   4.791  -3.748  0.00  0.00     0.133 A 
ATOM     26  H   LIG d   1      10.951   5.893  -5.364  0.00  0.00     0.071 H 
ATOM     27  C   LIG d   1       9.282   3.677  -3.437  0.00  0.00     0.055 A 
ATOM     28  H   LIG d   1       9.035   3.450  -2.410  0.00  0.00     0.072 H 
BRANCH  25  29
ATOM     29  O   LIG d   1      10.516   5.612  -2.771  0.00  0.00    -0.489 OA
BRANCH  29  30
ATOM     30  C   LIG d   1       9.633   6.640  -2.316  0.00  0.00     0.113 C 
ATOM     31  H   LIG d   1       8.617   6.249  -2.268  0.00  0.00     0.072 H 
ATOM     32  H   LIG d   1       9.667   7.481  -3.007  0.00  0.00     0.072 H 
BRANCH  30  33
ATOM     33  C   LIG d   1      10.066   7.105  -0.925  0.00  0.00     0.081 C 
ATOM     34  H   LIG d   1       9.278   7.715  -0.483  0.00  0.00     0.059 H 
ATOM     35  H   LIG d   1      10.979   7.696  -1.007  0.00  0.00     0.059 H 
BRANCH  33  36
ATOM     36  O   LIG d   1      10.309   5.967  -0.096  0.00  0.00    -0.380 OA
BRANCH  36  37
ATOM     37  C   LIG d   1      11.081   6.252   1.072  0.00  0.00     0.037 C 
ATOM     38  H   LIG d   1      10.630   7.087   1.610  0.00  0.00     0.052 H 
ATOM     39  H   LIG d   1      11.101   5.374   1.718  0.00  0.00     0.052 H 
ATOM     40  H   LIG d   1      12.098   6.514   0.782  0.00  0.00     0.052 H 
ENDBRANCH  36  37
ENDBRANCH  33  36
ENDBRANCH  30  33
ENDBRANCH  29  30
ENDBRANCH  25  29
ENDBRANCH  16  19
ENDBRANCH   1  14
BRANCH   6  41
ATOM     41  C   LIG d   1       5.049  -0.579  -5.468  0.00  0.00    -0.005 C 
ATOM     42  H   LIG d   1       5.544   0.386  -5.579  0.00  0.00     0.087 H 
ATOM     43  H   LIG d   1       5.798  -1.360  -5.344  0.00  0.00     0.087 H 
BRANCH  41  44
ATOM     44  C   LIG d   1       4.226  -0.865  -6.698  0.00  0.00    -0.003 A 
ATOM     45  C   LIG d   1       3.199  -0.011  -7.056  0.00  0.00    -0.052 A 
ATOM     46  C   LIG d   1       2.447  -0.271  -8.187  0.00  0.00    -0.036 A 
ATOM     47  H   LIG d   1       2.987   0.860  -6.455  0.00  0.00     0.062 H 
ATOM     48  C   LIG d   1       2.715  -1.389  -8.953  0.00  0.00     0.088 A 
ATOM     49  H   LIG d   1       1.648   0.398  -8.470  0.00  0.00     0.064 H 
ATOM     50  C   LIG d   1       3.739  -2.246  -8.592  0.00  0.00    -0.036 A 
ATOM     51  C   LIG d   1       4.494  -1.983  -7.464  0.00  0.00    -0.052 A 
ATOM     52  H   LIG d   1       3.949  -3.119  -9.191  0.00  0.00     0.064 H 
ATOM     53  H   LIG d   1       5.292  -2.653  -7.182  0.00  0.00     0.062 H 
BRANCH  48  54
ATOM     54  S   LIG d   1       1.754  -1.723 -10.391  0.00  0.00    -0.006 S 
ATOM     55  O   LIG d   1       1.119  -2.965 -10.122  0.00  0.00    -0.170 OA
ATOM     56  O   LIG d   1       0.985  -0.545 -10.596  0.00  0.00    -0.170 OA
BRANCH  54  57
ATOM     57  C   LIG d   1       2.965  -1.918 -11.727  0.00  0.00     0.060 C 
ATOM     58  H   LIG d   1       3.890  -2.328 -11.323  0.00  0.00     0.047 H 
ATOM     59  H   LIG d   1       2.568  -2.596 -12.483  0.00  0.00     0.047 H 
ATOM     60  H   LIG d   1       3.166  -0.946 -12.180  0.00  0.00     0.047 H 
ENDBRANCH  54  57
ENDBRANCH  48  54
ENDBRANCH  41  44
ENDBRANCH   6  41
TORSDOF 11
ENDMDL
MODEL 2
REMARK VINA RESULT:      -6.4      4.171     10.863
REMARK  11 active torsions:
REMARK  status: ('A' for Active; 'I' for Inactive)
REMARK    1  A    between atoms: C_1  and  O_2 
REMARK    2  A    between atoms: O_2  and  C_3 
REMARK    3  A    between atoms: C_3  and  C_4 
REMARK    4  A    between atoms: C_4  and  O_5 
REMARK    5  A    between atoms: O_5  and  C_6 
REMARK    6  A    between atoms: C_10  and  C_12 
REMARK    7  A    between atoms: C_14  and  C_17 
REMARK    8  A    between atoms: N_22  and  C_23 
REMARK    9  A    between atoms: C_23  and  C_24 
REMARK   10  A    between atoms: C_27  and  S_30 
REMARK   11  A    between atoms: S_30  and  C_33 
ROOT
ATOM      1  C   LIG d   1       8.896   3.497  -5.885  0.00  0.00     0.060 C 
ATOM      2  H   LIG d   1       7.990   3.986  -6.242  0.00  0.00     0.095 H 
ATOM      3  C   LIG d   1       9.843   3.214  -7.070  0.00  0.00     0.004 C 
ATOM      4  C   LIG d   1      10.829   4.411  -7.022  0.00  0.00    -0.007 C 
ATOM      5  C   LIG d   1      10.966   4.644  -5.496  0.00  0.00    -0.031 C 
ATOM      6  N   LIG d   1       9.611   4.387  -4.952  0.00  0.00     0.247 N 
ATOM      7  H   LIG d   1      10.372   2.273  -6.924  0.00  0.00     0.033 H 
ATOM      8  H   LIG d   1       9.292   3.207  -8.010  0.00  0.00     0.033 H 
ATOM      9  H   LIG d   1      11.789   4.144  -7.464  0.00  0.00     0.032 H 
ATOM     10  H   LIG d   1      10.406   5.287  -7.514  0.00  0.00     0.032 H 
ATOM     11  H   LIG d   1      11.687   3.946  -5.070  0.00  0.00     0.082 H 
ATOM     12  H   LIG d   1      11.266   5.671  -5.295  0.00  0.00     0.082 H 
ATOM     13  H   LIG d   1       9.110   5.257  -4.861  0.00  0.00     0.204 HD
ENDROOT
BRANCH   1  14
ATOM     14  C   LIG d   1       8.543   2.206  -5.192  0.00  0.00     0.276 A 
ATOM     15  N   LIG d   1       7.369   1.890  -4.723  0.00  0.00    -0.181 NA
ATOM     16  C   LIG d   1       7.409   0.665  -4.170  0.00  0.00     0.267 A 
ATOM     17  N   LIG d   1       8.626   0.194  -4.282  0.00  0.00    -0.050 NA
ATOM     18  O   LIG d   1       9.382   1.189  -4.956  0.00  0.00    -0.332 OA
BRANCH  16  19
ATOM     19  C   LIG d   1       6.265  -0.035  -3.532  0.00  0.00     0.257 A 
ATOM     20  N   LIG d   1       5.608   0.550  -2.538  0.00  0.00    -0.208 N 
ATOM     21  C   LIG d   1       4.587  -0.034  -1.943  0.00  0.00     0.174 A 
ATOM     22  H   LIG d   1       5.887   1.430  -2.242  0.00  0.00     0.453 HD
ATOM     23  C   LIG d   1       4.160  -1.287  -2.334  0.00  0.00     0.044 A 
ATOM     24  H   LIG d   1       4.078   0.475  -1.138  0.00  0.00     0.138 H 
ATOM     25  C   LIG d   1       4.819  -1.939  -3.374  0.00  0.00     0.133 A 
ATOM     26  H   LIG d   1       3.321  -1.756  -1.840  0.00  0.00     0.071 H 
ATOM     27  C   LIG d   1       5.896  -1.299  -3.978  0.00  0.00     0.055 A 
ATOM     28  H   LIG d   1       6.435  -1.775  -4.785  0.00  0.00     0.072 H 
BRANCH  25  29
ATOM     29  O   LIG d   1       4.424  -3.172  -3.783  0.00  0.00    -0.489 OA
BRANCH  29  30
ATOM     30  C   LIG d   1       4.774  -3.557  -5.114  0.00  0.00     0.113 C 
ATOM     31  H   LIG d   1       5.804  -3.263  -5.317  0.00  0.00     0.072 H 
ATOM     32  H   LIG d   1       4.109  -3.065  -5.822  0.00  0.00     0.072 H 
BRANCH  30  33
ATOM     33  C   LIG d   1       4.640  -5.074  -5.257  0.00  0.00     0.081 C 
ATOM     34  H   LIG d   1       4.480  -5.520  -4.275  0.00  0.00     0.059 H 
ATOM     35  H   LIG d   1       5.553  -5.480  -5.694  0.00  0.00     0.059 H 
BRANCH  33  36
ATOM     36  O   LIG d   1       3.531  -5.376  -6.104  0.00  0.00    -0.380 OA
BRANCH  36  37
ATOM     37  C   LIG d   1       3.711  -4.979  -7.464  0.00  0.00     0.037 C 
ATOM     38  H   LIG d   1       3.447  -5.807  -8.123  0.00  0.00     0.052 H 
ATOM     39  H   LIG d   1       3.070  -4.124  -7.682  0.00  0.00     0.052 H 
ATOM     40  H   LIG d   1       4.753  -4.703  -7.627  0.00  0.00     0.052 H 
ENDBRANCH  36  37
ENDBRANCH  33  36
ENDBRANCH  30  33
ENDBRANCH  29  30
ENDBRANCH  25  29
ENDBRANCH  16  19
ENDBRANCH   1  14
BRANCH   6  41
ATOM     41  C   LIG d   1       9.721   3.741  -3.637  0.00  0.00    -0.005 C 
ATOM     42  H   LIG d   1       8.755   3.320  -3.358  0.00  0.00     0.087 H 
ATOM     43  H   LIG d   1      10.464   2.945  -3.684  0.00  0.00     0.087 H 
BRANCH  41  44
ATOM     44  C   LIG d   1      10.141   4.760  -2.609  0.00  0.00    -0.003 A 
ATOM     45  C   LIG d   1       9.543   6.007  -2.589  0.00  0.00    -0.052 A 
ATOM     46  C   LIG d   1       9.926   6.940  -1.643  0.00  0.00    -0.036 A 
ATOM     47  H   LIG d   1       8.777   6.250  -3.308  0.00  0.00     0.062 H 
ATOM     48  C   LIG d   1      10.911   6.630  -0.725  0.00  0.00     0.088 A 
ATOM     49  H   LIG d   1       9.456   7.912  -1.623  0.00  0.00     0.064 H 
ATOM     50  C   LIG d   1      11.513   5.385  -0.750  0.00  0.00    -0.036 A 
ATOM     51  C   LIG d   1      11.127   4.451  -1.693  0.00  0.00    -0.052 A 
ATOM     52  H   LIG d   1      12.283   5.143  -0.033  0.00  0.00     0.064 H 
ATOM     53  H   LIG d   1      11.598   3.479  -1.712  0.00  0.00     0.062 H 
BRANCH  48  54
ATOM     54  S   LIG d   1      11.402   7.821   0.477  0.00  0.00    -0.006 S 
ATOM     55  O   LIG d   1      10.513   8.913   0.289  0.00  0.00    -0.170 OA
ATOM     56  O   LIG d   1      11.425   7.108   1.706  0.00  0.00    -0.170 OA
BRANCH  54  57
ATOM     57  C   LIG d   1      13.086   8.298   0.000  0.00  0.00     0.060 C 
ATOM     58  H   LIG d   1      13.535   7.503  -0.595  0.00  0.00     0.047 H 
ATOM     59  H   LIG d   1      13.052   9.216  -0.587  0.00  0.00     0.047 H 
ATOM     60  H   LIG d   1      13.684   8.463   0.897  0.00  0.00     0.047 H 
ENDBRANCH  54  57
ENDBRANCH  48  54
ENDBRANCH  41  44
ENDBRANCH   6  41
TORSDOF 11
ENDMDL
MODEL 3
REMARK VINA RESULT:      -6.2      4.150      5.955
REMARK  11 active torsions:
REMARK  status: ('A' for Active; 'I' for Inactive)
REMARK    1  A    between atoms: C_1  and  O_2 
REMARK    2  A    between atoms: O_2  and  C_3 
REMARK    3  A    between atoms: C_3  and  C_4 
REMARK    4  A    between atoms: C_4  and  O_5 
REMARK    5  A    between atoms: O_5  and  C_6 
REMARK    6  A    between atoms: C_10  and  C_12 
REMARK    7  A    between atoms: C_14  and  C_17 
REMARK    8  A    between atoms: N_22  and  C_23 
REMARK    9  A    between atoms: C_23  and  C_24 
REMARK   10  A    between atoms: C_27  and  S_30 
REMARK   11  A    between atoms: S_30  and  C_33 
ROOT
ATOM      1  C   LIG d   1      11.282   0.344  -4.609  0.00  0.00     0.060 C 
ATOM      2  H   LIG d   1      11.425  -0.209  -3.681  0.00  0.00     0.095 H 
ATOM      3  C   LIG d   1      12.459   0.070  -5.570  0.00  0.00     0.004 C 
ATOM      4  C   LIG d   1      11.900  -1.042  -6.497  0.00  0.00    -0.007 C 
ATOM      5  C   LIG d   1      10.412  -0.629  -6.621  0.00  0.00    -0.031 C 
ATOM      6  N   LIG d   1      10.050  -0.111  -5.279  0.00  0.00     0.247 N 
ATOM      7  H   LIG d   1      12.704   0.963  -6.143  0.00  0.00     0.033 H 
ATOM      8  H   LIG d   1      13.329  -0.289  -5.021  0.00  0.00     0.033 H 
ATOM      9  H   LIG d   1      12.393  -1.024  -7.469  0.00  0.00     0.032 H 
ATOM     10  H   LIG d   1      11.995  -2.024  -6.032  0.00  0.00     0.032 H 
ATOM     11  H   LIG d   1      10.296   0.151  -7.374  0.00  0.00     0.082 H 
ATOM     12  H   LIG d   1       9.797  -1.493  -6.871  0.00  0.00     0.082 H 
ATOM     13  H   LIG d   1       9.619  -0.843  -4.736  0.00  0.00     0.204 HD
ENDROOT
BRANCH   1  14
ATOM     14  C   LIG d   1      11.192   1.820  -4.318  0.00  0.00     0.276 A 
ATOM     15  N   LIG d   1      11.083   2.357  -3.136  0.00  0.00    -0.181 NA
ATOM     16  C   LIG d   1      11.029   3.697  -3.243  0.00  0.00     0.267 A 
ATOM     17  N   LIG d   1      11.098   4.019  -4.511  0.00  0.00    -0.050 NA
ATOM     18  O   LIG d   1      11.212   2.800  -5.230  0.00  0.00    -0.332 OA
BRANCH  16  19
ATOM     19  C   LIG d   1      10.904   4.651  -2.113  0.00  0.00     0.257 A 
ATOM     20  N   LIG d   1      11.655   4.491  -1.031  0.00  0.00    -0.208 N 
ATOM     21  C   LIG d   1      11.577   5.313  -0.004  0.00  0.00     0.174 A 
ATOM     22  H   LIG d   1      12.279   3.749  -0.995  0.00  0.00     0.453 HD
ATOM     23  C   LIG d   1      10.704   6.381  -0.014  0.00  0.00     0.044 A 
ATOM     24  H   LIG d   1      12.207   5.149   0.859  0.00  0.00     0.138 H 
ATOM     25  C   LIG d   1       9.895   6.590  -1.129  0.00  0.00     0.133 A 
ATOM     26  H   LIG d   1      10.648   7.050   0.833  0.00  0.00     0.071 H 
ATOM     27  C   LIG d   1       9.996   5.701  -2.195  0.00  0.00     0.055 A 
ATOM     28  H   LIG d   1       9.382   5.828  -3.075  0.00  0.00     0.072 H 
BRANCH  25  29
ATOM     29  O   LIG d   1       9.024   7.631  -1.172  0.00  0.00    -0.489 OA
BRANCH  29  30
ATOM     30  C   LIG d   1       9.543   8.924  -0.854  0.00  0.00     0.113 C 
ATOM     31  H   LIG d   1      10.485   8.815  -0.317  0.00  0.00     0.072 H 
ATOM     32  H   LIG d   1       8.829   9.459  -0.230  0.00  0.00     0.072 H 
BRANCH  30  33
ATOM     33  C   LIG d   1       9.781   9.709  -2.145  0.00  0.00     0.081 C 
ATOM     34  H   LIG d   1       9.547   9.078  -3.003  0.00  0.00     0.059 H 
ATOM     35  H   LIG d   1      10.826  10.016  -2.196  0.00  0.00     0.059 H 
BRANCH  33  36
ATOM     36  O   LIG d   1       8.943  10.866  -2.161  0.00  0.00    -0.380 OA
BRANCH  36  37
ATOM     37  C   LIG d   1       8.820  11.478  -3.447  0.00  0.00     0.037 C 
ATOM     38  H   LIG d   1       7.829  11.273  -3.853  0.00  0.00     0.052 H 
ATOM     39  H   LIG d   1       8.957  12.555  -3.351  0.00  0.00     0.052 H 
ATOM     40  H   LIG d   1       9.578  11.072  -4.116  0.00  0.00     0.052 H 
ENDBRANCH  36  37
ENDBRANCH  33  36
ENDBRANCH  30  33
ENDBRANCH  29  30
ENDBRANCH  25  29
ENDBRANCH  16  19
ENDBRANCH   1  14
BRANCH   6  41
ATOM     41  C   LIG d   1       9.118   1.016  -5.419  0.00  0.00    -0.005 C 
ATOM     42  H   LIG d   1       9.573   1.917  -5.007  0.00  0.00     0.087 H 
ATOM     43  H   LIG d   1       8.892   1.173  -6.473  0.00  0.00     0.087 H 
BRANCH  41  44
ATOM     44  C   LIG d   1       7.845   0.710  -4.672  0.00  0.00    -0.003 A 
ATOM     45  C   LIG d   1       7.364   1.603  -3.732  0.00  0.00    -0.052 A 
ATOM     46  C   LIG d   1       6.194   1.323  -3.051  0.00  0.00    -0.036 A 
ATOM     47  H   LIG d   1       7.900   2.518  -3.533  0.00  0.00     0.062 H 
ATOM     48  C   LIG d   1       5.510   0.149  -3.302  0.00  0.00     0.088 A 
ATOM     49  H   LIG d   1       5.815   2.022  -2.319  0.00  0.00     0.064 H 
ATOM     50  C   LIG d   1       5.995  -0.746  -4.238  0.00  0.00    -0.036 A 
ATOM     51  C   LIG d   1       7.163  -0.465  -4.923  0.00  0.00    -0.052 A 
ATOM     52  H   LIG d   1       5.461  -1.664  -4.435  0.00  0.00     0.064 H 
ATOM     53  H   LIG d   1       7.541  -1.164  -5.653  0.00  0.00     0.062 H 
BRANCH  48  54
ATOM     54  S   LIG d   1       4.022  -0.208  -2.430  0.00  0.00    -0.006 S 
ATOM     55  O   LIG d   1       4.352  -1.299  -1.581  0.00  0.00    -0.170 OA
ATOM     56  O   LIG d   1       3.613   1.038  -1.883  0.00  0.00    -0.170 OA
BRANCH  54  57
ATOM     57  C   LIG d   1       2.851  -0.745  -3.707  0.00  0.00     0.060 C 
ATOM     58  H   LIG d   1       2.198   0.086  -3.974  0.00  0.00     0.047 H 
ATOM     59  H   LIG d   1       3.399  -1.073  -4.590  0.00  0.00     0.047 H 
ATOM     60  H   LIG d   1       2.250  -1.571  -3.325  0.00  0.00     0.047 H 
ENDBRANCH  54  57
ENDBRANCH  48  54
ENDBRANCH  41  44
ENDBRANCH   6  41
TORSDOF 11
ENDMDL
MODEL 4
REMARK VINA RESULT:      -6.2      1.873      2.572
REMARK  11 active torsions:
REMARK  status: ('A' for Active; 'I' for Inactive)
REMARK    1  A    between atoms: C_1  and  O_2 
REMARK    2  A    between atoms: O_2  and  C_3 
REMARK    3  A    between atoms: C_3  and  C_4 
REMARK    4  A    between atoms: C_4  and  O_5 
REMARK    5  A    between atoms: O_5  and  C_6 
REMARK    6  A    between atoms: C_10  and  C_12 
REMARK    7  A    between atoms: C_14  and  C_17 
REMARK    8  A    between atoms: N_22  and  C_23 
REMARK    9  A    between atoms: C_23  and  C_24 
REMARK   10  A    between atoms: C_27  and  S_30 
REMARK   11  A    between atoms: S_30  and  C_33 
ROOT
ATOM      1  C   LIG d   1       4.826   0.177  -3.143  0.00  0.00     0.060 C 
ATOM      2  H   LIG d   1       4.313   1.085  -2.828  0.00  0.00     0.095 H 
ATOM      3  C   LIG d   1       4.787  -0.869  -2.009  0.00  0.00     0.004 C 
ATOM      4  C   LIG d   1       3.586  -1.768  -2.407  0.00  0.00    -0.007 C 
ATOM      5  C   LIG d   1       3.700  -1.779  -3.952  0.00  0.00    -0.031 C 
ATOM      6  N   LIG d   1       4.139  -0.409  -4.308  0.00  0.00     0.247 N 
ATOM      7  H   LIG d   1       5.710  -1.447  -1.986  0.00  0.00     0.033 H 
ATOM      8  H   LIG d   1       4.606  -0.389  -1.048  0.00  0.00     0.033 H 
ATOM      9  H   LIG d   1       3.700  -2.773  -2.000  0.00  0.00     0.032 H 
ATOM     10  H   LIG d   1       2.642  -1.325  -2.089  0.00  0.00     0.032 H 
ATOM     11  H   LIG d   1       4.442  -2.512  -4.272  0.00  0.00     0.082 H 
ATOM     12  H   LIG d   1       2.733  -1.996  -4.403  0.00  0.00     0.082 H 
ATOM     13  H   LIG d   1       3.337   0.154  -4.548  0.00  0.00     0.204 HD
ENDROOT
BRANCH   1  14
ATOM     14  C   LIG d   1       6.257   0.494  -3.498  0.00  0.00     0.276 A 
ATOM     15  N   LIG d   1       6.821   1.664  -3.411  0.00  0.00    -0.181 NA
ATOM     16  C   LIG d   1       8.104   1.587  -3.806  0.00  0.00     0.267 A 
ATOM     17  N   LIG d   1       8.362   0.351  -4.155  0.00  0.00    -0.050 NA
ATOM     18  O   LIG d   1       7.162  -0.381  -3.954  0.00  0.00    -0.332 OA
BRANCH  16  19
ATOM     19  C   LIG d   1       9.067   2.716  -3.846  0.00  0.00     0.257 A 
ATOM     20  N   LIG d   1      10.100   2.730  -3.014  0.00  0.00    -0.208 N 
ATOM     21  C   LIG d   1      10.979   3.712  -3.014  0.00  0.00     0.174 A 
ATOM     22  H   LIG d   1      10.212   1.997  -2.388  0.00  0.00     0.453 HD
ATOM     23  C   LIG d   1      10.857   4.773  -3.888  0.00  0.00     0.044 A 
ATOM     24  H   LIG d   1      11.807   3.686  -2.321  0.00  0.00     0.138 H 
ATOM     25  C   LIG d   1       9.789   4.803  -4.781  0.00  0.00     0.133 A 
ATOM     26  H   LIG d   1      11.584   5.573  -3.880  0.00  0.00     0.071 H 
ATOM     27  C   LIG d   1       8.875   3.754  -4.752  0.00  0.00     0.055 A 
ATOM     28  H   LIG d   1       8.030   3.743  -5.427  0.00  0.00     0.072 H 
BRANCH  25  29
ATOM     29  O   LIG d   1       9.639   5.832  -5.654  0.00  0.00    -0.489 OA
BRANCH  29  30
ATOM     30  C   LIG d   1       9.506   7.141  -5.097  0.00  0.00     0.113 C 
ATOM     31  H   LIG d   1      10.414   7.396  -4.550  0.00  0.00     0.072 H 
ATOM     32  H   LIG d   1       8.655   7.162  -4.418  0.00  0.00     0.072 H 
BRANCH  30  33
ATOM     33  C   LIG d   1       9.287   8.153  -6.222  0.00  0.00     0.081 C 
ATOM     34  H   LIG d   1       8.313   7.983  -6.681  0.00  0.00     0.059 H 
ATOM     35  H   LIG d   1      10.067   8.034  -6.975  0.00  0.00     0.059 H 
BRANCH  33  36
ATOM     36  O   LIG d   1       9.338   9.477  -5.689  0.00  0.00    -0.380 OA
BRANCH  36  37
ATOM     37  C   LIG d   1       9.914  10.440  -6.574  0.00  0.00     0.037 C 
ATOM     38  H   LIG d   1       9.125  11.069  -6.989  0.00  0.00     0.052 H 
ATOM     39  H   LIG d   1      10.621  11.061  -6.025  0.00  0.00     0.052 H 
ATOM     40  H   LIG d   1      10.432   9.926  -7.383  0.00  0.00     0.052 H 
ENDBRANCH  36  37
ENDBRANCH  33  36
ENDBRANCH  30  33
ENDBRANCH  29  30
ENDBRANCH  25  29
ENDBRANCH  16  19
ENDBRANCH   1  14
BRANCH   6  41
ATOM     41  C   LIG d   1       5.062  -0.466  -5.450  0.00  0.00    -0.005 C 
ATOM     42  H   LIG d   1       5.590   0.484  -5.537  0.00  0.00     0.087 H 
ATOM     43  H   LIG d   1       5.782  -1.269  -5.297  0.00  0.00     0.087 H 
BRANCH  41  44
ATOM     44  C   LIG d   1       4.282  -0.725  -6.714  0.00  0.00    -0.003 A 
ATOM     45  C   LIG d   1       3.207   0.081  -7.039  0.00  0.00    -0.052 A 
ATOM     46  C   LIG d   1       2.495  -0.154  -8.201  0.00  0.00    -0.036 A 
ATOM     47  H   LIG d   1       2.926   0.895  -6.389  0.00  0.00     0.062 H 
ATOM     48  C   LIG d   1       2.851  -1.199  -9.031  0.00  0.00     0.088 A 
ATOM     49  H   LIG d   1       1.657   0.478  -8.458  0.00  0.00     0.064 H 
ATOM     50  C   LIG d   1       3.924  -2.009  -8.702  0.00  0.00    -0.036 A 
ATOM     51  C   LIG d   1       4.639  -1.770  -7.543  0.00  0.00    -0.052 A 
ATOM     52  H   LIG d   1       4.203  -2.825  -9.350  0.00  0.00     0.064 H 
ATOM     53  H   LIG d   1       5.475  -2.403  -7.286  0.00  0.00     0.062 H 
BRANCH  48  54
ATOM     54  S   LIG d   1       1.941  -1.501 -10.508  0.00  0.00    -0.006 S 
ATOM     55  O   LIG d   1       0.860  -0.580 -10.463  0.00  0.00    -0.170 OA
ATOM     56  O   LIG d   1       2.907  -1.436 -11.550  0.00  0.00    -0.170 OA
BRANCH  54  57
ATOM     57  C   LIG d   1       1.323  -3.198 -10.337  0.00  0.00     0.060 C 
ATOM     58  H   LIG d   1       0.699  -3.270  -9.445  0.00  0.00     0.047 H 
ATOM     59  H   LIG d   1       0.732  -3.461 -11.214  0.00  0.00     0.047 H 
ATOM     60  H   LIG d   1       2.165  -3.884 -10.247  0.00  0.00     0.047 H 
ENDBRANCH  54  57
ENDBRANCH  48  54
ENDBRANCH  41  44
ENDBRANCH   6  41
TORSDOF 11
ENDMDL
MODEL 5
REMARK VINA RESULT:      -6.2      1.845      3.307
REMARK  11 active torsions:
REMARK  status: ('A' for Active; 'I' for Inactive)
REMARK    1  A    between atoms: C_1  and  O_2 
REMARK    2  A    between atoms: O_2  and  C_3 
REMARK    3  A    between atoms: C_3  and  C_4 
REMARK    4  A    between atoms: C_4  and  O_5 
REMARK    5  A    between atoms: O_5  and  C_6 
REMARK    6  A    between atoms: C_10  and  C_12 
REMARK    7  A    between atoms: C_14  and  C_17 
REMARK    8  A    between atoms: N_22  and  C_23 
REMARK    9  A    between atoms: C_23  and  C_24 
REMARK   10  A    between atoms: C_27  and  S_30 
REMARK   11  A    between atoms: S_30  and  C_33 
ROOT
ATOM      1  C   LIG d   1       4.746   0.233  -3.037  0.00  0.00     0.060 C 
ATOM      2  H   LIG d   1       4.222   1.129  -2.703  0.00  0.00     0.095 H 
ATOM      3  C   LIG d   1       4.735  -0.829  -1.917  0.00  0.00     0.004 C 
ATOM      4  C   LIG d   1       3.544  -1.741  -2.312  0.00  0.00    -0.007 C 
ATOM      5  C   LIG d   1       3.640  -1.729  -3.859  0.00  0.00    -0.031 C 
ATOM      6  N   LIG d   1       4.053  -0.348  -4.202  0.00  0.00     0.247 N 
ATOM      7  H   LIG d   1       5.667  -1.393  -1.912  0.00  0.00     0.033 H 
ATOM      8  H   LIG d   1       4.559  -0.365  -0.947  0.00  0.00     0.033 H 
ATOM      9  H   LIG d   1       3.677  -2.749  -1.920  0.00  0.00     0.032 H 
ATOM     10  H   LIG d   1       2.597  -1.316  -1.977  0.00  0.00     0.032 H 
ATOM     11  H   LIG d   1       4.388  -2.446  -4.197  0.00  0.00     0.082 H 
ATOM     12  H   LIG d   1       2.670  -1.955  -4.301  0.00  0.00     0.082 H 
ATOM     13  H   LIG d   1       3.240   0.206  -4.424  0.00  0.00     0.204 HD
ENDROOT
BRANCH   1  14
ATOM     14  C   LIG d   1       6.167   0.576  -3.404  0.00  0.00     0.276 A 
ATOM     15  N   LIG d   1       6.673   1.775  -3.449  0.00  0.00    -0.181 NA
ATOM     16  C   LIG d   1       7.966   1.715  -3.812  0.00  0.00     0.267 A 
ATOM     17  N   LIG d   1       8.290   0.461  -4.007  0.00  0.00    -0.050 NA
ATOM     18  O   LIG d   1       7.122  -0.301  -3.738  0.00  0.00    -0.332 OA
BRANCH  16  19
ATOM     19  C   LIG d   1       8.875   2.879  -3.971  0.00  0.00     0.257 A 
ATOM     20  N   LIG d   1       9.755   3.162  -3.019  0.00  0.00    -0.208 N 
ATOM     21  C   LIG d   1      10.581   4.184  -3.118  0.00  0.00     0.174 A 
ATOM     22  H   LIG d   1       9.791   2.601  -2.229  0.00  0.00     0.453 HD
ATOM     23  C   LIG d   1      10.561   5.007  -4.226  0.00  0.00     0.044 A 
ATOM     24  H   LIG d   1      11.283   4.381  -2.321  0.00  0.00     0.138 H 
ATOM     25  C   LIG d   1       9.655   4.749  -5.252  0.00  0.00     0.133 A 
ATOM     26  H   LIG d   1      11.243   5.842  -4.298  0.00  0.00     0.071 H 
ATOM     27  C   LIG d   1       8.793   3.666  -5.115  0.00  0.00     0.055 A 
ATOM     28  H   LIG d   1       8.073   3.436  -5.888  0.00  0.00     0.072 H 
BRANCH  25  29
ATOM     29  O   LIG d   1       9.610   5.539  -6.356  0.00  0.00    -0.489 OA
BRANCH  29  30
ATOM     30  C   LIG d   1      10.822   5.689  -7.096  0.00  0.00     0.113 C 
ATOM     31  H   LIG d   1      11.574   5.003  -6.704  0.00  0.00     0.072 H 
ATOM     32  H   LIG d   1      11.181   6.713  -7.003  0.00  0.00     0.072 H 
BRANCH  30  33
ATOM     33  C   LIG d   1      10.562   5.372  -8.570  0.00  0.00     0.081 C 
ATOM     34  H   LIG d   1      11.130   4.486  -8.857  0.00  0.00     0.059 H 
ATOM     35  H   LIG d   1      10.874   6.217  -9.184  0.00  0.00     0.059 H 
BRANCH  33  36
ATOM     36  O   LIG d   1       9.168   5.128  -8.766  0.00  0.00    -0.380 OA
BRANCH  36  37
ATOM     37  C   LIG d   1       8.581   5.914  -9.805  0.00  0.00     0.037 C 
ATOM     38  H   LIG d   1       7.738   6.477  -9.402  0.00  0.00     0.052 H 
ATOM     39  H   LIG d   1       9.324   6.607 -10.201  0.00  0.00     0.052 H 
ATOM     40  H   LIG d   1       8.232   5.259 -10.603  0.00  0.00     0.052 H 
ENDBRANCH  36  37
ENDBRANCH  33  36
ENDBRANCH  30  33
ENDBRANCH  29  30
ENDBRANCH  25  29
ENDBRANCH  16  19
ENDBRANCH   1  14
BRANCH   6  41
ATOM     41  C   LIG d   1       4.963  -0.375  -5.355  0.00  0.00    -0.005 C 
ATOM     42  H   LIG d   1       5.454   0.593  -5.453  0.00  0.00     0.087 H 
ATOM     43  H   LIG d   1       5.714  -1.150  -5.208  0.00  0.00     0.087 H 
BRANCH  41  44
ATOM     44  C   LIG d   1       4.177  -0.669  -6.607  0.00  0.00    -0.003 A 
ATOM     45  C   LIG d   1       4.481  -1.783  -7.368  0.00  0.00    -0.052 A 
ATOM     46  C   LIG d   1       3.757  -2.055  -8.514  0.00  0.00    -0.036 A 
ATOM     47  H   LIG d   1       5.280  -2.442  -7.065  0.00  0.00     0.062 H 
ATOM     48  C   LIG d   1       2.737  -1.209  -8.904  0.00  0.00     0.088 A 
ATOM     49  H   LIG d   1       3.991  -2.928  -9.106  0.00  0.00     0.064 H 
ATOM     50  C   LIG d   1       2.436  -0.091  -8.146  0.00  0.00    -0.036 A 
ATOM     51  C   LIG d   1       3.158   0.178  -6.998  0.00  0.00    -0.052 A 
ATOM     52  H   LIG d   1       1.640   0.570  -8.451  0.00  0.00     0.064 H 
ATOM     53  H   LIG d   1       2.923   1.050  -6.407  0.00  0.00     0.062 H 
BRANCH  48  54
ATOM     54  S   LIG d   1       1.818  -1.553 -10.367  0.00  0.00    -0.006 S 
ATOM     55  O   LIG d   1       1.331  -2.875 -10.187  0.00  0.00    -0.170 OA
ATOM     56  O   LIG d   1       0.917  -0.460 -10.495  0.00  0.00    -0.170 OA
BRANCH  54  57
ATOM     57  C   LIG d   1       3.040  -1.515 -11.706  0.00  0.00     0.060 C 
ATOM     58  H   LIG d   1       3.933  -0.989 -11.369  0.00  0.00     0.047 H 
ATOM     59  H   LIG d   1       3.305  -2.535 -11.987  0.00  0.00     0.047 H 
ATOM     60  H   LIG d   1       2.618  -0.999 -12.569  0.00  0.00     0.047 H 
ENDBRANCH  54  57
ENDBRANCH  48  54
ENDBRANCH  41  44
ENDBRANCH   6  41
TORSDOF 11
ENDMDL
MODEL 6
REMARK VINA RESULT:      -6.2      4.056     10.327
REMARK  11 active torsions:
REMARK  status: ('A' for Active; 'I' for Inactive)
REMARK    1  A    between atoms: C_1  and  O_2 
REMARK    2  A    between atoms: O_2  and  C_3 
REMARK    3  A    between atoms: C_3  and  C_4 
REMARK    4  A    between atoms: C_4  and  O_5 
REMARK    5  A    between atoms: O_5  and  C_6 
REMARK    6  A    between atoms: C_10  and  C_12 
REMARK    7  A    between atoms: C_14  and  C_17 
REMARK    8  A    between atoms: N_22  and  C_23 
REMARK    9  A    between atoms: C_23  and  C_24 
REMARK   10  A    between atoms: C_27  and  S_30 
REMARK   11  A    between atoms: S_30  and  C_33 
ROOT
ATOM      1  C   LIG d   1      11.334   2.884  -5.114  0.00  0.00     0.060 C 
ATOM      2  H   LIG d   1      11.360   3.640  -5.898  0.00  0.00     0.095 H 
ATOM      3  C   LIG d   1      12.137   1.642  -5.555  0.00  0.00     0.004 C 
ATOM      4  C   LIG d   1      13.517   1.862  -4.882  0.00  0.00    -0.007 C 
ATOM      5  C   LIG d   1      13.111   2.529  -3.543  0.00  0.00    -0.031 C 
ATOM      6  N   LIG d   1      11.968   3.407  -3.890  0.00  0.00     0.247 N 
ATOM      7  H   LIG d   1      11.669   0.730  -5.187  0.00  0.00     0.033 H 
ATOM      8  H   LIG d   1      12.238   1.614  -6.640  0.00  0.00     0.033 H 
ATOM      9  H   LIG d   1      14.022   0.912  -4.707  0.00  0.00     0.032 H 
ATOM     10  H   LIG d   1      14.141   2.530  -5.476  0.00  0.00     0.032 H 
ATOM     11  H   LIG d   1      12.803   1.772  -2.821  0.00  0.00     0.082 H 
ATOM     12  H   LIG d   1      13.936   3.119  -3.147  0.00  0.00     0.082 H 
ATOM     13  H   LIG d   1      12.298   4.347  -4.054  0.00  0.00     0.204 HD
ENDROOT
BRANCH   1  14
ATOM     14  C   LIG d   1       9.906   2.495  -4.824  0.00  0.00     0.276 A 
ATOM     15  N   LIG d   1       9.503   1.321  -4.429  0.00  0.00    -0.181 NA
ATOM     16  C   LIG d   1       8.168   1.325  -4.265  0.00  0.00     0.267 A 
ATOM     17  N   LIG d   1       7.712   2.516  -4.566  0.00  0.00    -0.050 NA
ATOM     18  O   LIG d   1       8.840   3.298  -4.929  0.00  0.00    -0.332 OA
BRANCH  16  19
ATOM     19  C   LIG d   1       7.347   0.170  -3.824  0.00  0.00     0.257 A 
ATOM     20  N   LIG d   1       7.794  -1.065  -4.011  0.00  0.00    -0.208 N 
ATOM     21  C   LIG d   1       7.099  -2.120  -3.635  0.00  0.00     0.174 A 
ATOM     22  H   LIG d   1       8.656  -1.195  -4.436  0.00  0.00     0.453 HD
ATOM     23  C   LIG d   1       5.868  -1.979  -3.028  0.00  0.00     0.044 A 
ATOM     24  H   LIG d   1       7.498  -3.109  -3.805  0.00  0.00     0.138 H 
ATOM     25  C   LIG d   1       5.357  -0.701  -2.810  0.00  0.00     0.133 A 
ATOM     26  H   LIG d   1       5.306  -2.850  -2.723  0.00  0.00     0.071 H 
ATOM     27  C   LIG d   1       6.112   0.392  -3.223  0.00  0.00     0.055 A 
ATOM     28  H   LIG d   1       5.747   1.398  -3.075  0.00  0.00     0.072 H 
BRANCH  25  29
ATOM     29  O   LIG d   1       4.149  -0.527  -2.215  0.00  0.00    -0.489 OA
BRANCH  29  30
ATOM     30  C   LIG d   1       3.302   0.491  -2.751  0.00  0.00     0.113 C 
ATOM     31  H   LIG d   1       3.906   1.352  -3.037  0.00  0.00     0.072 H 
ATOM     32  H   LIG d   1       2.573   0.792  -2.000  0.00  0.00     0.072 H 
BRANCH  30  33
ATOM     33  C   LIG d   1       2.572  -0.050  -3.982  0.00  0.00     0.081 C 
ATOM     34  H   LIG d   1       1.497   0.087  -3.857  0.00  0.00     0.059 H 
ATOM     35  H   LIG d   1       2.791  -1.112  -4.096  0.00  0.00     0.059 H 
BRANCH  33  36
ATOM     36  O   LIG d   1       3.010   0.654  -5.144  0.00  0.00    -0.380 OA
BRANCH  36  37
ATOM     37  C   LIG d   1       3.604  -0.180  -6.141  0.00  0.00     0.037 C 
ATOM     38  H   LIG d   1       4.691  -0.120  -6.064  0.00  0.00     0.052 H 
ATOM     39  H   LIG d   1       3.287  -1.211  -5.988  0.00  0.00     0.052 H 
ATOM     40  H   LIG d   1       3.290   0.155  -7.130  0.00  0.00     0.052 H 
ENDBRANCH  36  37
ENDBRANCH  33  36
ENDBRANCH  30  33
ENDBRANCH  29  30
ENDBRANCH  25  29
ENDBRANCH  16  19
ENDBRANCH   1  14
BRANCH   6  41
ATOM     41  C   LIG d   1      10.995   3.411  -2.791  0.00  0.00    -0.005 C 
ATOM     42  H   LIG d   1      10.021   3.094  -3.166  0.00  0.00     0.087 H 
ATOM     43  H   LIG d   1      11.324   2.725  -2.011  0.00  0.00     0.087 H 
BRANCH  41  44
ATOM     44  C   LIG d   1      10.884   4.803  -2.222  0.00  0.00    -0.003 A 
ATOM     45  C   LIG d   1      11.784   5.230  -1.263  0.00  0.00    -0.052 A 
ATOM     46  C   LIG d   1      11.685   6.508  -0.744  0.00  0.00    -0.036 A 
ATOM     47  H   LIG d   1      12.564   4.568  -0.921  0.00  0.00     0.062 H 
ATOM     48  C   LIG d   1      10.683   7.354  -1.178  0.00  0.00     0.088 A 
ATOM     49  H   LIG d   1      12.390   6.844   0.002  0.00  0.00     0.064 H 
ATOM     50  C   LIG d   1       9.780   6.925  -2.134  0.00  0.00    -0.036 A 
ATOM     51  C   LIG d   1       9.881   5.648  -2.655  0.00  0.00    -0.052 A 
ATOM     52  H   LIG d   1       8.996   7.585  -2.472  0.00  0.00     0.064 H 
ATOM     53  H   LIG d   1       9.176   5.313  -3.400  0.00  0.00     0.062 H 
BRANCH  48  54
ATOM     54  S   LIG d   1      10.554   8.981  -0.514  0.00  0.00    -0.006 S 
ATOM     55  O   LIG d   1      10.885   8.839   0.860  0.00  0.00    -0.170 OA
ATOM     56  O   LIG d   1      11.351   9.787  -1.372  0.00  0.00    -0.170 OA
BRANCH  54  57
ATOM     57  C   LIG d   1       8.803   9.421  -0.692  0.00  0.00     0.060 C 
ATOM     58  H   LIG d   1       8.718  10.370  -1.220  0.00  0.00     0.047 H 
ATOM     59  H   LIG d   1       8.288   8.644  -1.259  0.00  0.00     0.047 H 
ATOM     60  H   LIG d   1       8.350   9.511   0.295  0.00  0.00     0.047 H 
ENDBRANCH  54  57
ENDBRANCH  48  54
ENDBRANCH  41  44
ENDBRANCH   6  41
TORSDOF 11
ENDMDL
MODEL 7
REMARK VINA RESULT:      -6.1      4.282      7.576
REMARK  11 active torsions:
REMARK  status: ('A' for Active; 'I' for Inactive)
REMARK    1  A    between atoms: C_1  and  O_2 
REMARK    2  A    between atoms: O_2  and  C_3 
REMARK    3  A    between atoms: C_3  and  C_4 
REMARK    4  A    between atoms: C_4  and  O_5 
REMARK    5  A    between atoms: O_5  and  C_6 
REMARK    6  A    between atoms: C_10  and  C_12 
REMARK    7  A    between atoms: C_14  and  C_17 
REMARK    8  A    between atoms: N_22  and  C_23 
REMARK    9  A    between atoms: C_23  and  C_24 
REMARK   10  A    between atoms: C_27  and  S_30 
REMARK   11  A    between atoms: S_30  and  C_33 
ROOT
ATOM      1  C   LIG d   1       5.434   0.560  -3.793  0.00  0.00     0.060 C 
ATOM      2  H   LIG d   1       5.687   1.559  -4.148  0.00  0.00     0.095 H 
ATOM      3  C   LIG d   1       5.249   0.579  -2.261  0.00  0.00     0.004 C 
ATOM      4  C   LIG d   1       3.711   0.701  -2.097  0.00  0.00    -0.007 C 
ATOM      5  C   LIG d   1       3.200  -0.150  -3.288  0.00  0.00    -0.031 C 
ATOM      6  N   LIG d   1       4.157   0.125  -4.386  0.00  0.00     0.247 N 
ATOM      7  H   LIG d   1       5.612  -0.348  -1.818  0.00  0.00     0.033 H 
ATOM      8  H   LIG d   1       5.752   1.440  -1.822  0.00  0.00     0.033 H 
ATOM      9  H   LIG d   1       3.385   0.277  -1.147  0.00  0.00     0.032 H 
ATOM     10  H   LIG d   1       3.388   1.737  -2.192  0.00  0.00     0.032 H 
ATOM     11  H   LIG d   1       3.212  -1.209  -3.029  0.00  0.00     0.082 H 
ATOM     12  H   LIG d   1       2.196   0.161  -3.573  0.00  0.00     0.082 H 
ATOM     13  H   LIG d   1       3.792   0.855  -4.980  0.00  0.00     0.204 HD
ENDROOT
BRANCH   1  14
ATOM     14  C   LIG d   1       6.528  -0.408  -4.165  0.00  0.00     0.276 A 
ATOM     15  N   LIG d   1       6.823  -1.504  -3.527  0.00  0.00    -0.181 NA
ATOM     16  C   LIG d   1       7.851  -2.126  -4.133  0.00  0.00     0.267 A 
ATOM     17  N   LIG d   1       8.219  -1.415  -5.169  0.00  0.00    -0.050 NA
ATOM     18  O   LIG d   1       7.358  -0.287  -5.209  0.00  0.00    -0.332 OA
BRANCH  16  19
ATOM     19  C   LIG d   1       8.468  -3.404  -3.696  0.00  0.00     0.257 A 
ATOM     20  N   LIG d   1       9.195  -3.438  -2.586  0.00  0.00    -0.208 N 
ATOM     21  C   LIG d   1       9.761  -4.550  -2.161  0.00  0.00     0.174 A 
ATOM     22  H   LIG d   1       9.313  -2.623  -2.075  0.00  0.00     0.453 HD
ATOM     23  C   LIG d   1       9.619  -5.731  -2.860  0.00  0.00     0.044 A 
ATOM     24  H   LIG d   1      10.346  -4.536  -1.253  0.00  0.00     0.138 H 
ATOM     25  C   LIG d   1       8.863  -5.745  -4.031  0.00  0.00     0.133 A 
ATOM     26  H   LIG d   1      10.086  -6.637  -2.502  0.00  0.00     0.071 H 
ATOM     27  C   LIG d   1       8.283  -4.554  -4.456  0.00  0.00     0.055 A 
ATOM     28  H   LIG d   1       7.694  -4.524  -5.361  0.00  0.00     0.072 H 
BRANCH  25  29
ATOM     29  O   LIG d   1       8.703  -6.890  -4.742  0.00  0.00    -0.489 OA
BRANCH  29  30
ATOM     30  C   LIG d   1       8.600  -8.106  -3.999  0.00  0.00     0.113 C 
ATOM     31  H   LIG d   1       8.750  -7.898  -2.939  0.00  0.00     0.072 H 
ATOM     32  H   LIG d   1       9.359  -8.807  -4.343  0.00  0.00     0.072 H 
BRANCH  30  33
ATOM     33  C   LIG d   1       7.212  -8.714  -4.207  0.00  0.00     0.081 C 
ATOM     34  H   LIG d   1       6.990  -8.758  -5.273  0.00  0.00     0.059 H 
ATOM     35  H   LIG d   1       6.466  -8.095  -3.707  0.00  0.00     0.059 H 
BRANCH  33  36
ATOM     36  O   LIG d   1       7.182 -10.033  -3.659  0.00  0.00    -0.380 OA
BRANCH  36  37
ATOM     37  C   LIG d   1       6.323 -10.173  -2.526  0.00  0.00     0.037 C 
ATOM     38  H   LIG d   1       5.625 -10.993  -2.699  0.00  0.00     0.052 H 
ATOM     39  H   LIG d   1       6.921 -10.388  -1.640  0.00  0.00     0.052 H 
ATOM     40  H   LIG d   1       5.767  -9.248  -2.374  0.00  0.00     0.052 H 
ENDBRANCH  36  37
ENDBRANCH  33  36
ENDBRANCH  30  33
ENDBRANCH  29  30
ENDBRANCH  25  29
ENDBRANCH  16  19
ENDBRANCH   1  14
BRANCH   6  41
ATOM     41  C   LIG d   1       4.368  -1.095  -5.176  0.00  0.00    -0.005 C 
ATOM     42  H   LIG d   1       5.382  -1.461  -5.014  0.00  0.00     0.087 H 
ATOM     43  H   LIG d   1       3.652  -1.857  -4.867  0.00  0.00     0.087 H 
BRANCH  41  44
ATOM     44  C   LIG d   1       4.173  -0.787  -6.639  0.00  0.00    -0.003 A 
ATOM     45  C   LIG d   1       5.005  -1.360  -7.582  0.00  0.00    -0.052 A 
ATOM     46  C   LIG d   1       4.823  -1.081  -8.924  0.00  0.00    -0.036 A 
ATOM     47  H   LIG d   1       5.794  -2.028  -7.272  0.00  0.00     0.062 H 
ATOM     48  C   LIG d   1       3.816  -0.222  -9.321  0.00  0.00     0.088 A 
ATOM     49  H   LIG d   1       5.470  -1.532  -9.662  0.00  0.00     0.064 H 
ATOM     50  C   LIG d   1       2.987   0.356  -8.377  0.00  0.00    -0.036 A 
ATOM     51  C   LIG d   1       3.167   0.073  -7.035  0.00  0.00    -0.052 A 
ATOM     52  H   LIG d   1       2.201   1.027  -8.687  0.00  0.00     0.064 H 
ATOM     53  H   LIG d   1       2.520   0.524  -6.298  0.00  0.00     0.062 H 
BRANCH  48  54
ATOM     54  S   LIG d   1       3.587   0.137 -11.031  0.00  0.00    -0.006 S 
ATOM     55  O   LIG d   1       2.332  -0.441 -11.358  0.00  0.00    -0.170 OA
ATOM     56  O   LIG d   1       3.788   1.540 -11.137  0.00  0.00    -0.170 OA
BRANCH  54  57
ATOM     57  C   LIG d   1       4.923  -0.751 -11.877  0.00  0.00     0.060 C 
ATOM     58  H   LIG d   1       4.499  -1.407 -12.638  0.00  0.00     0.047 H 
ATOM     59  H   LIG d   1       5.595  -0.034 -12.351  0.00  0.00     0.047 H 
ATOM     60  H   LIG d   1       5.480  -1.346 -11.153  0.00  0.00     0.047 H 
ENDBRANCH  54  57
ENDBRANCH  48  54
ENDBRANCH  41  44
ENDBRANCH   6  41
TORSDOF 11
ENDMDL
MODEL 8
REMARK VINA RESULT:      -6.0      3.432      3.949
REMARK  11 active torsions:
REMARK  status: ('A' for Active; 'I' for Inactive)
REMARK    1  A    between atoms: C_1  and  O_2 
REMARK    2  A    between atoms: O_2  and  C_3 
REMARK    3  A    between atoms: C_3  and  C_4 
REMARK    4  A    between atoms: C_4  and  O_5 
REMARK    5  A    between atoms: O_5  and  C_6 
REMARK    6  A    between atoms: C_10  and  C_12 
REMARK    7  A    between atoms: C_14  and  C_17 
REMARK    8  A    between atoms: N_22  and  C_23 
REMARK    9  A    between atoms: C_23  and  C_24 
REMARK   10  A    between atoms: C_27  and  S_30 
REMARK   11  A    between atoms: S_30  and  C_33 
ROOT
ATOM      1  C   LIG d   1       5.232   0.369  -3.889  0.00  0.00     0.060 C 
ATOM      2  H   LIG d   1       4.589   0.501  -4.759  0.00  0.00     0.095 H 
ATOM      3  C   LIG d   1       4.784   1.317  -2.756  0.00  0.00     0.004 C 
ATOM      4  C   LIG d   1       3.900   0.403  -1.867  0.00  0.00    -0.007 C 
ATOM      5  C   LIG d   1       4.640  -0.954  -1.979  0.00  0.00    -0.031 C 
ATOM      6  N   LIG d   1       5.116  -1.010  -3.382  0.00  0.00     0.247 N 
ATOM      7  H   LIG d   1       5.644   1.684  -2.197  0.00  0.00     0.033 H 
ATOM      8  H   LIG d   1       4.200   2.146  -3.156  0.00  0.00     0.033 H 
ATOM      9  H   LIG d   1       3.887   0.756  -0.836  0.00  0.00     0.032 H 
ATOM     10  H   LIG d   1       2.888   0.330  -2.265  0.00  0.00     0.032 H 
ATOM     11  H   LIG d   1       5.483  -0.984  -1.290  0.00  0.00     0.082 H 
ATOM     12  H   LIG d   1       3.955  -1.777  -1.779  0.00  0.00     0.082 H 
ATOM     13  H   LIG d   1       4.455  -1.524  -3.946  0.00  0.00     0.204 HD
ENDROOT
BRANCH   1  14
ATOM     14  C   LIG d   1       6.664   0.658  -4.262  0.00  0.00     0.276 A 
ATOM     15  N   LIG d   1       7.472   1.454  -3.620  0.00  0.00    -0.181 NA
ATOM     16  C   LIG d   1       8.672   1.477  -4.227  0.00  0.00     0.267 A 
ATOM     17  N   LIG d   1       8.629   0.689  -5.272  0.00  0.00    -0.050 NA
ATOM     18  O   LIG d   1       7.321   0.139  -5.307  0.00  0.00    -0.332 OA
BRANCH  16  19
ATOM     19  C   LIG d   1       9.849   2.268  -3.787  0.00  0.00     0.257 A 
ATOM     20  N   LIG d   1      11.073   1.840  -4.069  0.00  0.00    -0.208 N 
ATOM     21  C   LIG d   1      12.146   2.510  -3.698  0.00  0.00     0.174 A 
ATOM     22  H   LIG d   1      11.181   1.011  -4.561  0.00  0.00     0.453 HD
ATOM     23  C   LIG d   1      12.036   3.693  -2.996  0.00  0.00     0.044 A 
ATOM     24  H   LIG d   1      13.124   2.128  -3.948  0.00  0.00     0.138 H 
ATOM     25  C   LIG d   1      10.771   4.182  -2.677  0.00  0.00     0.133 A 
ATOM     26  H   LIG d   1      12.922   4.235  -2.697  0.00  0.00     0.071 H 
ATOM     27  C   LIG d   1       9.659   3.449  -3.077  0.00  0.00     0.055 A 
ATOM     28  H   LIG d   1       8.661   3.794  -2.845  0.00  0.00     0.072 H 
BRANCH  25  29
ATOM     29  O   LIG d   1      10.628   5.343  -1.987  0.00  0.00    -0.489 OA
BRANCH  29  30
ATOM     30  C   LIG d   1       9.776   6.337  -2.560  0.00  0.00     0.113 C 
ATOM     31  H   LIG d   1       8.872   5.864  -2.943  0.00  0.00     0.072 H 
ATOM     32  H   LIG d   1      10.298   6.837  -3.376  0.00  0.00     0.072 H 
BRANCH  30  33
ATOM     33  C   LIG d   1       9.400   7.364  -1.490  0.00  0.00     0.081 C 
ATOM     34  H   LIG d   1       8.315   7.405  -1.390  0.00  0.00     0.059 H 
ATOM     35  H   LIG d   1       9.775   8.346  -1.782  0.00  0.00     0.059 H 
BRANCH  33  36
ATOM     36  O   LIG d   1       9.980   6.984  -0.241  0.00  0.00    -0.380 OA
BRANCH  36  37
ATOM     37  C   LIG d   1      10.904   7.939   0.286  0.00  0.00     0.037 C 
ATOM     38  H   LIG d   1      11.899   7.495   0.328  0.00  0.00     0.052 H 
ATOM     39  H   LIG d   1      10.926   8.817  -0.359  0.00  0.00     0.052 H 
ATOM     40  H   LIG d   1      10.593   8.231   1.289  0.00  0.00     0.052 H 
ENDBRANCH  36  37
ENDBRANCH  33  36
ENDBRANCH  30  33
ENDBRANCH  29  30
ENDBRANCH  25  29
ENDBRANCH  16  19
ENDBRANCH   1  14
BRANCH   6  41
ATOM     41  C   LIG d   1       6.427  -1.670  -3.434  0.00  0.00    -0.005 C 
ATOM     42  H   LIG d   1       7.146  -1.010  -3.919  0.00  0.00     0.087 H 
ATOM     43  H   LIG d   1       6.763  -1.891  -2.421  0.00  0.00     0.087 H 
BRANCH  41  44
ATOM     44  C   LIG d   1       6.314  -2.952  -4.217  0.00  0.00    -0.003 A 
ATOM     45  C   LIG d   1       5.072  -3.414  -4.612  0.00  0.00    -0.052 A 
ATOM     46  C   LIG d   1       4.969  -4.588  -5.334  0.00  0.00    -0.036 A 
ATOM     47  H   LIG d   1       4.183  -2.856  -4.358  0.00  0.00     0.062 H 
ATOM     48  C   LIG d   1       6.106  -5.304  -5.655  0.00  0.00     0.088 A 
ATOM     49  H   LIG d   1       4.000  -4.947  -5.647  0.00  0.00     0.064 H 
ATOM     50  C   LIG d   1       7.349  -4.845  -5.255  0.00  0.00    -0.036 A 
ATOM     51  C   LIG d   1       7.451  -3.669  -4.536  0.00  0.00    -0.052 A 
ATOM     52  H   LIG d   1       8.237  -5.405  -5.505  0.00  0.00     0.064 H 
ATOM     53  H   LIG d   1       8.421  -3.311  -4.224  0.00  0.00     0.062 H 
BRANCH  48  54
ATOM     54  S   LIG d   1       5.975  -6.803  -6.571  0.00  0.00    -0.006 S 
ATOM     55  O   LIG d   1       4.578  -7.012  -6.726  0.00  0.00    -0.170 OA
ATOM     56  O   LIG d   1       6.809  -6.609  -7.706  0.00  0.00    -0.170 OA
BRANCH  54  57
ATOM     57  C   LIG d   1       6.680  -8.076  -5.488  0.00  0.00     0.060 C 
ATOM     58  H   LIG d   1       7.018  -8.919  -6.090  0.00  0.00     0.047 H 
ATOM     59  H   LIG d   1       7.526  -7.660  -4.939  0.00  0.00     0.047 H 
ATOM     60  H   LIG d   1       5.920  -8.414  -4.783  0.00  0.00     0.047 H 
ENDBRANCH  54  57
ENDBRANCH  48  54
ENDBRANCH  41  44
ENDBRANCH   6  41
TORSDOF 11
ENDMDL
MODEL 9
REMARK VINA RESULT:      -6.0      3.287      7.598
REMARK  11 active torsions:
REMARK  status: ('A' for Active; 'I' for Inactive)
REMARK    1  A    between atoms: C_1  and  O_2 
REMARK    2  A    between atoms: O_2  and  C_3 
REMARK    3  A    between atoms: C_3  and  C_4 
REMARK    4  A    between atoms: C_4  and  O_5 
REMARK    5  A    between atoms: O_5  and  C_6 
REMARK    6  A    between atoms: C_10  and  C_12 
REMARK    7  A    between atoms: C_14  and  C_17 
REMARK    8  A    between atoms: N_22  and  C_23 
REMARK    9  A    between atoms: C_23  and  C_24 
REMARK   10  A    between atoms: C_27  and  S_30 
REMARK   11  A    between atoms: S_30  and  C_33 
ROOT
ATOM      1  C   LIG d   1       9.114   3.379  -4.990  0.00  0.00     0.060 C 
ATOM      2  H   LIG d   1       8.239   3.997  -4.790  0.00  0.00     0.095 H 
ATOM      3  C   LIG d   1      10.393   4.239  -4.914  0.00  0.00     0.004 C 
ATOM      4  C   LIG d   1      10.906   3.974  -3.474  0.00  0.00    -0.007 C 
ATOM      5  C   LIG d   1      10.533   2.482  -3.278  0.00  0.00    -0.031 C 
ATOM      6  N   LIG d   1       9.229   2.325  -3.965  0.00  0.00     0.247 N 
ATOM      7  H   LIG d   1      11.124   3.908  -5.651  0.00  0.00     0.033 H 
ATOM      8  H   LIG d   1      10.156   5.294  -5.050  0.00  0.00     0.033 H 
ATOM      9  H   LIG d   1      11.985   4.118  -3.412  0.00  0.00     0.032 H 
ATOM     10  H   LIG d   1      10.388   4.603  -2.751  0.00  0.00     0.032 H 
ATOM     11  H   LIG d   1      11.285   1.840  -3.737  0.00  0.00     0.082 H 
ATOM     12  H   LIG d   1      10.433   2.253  -2.218  0.00  0.00     0.082 H 
ATOM     13  H   LIG d   1       8.479   2.418  -3.297  0.00  0.00     0.204 HD
ENDROOT
BRANCH   1  14
ATOM     14  C   LIG d   1       8.998   2.753  -6.356  0.00  0.00     0.276 A 
ATOM     15  N   LIG d   1       7.896   2.335  -6.911  0.00  0.00    -0.181 NA
ATOM     16  C   LIG d   1       8.157   1.834  -8.132  0.00  0.00     0.267 A 
ATOM     17  N   LIG d   1       9.443   1.928  -8.357  0.00  0.00    -0.050 NA
ATOM     18  O   LIG d   1      10.010   2.534  -7.205  0.00  0.00    -0.332 OA
BRANCH  16  19
ATOM     19  C   LIG d   1       7.153   1.263  -9.065  0.00  0.00     0.257 A 
ATOM     20  N   LIG d   1       7.494   0.260  -9.864  0.00  0.00    -0.208 N 
ATOM     21  C   LIG d   1       6.636  -0.277 -10.709  0.00  0.00     0.174 A 
ATOM     22  H   LIG d   1       8.398  -0.087  -9.826  0.00  0.00     0.453 HD
ATOM     23  C   LIG d   1       5.339   0.188 -10.795  0.00  0.00     0.044 A 
ATOM     24  H   LIG d   1       6.952  -1.093 -11.342  0.00  0.00     0.138 H 
ATOM     25  C   LIG d   1       4.936   1.240  -9.975  0.00  0.00     0.133 A 
ATOM     26  H   LIG d   1       4.643  -0.260 -11.490  0.00  0.00     0.071 H 
ATOM     27  C   LIG d   1       5.866   1.789  -9.099  0.00  0.00     0.055 A 
ATOM     28  H   LIG d   1       5.592   2.608  -8.450  0.00  0.00     0.072 H 
BRANCH  25  29
ATOM     29  O   LIG d   1       3.667   1.721 -10.034  0.00  0.00    -0.489 OA
BRANCH  29  30
ATOM     30  C   LIG d   1       2.905   1.690  -8.826  0.00  0.00     0.113 C 
ATOM     31  H   LIG d   1       1.995   2.276  -8.957  0.00  0.00     0.072 H 
ATOM     32  H   LIG d   1       3.494   2.112  -8.013  0.00  0.00     0.072 H 
BRANCH  30  33
ATOM     33  C   LIG d   1       2.537   0.244  -8.493  0.00  0.00     0.081 C 
ATOM     34  H   LIG d   1       3.128  -0.434  -9.110  0.00  0.00     0.059 H 
ATOM     35  H   LIG d   1       1.477   0.083  -8.693  0.00  0.00     0.059 H 
BRANCH  33  36
ATOM     36  O   LIG d   1       2.806  -0.011  -7.114  0.00  0.00    -0.380 OA
BRANCH  36  37
ATOM     37  C   LIG d   1       4.063  -0.645  -6.873  0.00  0.00     0.037 C 
ATOM     38  H   LIG d   1       4.309  -0.573  -5.813  0.00  0.00     0.052 H 
ATOM     39  H   LIG d   1       4.002  -1.694  -7.161  0.00  0.00     0.052 H 
ATOM     40  H   LIG d   1       4.838  -0.151  -7.459  0.00  0.00     0.052 H 
ENDBRANCH  36  37
ENDBRANCH  33  36
ENDBRANCH  30  33
ENDBRANCH  29  30
ENDBRANCH  25  29
ENDBRANCH  16  19
ENDBRANCH   1  14
BRANCH   6  41
ATOM     41  C   LIG d   1       9.161   1.004  -4.603  0.00  0.00    -0.005 C 
ATOM     42  H   LIG d   1       9.174   1.123  -5.686  0.00  0.00     0.087 H 
ATOM     43  H   LIG d   1      10.018   0.406  -4.293  0.00  0.00     0.087 H 
BRANCH  41  44
ATOM     44  C   LIG d   1       7.889   0.310  -4.188  0.00  0.00    -0.003 A 
ATOM     45  C   LIG d   1       6.898   1.019  -3.535  0.00  0.00    -0.052 A 
ATOM     46  C   LIG d   1       5.729   0.383  -3.159  0.00  0.00    -0.036 A 
ATOM     47  H   LIG d   1       7.034   2.068  -3.322  0.00  0.00     0.062 H 
ATOM     48  C   LIG d   1       5.555  -0.961  -3.427  0.00  0.00     0.088 A 
ATOM     49  H   LIG d   1       4.952   0.937  -2.652  0.00  0.00     0.064 H 
ATOM     50  C   LIG d   1       6.550  -1.671  -4.076  0.00  0.00    -0.036 A 
ATOM     51  C   LIG d   1       7.717  -1.034  -4.456  0.00  0.00    -0.052 A 
ATOM     52  H   LIG d   1       6.415  -2.721  -4.286  0.00  0.00     0.064 H 
ATOM     53  H   LIG d   1       8.493  -1.588  -4.962  0.00  0.00     0.062 H 
BRANCH  48  54
ATOM     54  S   LIG d   1       4.068  -1.772  -2.944  0.00  0.00    -0.006 S 
ATOM     55  O   LIG d   1       4.005  -2.932  -3.763  0.00  0.00    -0.170 OA
ATOM     56  O   LIG d   1       4.161  -1.887  -1.530  0.00  0.00    -0.170 OA
BRANCH  54  57
ATOM     57  C   LIG d   1       2.741  -0.619  -3.391  0.00  0.00     0.060 C 
ATOM     58  H   LIG d   1       2.635  -0.590  -4.476  0.00  0.00     0.047 H 
ATOM     59  H   LIG d   1       1.804  -0.951  -2.944  0.00  0.00     0.047 H 
ATOM     60  H   LIG d   1       2.987   0.377  -3.023  0.00  0.00     0.047 H 
ENDBRANCH  54  57
ENDBRANCH  48  54
ENDBRANCH  41  44
ENDBRANCH   6  41
TORSDOF 11
ENDMDL
