MODEL 1
REMARK VINA RESULT:      -6.7      0.000      0.000
REMARK  8 active torsions:
REMARK  status: ('A' for Active; 'I' for Inactive)
REMARK    1  A    between atoms: C_1  and  O_2 
REMARK    2  A    between atoms: O_2  and  C_3 
REMARK    3  A    between atoms: C_6  and  N_11 
REMARK    4  A    between atoms: C_7  and  O_9 
REMARK    5  A    between atoms: O_9  and  C_10 
REMARK       I    between atoms: N_11  and  C_12 
REMARK       I    between atoms: C_12  and  N_14 
REMARK    6  A    between atoms: N_14  and  C_15 
REMARK    7  A    between atoms: C_15  and  C_16 
REMARK    8  A    between atoms: C_16  and  C_17 
ROOT
ATOM      1  N   LIG d   1       5.577   1.683  -8.382  0.00  0.00    -0.266 N 
ATOM      2  C   LIG d   1       6.528   0.949  -7.774  0.00  0.00     0.304 C 
ATOM      3  O   LIG d   1       6.515  -0.263  -7.870  0.00  0.00    -0.253 OA
ATOM      4  N   LIG d   1       7.496   1.559  -7.059  0.00  0.00    -0.299 N 
ATOM      5  H   LIG d   1       5.632   2.653  -8.376  0.00  0.00     0.157 HD
ATOM      6  H   LIG d   1       7.506   2.525  -6.983  0.00  0.00     0.150 HD
ENDROOT
BRANCH   1   7
ATOM      7  C   LIG d   1       4.504   1.047  -9.026  0.00  0.00     0.077 A 
ATOM      8  C   LIG d   1       4.571   0.778 -10.386  0.00  0.00    -0.033 A 
ATOM      9  C   LIG d   1       3.515   0.152 -11.020  0.00  0.00    -0.018 A 
ATOM     10  H   LIG d   1       5.449   1.058 -10.948  0.00  0.00     0.064 H 
ATOM     11  C   LIG d   1       2.386  -0.209 -10.300  0.00  0.00     0.124 A 
ATOM     12  H   LIG d   1       3.570  -0.058 -12.078  0.00  0.00     0.066 H 
ATOM     13  C   LIG d   1       2.311   0.063  -8.942  0.00  0.00     0.024 A 
ATOM     14  C   LIG d   1       3.370   0.686  -8.302  0.00  0.00     0.145 A 
ATOM     15  H   LIG d   1       1.430  -0.214  -8.383  0.00  0.00     0.069 H 
BRANCH  11  16
ATOM     16  O   LIG d   1       1.349  -0.826 -10.927  0.00  0.00    -0.495 OA
BRANCH  16  17
ATOM     17  C   LIG d   1       1.649  -1.539 -12.128  0.00  0.00     0.079 C 
ATOM     18  H   LIG d   1       2.102  -2.498 -11.879  0.00  0.00     0.066 H 
ATOM     19  H   LIG d   1       0.730  -1.706 -12.691  0.00  0.00     0.066 H 
ATOM     20  H   LIG d   1       2.343  -0.955 -12.733  0.00  0.00     0.066 H 
ENDBRANCH  16  17
ENDBRANCH  11  16
BRANCH  14  21
ATOM     21  O   LIG d   1       3.301   0.948  -6.970  0.00  0.00    -0.493 OA
BRANCH  21  22
ATOM     22  C   LIG d   1       3.431  -0.163  -6.081  0.00  0.00     0.079 C 
ATOM     23  H   LIG d   1       4.483  -0.434  -5.991  0.00  0.00     0.066 H 
ATOM     24  H   LIG d   1       3.040   0.108  -5.101  0.00  0.00     0.066 H 
ATOM     25  H   LIG d   1       2.870  -1.010  -6.475  0.00  0.00     0.066 H 
ENDBRANCH  21  22
ENDBRANCH  14  21
ENDBRANCH   1   7
BRANCH   4  26
ATOM     26  C   LIG d   1       8.530   0.760  -6.398  0.00  0.00     0.017 C 
ATOM     27  H   LIG d   1       8.404  -0.290  -6.663  0.00  0.00     0.047 H 
ATOM     28  H   LIG d   1       9.515   1.101  -6.721  0.00  0.00     0.047 H 
BRANCH  26  29
ATOM     29  C   LIG d   1       8.407   0.922  -4.882  0.00  0.00    -0.010 C 
ATOM     30  H   LIG d   1       9.397   0.867  -4.428  0.00  0.00     0.033 H 
ATOM     31  H   LIG d   1       7.958   1.889  -4.655  0.00  0.00     0.033 H 
BRANCH  29  32
ATOM     32  C   LIG d   1       7.537  -0.176  -4.328  0.00  0.00    -0.021 A 
ATOM     33  C   LIG d   1       6.373  -0.009  -3.454  0.00  0.00     0.003 A 
ATOM     34  C   LIG d   1       5.885  -1.305  -3.203  0.00  0.00     0.047 A 
ATOM     35  C   LIG d   1       5.733   1.098  -2.892  0.00  0.00    -0.052 A 
ATOM     36  N   LIG d   1       6.707  -2.184  -3.872  0.00  0.00    -0.360 N 
ATOM     37  C   LIG d   1       4.765  -1.467  -2.395  0.00  0.00    -0.038 A 
ATOM     38  C   LIG d   1       7.685  -1.494  -4.536  0.00  0.00     0.006 A 
ATOM     39  H   LIG d   1       6.608  -3.149  -3.872  0.00  0.00     0.165 HD
ATOM     40  H   LIG d   1       8.460  -1.943  -5.139  0.00  0.00     0.081 H 
ATOM     41  C   LIG d   1       4.154  -0.362  -1.843  0.00  0.00    -0.060 A 
ATOM     42  H   LIG d   1       4.383  -2.455  -2.191  0.00  0.00     0.064 H 
ATOM     43  C   LIG d   1       4.636   0.915  -2.096  0.00  0.00    -0.061 A 
ATOM     44  H   LIG d   1       3.287  -0.490  -1.212  0.00  0.00     0.062 H 
ATOM     45  H   LIG d   1       4.141   1.771  -1.662  0.00  0.00     0.062 H 
ATOM     46  H   LIG d   1       6.103   2.094  -3.085  0.00  0.00     0.062 H 
ENDBRANCH  29  32
ENDBRANCH  26  29
ENDBRANCH   4  26
TORSDOF 8
ENDMDL
MODEL 2
REMARK VINA RESULT:      -6.4      2.471      3.974
REMARK  8 active torsions:
REMARK  status: ('A' for Active; 'I' for Inactive)
REMARK    1  A    between atoms: C_1  and  O_2 
REMARK    2  A    between atoms: O_2  and  C_3 
REMARK    3  A    between atoms: C_6  and  N_11 
REMARK    4  A    between atoms: C_7  and  O_9 
REMARK    5  A    between atoms: O_9  and  C_10 
REMARK       I    between atoms: N_11  and  C_12 
REMARK       I    between atoms: C_12  and  N_14 
REMARK    6  A    between atoms: N_14  and  C_15 
REMARK    7  A    between atoms: C_15  and  C_16 
REMARK    8  A    between atoms: C_16  and  C_17 
ROOT
ATOM      1  N   LIG d   1       2.315  -0.154  -6.417  0.00  0.00    -0.266 N 
ATOM      2  C   LIG d   1       3.067  -0.001  -5.309  0.00  0.00     0.304 C 
ATOM      3  O   LIG d   1       4.195   0.443  -5.396  0.00  0.00    -0.253 OA
ATOM      4  N   LIG d   1       2.566  -0.339  -4.103  0.00  0.00    -0.299 N 
ATOM      5  H   LIG d   1       1.388  -0.430  -6.341  0.00  0.00     0.157 HD
ATOM      6  H   LIG d   1       1.666  -0.693  -4.034  0.00  0.00     0.150 HD
ENDROOT
BRANCH   1   7
ATOM      7  C   LIG d   1       2.874   0.084  -7.682  0.00  0.00     0.077 A 
ATOM      8  C   LIG d   1       2.779   1.344  -8.256  0.00  0.00    -0.033 A 
ATOM      9  C   LIG d   1       3.329   1.579  -9.502  0.00  0.00    -0.018 A 
ATOM     10  H   LIG d   1       2.276   2.140  -7.729  0.00  0.00     0.064 H 
ATOM     11  C   LIG d   1       3.977   0.558 -10.181  0.00  0.00     0.124 A 
ATOM     12  H   LIG d   1       3.255   2.561  -9.947  0.00  0.00     0.066 H 
ATOM     13  C   LIG d   1       4.068  -0.705  -9.615  0.00  0.00     0.024 A 
ATOM     14  C   LIG d   1       3.523  -0.943  -8.363  0.00  0.00     0.145 A 
ATOM     15  H   LIG d   1       4.568  -1.500 -10.146  0.00  0.00     0.069 H 
BRANCH  11  16
ATOM     16  O   LIG d   1       4.517   0.793 -11.407  0.00  0.00    -0.495 OA
BRANCH  16  17
ATOM     17  C   LIG d   1       4.320  -0.208 -12.406  0.00  0.00     0.079 C 
ATOM     18  H   LIG d   1       3.325  -0.641 -12.297  0.00  0.00     0.066 H 
ATOM     19  H   LIG d   1       4.415   0.241 -13.395  0.00  0.00     0.066 H 
ATOM     20  H   LIG d   1       5.071  -0.990 -12.288  0.00  0.00     0.066 H 
ENDBRANCH  16  17
ENDBRANCH  11  16
BRANCH  14  21
ATOM     21  O   LIG d   1       3.617  -2.178  -7.804  0.00  0.00    -0.493 OA
BRANCH  21  22
ATOM     22  C   LIG d   1       3.627  -3.295  -8.695  0.00  0.00     0.079 C 
ATOM     23  H   LIG d   1       4.648  -3.491  -9.020  0.00  0.00     0.066 H 
ATOM     24  H   LIG d   1       3.233  -4.173  -8.182  0.00  0.00     0.066 H 
ATOM     25  H   LIG d   1       3.006  -3.073  -9.562  0.00  0.00     0.066 H 
ENDBRANCH  21  22
ENDBRANCH  14  21
ENDBRANCH   1   7
BRANCH   4  26
ATOM     26  C   LIG d   1       3.383  -0.171  -2.899  0.00  0.00     0.017 C 
ATOM     27  H   LIG d   1       4.228   0.481  -3.121  0.00  0.00     0.047 H 
ATOM     28  H   LIG d   1       2.779   0.273  -2.108  0.00  0.00     0.047 H 
BRANCH  26  29
ATOM     29  C   LIG d   1       3.900  -1.537  -2.440  0.00  0.00    -0.010 C 
ATOM     30  H   LIG d   1       3.988  -1.546  -1.354  0.00  0.00     0.033 H 
ATOM     31  H   LIG d   1       3.202  -2.313  -2.754  0.00  0.00     0.033 H 
BRANCH  29  32
ATOM     32  C   LIG d   1       5.250  -1.797  -3.058  0.00  0.00    -0.021 A 
ATOM     33  C   LIG d   1       5.566  -2.811  -4.067  0.00  0.00     0.003 A 
ATOM     34  C   LIG d   1       6.940  -2.675  -4.337  0.00  0.00     0.047 A 
ATOM     35  C   LIG d   1       4.816  -3.781  -4.736  0.00  0.00    -0.052 A 
ATOM     36  N   LIG d   1       7.413  -1.659  -3.538  0.00  0.00    -0.360 N 
ATOM     37  C   LIG d   1       7.536  -3.513  -5.273  0.00  0.00    -0.038 A 
ATOM     38  C   LIG d   1       6.392  -1.148  -2.783  0.00  0.00     0.006 A 
ATOM     39  H   LIG d   1       8.332  -1.351  -3.513  0.00  0.00     0.165 HD
ATOM     40  H   LIG d   1       6.491  -0.341  -2.072  0.00  0.00     0.081 H 
ATOM     41  C   LIG d   1       6.780  -4.470  -5.915  0.00  0.00    -0.060 A 
ATOM     42  H   LIG d   1       8.590  -3.424  -5.488  0.00  0.00     0.064 H 
ATOM     43  C   LIG d   1       5.423  -4.597  -5.648  0.00  0.00    -0.061 A 
ATOM     44  H   LIG d   1       7.245  -5.122  -6.638  0.00  0.00     0.062 H 
ATOM     45  H   LIG d   1       4.843  -5.347  -6.166  0.00  0.00     0.062 H 
ATOM     46  H   LIG d   1       3.761  -3.885  -4.533  0.00  0.00     0.062 H 
ENDBRANCH  29  32
ENDBRANCH  26  29
ENDBRANCH   4  26
TORSDOF 8
ENDMDL
MODEL 3
REMARK VINA RESULT:      -6.3      4.522      6.892
REMARK  8 active torsions:
REMARK  status: ('A' for Active; 'I' for Inactive)
REMARK    1  A    between atoms: C_1  and  O_2 
REMARK    2  A    between atoms: O_2  and  C_3 
REMARK    3  A    between atoms: C_6  and  N_11 
REMARK    4  A    between atoms: C_7  and  O_9 
REMARK    5  A    between atoms: O_9  and  C_10 
REMARK       I    between atoms: N_11  and  C_12 
REMARK       I    between atoms: C_12  and  N_14 
REMARK    6  A    between atoms: N_14  and  C_15 
REMARK    7  A    between atoms: C_15  and  C_16 
REMARK    8  A    between atoms: C_16  and  C_17 
ROOT
ATOM      1  N   LIG d   1      10.229   0.934  -4.571  0.00  0.00    -0.266 N 
ATOM      2  C   LIG d   1       9.120   0.206  -4.801  0.00  0.00     0.304 C 
ATOM      3  O   LIG d   1       8.045   0.759  -4.932  0.00  0.00    -0.253 OA
ATOM      4  N   LIG d   1       9.201  -1.137  -4.888  0.00  0.00    -0.299 N 
ATOM      5  H   LIG d   1      11.098   0.502  -4.548  0.00  0.00     0.157 HD
ATOM      6  H   LIG d   1      10.059  -1.578  -4.784  0.00  0.00     0.150 HD
ENDROOT
BRANCH   1   7
ATOM      7  C   LIG d   1      10.129   2.319  -4.363  0.00  0.00     0.077 A 
ATOM      8  C   LIG d   1       9.971   2.818  -3.078  0.00  0.00    -0.033 A 
ATOM      9  C   LIG d   1       9.873   4.181  -2.873  0.00  0.00    -0.018 A 
ATOM     10  H   LIG d   1       9.924   2.141  -2.239  0.00  0.00     0.064 H 
ATOM     11  C   LIG d   1       9.933   5.053  -3.950  0.00  0.00     0.124 A 
ATOM     12  H   LIG d   1       9.751   4.568  -1.872  0.00  0.00     0.066 H 
ATOM     13  C   LIG d   1      10.084   4.559  -5.237  0.00  0.00     0.024 A 
ATOM     14  C   LIG d   1      10.189   3.193  -5.446  0.00  0.00     0.145 A 
ATOM     15  H   LIG d   1      10.126   5.238  -6.075  0.00  0.00     0.069 H 
BRANCH  11  16
ATOM     16  O   LIG d   1       9.836   6.393  -3.745  0.00  0.00    -0.495 OA
BRANCH  16  17
ATOM     17  C   LIG d   1       9.539   6.826  -2.416  0.00  0.00     0.079 C 
ATOM     18  H   LIG d   1       9.698   7.902  -2.339  0.00  0.00     0.066 H 
ATOM     19  H   LIG d   1       8.499   6.596  -2.183  0.00  0.00     0.066 H 
ATOM     20  H   LIG d   1      10.192   6.311  -1.712  0.00  0.00     0.066 H 
ENDBRANCH  16  17
ENDBRANCH  11  16
BRANCH  14  21
ATOM     21  O   LIG d   1      10.344   2.707  -6.706  0.00  0.00    -0.493 OA
BRANCH  21  22
ATOM     22  C   LIG d   1       9.232   2.839  -7.594  0.00  0.00     0.079 C 
ATOM     23  H   LIG d   1       9.517   3.460  -8.443  0.00  0.00     0.066 H 
ATOM     24  H   LIG d   1       8.932   1.853  -7.949  0.00  0.00     0.066 H 
ATOM     25  H   LIG d   1       8.399   3.303  -7.066  0.00  0.00     0.066 H 
ENDBRANCH  21  22
ENDBRANCH  14  21
ENDBRANCH   1   7
BRANCH   4  26
ATOM     26  C   LIG d   1       7.995  -1.929  -5.139  0.00  0.00     0.017 C 
ATOM     27  H   LIG d   1       7.254  -1.312  -5.648  0.00  0.00     0.047 H 
ATOM     28  H   LIG d   1       8.246  -2.787  -5.764  0.00  0.00     0.047 H 
BRANCH  26  29
ATOM     29  C   LIG d   1       7.421  -2.420  -3.808  0.00  0.00    -0.010 C 
ATOM     30  H   LIG d   1       7.636  -3.482  -3.688  0.00  0.00     0.033 H 
ATOM     31  H   LIG d   1       7.877  -1.863  -2.989  0.00  0.00     0.033 H 
BRANCH  29  32
ATOM     32  C   LIG d   1       5.930  -2.203  -3.793  0.00  0.00    -0.021 A 
ATOM     33  C   LIG d   1       5.223  -1.052  -3.226  0.00  0.00     0.003 A 
ATOM     34  C   LIG d   1       3.854  -1.288  -3.448  0.00  0.00     0.047 A 
ATOM     35  C   LIG d   1       5.632   0.115  -2.576  0.00  0.00    -0.052 A 
ATOM     36  N   LIG d   1       3.751  -2.500  -4.094  0.00  0.00    -0.360 N 
ATOM     37  C   LIG d   1       2.922  -0.351  -3.017  0.00  0.00    -0.038 A 
ATOM     38  C   LIG d   1       4.998  -3.030  -4.290  0.00  0.00     0.006 A 
ATOM     39  H   LIG d   1       2.919  -2.917  -4.369  0.00  0.00     0.165 HD
ATOM     40  H   LIG d   1       5.201  -3.973  -4.775  0.00  0.00     0.081 H 
ATOM     41  C   LIG d   1       3.346   0.789  -2.369  0.00  0.00    -0.060 A 
ATOM     42  H   LIG d   1       1.868  -0.522  -3.177  0.00  0.00     0.064 H 
ATOM     43  C   LIG d   1       4.698   1.020  -2.155  0.00  0.00    -0.061 A 
ATOM     44  H   LIG d   1       2.621   1.513  -2.031  0.00  0.00     0.062 H 
ATOM     45  H   LIG d   1       5.015   1.922  -1.652  0.00  0.00     0.062 H 
ATOM     46  H   LIG d   1       6.682   0.301  -2.406  0.00  0.00     0.062 H 
ENDBRANCH  29  32
ENDBRANCH  26  29
ENDBRANCH   4  26
TORSDOF 8
ENDMDL
MODEL 4
REMARK VINA RESULT:      -6.3      6.324      9.861
REMARK  8 active torsions:
REMARK  status: ('A' for Active; 'I' for Inactive)
REMARK    1  A    between atoms: C_1  and  O_2 
REMARK    2  A    between atoms: O_2  and  C_3 
REMARK    3  A    between atoms: C_6  and  N_11 
REMARK    4  A    between atoms: C_7  and  O_9 
REMARK    5  A    between atoms: O_9  and  C_10 
REMARK       I    between atoms: N_11  and  C_12 
REMARK       I    between atoms: C_12  and  N_14 
REMARK    6  A    between atoms: N_14  and  C_15 
REMARK    7  A    between atoms: C_15  and  C_16 
REMARK    8  A    between atoms: C_16  and  C_17 
ROOT
ATOM      1  N   LIG d   1      11.140   3.844  -1.493  0.00  0.00    -0.266 N 
ATOM      2  C   LIG d   1      10.584   3.635  -2.702  0.00  0.00     0.304 C 
ATOM      3  O   LIG d   1      10.459   4.559  -3.482  0.00  0.00    -0.253 OA
ATOM      4  N   LIG d   1      10.167   2.400  -3.047  0.00  0.00    -0.299 N 
ATOM      5  H   LIG d   1      11.316   3.095  -0.902  0.00  0.00     0.157 HD
ATOM      6  H   LIG d   1      10.268   1.663  -2.425  0.00  0.00     0.150 HD
ENDROOT
BRANCH   1   7
ATOM      7  C   LIG d   1      11.466   5.148  -1.086  0.00  0.00     0.077 A 
ATOM      8  C   LIG d   1      10.493   5.964  -0.528  0.00  0.00    -0.033 A 
ATOM      9  C   LIG d   1      10.813   7.247  -0.128  0.00  0.00    -0.018 A 
ATOM     10  H   LIG d   1       9.485   5.596  -0.407  0.00  0.00     0.064 H 
ATOM     11  C   LIG d   1      12.107   7.722  -0.282  0.00  0.00     0.124 A 
ATOM     12  H   LIG d   1      10.055   7.881   0.307  0.00  0.00     0.066 H 
ATOM     13  C   LIG d   1      13.082   6.912  -0.845  0.00  0.00     0.024 A 
ATOM     14  C   LIG d   1      12.766   5.623  -1.242  0.00  0.00     0.145 A 
ATOM     15  H   LIG d   1      14.088   7.284  -0.969  0.00  0.00     0.069 H 
BRANCH  11  16
ATOM     16  O   LIG d   1      12.419   8.985   0.114  0.00  0.00    -0.495 OA
BRANCH  16  17
ATOM     17  C   LIG d   1      11.713   9.504   1.242  0.00  0.00     0.079 C 
ATOM     18  H   LIG d   1      11.509  10.564   1.088  0.00  0.00     0.066 H 
ATOM     19  H   LIG d   1      10.771   8.967   1.360  0.00  0.00     0.066 H 
ATOM     20  H   LIG d   1      12.319   9.377   2.139  0.00  0.00     0.066 H 
ENDBRANCH  16  17
ENDBRANCH  11  16
BRANCH  14  21
ATOM     21  O   LIG d   1      13.722   4.826  -1.789  0.00  0.00    -0.493 OA
BRANCH  21  22
ATOM     22  C   LIG d   1      14.093   5.092  -3.143  0.00  0.00     0.079 C 
ATOM     23  H   LIG d   1      13.945   4.194  -3.743  0.00  0.00     0.066 H 
ATOM     24  H   LIG d   1      13.476   5.899  -3.537  0.00  0.00     0.066 H 
ATOM     25  H   LIG d   1      15.142   5.386  -3.180  0.00  0.00     0.066 H 
ENDBRANCH  21  22
ENDBRANCH  14  21
ENDBRANCH   1   7
BRANCH   4  26
ATOM     26  C   LIG d   1       9.563   2.172  -4.362  0.00  0.00     0.017 C 
ATOM     27  H   LIG d   1       9.908   2.937  -5.058  0.00  0.00     0.047 H 
ATOM     28  H   LIG d   1       9.852   1.187  -4.730  0.00  0.00     0.047 H 
BRANCH  26  29
ATOM     29  C   LIG d   1       8.039   2.244  -4.241  0.00  0.00    -0.010 C 
ATOM     30  H   LIG d   1       7.771   2.877  -3.395  0.00  0.00     0.033 H 
ATOM     31  H   LIG d   1       7.621   2.664  -5.156  0.00  0.00     0.033 H 
BRANCH  29  32
ATOM     32  C   LIG d   1       7.487   0.858  -4.028  0.00  0.00    -0.021 A 
ATOM     33  C   LIG d   1       6.309   0.502  -3.233  0.00  0.00     0.003 A 
ATOM     34  C   LIG d   1       6.181  -0.895  -3.330  0.00  0.00     0.047 A 
ATOM     35  C   LIG d   1       5.389   1.235  -2.480  0.00  0.00    -0.052 A 
ATOM     36  N   LIG d   1       7.217  -1.343  -4.120  0.00  0.00    -0.360 N 
ATOM     37  C   LIG d   1       5.134  -1.532  -2.673  0.00  0.00    -0.038 A 
ATOM     38  C   LIG d   1       7.983  -0.285  -4.526  0.00  0.00     0.006 A 
ATOM     39  H   LIG d   1       7.379  -2.271  -4.353  0.00  0.00     0.165 HD
ATOM     40  H   LIG d   1       8.858  -0.359  -5.155  0.00  0.00     0.081 H 
ATOM     41  C   LIG d   1       4.243  -0.790  -1.927  0.00  0.00    -0.060 A 
ATOM     42  H   LIG d   1       5.027  -2.604  -2.735  0.00  0.00     0.064 H 
ATOM     43  C   LIG d   1       4.370   0.589  -1.837  0.00  0.00    -0.061 A 
ATOM     44  H   LIG d   1       3.434  -1.287  -1.414  0.00  0.00     0.062 H 
ATOM     45  H   LIG d   1       3.659   1.156  -1.255  0.00  0.00     0.062 H 
ATOM     46  H   LIG d   1       5.482   2.308  -2.406  0.00  0.00     0.062 H 
ENDBRANCH  29  32
ENDBRANCH  26  29
ENDBRANCH   4  26
TORSDOF 8
ENDMDL
MODEL 5
REMARK VINA RESULT:      -6.3      6.648     10.098
REMARK  8 active torsions:
REMARK  status: ('A' for Active; 'I' for Inactive)
REMARK    1  A    between atoms: C_1  and  O_2 
REMARK    2  A    between atoms: O_2  and  C_3 
REMARK    3  A    between atoms: C_6  and  N_11 
REMARK    4  A    between atoms: C_7  and  O_9 
REMARK    5  A    between atoms: O_9  and  C_10 
REMARK       I    between atoms: N_11  and  C_12 
REMARK       I    between atoms: C_12  and  N_14 
REMARK    6  A    between atoms: N_14  and  C_15 
REMARK    7  A    between atoms: C_15  and  C_16 
REMARK    8  A    between atoms: C_16  and  C_17 
ROOT
ATOM      1  N   LIG d   1      11.164   4.261  -1.193  0.00  0.00    -0.266 N 
ATOM      2  C   LIG d   1      10.781   3.977  -2.453  0.00  0.00     0.304 C 
ATOM      3  O   LIG d   1      11.180   4.657  -3.378  0.00  0.00    -0.253 OA
ATOM      4  N   LIG d   1       9.956   2.936  -2.688  0.00  0.00    -0.299 N 
ATOM      5  H   LIG d   1      10.914   3.671  -0.464  0.00  0.00     0.157 HD
ATOM      6  H   LIG d   1       9.638   2.394  -1.950  0.00  0.00     0.150 HD
ENDROOT
BRANCH   1   7
ATOM      7  C   LIG d   1      11.925   5.411  -0.933  0.00  0.00     0.077 A 
ATOM      8  C   LIG d   1      13.309   5.362  -1.022  0.00  0.00    -0.033 A 
ATOM      9  C   LIG d   1      14.058   6.494  -0.766  0.00  0.00    -0.018 A 
ATOM     10  H   LIG d   1      13.799   4.439  -1.290  0.00  0.00     0.064 H 
ATOM     11  C   LIG d   1      13.431   7.682  -0.421  0.00  0.00     0.124 A 
ATOM     12  H   LIG d   1      15.135   6.454  -0.836  0.00  0.00     0.066 H 
ATOM     13  C   LIG d   1      12.048   7.734  -0.325  0.00  0.00     0.024 A 
ATOM     14  C   LIG d   1      11.293   6.602  -0.586  0.00  0.00     0.145 A 
ATOM     15  H   LIG d   1      11.560   8.658  -0.052  0.00  0.00     0.069 H 
BRANCH  11  16
ATOM     16  O   LIG d   1      14.172   8.794  -0.171  0.00  0.00    -0.495 OA
BRANCH  16  17
ATOM     17  C   LIG d   1      13.686   9.684   0.835  0.00  0.00     0.079 C 
ATOM     18  H   LIG d   1      13.098   9.126   1.563  0.00  0.00     0.066 H 
ATOM     19  H   LIG d   1      14.529  10.161   1.337  0.00  0.00     0.066 H 
ATOM     20  H   LIG d   1      13.060  10.448   0.372  0.00  0.00     0.066 H 
ENDBRANCH  16  17
ENDBRANCH  11  16
BRANCH  14  21
ATOM     21  O   LIG d   1       9.937   6.654  -0.498  0.00  0.00    -0.493 OA
BRANCH  21  22
ATOM     22  C   LIG d   1       9.245   7.345  -1.539  0.00  0.00     0.079 C 
ATOM     23  H   LIG d   1       9.948   7.613  -2.328  0.00  0.00     0.066 H 
ATOM     24  H   LIG d   1       8.467   6.700  -1.949  0.00  0.00     0.066 H 
ATOM     25  H   LIG d   1       8.790   8.249  -1.135  0.00  0.00     0.066 H 
ENDBRANCH  21  22
ENDBRANCH  14  21
ENDBRANCH   1   7
BRANCH   4  26
ATOM     26  C   LIG d   1       9.540   2.628  -4.058  0.00  0.00     0.017 C 
ATOM     27  H   LIG d   1       9.887   3.413  -4.729  0.00  0.00     0.047 H 
ATOM     28  H   LIG d   1       9.969   1.673  -4.363  0.00  0.00     0.047 H 
BRANCH  26  29
ATOM     29  C   LIG d   1       8.013   2.542  -4.120  0.00  0.00    -0.010 C 
ATOM     30  H   LIG d   1       7.582   3.165  -3.336  0.00  0.00     0.033 H 
ATOM     31  H   LIG d   1       7.668   2.893  -5.093  0.00  0.00     0.033 H 
BRANCH  29  32
ATOM     32  C   LIG d   1       7.582   1.112  -3.922  0.00  0.00    -0.021 A 
ATOM     33  C   LIG d   1       6.389   0.653  -3.205  0.00  0.00     0.003 A 
ATOM     34  C   LIG d   1       6.403  -0.751  -3.285  0.00  0.00     0.047 A 
ATOM     35  C   LIG d   1       5.351   1.302  -2.532  0.00  0.00    -0.052 A 
ATOM     36  N   LIG d   1       7.530  -1.106  -3.992  0.00  0.00    -0.360 N 
ATOM     37  C   LIG d   1       5.378  -1.478  -2.692  0.00  0.00    -0.038 A 
ATOM     38  C   LIG d   1       8.220   0.017  -4.362  0.00  0.00     0.006 A 
ATOM     39  H   LIG d   1       7.797  -2.016  -4.197  0.00  0.00     0.165 HD
ATOM     40  H   LIG d   1       9.141   0.021  -4.926  0.00  0.00     0.081 H 
ATOM     41  C   LIG d   1       4.368  -0.818  -2.024  0.00  0.00    -0.060 A 
ATOM     42  H   LIG d   1       5.378  -2.557  -2.742  0.00  0.00     0.064 H 
ATOM     43  C   LIG d   1       4.356   0.568  -1.951  0.00  0.00    -0.061 A 
ATOM     44  H   LIG d   1       3.575  -1.385  -1.560  0.00  0.00     0.062 H 
ATOM     45  H   LIG d   1       3.554   1.070  -1.430  0.00  0.00     0.062 H 
ATOM     46  H   LIG d   1       5.336   2.380  -2.471  0.00  0.00     0.062 H 
ENDBRANCH  29  32
ENDBRANCH  26  29
ENDBRANCH   4  26
TORSDOF 8
ENDMDL
MODEL 6
REMARK VINA RESULT:      -6.1      1.842      2.565
REMARK  8 active torsions:
REMARK  status: ('A' for Active; 'I' for Inactive)
REMARK    1  A    between atoms: C_1  and  O_2 
REMARK    2  A    between atoms: O_2  and  C_3 
REMARK    3  A    between atoms: C_6  and  N_11 
REMARK    4  A    between atoms: C_7  and  O_9 
REMARK    5  A    between atoms: O_9  and  C_10 
REMARK       I    between atoms: N_11  and  C_12 
REMARK       I    between atoms: C_12  and  N_14 
REMARK    6  A    between atoms: N_14  and  C_15 
REMARK    7  A    between atoms: C_15  and  C_16 
REMARK    8  A    between atoms: C_16  and  C_17 
ROOT
ATOM      1  N   LIG d   1       3.871  -2.030  -7.353  0.00  0.00    -0.266 N 
ATOM      2  C   LIG d   1       5.215  -1.947  -7.366  0.00  0.00     0.304 C 
ATOM      3  O   LIG d   1       5.791  -1.557  -8.363  0.00  0.00    -0.253 OA
ATOM      4  N   LIG d   1       5.922  -2.296  -6.272  0.00  0.00    -0.299 N 
ATOM      5  H   LIG d   1       3.406  -2.262  -6.533  0.00  0.00     0.157 HD
ATOM      6  H   LIG d   1       5.463  -2.607  -5.477  0.00  0.00     0.150 HD
ENDROOT
BRANCH   1   7
ATOM      7  C   LIG d   1       3.141  -1.782  -8.526  0.00  0.00     0.077 A 
ATOM      8  C   LIG d   1       2.918  -2.806  -9.435  0.00  0.00    -0.033 A 
ATOM      9  C   LIG d   1       2.199  -2.561 -10.590  0.00  0.00    -0.018 A 
ATOM     10  H   LIG d   1       3.307  -3.793  -9.240  0.00  0.00     0.064 H 
ATOM     11  C   LIG d   1       1.698  -1.293 -10.842  0.00  0.00     0.124 A 
ATOM     12  H   LIG d   1       2.026  -3.360 -11.296  0.00  0.00     0.066 H 
ATOM     13  C   LIG d   1       1.923  -0.264  -9.940  0.00  0.00     0.024 A 
ATOM     14  C   LIG d   1       2.639  -0.507  -8.778  0.00  0.00     0.145 A 
ATOM     15  H   LIG d   1       1.537   0.724 -10.139  0.00  0.00     0.069 H 
BRANCH  11  16
ATOM     16  O   LIG d   1       0.991  -1.056 -11.979  0.00  0.00    -0.495 OA
BRANCH  16  17
ATOM     17  C   LIG d   1       0.311  -2.168 -12.563  0.00  0.00     0.079 C 
ATOM     18  H   LIG d   1       0.362  -3.022 -11.889  0.00  0.00     0.066 H 
ATOM     19  H   LIG d   1      -0.733  -1.905 -12.738  0.00  0.00     0.066 H 
ATOM     20  H   LIG d   1       0.784  -2.425 -13.512  0.00  0.00     0.066 H 
ENDBRANCH  16  17
ENDBRANCH  11  16
BRANCH  14  21
ATOM     21  O   LIG d   1       2.855   0.499  -7.890  0.00  0.00    -0.493 OA
BRANCH  21  22
ATOM     22  C   LIG d   1       2.869   1.830  -8.407  0.00  0.00     0.079 C 
ATOM     23  H   LIG d   1       3.559   2.440  -7.823  0.00  0.00     0.066 H 
ATOM     24  H   LIG d   1       3.191   1.813  -9.448  0.00  0.00     0.066 H 
ATOM     25  H   LIG d   1       1.867   2.255  -8.344  0.00  0.00     0.066 H 
ENDBRANCH  21  22
ENDBRANCH  14  21
ENDBRANCH   1   7
BRANCH   4  26
ATOM     26  C   LIG d   1       7.384  -2.205  -6.286  0.00  0.00     0.017 C 
ATOM     27  H   LIG d   1       7.802  -3.131  -6.680  0.00  0.00     0.047 H 
ATOM     28  H   LIG d   1       7.691  -1.369  -6.917  0.00  0.00     0.047 H 
BRANCH  26  29
ATOM     29  C   LIG d   1       7.894  -1.981  -4.861  0.00  0.00    -0.010 C 
ATOM     30  H   LIG d   1       7.585  -2.814  -4.229  0.00  0.00     0.033 H 
ATOM     31  H   LIG d   1       8.982  -1.916  -4.870  0.00  0.00     0.033 H 
BRANCH  29  32
ATOM     32  C   LIG d   1       7.321  -0.698  -4.318  0.00  0.00    -0.021 A 
ATOM     33  C   LIG d   1       6.188  -0.570  -3.398  0.00  0.00     0.003 A 
ATOM     34  C   LIG d   1       6.022   0.809  -3.173  0.00  0.00     0.047 A 
ATOM     35  C   LIG d   1       5.338  -1.485  -2.771  0.00  0.00    -0.052 A 
ATOM     36  N   LIG d   1       6.982   1.459  -3.915  0.00  0.00    -0.360 N 
ATOM     37  C   LIG d   1       5.011   1.244  -2.324  0.00  0.00    -0.038 A 
ATOM     38  C   LIG d   1       7.746   0.546  -4.590  0.00  0.00     0.006 A 
ATOM     39  H   LIG d   1       7.100   2.421  -3.954  0.00  0.00     0.165 HD
ATOM     40  H   LIG d   1       8.570   0.790  -5.244  0.00  0.00     0.081 H 
ATOM     41  C   LIG d   1       4.178   0.325  -1.724  0.00  0.00    -0.060 A 
ATOM     42  H   LIG d   1       4.869   2.300  -2.146  0.00  0.00     0.064 H 
ATOM     43  C   LIG d   1       4.347  -1.035  -1.945  0.00  0.00    -0.061 A 
ATOM     44  H   LIG d   1       3.390   0.665  -1.068  0.00  0.00     0.062 H 
ATOM     45  H   LIG d   1       3.691  -1.743  -1.461  0.00  0.00     0.062 H 
ATOM     46  H   LIG d   1       5.465  -2.544  -2.940  0.00  0.00     0.062 H 
ENDBRANCH  29  32
ENDBRANCH  26  29
ENDBRANCH   4  26
TORSDOF 8
ENDMDL
MODEL 7
REMARK VINA RESULT:      -6.0      1.736      2.472
REMARK  8 active torsions:
REMARK  status: ('A' for Active; 'I' for Inactive)
REMARK    1  A    between atoms: C_1  and  O_2 
REMARK    2  A    between atoms: O_2  and  C_3 
REMARK    3  A    between atoms: C_6  and  N_11 
REMARK    4  A    between atoms: C_7  and  O_9 
REMARK    5  A    between atoms: O_9  and  C_10 
REMARK       I    between atoms: N_11  and  C_12 
REMARK       I    between atoms: C_12  and  N_14 
REMARK    6  A    between atoms: N_14  and  C_15 
REMARK    7  A    between atoms: C_15  and  C_16 
REMARK    8  A    between atoms: C_16  and  C_17 
ROOT
ATOM      1  N   LIG d   1       5.475   0.160  -7.433  0.00  0.00    -0.266 N 
ATOM      2  C   LIG d   1       6.185  -0.896  -6.992  0.00  0.00     0.304 C 
ATOM      3  O   LIG d   1       6.021  -1.992  -7.492  0.00  0.00    -0.253 OA
ATOM      4  N   LIG d   1       7.080  -0.737  -5.996  0.00  0.00    -0.299 N 
ATOM      5  H   LIG d   1       5.663   1.050  -7.093  0.00  0.00     0.157 HD
ATOM      6  H   LIG d   1       7.211   0.137  -5.597  0.00  0.00     0.150 HD
ENDROOT
BRANCH   1   7
ATOM      7  C   LIG d   1       4.461  -0.025  -8.386  0.00  0.00     0.077 A 
ATOM      8  C   LIG d   1       3.172  -0.336  -7.977  0.00  0.00    -0.033 A 
ATOM      9  C   LIG d   1       2.174  -0.518  -8.914  0.00  0.00    -0.018 A 
ATOM     10  H   LIG d   1       2.950  -0.435  -6.925  0.00  0.00     0.064 H 
ATOM     11  C   LIG d   1       2.456  -0.390 -10.266  0.00  0.00     0.124 A 
ATOM     12  H   LIG d   1       1.171  -0.759  -8.594  0.00  0.00     0.066 H 
ATOM     13  C   LIG d   1       3.744  -0.085 -10.681  0.00  0.00     0.024 A 
ATOM     14  C   LIG d   1       4.747   0.103  -9.743  0.00  0.00     0.145 A 
ATOM     15  H   LIG d   1       3.965   0.010 -11.733  0.00  0.00     0.069 H 
BRANCH  11  16
ATOM     16  O   LIG d   1       1.471  -0.569 -11.186  0.00  0.00    -0.495 OA
BRANCH  16  17
ATOM     17  C   LIG d   1       1.742  -1.471 -12.259  0.00  0.00     0.079 C 
ATOM     18  H   LIG d   1       0.929  -2.191 -12.345  0.00  0.00     0.066 H 
ATOM     19  H   LIG d   1       1.832  -0.911 -13.191  0.00  0.00     0.066 H 
ATOM     20  H   LIG d   1       2.675  -2.000 -12.062  0.00  0.00     0.066 H 
ENDBRANCH  16  17
ENDBRANCH  11  16
BRANCH  14  21
ATOM     21  O   LIG d   1       6.008   0.408 -10.148  0.00  0.00    -0.493 OA
BRANCH  21  22
ATOM     22  C   LIG d   1       6.648  -0.516 -11.030  0.00  0.00     0.079 C 
ATOM     23  H   LIG d   1       6.939  -1.407 -10.473  0.00  0.00     0.066 H 
ATOM     24  H   LIG d   1       5.959  -0.794 -11.827  0.00  0.00     0.066 H 
ATOM     25  H   LIG d   1       7.534  -0.052 -11.462  0.00  0.00     0.066 H 
ENDBRANCH  21  22
ENDBRANCH  14  21
ENDBRANCH   1   7
BRANCH   4  26
ATOM     26  C   LIG d   1       7.853  -1.885  -5.517  0.00  0.00     0.017 C 
ATOM     27  H   LIG d   1       7.607  -2.764  -6.113  0.00  0.00     0.047 H 
ATOM     28  H   LIG d   1       8.919  -1.671  -5.608  0.00  0.00     0.047 H 
BRANCH  26  29
ATOM     29  C   LIG d   1       7.512  -2.152  -4.049  0.00  0.00    -0.010 C 
ATOM     30  H   LIG d   1       7.858  -3.148  -3.770  0.00  0.00     0.033 H 
ATOM     31  H   LIG d   1       8.001  -1.408  -3.421  0.00  0.00     0.033 H 
BRANCH  29  32
ATOM     32  C   LIG d   1       6.020  -2.066  -3.857  0.00  0.00    -0.021 A 
ATOM     33  C   LIG d   1       5.280  -0.948  -3.267  0.00  0.00     0.003 A 
ATOM     34  C   LIG d   1       3.923  -1.317  -3.302  0.00  0.00     0.047 A 
ATOM     35  C   LIG d   1       5.652   0.290  -2.737  0.00  0.00    -0.052 A 
ATOM     36  N   LIG d   1       3.858  -2.572  -3.864  0.00  0.00    -0.360 N 
ATOM     37  C   LIG d   1       2.965  -0.439  -2.807  0.00  0.00    -0.038 A 
ATOM     38  C   LIG d   1       5.116  -3.002  -4.189  0.00  0.00     0.006 A 
ATOM     39  H   LIG d   1       3.042  -3.077  -4.010  0.00  0.00     0.165 HD
ATOM     40  H   LIG d   1       5.348  -3.953  -4.645  0.00  0.00     0.081 H 
ATOM     41  C   LIG d   1       3.355   0.773  -2.279  0.00  0.00    -0.060 A 
ATOM     42  H   LIG d   1       1.920  -0.711  -2.823  0.00  0.00     0.064 H 
ATOM     43  C   LIG d   1       4.694   1.134  -2.250  0.00  0.00    -0.061 A 
ATOM     44  H   LIG d   1       2.610   1.451  -1.890  0.00  0.00     0.062 H 
ATOM     45  H   LIG d   1       4.983   2.091  -1.840  0.00  0.00     0.062 H 
ATOM     46  H   LIG d   1       6.692   0.577  -2.711  0.00  0.00     0.062 H 
ENDBRANCH  29  32
ENDBRANCH  26  29
ENDBRANCH   4  26
TORSDOF 8
ENDMDL
MODEL 8
REMARK VINA RESULT:      -6.0      5.004      8.303
REMARK  8 active torsions:
REMARK  status: ('A' for Active; 'I' for Inactive)
REMARK    1  A    between atoms: C_1  and  O_2 
REMARK    2  A    between atoms: O_2  and  C_3 
REMARK    3  A    between atoms: C_6  and  N_11 
REMARK    4  A    between atoms: C_7  and  O_9 
REMARK    5  A    between atoms: O_9  and  C_10 
REMARK       I    between atoms: N_11  and  C_12 
REMARK       I    between atoms: C_12  and  N_14 
REMARK    6  A    between atoms: N_14  and  C_15 
REMARK    7  A    between atoms: C_15  and  C_16 
REMARK    8  A    between atoms: C_16  and  C_17 
ROOT
ATOM      1  N   LIG d   1      10.365   4.009  -4.235  0.00  0.00    -0.266 N 
ATOM      2  C   LIG d   1       9.803   2.789  -4.132  0.00  0.00     0.304 C 
ATOM      3  O   LIG d   1       9.152   2.500  -3.147  0.00  0.00    -0.253 OA
ATOM      4  N   LIG d   1       9.962   1.888  -5.123  0.00  0.00    -0.299 N 
ATOM      5  H   LIG d   1      10.815   4.269  -5.055  0.00  0.00     0.157 HD
ATOM      6  H   LIG d   1      10.482   2.119  -5.909  0.00  0.00     0.150 HD
ENDROOT
BRANCH   1   7
ATOM      7  C   LIG d   1      10.301   4.904  -3.156  0.00  0.00     0.077 A 
ATOM      8  C   LIG d   1      10.995   4.632  -1.986  0.00  0.00    -0.033 A 
ATOM      9  C   LIG d   1      10.932   5.513  -0.924  0.00  0.00    -0.018 A 
ATOM     10  H   LIG d   1      11.584   3.731  -1.906  0.00  0.00     0.064 H 
ATOM     11  C   LIG d   1      10.176   6.672  -1.024  0.00  0.00     0.124 A 
ATOM     12  H   LIG d   1      11.474   5.300  -0.014  0.00  0.00     0.066 H 
ATOM     13  C   LIG d   1       9.476   6.946  -2.189  0.00  0.00     0.024 A 
ATOM     14  C   LIG d   1       9.541   6.067  -3.258  0.00  0.00     0.145 A 
ATOM     15  H   LIG d   1       8.884   7.845  -2.265  0.00  0.00     0.069 H 
BRANCH  11  16
ATOM     16  O   LIG d   1      10.117   7.537   0.023  0.00  0.00    -0.495 OA
BRANCH  16  17
ATOM     17  C   LIG d   1      11.324   7.750   0.758  0.00  0.00     0.079 C 
ATOM     18  H   LIG d   1      11.219   7.332   1.759  0.00  0.00     0.066 H 
ATOM     19  H   LIG d   1      12.153   7.261   0.245  0.00  0.00     0.066 H 
ATOM     20  H   LIG d   1      11.521   8.820   0.829  0.00  0.00     0.066 H 
ENDBRANCH  16  17
ENDBRANCH  11  16
BRANCH  14  21
ATOM     21  O   LIG d   1       8.860   6.337  -4.404  0.00  0.00    -0.493 OA
BRANCH  21  22
ATOM     22  C   LIG d   1       9.393   7.355  -5.252  0.00  0.00     0.079 C 
ATOM     23  H   LIG d   1       8.931   8.311  -5.005  0.00  0.00     0.066 H 
ATOM     24  H   LIG d   1      10.471   7.422  -5.105  0.00  0.00     0.066 H 
ATOM     25  H   LIG d   1       9.183   7.107  -6.292  0.00  0.00     0.066 H 
ENDBRANCH  21  22
ENDBRANCH  14  21
ENDBRANCH   1   7
BRANCH   4  26
ATOM     26  C   LIG d   1       9.350   0.562  -5.012  0.00  0.00     0.017 C 
ATOM     27  H   LIG d   1       9.929  -0.156  -5.592  0.00  0.00     0.047 H 
ATOM     28  H   LIG d   1       9.334   0.256  -3.965  0.00  0.00     0.047 H 
BRANCH  26  29
ATOM     29  C   LIG d   1       7.918   0.615  -5.549  0.00  0.00    -0.010 C 
ATOM     30  H   LIG d   1       7.506   1.612  -5.388  0.00  0.00     0.033 H 
ATOM     31  H   LIG d   1       7.922   0.392  -6.616  0.00  0.00     0.033 H 
BRANCH  29  32
ATOM     32  C   LIG d   1       7.073  -0.401  -4.827  0.00  0.00    -0.021 A 
ATOM     33  C   LIG d   1       6.145  -0.138  -3.723  0.00  0.00     0.003 A 
ATOM     34  C   LIG d   1       5.585  -1.382  -3.380  0.00  0.00     0.047 A 
ATOM     35  C   LIG d   1       5.762   1.014  -3.032  0.00  0.00    -0.052 A 
ATOM     36  N   LIG d   1       6.147  -2.323  -4.212  0.00  0.00    -0.360 N 
ATOM     37  C   LIG d   1       4.651  -1.448  -2.352  0.00  0.00    -0.038 A 
ATOM     38  C   LIG d   1       7.030  -1.721  -5.068  0.00  0.00     0.006 A 
ATOM     39  H   LIG d   1       5.946  -3.273  -4.196  0.00  0.00     0.165 HD
ATOM     40  H   LIG d   1       7.606  -2.232  -5.824  0.00  0.00     0.081 H 
ATOM     41  C   LIG d   1       4.294  -0.301  -1.677  0.00  0.00    -0.060 A 
ATOM     42  H   LIG d   1       4.217  -2.397  -2.074  0.00  0.00     0.064 H 
ATOM     43  C   LIG d   1       4.846   0.925  -2.022  0.00  0.00    -0.061 A 
ATOM     44  H   LIG d   1       3.572  -0.356  -0.876  0.00  0.00     0.062 H 
ATOM     45  H   LIG d   1       4.549   1.815  -1.488  0.00  0.00     0.062 H 
ATOM     46  H   LIG d   1       6.187   1.971  -3.295  0.00  0.00     0.062 H 
ENDBRANCH  29  32
ENDBRANCH  26  29
ENDBRANCH   4  26
TORSDOF 8
ENDMDL
MODEL 9
REMARK VINA RESULT:      -6.0      4.573      6.852
REMARK  8 active torsions:
REMARK  status: ('A' for Active; 'I' for Inactive)
REMARK    1  A    between atoms: C_1  and  O_2 
REMARK    2  A    between atoms: O_2  and  C_3 
REMARK    3  A    between atoms: C_6  and  N_11 
REMARK    4  A    between atoms: C_7  and  O_9 
REMARK    5  A    between atoms: O_9  and  C_10 
REMARK       I    between atoms: N_11  and  C_12 
REMARK       I    between atoms: C_12  and  N_14 
REMARK    6  A    between atoms: N_14  and  C_15 
REMARK    7  A    between atoms: C_15  and  C_16 
REMARK    8  A    between atoms: C_16  and  C_17 
ROOT
ATOM      1  N   LIG d   1       7.477  -0.008  -3.229  0.00  0.00    -0.266 N 
ATOM      2  C   LIG d   1       7.641   1.015  -4.089  0.00  0.00     0.304 C 
ATOM      3  O   LIG d   1       7.003   1.048  -5.124  0.00  0.00    -0.253 OA
ATOM      4  N   LIG d   1       8.513   2.002  -3.803  0.00  0.00    -0.299 N 
ATOM      5  H   LIG d   1       7.923   0.005  -2.366  0.00  0.00     0.157 HD
ATOM      6  H   LIG d   1       9.022   1.975  -2.978  0.00  0.00     0.150 HD
ENDROOT
BRANCH   1   7
ATOM      7  C   LIG d   1       6.660  -1.095  -3.578  0.00  0.00     0.077 A 
ATOM      8  C   LIG d   1       7.143  -2.084  -4.422  0.00  0.00    -0.033 A 
ATOM      9  C   LIG d   1       6.339  -3.154  -4.765  0.00  0.00    -0.018 A 
ATOM     10  H   LIG d   1       8.148  -2.017  -4.810  0.00  0.00     0.064 H 
ATOM     11  C   LIG d   1       5.048  -3.243  -4.267  0.00  0.00     0.124 A 
ATOM     12  H   LIG d   1       6.718  -3.924  -5.422  0.00  0.00     0.066 H 
ATOM     13  C   LIG d   1       4.557  -2.253  -3.428  0.00  0.00     0.024 A 
ATOM     14  C   LIG d   1       5.363  -1.182  -3.077  0.00  0.00     0.145 A 
ATOM     15  H   LIG d   1       3.550  -2.320  -3.045  0.00  0.00     0.069 H 
BRANCH  11  16
ATOM     16  O   LIG d   1       4.260  -4.297  -4.607  0.00  0.00    -0.495 OA
BRANCH  16  17
ATOM     17  C   LIG d   1       4.796  -5.232  -5.545  0.00  0.00     0.079 C 
ATOM     18  H   LIG d   1       3.982  -5.706  -6.093  0.00  0.00     0.066 H 
ATOM     19  H   LIG d   1       5.450  -4.711  -6.245  0.00  0.00     0.066 H 
ATOM     20  H   LIG d   1       5.367  -5.993  -5.013  0.00  0.00     0.066 H 
ENDBRANCH  16  17
ENDBRANCH  11  16
BRANCH  14  21
ATOM     21  O   LIG d   1       4.885  -0.214  -2.250  0.00  0.00    -0.493 OA
BRANCH  21  22
ATOM     22  C   LIG d   1       3.578   0.291  -2.528  0.00  0.00     0.079 C 
ATOM     23  H   LIG d   1       2.972   0.248  -1.623  0.00  0.00     0.066 H 
ATOM     24  H   LIG d   1       3.653   1.324  -2.868  0.00  0.00     0.066 H 
ATOM     25  H   LIG d   1       3.113  -0.314  -3.306  0.00  0.00     0.066 H 
ENDBRANCH  21  22
ENDBRANCH  14  21
ENDBRANCH   1   7
BRANCH   4  26
ATOM     26  C   LIG d   1       8.692   3.115  -4.739  0.00  0.00     0.017 C 
ATOM     27  H   LIG d   1       8.695   2.734  -5.760  0.00  0.00     0.047 H 
ATOM     28  H   LIG d   1       7.874   3.826  -4.619  0.00  0.00     0.047 H 
BRANCH  26  29
ATOM     29  C   LIG d   1      10.022   3.815  -4.451  0.00  0.00    -0.010 C 
ATOM     30  H   LIG d   1      10.576   3.248  -3.702  0.00  0.00     0.033 H 
ATOM     31  H   LIG d   1      10.607   3.875  -5.368  0.00  0.00     0.033 H 
BRANCH  29  32
ATOM     32  C   LIG d   1       9.756   5.205  -3.934  0.00  0.00    -0.021 A 
ATOM     33  C   LIG d   1      10.065   5.711  -2.594  0.00  0.00     0.003 A 
ATOM     34  C   LIG d   1       9.643   7.053  -2.577  0.00  0.00     0.047 A 
ATOM     35  C   LIG d   1      10.647   5.149  -1.455  0.00  0.00    -0.052 A 
ATOM     36  N   LIG d   1       9.110   7.326  -3.817  0.00  0.00    -0.360 N 
ATOM     37  C   LIG d   1       9.813   7.806  -1.421  0.00  0.00    -0.038 A 
ATOM     38  C   LIG d   1       9.186   6.214  -4.611  0.00  0.00     0.006 A 
ATOM     39  H   LIG d   1       8.736   8.179  -4.088  0.00  0.00     0.165 HD
ATOM     40  H   LIG d   1       8.839   6.157  -5.633  0.00  0.00     0.081 H 
ATOM     41  C   LIG d   1      10.382   7.230  -0.306  0.00  0.00    -0.060 A 
ATOM     42  H   LIG d   1       9.490   8.836  -1.393  0.00  0.00     0.064 H 
ATOM     43  C   LIG d   1      10.800   5.907  -0.328  0.00  0.00    -0.061 A 
ATOM     44  H   LIG d   1      10.509   7.815   0.592  0.00  0.00     0.062 H 
ATOM     45  H   LIG d   1      11.251   5.472   0.552  0.00  0.00     0.062 H 
ATOM     46  H   LIG d   1      10.975   4.120  -1.466  0.00  0.00     0.062 H 
ENDBRANCH  29  32
ENDBRANCH  26  29
ENDBRANCH   4  26
TORSDOF 8
ENDMDL
MODEL 10
REMARK VINA RESULT:      -5.7      5.996      8.104
REMARK  8 active torsions:
REMARK  status: ('A' for Active; 'I' for Inactive)
REMARK    1  A    between atoms: C_1  and  O_2 
REMARK    2  A    between atoms: O_2  and  C_3 
REMARK    3  A    between atoms: C_6  and  N_11 
REMARK    4  A    between atoms: C_7  and  O_9 
REMARK    5  A    between atoms: O_9  and  C_10 
REMARK       I    between atoms: N_11  and  C_12 
REMARK       I    between atoms: C_12  and  N_14 
REMARK    6  A    between atoms: N_14  and  C_15 
REMARK    7  A    between atoms: C_15  and  C_16 
REMARK    8  A    between atoms: C_16  and  C_17 
ROOT
ATOM      1  N   LIG d   1       5.575  -4.163  -5.009  0.00  0.00    -0.266 N 
ATOM      2  C   LIG d   1       4.878  -5.214  -5.484  0.00  0.00     0.304 C 
ATOM      3  O   LIG d   1       3.679  -5.118  -5.662  0.00  0.00    -0.253 OA
ATOM      4  N   LIG d   1       5.511  -6.371  -5.763  0.00  0.00    -0.299 N 
ATOM      5  H   LIG d   1       6.543  -4.211  -4.945  0.00  0.00     0.157 HD
ATOM      6  H   LIG d   1       6.467  -6.447  -5.621  0.00  0.00     0.150 HD
ENDROOT
BRANCH   1   7
ATOM      7  C   LIG d   1       4.903  -2.998  -4.607  0.00  0.00     0.077 A 
ATOM      8  C   LIG d   1       4.350  -2.919  -3.337  0.00  0.00    -0.033 A 
ATOM      9  C   LIG d   1       3.688  -1.773  -2.942  0.00  0.00    -0.018 A 
ATOM     10  H   LIG d   1       4.437  -3.754  -2.659  0.00  0.00     0.064 H 
ATOM     11  C   LIG d   1       3.576  -0.698  -3.812  0.00  0.00     0.124 A 
ATOM     12  H   LIG d   1       3.259  -1.713  -1.952  0.00  0.00     0.066 H 
ATOM     13  C   LIG d   1       4.121  -0.775  -5.085  0.00  0.00     0.024 A 
ATOM     14  C   LIG d   1       4.790  -1.921  -5.483  0.00  0.00     0.145 A 
ATOM     15  H   LIG d   1       4.029   0.060  -5.763  0.00  0.00     0.069 H 
BRANCH  11  16
ATOM     16  O   LIG d   1       2.924   0.428  -3.418  0.00  0.00    -0.495 OA
BRANCH  16  17
ATOM     17  C   LIG d   1       3.686   1.401  -2.701  0.00  0.00     0.079 C 
ATOM     18  H   LIG d   1       3.130   2.337  -2.655  0.00  0.00     0.066 H 
ATOM     19  H   LIG d   1       3.877   1.041  -1.690  0.00  0.00     0.066 H 
ATOM     20  H   LIG d   1       4.635   1.568  -3.212  0.00  0.00     0.066 H 
ENDBRANCH  16  17
ENDBRANCH  11  16
BRANCH  14  21
ATOM     21  O   LIG d   1       5.331  -1.995  -6.728  0.00  0.00    -0.493 OA
BRANCH  21  22
ATOM     22  C   LIG d   1       5.339  -0.796  -7.505  0.00  0.00     0.079 C 
ATOM     23  H   LIG d   1       6.236  -0.221  -7.275  0.00  0.00     0.066 H 
ATOM     24  H   LIG d   1       5.330  -1.049  -8.565  0.00  0.00     0.066 H 
ATOM     25  H   LIG d   1       4.456  -0.202  -7.266  0.00  0.00     0.066 H 
ENDBRANCH  21  22
ENDBRANCH  14  21
ENDBRANCH   1   7
BRANCH   4  26
ATOM     26  C   LIG d   1       4.753  -7.513  -6.279  0.00  0.00     0.017 C 
ATOM     27  H   LIG d   1       3.858  -7.659  -5.675  0.00  0.00     0.047 H 
ATOM     28  H   LIG d   1       4.466  -7.322  -7.314  0.00  0.00     0.047 H 
BRANCH  26  29
ATOM     29  C   LIG d   1       5.621  -8.772  -6.216  0.00  0.00    -0.010 C 
ATOM     30  H   LIG d   1       5.363  -9.434  -7.043  0.00  0.00     0.033 H 
ATOM     31  H   LIG d   1       6.672  -8.492  -6.290  0.00  0.00     0.033 H 
BRANCH  29  32
ATOM     32  C   LIG d   1       5.383  -9.482  -4.909  0.00  0.00    -0.021 A 
ATOM     33  C   LIG d   1       6.274  -9.489  -3.746  0.00  0.00     0.003 A 
ATOM     34  C   LIG d   1       5.634 -10.276  -2.771  0.00  0.00     0.047 A 
ATOM     35  C   LIG d   1       7.514  -8.909  -3.470  0.00  0.00    -0.052 A 
ATOM     36  N   LIG d   1       4.449 -10.715  -3.317  0.00  0.00    -0.360 N 
ATOM     37  C   LIG d   1       6.248 -10.465  -1.537  0.00  0.00    -0.038 A 
ATOM     38  C   LIG d   1       4.317 -10.232  -4.591  0.00  0.00     0.006 A 
ATOM     39  H   LIG d   1       3.804 -11.283  -2.866  0.00  0.00     0.165 HD
ATOM     40  H   LIG d   1       3.478 -10.426  -5.243  0.00  0.00     0.081 H 
ATOM     41  C   LIG d   1       7.476  -9.890  -1.289  0.00  0.00    -0.060 A 
ATOM     42  H   LIG d   1       5.771 -11.069  -0.781  0.00  0.00     0.064 H 
ATOM     43  C   LIG d   1       8.102  -9.112  -2.253  0.00  0.00    -0.061 A 
ATOM     44  H   LIG d   1       7.953 -10.042  -0.332  0.00  0.00     0.062 H 
ATOM     45  H   LIG d   1       9.060  -8.663  -2.040  0.00  0.00     0.062 H 
ATOM     46  H   LIG d   1       8.006  -8.302  -4.215  0.00  0.00     0.062 H 
ENDBRANCH  29  32
ENDBRANCH  26  29
ENDBRANCH   4  26
TORSDOF 8
ENDMDL
