MODEL 1
REMARK VINA RESULT:      -7.6      0.000      0.000
REMARK  8 active torsions:
REMARK  status: ('A' for Active; 'I' for Inactive)
REMARK    1  A    between atoms: C_9  and  C_11 
REMARK    2  A    between atoms: C_11  and  C_13 
REMARK    3  A    between atoms: C_11  and  O_30 
REMARK    4  A    between atoms: C_13  and  C_14 
REMARK    5  A    between atoms: C_14  and  C_16 
REMARK    6  A    between atoms: C_16  and  C_17 
REMARK    7  A    between atoms: C_17  and  C_19 
REMARK    8  A    between atoms: C_17  and  O_29 
ROOT
ATOM      1  C   LIG d   1       9.956   3.785  -4.674  0.00  0.00     0.139 C 
ATOM      2  O   LIG d   1      10.948   3.498  -5.299  0.00  0.00    -0.297 OA
ENDROOT
BRANCH   1   3
ATOM      3  C   LIG d   1       9.961   4.980  -3.757  0.00  0.00     0.037 C 
ATOM      4  H   LIG d   1      10.757   5.550  -3.956  0.00  0.00     0.037 H 
ATOM      5  H   LIG d   1       9.051   5.559  -3.910  0.00  0.00     0.037 H 
BRANCH   3   6
ATOM      6  C   LIG d   1      10.025   4.505  -2.303  0.00  0.00     0.104 C 
ATOM      7  H   LIG d   1       9.048   4.126  -2.001  0.00  0.00     0.066 H 
BRANCH   6   8
ATOM      8  C   LIG d   1      10.412   5.660  -1.415  0.00  0.00     0.071 A 
ATOM      9  C   LIG d   1      11.406   5.474  -0.457  0.00  0.00    -0.037 A 
ATOM     10  C   LIG d   1      11.776   6.511   0.352  0.00  0.00    -0.051 A 
ATOM     11  H   LIG d   1      11.888   4.512  -0.357  0.00  0.00     0.064 H 
ATOM     12  C   LIG d   1      11.118   7.746   0.191  0.00  0.00     0.000 A 
ATOM     13  H   LIG d   1      12.546   6.386   1.098  0.00  0.00     0.062 H 
ATOM     14  C   LIG d   1      10.112   7.864  -0.799  0.00  0.00     0.071 A 
ATOM     15  C   LIG d   1      11.438   8.854   0.991  0.00  0.00    -0.053 A 
ATOM     16  C   LIG d   1       9.454   9.096  -0.961  0.00  0.00    -0.036 A 
ATOM     17  N   LIG d   1       9.802   6.811  -1.562  0.00  0.00    -0.249 NA
ATOM     18  C   LIG d   1       9.790  10.150  -0.169  0.00  0.00    -0.060 A 
ATOM     19  H   LIG d   1       8.685   9.205  -1.711  0.00  0.00     0.064 H 
ATOM     20  C   LIG d   1      10.780  10.031   0.805  0.00  0.00    -0.061 A 
ATOM     21  H   LIG d   1       9.281  11.094  -0.298  0.00  0.00     0.062 H 
ATOM     22  H   LIG d   1      11.028  10.884   1.419  0.00  0.00     0.062 H 
ATOM     23  H   LIG d   1      12.204   8.775   1.749  0.00  0.00     0.062 H 
ENDBRANCH   6   8
BRANCH   6  24
ATOM     24  O   LIG d   1      10.997   3.465  -2.184  0.00  0.00    -0.385 OA
ATOM     25  H   LIG d   1      10.807   2.825  -1.485  0.00  0.00     0.210 HD
ENDBRANCH   6  24
ENDBRANCH   3   6
ENDBRANCH   1   3
BRANCH   1  26
ATOM     26  C   LIG d   1       8.709   2.951  -4.817  0.00  0.00     0.037 C 
ATOM     27  H   LIG d   1       8.086   3.150  -4.060  0.00  0.00     0.037 H 
ATOM     28  H   LIG d   1       8.218   3.189  -5.762  0.00  0.00     0.037 H 
BRANCH  26  29
ATOM     29  C   LIG d   1       9.081   1.467  -4.795  0.00  0.00     0.104 C 
ATOM     30  H   LIG d   1       9.318   1.137  -5.807  0.00  0.00     0.066 H 
BRANCH  29  31
ATOM     31  C   LIG d   1       7.921   0.665  -4.264  0.00  0.00     0.071 A 
ATOM     32  N   LIG d   1       6.907   1.294  -3.719  0.00  0.00    -0.249 NA
ATOM     33  C   LIG d   1       5.856   0.627  -3.234  0.00  0.00     0.071 A 
ATOM     34  C   LIG d   1       5.825  -0.788  -3.305  0.00  0.00     0.000 A 
ATOM     35  C   LIG d   1       4.772   1.306  -2.650  0.00  0.00    -0.036 A 
ATOM     36  C   LIG d   1       6.911  -1.466  -3.889  0.00  0.00    -0.051 A 
ATOM     37  C   LIG d   1       4.717  -1.484  -2.794  0.00  0.00    -0.053 A 
ATOM     38  C   LIG d   1       7.951  -0.723  -4.370  0.00  0.00    -0.037 A 
ATOM     39  H   LIG d   1       6.918  -2.544  -3.960  0.00  0.00     0.062 H 
ATOM     40  H   LIG d   1       8.797  -1.212  -4.829  0.00  0.00     0.064 H 
ATOM     41  C   LIG d   1       3.686  -0.792  -2.236  0.00  0.00    -0.061 A 
ATOM     42  H   LIG d   1       4.683  -2.562  -2.843  0.00  0.00     0.062 H 
ATOM     43  C   LIG d   1       3.715   0.600  -2.164  0.00  0.00    -0.060 A 
ATOM     44  H   LIG d   1       2.834  -1.327  -1.843  0.00  0.00     0.062 H 
ATOM     45  H   LIG d   1       2.884   1.127  -1.718  0.00  0.00     0.062 H 
ATOM     46  H   LIG d   1       4.779   2.385  -2.587  0.00  0.00     0.064 H 
ENDBRANCH  29  31
BRANCH  29  47
ATOM     47  O   LIG d   1      10.219   1.274  -3.953  0.00  0.00    -0.385 OA
ATOM     48  H   LIG d   1      10.022   0.815  -3.125  0.00  0.00     0.210 HD
ENDBRANCH  29  47
ENDBRANCH  26  29
ENDBRANCH   1  26
TORSDOF 8
ENDMDL
MODEL 2
REMARK VINA RESULT:      -7.6      0.154      8.596
REMARK  8 active torsions:
REMARK  status: ('A' for Active; 'I' for Inactive)
REMARK    1  A    between atoms: C_9  and  C_11 
REMARK    2  A    between atoms: C_11  and  C_13 
REMARK    3  A    between atoms: C_11  and  O_30 
REMARK    4  A    between atoms: C_13  and  C_14 
REMARK    5  A    between atoms: C_14  and  C_16 
REMARK    6  A    between atoms: C_16  and  C_17 
REMARK    7  A    between atoms: C_17  and  C_19 
REMARK    8  A    between atoms: C_17  and  O_29 
ROOT
ATOM      1  C   LIG d   1       9.913   3.758  -4.705  0.00  0.00     0.139 C 
ATOM      2  O   LIG d   1      10.902   3.521  -5.356  0.00  0.00    -0.297 OA
ENDROOT
BRANCH   1   3
ATOM      3  C   LIG d   1       8.682   2.905  -4.864  0.00  0.00     0.037 C 
ATOM      4  H   LIG d   1       8.045   3.095  -4.119  0.00  0.00     0.037 H 
ATOM      5  H   LIG d   1       8.204   3.131  -5.818  0.00  0.00     0.037 H 
BRANCH   3   6
ATOM      6  C   LIG d   1       9.078   1.427  -4.831  0.00  0.00     0.104 C 
ATOM      7  H   LIG d   1       9.314   1.091  -5.840  0.00  0.00     0.066 H 
BRANCH   6   8
ATOM      8  C   LIG d   1       7.934   0.612  -4.284  0.00  0.00     0.071 A 
ATOM      9  C   LIG d   1       7.975  -0.775  -4.397  0.00  0.00    -0.037 A 
ATOM     10  C   LIG d   1       6.950  -1.530  -3.901  0.00  0.00    -0.051 A 
ATOM     11  H   LIG d   1       8.819  -1.255  -4.871  0.00  0.00     0.064 H 
ATOM     12  C   LIG d   1       5.867  -0.864  -3.296  0.00  0.00     0.000 A 
ATOM     13  H   LIG d   1       6.967  -2.607  -3.977  0.00  0.00     0.062 H 
ATOM     14  C   LIG d   1       5.887   0.550  -3.220  0.00  0.00     0.071 A 
ATOM     15  C   LIG d   1       4.774  -1.572  -2.771  0.00  0.00    -0.053 A 
ATOM     16  C   LIG d   1       4.806   1.217  -2.616  0.00  0.00    -0.036 A 
ATOM     17  N   LIG d   1       6.924   1.230  -3.719  0.00  0.00    -0.249 NA
ATOM     18  C   LIG d   1       3.764   0.500  -2.116  0.00  0.00    -0.060 A 
ATOM     19  H   LIG d   1       4.804   2.295  -2.548  0.00  0.00     0.064 H 
ATOM     20  C   LIG d   1       3.747  -0.892  -2.193  0.00  0.00    -0.061 A 
ATOM     21  H   LIG d   1       2.937   1.017  -1.654  0.00  0.00     0.062 H 
ATOM     22  H   LIG d   1       2.907  -1.437  -1.788  0.00  0.00     0.062 H 
ATOM     23  H   LIG d   1       4.750  -2.651  -2.823  0.00  0.00     0.062 H 
ENDBRANCH   6   8
BRANCH   6  24
ATOM     24  O   LIG d   1      10.224   1.261  -3.993  0.00  0.00    -0.385 OA
ATOM     25  H   LIG d   1      10.927   1.905  -4.154  0.00  0.00     0.210 HD
ENDBRANCH   6  24
ENDBRANCH   3   6
ENDBRANCH   1   3
BRANCH   1  26
ATOM     26  C   LIG d   1       9.914   4.904  -3.726  0.00  0.00     0.037 C 
ATOM     27  H   LIG d   1      10.589   5.585  -4.010  0.00  0.00     0.037 H 
ATOM     28  H   LIG d   1       8.925   5.362  -3.701  0.00  0.00     0.037 H 
BRANCH  26  29
ATOM     29  C   LIG d   1      10.270   4.383  -2.331  0.00  0.00     0.104 C 
ATOM     30  H   LIG d   1       9.423   3.832  -1.923  0.00  0.00     0.066 H 
BRANCH  29  31
ATOM     31  C   LIG d   1      10.594   5.545  -1.429  0.00  0.00     0.071 A 
ATOM     32  N   LIG d   1       9.962   6.682  -1.599  0.00  0.00    -0.249 NA
ATOM     33  C   LIG d   1      10.216   7.741  -0.824  0.00  0.00     0.071 A 
ATOM     34  C   LIG d   1      11.185   7.645   0.205  0.00  0.00     0.000 A 
ATOM     35  C   LIG d   1       9.536   8.956  -1.012  0.00  0.00    -0.036 A 
ATOM     36  C   LIG d   1      11.865   6.427   0.391  0.00  0.00    -0.051 A 
ATOM     37  C   LIG d   1      11.447   8.760   1.018  0.00  0.00    -0.053 A 
ATOM     38  C   LIG d   1      11.554   5.383  -0.432  0.00  0.00    -0.037 A 
ATOM     39  H   LIG d   1      12.608   6.319   1.167  0.00  0.00     0.062 H 
ATOM     40  H   LIG d   1      12.054   4.433  -0.313  0.00  0.00     0.064 H 
ATOM     41  C   LIG d   1      10.768   9.921   0.806  0.00  0.00    -0.061 A 
ATOM     42  H   LIG d   1      12.183   8.698   1.805  0.00  0.00     0.062 H 
ATOM     43  C   LIG d   1       9.815  10.018  -0.206  0.00  0.00    -0.060 A 
ATOM     44  H   LIG d   1      10.970  10.779   1.431  0.00  0.00     0.062 H 
ATOM     45  H   LIG d   1       9.288  10.949  -0.354  0.00  0.00     0.062 H 
ATOM     46  H   LIG d   1       8.794   9.048  -1.792  0.00  0.00     0.064 H 
ENDBRANCH  29  31
BRANCH  29  47
ATOM     47  O   LIG d   1      11.403   3.518  -2.421  0.00  0.00    -0.385 OA
ATOM     48  H   LIG d   1      11.868   3.566  -3.268  0.00  0.00     0.210 HD
ENDBRANCH  29  47
ENDBRANCH  26  29
ENDBRANCH   1  26
TORSDOF 8
ENDMDL
MODEL 3
REMARK VINA RESULT:      -7.5      6.171      8.610
REMARK  8 active torsions:
REMARK  status: ('A' for Active; 'I' for Inactive)
REMARK    1  A    between atoms: C_9  and  C_11 
REMARK    2  A    between atoms: C_11  and  C_13 
REMARK    3  A    between atoms: C_11  and  O_30 
REMARK    4  A    between atoms: C_13  and  C_14 
REMARK    5  A    between atoms: C_14  and  C_16 
REMARK    6  A    between atoms: C_16  and  C_17 
REMARK    7  A    between atoms: C_17  and  C_19 
REMARK    8  A    between atoms: C_17  and  O_29 
ROOT
ATOM      1  C   LIG d   1       4.352   1.874  -9.453  0.00  0.00     0.139 C 
ATOM      2  O   LIG d   1       4.068   1.740 -10.619  0.00  0.00    -0.297 OA
ENDROOT
BRANCH   1   3
ATOM      3  C   LIG d   1       3.332   1.565  -8.388  0.00  0.00     0.037 C 
ATOM      4  H   LIG d   1       3.666   1.885  -7.503  0.00  0.00     0.037 H 
ATOM      5  H   LIG d   1       2.394   2.066  -8.627  0.00  0.00     0.037 H 
BRANCH   3   6
ATOM      6  C   LIG d   1       3.100   0.053  -8.329  0.00  0.00     0.104 C 
ATOM      7  H   LIG d   1       2.055  -0.164  -8.551  0.00  0.00     0.066 H 
BRANCH   6   8
ATOM      8  C   LIG d   1       3.436  -0.453  -6.950  0.00  0.00     0.071 A 
ATOM      9  C   LIG d   1       3.975  -1.730  -6.810  0.00  0.00    -0.037 A 
ATOM     10  C   LIG d   1       4.293  -2.203  -5.567  0.00  0.00    -0.051 A 
ATOM     11  H   LIG d   1       4.145  -2.345  -7.681  0.00  0.00     0.064 H 
ATOM     12  C   LIG d   1       4.049  -1.371  -4.458  0.00  0.00     0.000 A 
ATOM     13  H   LIG d   1       4.714  -3.188  -5.440  0.00  0.00     0.062 H 
ATOM     14  C   LIG d   1       3.495  -0.085  -4.672  0.00  0.00     0.071 A 
ATOM     15  C   LIG d   1       4.343  -1.790  -3.151  0.00  0.00    -0.053 A 
ATOM     16  C   LIG d   1       3.250   0.747  -3.565  0.00  0.00    -0.036 A 
ATOM     17  N   LIG d   1       3.211   0.319  -5.915  0.00  0.00    -0.249 NA
ATOM     18  C   LIG d   1       3.548   0.309  -2.313  0.00  0.00    -0.060 A 
ATOM     19  H   LIG d   1       2.828   1.731  -3.709  0.00  0.00     0.064 H 
ATOM     20  C   LIG d   1       4.093  -0.957  -2.104  0.00  0.00    -0.061 A 
ATOM     21  H   LIG d   1       3.358   0.951  -1.466  0.00  0.00     0.062 H 
ATOM     22  H   LIG d   1       4.321  -1.280  -1.099  0.00  0.00     0.062 H 
ATOM     23  H   LIG d   1       4.767  -2.769  -2.977  0.00  0.00     0.062 H 
ENDBRANCH   6   8
BRANCH   6  24
ATOM     24  O   LIG d   1       3.935  -0.594  -9.291  0.00  0.00    -0.385 OA
ATOM     25  H   LIG d   1       4.861  -0.667  -9.024  0.00  0.00     0.210 HD
ENDBRANCH   6  24
ENDBRANCH   3   6
ENDBRANCH   1   3
BRANCH   1  26
ATOM     26  C   LIG d   1       5.729   2.343  -9.062  0.00  0.00     0.037 C 
ATOM     27  H   LIG d   1       5.959   3.170  -9.577  0.00  0.00     0.037 H 
ATOM     28  H   LIG d   1       5.750   2.563  -7.995  0.00  0.00     0.037 H 
BRANCH  26  29
ATOM     29  C   LIG d   1       6.750   1.247  -9.377  0.00  0.00     0.104 C 
ATOM     30  H   LIG d   1       6.349   0.587 -10.145  0.00  0.00     0.066 H 
BRANCH  29  31
ATOM     31  C   LIG d   1       7.034   0.451  -8.129  0.00  0.00     0.071 A 
ATOM     32  N   LIG d   1       6.921   1.036  -6.960  0.00  0.00    -0.249 NA
ATOM     33  C   LIG d   1       7.162   0.372  -5.825  0.00  0.00     0.071 A 
ATOM     34  C   LIG d   1       7.547  -0.991  -5.874  0.00  0.00     0.000 A 
ATOM     35  C   LIG d   1       7.039   1.003  -4.576  0.00  0.00    -0.036 A 
ATOM     36  C   LIG d   1       7.670  -1.621  -7.127  0.00  0.00    -0.051 A 
ATOM     37  C   LIG d   1       7.798  -1.684  -4.679  0.00  0.00    -0.053 A 
ATOM     38  C   LIG d   1       7.403  -0.886  -8.247  0.00  0.00    -0.037 A 
ATOM     39  H   LIG d   1       7.960  -2.659  -7.200  0.00  0.00     0.062 H 
ATOM     40  H   LIG d   1       7.483  -1.341  -9.223  0.00  0.00     0.064 H 
ATOM     41  C   LIG d   1       7.669  -1.039  -3.487  0.00  0.00    -0.061 A 
ATOM     42  H   LIG d   1       8.093  -2.722  -4.705  0.00  0.00     0.062 H 
ATOM     43  C   LIG d   1       7.291   0.301  -3.437  0.00  0.00    -0.060 A 
ATOM     44  H   LIG d   1       7.863  -1.573  -2.568  0.00  0.00     0.062 H 
ATOM     45  H   LIG d   1       7.194   0.791  -2.479  0.00  0.00     0.062 H 
ATOM     46  H   LIG d   1       6.747   2.041  -4.519  0.00  0.00     0.064 H 
ENDBRANCH  29  31
BRANCH  29  47
ATOM     47  O   LIG d   1       7.960   1.844  -9.847  0.00  0.00    -0.385 OA
ATOM     48  H   LIG d   1       8.216   1.565 -10.737  0.00  0.00     0.210 HD
ENDBRANCH  29  47
ENDBRANCH  26  29
ENDBRANCH   1  26
TORSDOF 8
ENDMDL
MODEL 4
REMARK VINA RESULT:      -7.5      1.107      2.108
REMARK  8 active torsions:
REMARK  status: ('A' for Active; 'I' for Inactive)
REMARK    1  A    between atoms: C_9  and  C_11 
REMARK    2  A    between atoms: C_11  and  C_13 
REMARK    3  A    between atoms: C_11  and  O_30 
REMARK    4  A    between atoms: C_13  and  C_14 
REMARK    5  A    between atoms: C_14  and  C_16 
REMARK    6  A    between atoms: C_16  and  C_17 
REMARK    7  A    between atoms: C_17  and  C_19 
REMARK    8  A    between atoms: C_17  and  O_29 
ROOT
ATOM      1  C   LIG d   1      10.065   3.011  -5.330  0.00  0.00     0.139 C 
ATOM      2  O   LIG d   1      10.775   2.521  -6.174  0.00  0.00    -0.297 OA
ENDROOT
BRANCH   1   3
ATOM      3  C   LIG d   1      10.586   4.125  -4.459  0.00  0.00     0.037 C 
ATOM      4  H   LIG d   1      11.582   4.073  -4.410  0.00  0.00     0.037 H 
ATOM      5  H   LIG d   1      10.292   5.085  -4.882  0.00  0.00     0.037 H 
BRANCH   3   6
ATOM      6  C   LIG d   1       9.999   3.988  -3.051  0.00  0.00     0.104 C 
ATOM      7  H   LIG d   1       8.952   3.693  -3.122  0.00  0.00     0.066 H 
BRANCH   6   8
ATOM      8  C   LIG d   1      10.103   5.309  -2.334  0.00  0.00     0.071 A 
ATOM      9  C   LIG d   1       9.667   6.465  -2.976  0.00  0.00    -0.037 A 
ATOM     10  C   LIG d   1       9.747   7.671  -2.339  0.00  0.00    -0.051 A 
ATOM     11  H   LIG d   1       9.262   6.408  -3.976  0.00  0.00     0.064 H 
ATOM     12  C   LIG d   1      10.286   7.700  -1.039  0.00  0.00     0.000 A 
ATOM     13  H   LIG d   1       9.411   8.576  -2.820  0.00  0.00     0.062 H 
ATOM     14  C   LIG d   1      10.716   6.487  -0.446  0.00  0.00     0.071 A 
ATOM     15  C   LIG d   1      10.407   8.902  -0.324  0.00  0.00    -0.053 A 
ATOM     16  C   LIG d   1      11.256   6.514   0.852  0.00  0.00    -0.036 A 
ATOM     17  N   LIG d   1      10.605   5.339  -1.123  0.00  0.00    -0.249 NA
ATOM     18  C   LIG d   1      11.357   7.697   1.516  0.00  0.00    -0.060 A 
ATOM     19  H   LIG d   1      11.588   5.599   1.320  0.00  0.00     0.064 H 
ATOM     20  C   LIG d   1      10.934   8.889   0.931  0.00  0.00    -0.061 A 
ATOM     21  H   LIG d   1      11.773   7.712   2.513  0.00  0.00     0.062 H 
ATOM     22  H   LIG d   1      11.026   9.814   1.480  0.00  0.00     0.062 H 
ATOM     23  H   LIG d   1      10.082   9.833  -0.767  0.00  0.00     0.062 H 
ENDBRANCH   6   8
BRANCH   6  24
ATOM     24  O   LIG d   1      10.726   2.993  -2.328  0.00  0.00    -0.385 OA
ATOM     25  H   LIG d   1      11.685   3.046  -2.441  0.00  0.00     0.210 HD
ENDBRANCH   6  24
ENDBRANCH   3   6
ENDBRANCH   1   3
BRANCH   1  26
ATOM     26  C   LIG d   1       8.653   2.514  -5.152  0.00  0.00     0.037 C 
ATOM     27  H   LIG d   1       8.246   2.947  -4.347  0.00  0.00     0.037 H 
ATOM     28  H   LIG d   1       8.065   2.764  -6.035  0.00  0.00     0.037 H 
BRANCH  26  29
ATOM     29  C   LIG d   1       8.667   0.996  -4.961  0.00  0.00     0.104 C 
ATOM     30  H   LIG d   1       8.697   0.508  -5.935  0.00  0.00     0.066 H 
BRANCH  29  31
ATOM     31  C   LIG d   1       7.423   0.570  -4.225  0.00  0.00     0.071 A 
ATOM     32  N   LIG d   1       6.986  -0.659  -4.368  0.00  0.00    -0.249 NA
ATOM     33  C   LIG d   1       5.887  -1.083  -3.736  0.00  0.00     0.071 A 
ATOM     34  C   LIG d   1       5.173  -0.197  -2.892  0.00  0.00     0.000 A 
ATOM     35  C   LIG d   1       5.423  -2.400  -3.893  0.00  0.00    -0.036 A 
ATOM     36  C   LIG d   1       5.639   1.122  -2.737  0.00  0.00    -0.051 A 
ATOM     37  C   LIG d   1       4.020  -0.648  -2.230  0.00  0.00    -0.053 A 
ATOM     38  C   LIG d   1       6.771   1.489  -3.407  0.00  0.00    -0.037 A 
ATOM     39  H   LIG d   1       5.119   1.823  -2.100  0.00  0.00     0.062 H 
ATOM     40  H   LIG d   1       7.158   2.492  -3.305  0.00  0.00     0.064 H 
ATOM     41  C   LIG d   1       3.601  -1.931  -2.406  0.00  0.00    -0.061 A 
ATOM     42  H   LIG d   1       3.468   0.019  -1.585  0.00  0.00     0.062 H 
ATOM     43  C   LIG d   1       4.301  -2.804  -3.237  0.00  0.00    -0.060 A 
ATOM     44  H   LIG d   1       2.713  -2.277  -1.897  0.00  0.00     0.062 H 
ATOM     45  H   LIG d   1       3.950  -3.818  -3.360  0.00  0.00     0.062 H 
ATOM     46  H   LIG d   1       5.955  -3.090  -4.533  0.00  0.00     0.064 H 
ENDBRANCH  29  31
BRANCH  29  47
ATOM     47  O   LIG d   1       9.821   0.621  -4.205  0.00  0.00    -0.385 OA
ATOM     48  H   LIG d   1      10.642   0.620  -4.716  0.00  0.00     0.210 HD
ENDBRANCH  29  47
ENDBRANCH  26  29
ENDBRANCH   1  26
TORSDOF 8
ENDMDL
MODEL 5
REMARK VINA RESULT:      -7.4      1.249      8.497
REMARK  8 active torsions:
REMARK  status: ('A' for Active; 'I' for Inactive)
REMARK    1  A    between atoms: C_9  and  C_11 
REMARK    2  A    between atoms: C_11  and  C_13 
REMARK    3  A    between atoms: C_11  and  O_30 
REMARK    4  A    between atoms: C_13  and  C_14 
REMARK    5  A    between atoms: C_14  and  C_16 
REMARK    6  A    between atoms: C_16  and  C_17 
REMARK    7  A    between atoms: C_17  and  C_19 
REMARK    8  A    between atoms: C_17  and  O_29 
ROOT
ATOM      1  C   LIG d   1      10.487   2.365  -5.579  0.00  0.00     0.139 C 
ATOM      2  O   LIG d   1      11.210   1.862  -6.404  0.00  0.00    -0.297 OA
ENDROOT
BRANCH   1   3
ATOM      3  C   LIG d   1       9.023   2.010  -5.543  0.00  0.00     0.037 C 
ATOM      4  H   LIG d   1       8.569   2.538  -4.826  0.00  0.00     0.037 H 
ATOM      5  H   LIG d   1       8.570   2.241  -6.507  0.00  0.00     0.037 H 
BRANCH   3   6
ATOM      6  C   LIG d   1       8.868   0.516  -5.251  0.00  0.00     0.104 C 
ATOM      7  H   LIG d   1       8.799  -0.033  -6.191  0.00  0.00     0.066 H 
BRANCH   6   8
ATOM      8  C   LIG d   1       7.616   0.289  -4.444  0.00  0.00     0.071 A 
ATOM      9  C   LIG d   1       7.098   1.339  -3.689  0.00  0.00    -0.037 A 
ATOM     10  C   LIG d   1       5.959   1.155  -2.956  0.00  0.00    -0.051 A 
ATOM     11  H   LIG d   1       7.592   2.299  -3.686  0.00  0.00     0.064 H 
ATOM     12  C   LIG d   1       5.350  -0.114  -2.984  0.00  0.00     0.000 A 
ATOM     13  H   LIG d   1       5.542   1.958  -2.368  0.00  0.00     0.062 H 
ATOM     14  C   LIG d   1       5.933  -1.139  -3.769  0.00  0.00     0.071 A 
ATOM     15  C   LIG d   1       4.183  -0.381  -2.251  0.00  0.00    -0.053 A 
ATOM     16  C   LIG d   1       5.326  -2.407  -3.797  0.00  0.00    -0.036 A 
ATOM     17  N   LIG d   1       7.045  -0.891  -4.468  0.00  0.00    -0.249 NA
ATOM     18  C   LIG d   1       4.195  -2.631  -3.076  0.00  0.00    -0.060 A 
ATOM     19  H   LIG d   1       5.756  -3.201  -4.391  0.00  0.00     0.064 H 
ATOM     20  C   LIG d   1       3.623  -1.621  -2.303  0.00  0.00    -0.061 A 
ATOM     21  H   LIG d   1       3.733  -3.606  -3.101  0.00  0.00     0.062 H 
ATOM     22  H   LIG d   1       2.725  -1.825  -1.740  0.00  0.00     0.062 H 
ATOM     23  H   LIG d   1       3.730   0.394  -1.649  0.00  0.00     0.062 H 
ENDBRANCH   6   8
BRANCH   6  24
ATOM     24  O   LIG d   1      10.001   0.055  -4.513  0.00  0.00    -0.385 OA
ATOM     25  H   LIG d   1       9.812  -0.686  -3.921  0.00  0.00     0.210 HD
ENDBRANCH   6  24
ENDBRANCH   3   6
ENDBRANCH   1   3
BRANCH   1  26
ATOM     26  C   LIG d   1      11.050   3.342  -4.580  0.00  0.00     0.037 C 
ATOM     27  H   LIG d   1      12.005   3.114  -4.391  0.00  0.00     0.037 H 
ATOM     28  H   LIG d   1      10.991   4.352  -4.985  0.00  0.00     0.037 H 
BRANCH  26  29
ATOM     29  C   LIG d   1      10.242   3.266  -3.282  0.00  0.00     0.104 C 
ATOM     30  H   LIG d   1       9.220   2.963  -3.507  0.00  0.00     0.066 H 
BRANCH  29  31
ATOM     31  C   LIG d   1      10.229   4.618  -2.618  0.00  0.00     0.071 A 
ATOM     32  N   LIG d   1      10.738   4.744  -1.415  0.00  0.00    -0.249 NA
ATOM     33  C   LIG d   1      10.750   5.923  -0.785  0.00  0.00     0.071 A 
ATOM     34  C   LIG d   1      10.204   7.066  -1.419  0.00  0.00     0.000 A 
ATOM     35  C   LIG d   1      11.296   6.051   0.503  0.00  0.00    -0.036 A 
ATOM     36  C   LIG d   1       9.657   6.936  -2.709  0.00  0.00    -0.051 A 
ATOM     37  C   LIG d   1      10.220   8.302  -0.754  0.00  0.00    -0.053 A 
ATOM     38  C   LIG d   1       9.682   5.704  -3.298  0.00  0.00    -0.037 A 
ATOM     39  H   LIG d   1       9.234   7.787  -3.222  0.00  0.00     0.062 H 
ATOM     40  H   LIG d   1       9.275   5.570  -4.290  0.00  0.00     0.064 H 
ATOM     41  C   LIG d   1      10.758   8.388   0.494  0.00  0.00    -0.061 A 
ATOM     42  H   LIG d   1       9.807   9.180  -1.227  0.00  0.00     0.062 H 
ATOM     43  C   LIG d   1      11.295   7.264   1.120  0.00  0.00    -0.060 A 
ATOM     44  H   LIG d   1      10.769   9.339   1.006  0.00  0.00     0.062 H 
ATOM     45  H   LIG d   1      11.717   7.357   2.110  0.00  0.00     0.062 H 
ATOM     46  H   LIG d   1      11.716   5.190   1.002  0.00  0.00     0.064 H 
ENDBRANCH  29  31
BRANCH  29  47
ATOM     47  O   LIG d   1      10.840   2.309  -2.404  0.00  0.00    -0.385 OA
ATOM     48  H   LIG d   1      10.811   2.561  -1.471  0.00  0.00     0.210 HD
ENDBRANCH  29  47
ENDBRANCH  26  29
ENDBRANCH   1  26
TORSDOF 8
ENDMDL
MODEL 6
REMARK VINA RESULT:      -7.4      5.335      9.915
REMARK  8 active torsions:
REMARK  status: ('A' for Active; 'I' for Inactive)
REMARK    1  A    between atoms: C_9  and  C_11 
REMARK    2  A    between atoms: C_11  and  C_13 
REMARK    3  A    between atoms: C_11  and  O_30 
REMARK    4  A    between atoms: C_13  and  C_14 
REMARK    5  A    between atoms: C_14  and  C_16 
REMARK    6  A    between atoms: C_16  and  C_17 
REMARK    7  A    between atoms: C_17  and  C_19 
REMARK    8  A    between atoms: C_17  and  O_29 
ROOT
ATOM      1  C   LIG d   1       2.894   0.096  -3.586  0.00  0.00     0.139 C 
ATOM      2  O   LIG d   1       2.383  -0.903  -3.141  0.00  0.00    -0.297 OA
ENDROOT
BRANCH   1   3
ATOM      3  C   LIG d   1       2.842   0.377  -5.065  0.00  0.00     0.037 C 
ATOM      4  H   LIG d   1       1.948   0.114  -5.424  0.00  0.00     0.037 H 
ATOM      5  H   LIG d   1       3.005   1.441  -5.239  0.00  0.00     0.037 H 
BRANCH   3   6
ATOM      6  C   LIG d   1       3.933  -0.428  -5.775  0.00  0.00     0.104 C 
ATOM      7  H   LIG d   1       4.912  -0.035  -5.500  0.00  0.00     0.066 H 
BRANCH   6   8
ATOM      8  C   LIG d   1       3.748  -0.317  -7.267  0.00  0.00     0.071 A 
ATOM      9  C   LIG d   1       2.483  -0.029  -7.773  0.00  0.00    -0.037 A 
ATOM     10  C   LIG d   1       2.297   0.083  -9.122  0.00  0.00    -0.051 A 
ATOM     11  H   LIG d   1       1.650   0.111  -7.100  0.00  0.00     0.064 H 
ATOM     12  C   LIG d   1       3.410  -0.113  -9.963  0.00  0.00     0.000 A 
ATOM     13  H   LIG d   1       1.325   0.309  -9.532  0.00  0.00     0.062 H 
ATOM     14  C   LIG d   1       4.667  -0.408  -9.382  0.00  0.00     0.071 A 
ATOM     15  C   LIG d   1       3.295  -0.021 -11.360  0.00  0.00    -0.053 A 
ATOM     16  C   LIG d   1       5.778  -0.604 -10.221  0.00  0.00    -0.036 A 
ATOM     17  N   LIG d   1       4.782  -0.498  -8.053  0.00  0.00    -0.249 NA
ATOM     18  C   LIG d   1       5.631  -0.507 -11.570  0.00  0.00    -0.060 A 
ATOM     19  H   LIG d   1       6.745  -0.830  -9.796  0.00  0.00     0.064 H 
ATOM     20  C   LIG d   1       4.393  -0.217 -12.140  0.00  0.00    -0.061 A 
ATOM     21  H   LIG d   1       6.488  -0.659 -12.210  0.00  0.00     0.062 H 
ATOM     22  H   LIG d   1       4.304  -0.145 -13.213  0.00  0.00     0.062 H 
ATOM     23  H   LIG d   1       2.340   0.204 -11.813  0.00  0.00     0.062 H 
ENDBRANCH   6   8
BRANCH   6  24
ATOM     24  O   LIG d   1       3.843  -1.799  -5.384  0.00  0.00    -0.385 OA
ATOM     25  H   LIG d   1       4.433  -2.042  -4.657  0.00  0.00     0.210 HD
ENDBRANCH   6  24
ENDBRANCH   3   6
ENDBRANCH   1   3
BRANCH   1  26
ATOM     26  C   LIG d   1       3.580   1.067  -2.659  0.00  0.00     0.037 C 
ATOM     27  H   LIG d   1       3.936   1.838  -3.188  0.00  0.00     0.037 H 
ATOM     28  H   LIG d   1       2.865   1.433  -1.922  0.00  0.00     0.037 H 
BRANCH  26  29
ATOM     29  C   LIG d   1       4.735   0.362  -1.944  0.00  0.00     0.104 C 
ATOM     30  H   LIG d   1       5.008   0.926  -1.052  0.00  0.00     0.066 H 
BRANCH  29  31
ATOM     31  C   LIG d   1       5.922   0.278  -2.868  0.00  0.00     0.071 A 
ATOM     32  N   LIG d   1       6.479   1.387  -3.293  0.00  0.00    -0.249 NA
ATOM     33  C   LIG d   1       7.534   1.364  -4.114  0.00  0.00     0.071 A 
ATOM     34  C   LIG d   1       8.069   0.123  -4.539  0.00  0.00     0.000 A 
ATOM     35  C   LIG d   1       8.127   2.555  -4.566  0.00  0.00    -0.036 A 
ATOM     36  C   LIG d   1       7.473  -1.069  -4.086  0.00  0.00    -0.051 A 
ATOM     37  C   LIG d   1       9.178   0.104  -5.401  0.00  0.00    -0.053 A 
ATOM     38  C   LIG d   1       6.402  -0.974  -3.245  0.00  0.00    -0.037 A 
ATOM     39  H   LIG d   1       7.856  -2.031  -4.391  0.00  0.00     0.062 H 
ATOM     40  H   LIG d   1       5.925  -1.869  -2.875  0.00  0.00     0.064 H 
ATOM     41  C   LIG d   1       9.726   1.279  -5.818  0.00  0.00    -0.061 A 
ATOM     42  H   LIG d   1       9.593  -0.836  -5.732  0.00  0.00     0.062 H 
ATOM     43  C   LIG d   1       9.201   2.501  -5.401  0.00  0.00    -0.060 A 
ATOM     44  H   LIG d   1      10.578   1.264  -6.481  0.00  0.00     0.062 H 
ATOM     45  H   LIG d   1       9.654   3.419  -5.744  0.00  0.00     0.062 H 
ATOM     46  H   LIG d   1       7.733   3.511  -4.251  0.00  0.00     0.064 H 
ENDBRANCH  29  31
BRANCH  29  47
ATOM     47  O   LIG d   1       4.329  -0.956  -1.569  0.00  0.00    -0.385 OA
ATOM     48  H   LIG d   1       3.605  -0.976  -0.927  0.00  0.00     0.210 HD
ENDBRANCH  29  47
ENDBRANCH  26  29
ENDBRANCH   1  26
TORSDOF 8
ENDMDL
MODEL 7
REMARK VINA RESULT:      -7.3      7.372     10.182
REMARK  8 active torsions:
REMARK  status: ('A' for Active; 'I' for Inactive)
REMARK    1  A    between atoms: C_9  and  C_11 
REMARK    2  A    between atoms: C_11  and  C_13 
REMARK    3  A    between atoms: C_11  and  O_30 
REMARK    4  A    between atoms: C_13  and  C_14 
REMARK    5  A    between atoms: C_14  and  C_16 
REMARK    6  A    between atoms: C_16  and  C_17 
REMARK    7  A    between atoms: C_17  and  C_19 
REMARK    8  A    between atoms: C_17  and  O_29 
ROOT
ATOM      1  C   LIG d   1       4.227  -5.002  -8.718  0.00  0.00     0.139 C 
ATOM      2  O   LIG d   1       3.598  -5.974  -8.374  0.00  0.00    -0.297 OA
ENDROOT
BRANCH   1   3
ATOM      3  C   LIG d   1       5.016  -4.215  -7.704  0.00  0.00     0.037 C 
ATOM      4  H   LIG d   1       5.927  -4.614  -7.607  0.00  0.00     0.037 H 
ATOM      5  H   LIG d   1       5.105  -3.181  -8.037  0.00  0.00     0.037 H 
BRANCH   3   6
ATOM      6  C   LIG d   1       4.295  -4.256  -6.354  0.00  0.00     0.104 C 
ATOM      7  H   LIG d   1       3.225  -4.383  -6.518  0.00  0.00     0.066 H 
BRANCH   6   8
ATOM      8  C   LIG d   1       4.541  -2.966  -5.615  0.00  0.00     0.071 A 
ATOM      9  C   LIG d   1       5.027  -1.866  -6.316  0.00  0.00    -0.037 A 
ATOM     10  C   LIG d   1       5.250  -0.685  -5.664  0.00  0.00    -0.051 A 
ATOM     11  H   LIG d   1       5.224  -1.943  -7.375  0.00  0.00     0.064 H 
ATOM     12  C   LIG d   1       4.986  -0.631  -4.282  0.00  0.00     0.000 A 
ATOM     13  H   LIG d   1       5.624   0.178  -6.192  0.00  0.00     0.062 H 
ATOM     14  C   LIG d   1       4.497  -1.790  -3.630  0.00  0.00     0.071 A 
ATOM     15  C   LIG d   1       5.197   0.544  -3.543  0.00  0.00    -0.053 A 
ATOM     16  C   LIG d   1       4.233  -1.737  -2.249  0.00  0.00    -0.036 A 
ATOM     17  N   LIG d   1       4.295  -2.912  -4.328  0.00  0.00    -0.249 NA
ATOM     18  C   LIG d   1       4.449  -0.581  -1.565  0.00  0.00    -0.060 A 
ATOM     19  H   LIG d   1       3.860  -2.610  -1.736  0.00  0.00     0.064 H 
ATOM     20  C   LIG d   1       4.930   0.557  -2.209  0.00  0.00    -0.061 A 
ATOM     21  H   LIG d   1       4.244  -0.546  -0.505  0.00  0.00     0.062 H 
ATOM     22  H   LIG d   1       5.092   1.462  -1.642  0.00  0.00     0.062 H 
ATOM     23  H   LIG d   1       5.569   1.433  -4.031  0.00  0.00     0.062 H 
ENDBRANCH   6   8
BRANCH   6  24
ATOM     24  O   LIG d   1       4.792  -5.351  -5.583  0.00  0.00    -0.385 OA
ATOM     25  H   LIG d   1       5.699  -5.233  -5.270  0.00  0.00     0.210 HD
ENDBRANCH   6  24
ENDBRANCH   3   6
ENDBRANCH   1   3
BRANCH   1  26
ATOM     26  C   LIG d   1       4.229  -4.581 -10.165  0.00  0.00     0.037 C 
ATOM     27  H   LIG d   1       5.005  -3.973 -10.334  0.00  0.00     0.037 H 
ATOM     28  H   LIG d   1       4.312  -5.462 -10.801  0.00  0.00     0.037 H 
BRANCH  26  29
ATOM     29  C   LIG d   1       2.926  -3.844 -10.483  0.00  0.00     0.104 C 
ATOM     30  H   LIG d   1       2.562  -4.156 -11.462  0.00  0.00     0.066 H 
BRANCH  29  31
ATOM     31  C   LIG d   1       3.177  -2.358 -10.492  0.00  0.00     0.071 A 
ATOM     32  N   LIG d   1       2.866  -1.652  -9.431  0.00  0.00    -0.249 NA
ATOM     33  C   LIG d   1       3.070  -0.332  -9.390  0.00  0.00     0.071 A 
ATOM     34  C   LIG d   1       3.633   0.329 -10.510  0.00  0.00     0.000 A 
ATOM     35  C   LIG d   1       2.734   0.419  -8.251  0.00  0.00    -0.036 A 
ATOM     36  C   LIG d   1       3.969  -0.425 -11.650  0.00  0.00    -0.051 A 
ATOM     37  C   LIG d   1       3.847   1.716 -10.462  0.00  0.00    -0.053 A 
ATOM     38  C   LIG d   1       3.739  -1.771 -11.623  0.00  0.00    -0.037 A 
ATOM     39  H   LIG d   1       4.401   0.047 -12.520  0.00  0.00     0.062 H 
ATOM     40  H   LIG d   1       3.990  -2.379 -12.479  0.00  0.00     0.064 H 
ATOM     41  C   LIG d   1       3.509   2.410  -9.341  0.00  0.00    -0.061 A 
ATOM     42  H   LIG d   1       4.275   2.229 -11.309  0.00  0.00     0.062 H 
ATOM     43  C   LIG d   1       2.954   1.763  -8.238  0.00  0.00    -0.060 A 
ATOM     44  H   LIG d   1       3.672   3.477  -9.304  0.00  0.00     0.062 H 
ATOM     45  H   LIG d   1       2.695   2.335  -7.360  0.00  0.00     0.062 H 
ATOM     46  H   LIG d   1       2.303  -0.068  -7.388  0.00  0.00     0.064 H 
ENDBRANCH  29  31
BRANCH  29  47
ATOM     47  O   LIG d   1       1.947  -4.156  -9.490  0.00  0.00    -0.385 OA
ATOM     48  H   LIG d   1       2.001  -5.062  -9.157  0.00  0.00     0.210 HD
ENDBRANCH  29  47
ENDBRANCH  26  29
ENDBRANCH   1  26
TORSDOF 8
ENDMDL
MODEL 8
REMARK VINA RESULT:      -7.0      7.216     10.150
REMARK  8 active torsions:
REMARK  status: ('A' for Active; 'I' for Inactive)
REMARK    1  A    between atoms: C_9  and  C_11 
REMARK    2  A    between atoms: C_11  and  C_13 
REMARK    3  A    between atoms: C_11  and  O_30 
REMARK    4  A    between atoms: C_13  and  C_14 
REMARK    5  A    between atoms: C_14  and  C_16 
REMARK    6  A    between atoms: C_16  and  C_17 
REMARK    7  A    between atoms: C_17  and  C_19 
REMARK    8  A    between atoms: C_17  and  O_29 
ROOT
ATOM      1  C   LIG d   1       5.461  -4.172  -8.348  0.00  0.00     0.139 C 
ATOM      2  O   LIG d   1       4.853  -5.123  -7.919  0.00  0.00    -0.297 OA
ENDROOT
BRANCH   1   3
ATOM      3  C   LIG d   1       5.600  -3.975  -9.836  0.00  0.00     0.037 C 
ATOM      4  H   LIG d   1       6.218  -3.211 -10.015  0.00  0.00     0.037 H 
ATOM      5  H   LIG d   1       6.002  -4.882 -10.286  0.00  0.00     0.037 H 
BRANCH   3   6
ATOM      6  C   LIG d   1       4.227  -3.672 -10.440  0.00  0.00     0.104 C 
ATOM      7  H   LIG d   1       4.290  -3.715 -11.527  0.00  0.00     0.066 H 
BRANCH   6   8
ATOM      8  C   LIG d   1       3.785  -2.294 -10.017  0.00  0.00     0.071 A 
ATOM      9  C   LIG d   1       2.470  -2.101  -9.605  0.00  0.00    -0.037 A 
ATOM     10  C   LIG d   1       2.053  -0.861  -9.210  0.00  0.00    -0.051 A 
ATOM     11  H   LIG d   1       1.779  -2.932  -9.592  0.00  0.00     0.064 H 
ATOM     12  C   LIG d   1       2.984   0.195  -9.248  0.00  0.00     0.000 A 
ATOM     13  H   LIG d   1       1.038  -0.693  -8.885  0.00  0.00     0.062 H 
ATOM     14  C   LIG d   1       4.306  -0.070  -9.683  0.00  0.00     0.071 A 
ATOM     15  C   LIG d   1       2.628   1.498  -8.866  0.00  0.00    -0.053 A 
ATOM     16  C   LIG d   1       5.237   0.983  -9.722  0.00  0.00    -0.036 A 
ATOM     17  N   LIG d   1       4.650  -1.309 -10.050  0.00  0.00    -0.249 NA
ATOM     18  C   LIG d   1       4.858   2.233  -9.344  0.00  0.00    -0.060 A 
ATOM     19  H   LIG d   1       6.249   0.799 -10.051  0.00  0.00     0.064 H 
ATOM     20  C   LIG d   1       3.556   2.492  -8.916  0.00  0.00    -0.061 A 
ATOM     21  H   LIG d   1       5.576   3.038  -9.375  0.00  0.00     0.062 H 
ATOM     22  H   LIG d   1       3.282   3.493  -8.621  0.00  0.00     0.062 H 
ATOM     23  H   LIG d   1       1.622   1.711  -8.532  0.00  0.00     0.062 H 
ENDBRANCH   6   8
BRANCH   6  24
ATOM     24  O   LIG d   1       3.281  -4.638  -9.979  0.00  0.00    -0.385 OA
ATOM     25  H   LIG d   1       3.450  -4.958  -9.082  0.00  0.00     0.210 HD
ENDBRANCH   6  24
ENDBRANCH   3   6
ENDBRANCH   1   3
BRANCH   1  26
ATOM     26  C   LIG d   1       6.075  -3.178  -7.397  0.00  0.00     0.037 C 
ATOM     27  H   LIG d   1       7.072  -3.247  -7.440  0.00  0.00     0.037 H 
ATOM     28  H   LIG d   1       5.769  -2.170  -7.676  0.00  0.00     0.037 H 
BRANCH  26  29
ATOM     29  C   LIG d   1       5.603  -3.477  -5.972  0.00  0.00     0.104 C 
ATOM     30  H   LIG d   1       4.852  -4.266  -5.996  0.00  0.00     0.066 H 
BRANCH  29  31
ATOM     31  C   LIG d   1       5.005  -2.233  -5.369  0.00  0.00     0.071 A 
ATOM     32  N   LIG d   1       5.217  -1.972  -4.101  0.00  0.00    -0.249 NA
ATOM     33  C   LIG d   1       4.707  -0.881  -3.521  0.00  0.00     0.071 A 
ATOM     34  C   LIG d   1       3.920   0.018  -4.281  0.00  0.00     0.000 A 
ATOM     35  C   LIG d   1       4.939  -0.607  -2.162  0.00  0.00    -0.036 A 
ATOM     36  C   LIG d   1       3.689  -0.258  -5.642  0.00  0.00    -0.051 A 
ATOM     37  C   LIG d   1       3.387   1.163  -3.667  0.00  0.00    -0.053 A 
ATOM     38  C   LIG d   1       4.244  -1.387  -6.173  0.00  0.00    -0.037 A 
ATOM     39  H   LIG d   1       3.094   0.407  -6.250  0.00  0.00     0.062 H 
ATOM     40  H   LIG d   1       4.091  -1.626  -7.215  0.00  0.00     0.064 H 
ATOM     41  C   LIG d   1       3.633   1.396  -2.348  0.00  0.00    -0.061 A 
ATOM     42  H   LIG d   1       2.785   1.855  -4.237  0.00  0.00     0.062 H 
ATOM     43  C   LIG d   1       4.406   0.511  -1.598  0.00  0.00    -0.060 A 
ATOM     44  H   LIG d   1       3.222   2.276  -1.876  0.00  0.00     0.062 H 
ATOM     45  H   LIG d   1       4.589   0.718  -0.554  0.00  0.00     0.062 H 
ATOM     46  H   LIG d   1       5.536  -1.282  -1.567  0.00  0.00     0.064 H 
ENDBRANCH  29  31
BRANCH  29  47
ATOM     47  O   LIG d   1       6.716  -3.902  -5.182  0.00  0.00    -0.385 OA
ATOM     48  H   LIG d   1       6.626  -3.706  -4.239  0.00  0.00     0.210 HD
ENDBRANCH  29  47
ENDBRANCH  26  29
ENDBRANCH   1  26
TORSDOF 8
ENDMDL
MODEL 9
REMARK VINA RESULT:      -6.9      7.383     10.516
REMARK  8 active torsions:
REMARK  status: ('A' for Active; 'I' for Inactive)
REMARK    1  A    between atoms: C_9  and  C_11 
REMARK    2  A    between atoms: C_11  and  C_13 
REMARK    3  A    between atoms: C_11  and  O_30 
REMARK    4  A    between atoms: C_13  and  C_14 
REMARK    5  A    between atoms: C_14  and  C_16 
REMARK    6  A    between atoms: C_16  and  C_17 
REMARK    7  A    between atoms: C_17  and  C_19 
REMARK    8  A    between atoms: C_17  and  O_29 
ROOT
ATOM      1  C   LIG d   1       5.207  -4.791  -8.105  0.00  0.00     0.139 C 
ATOM      2  O   LIG d   1       6.029  -4.839  -8.988  0.00  0.00    -0.297 OA
ENDROOT
BRANCH   1   3
ATOM      3  C   LIG d   1       3.740  -4.717  -8.443  0.00  0.00     0.037 C 
ATOM      4  H   LIG d   1       3.337  -5.628  -8.383  0.00  0.00     0.037 H 
ATOM      5  H   LIG d   1       3.239  -4.050  -7.741  0.00  0.00     0.037 H 
BRANCH   3   6
ATOM      6  C   LIG d   1       3.572  -4.178  -9.866  0.00  0.00     0.104 C 
ATOM      7  H   LIG d   1       4.449  -4.439 -10.459  0.00  0.00     0.066 H 
BRANCH   6   8
ATOM      8  C   LIG d   1       3.424  -2.679  -9.821  0.00  0.00     0.071 A 
ATOM      9  C   LIG d   1       3.454  -1.959 -11.012  0.00  0.00    -0.037 A 
ATOM     10  C   LIG d   1       3.314  -0.599 -10.991  0.00  0.00    -0.051 A 
ATOM     11  H   LIG d   1       3.583  -2.474 -11.953  0.00  0.00     0.064 H 
ATOM     12  C   LIG d   1       3.154   0.032  -9.743  0.00  0.00     0.000 A 
ATOM     13  H   LIG d   1       3.332  -0.025 -11.905  0.00  0.00     0.062 H 
ATOM     14  C   LIG d   1       3.137  -0.760  -8.569  0.00  0.00     0.071 A 
ATOM     15  C   LIG d   1       3.012   1.425  -9.641  0.00  0.00    -0.053 A 
ATOM     16  C   LIG d   1       2.978  -0.131  -7.322  0.00  0.00    -0.036 A 
ATOM     17  N   LIG d   1       3.274  -2.087  -8.660  0.00  0.00    -0.249 NA
ATOM     18  C   LIG d   1       2.842   1.221  -7.260  0.00  0.00    -0.060 A 
ATOM     19  H   LIG d   1       2.963  -0.720  -6.416  0.00  0.00     0.064 H 
ATOM     20  C   LIG d   1       2.859   1.999  -8.417  0.00  0.00    -0.061 A 
ATOM     21  H   LIG d   1       2.720   1.699  -6.300  0.00  0.00     0.062 H 
ATOM     22  H   LIG d   1       2.748   3.070  -8.340  0.00  0.00     0.062 H 
ATOM     23  H   LIG d   1       3.022   2.039 -10.531  0.00  0.00     0.062 H 
ENDBRANCH   6   8
BRANCH   6  24
ATOM     24  O   LIG d   1       2.407  -4.754 -10.458  0.00  0.00    -0.385 OA
ATOM     25  H   LIG d   1       2.346  -4.627 -11.414  0.00  0.00     0.210 HD
ENDBRANCH   6  24
ENDBRANCH   3   6
ENDBRANCH   1   3
BRANCH   1  26
ATOM     26  C   LIG d   1       5.647  -4.812  -6.664  0.00  0.00     0.037 C 
ATOM     27  H   LIG d   1       6.001  -5.720  -6.437  0.00  0.00     0.037 H 
ATOM     28  H   LIG d   1       6.429  -4.069  -6.510  0.00  0.00     0.037 H 
BRANCH  26  29
ATOM     29  C   LIG d   1       4.453  -4.490  -5.761  0.00  0.00     0.104 C 
ATOM     30  H   LIG d   1       3.584  -4.261  -6.377  0.00  0.00     0.066 H 
BRANCH  29  31
ATOM     31  C   LIG d   1       4.783  -3.301  -4.897  0.00  0.00     0.071 A 
ATOM     32  N   LIG d   1       3.811  -2.523  -4.484  0.00  0.00    -0.249 NA
ATOM     33  C   LIG d   1       4.054  -1.456  -3.715  0.00  0.00     0.071 A 
ATOM     34  C   LIG d   1       5.384  -1.151  -3.333  0.00  0.00     0.000 A 
ATOM     35  C   LIG d   1       3.009  -0.626  -3.276  0.00  0.00    -0.036 A 
ATOM     36  C   LIG d   1       6.430  -1.983  -3.775  0.00  0.00    -0.051 A 
ATOM     37  C   LIG d   1       5.633  -0.030  -2.525  0.00  0.00    -0.053 A 
ATOM     38  C   LIG d   1       6.112  -3.060  -4.553  0.00  0.00    -0.037 A 
ATOM     39  H   LIG d   1       7.454  -1.780  -3.501  0.00  0.00     0.062 H 
ATOM     40  H   LIG d   1       6.889  -3.721  -4.904  0.00  0.00     0.064 H 
ATOM     41  C   LIG d   1       4.595   0.751  -2.118  0.00  0.00    -0.061 A 
ATOM     42  H   LIG d   1       6.643   0.212  -2.229  0.00  0.00     0.062 H 
ATOM     43  C   LIG d   1       3.286   0.453  -2.494  0.00  0.00    -0.060 A 
ATOM     44  H   LIG d   1       4.787   1.614  -1.498  0.00  0.00     0.062 H 
ATOM     45  H   LIG d   1       2.479   1.086  -2.158  0.00  0.00     0.062 H 
ATOM     46  H   LIG d   1       1.989  -0.844  -3.557  0.00  0.00     0.064 H 
ENDBRANCH  29  31
BRANCH  29  47
ATOM     47  O   LIG d   1       4.166  -5.618  -4.932  0.00  0.00    -0.385 OA
ATOM     48  H   LIG d   1       3.426  -5.480  -4.324  0.00  0.00     0.210 HD
ENDBRANCH  29  47
ENDBRANCH  26  29
ENDBRANCH   1  26
TORSDOF 8
ENDMDL
MODEL 10
REMARK VINA RESULT:      -6.7      1.855      8.623
REMARK  8 active torsions:
REMARK  status: ('A' for Active; 'I' for Inactive)
REMARK    1  A    between atoms: C_9  and  C_11 
REMARK    2  A    between atoms: C_11  and  C_13 
REMARK    3  A    between atoms: C_11  and  O_30 
REMARK    4  A    between atoms: C_13  and  C_14 
REMARK    5  A    between atoms: C_14  and  C_16 
REMARK    6  A    between atoms: C_16  and  C_17 
REMARK    7  A    between atoms: C_17  and  C_19 
REMARK    8  A    between atoms: C_17  and  O_29 
ROOT
ATOM      1  C   LIG d   1      10.488   2.361  -5.463  0.00  0.00     0.139 C 
ATOM      2  O   LIG d   1      11.064   2.061  -6.481  0.00  0.00    -0.297 OA
ENDROOT
BRANCH   1   3
ATOM      3  C   LIG d   1       9.010   2.101  -5.328  0.00  0.00     0.037 C 
ATOM      4  H   LIG d   1       8.675   2.511  -4.481  0.00  0.00     0.037 H 
ATOM      5  H   LIG d   1       8.485   2.538  -6.177  0.00  0.00     0.037 H 
BRANCH   3   6
ATOM      6  C   LIG d   1       8.760   0.591  -5.296  0.00  0.00     0.104 C 
ATOM      7  H   LIG d   1       8.607   0.227  -6.312  0.00  0.00     0.066 H 
BRANCH   6   8
ATOM      8  C   LIG d   1       7.534   0.302  -4.469  0.00  0.00     0.071 A 
ATOM      9  C   LIG d   1       7.011   1.308  -3.660  0.00  0.00    -0.037 A 
ATOM     10  C   LIG d   1       5.896   1.067  -2.907  0.00  0.00    -0.051 A 
ATOM     11  H   LIG d   1       7.484   2.279  -3.630  0.00  0.00     0.064 H 
ATOM     12  C   LIG d   1       5.316  -0.214  -2.972  0.00  0.00     0.000 A 
ATOM     13  H   LIG d   1       5.475   1.836  -2.277  0.00  0.00     0.062 H 
ATOM     14  C   LIG d   1       5.903  -1.192  -3.812  0.00  0.00     0.071 A 
ATOM     15  C   LIG d   1       4.174  -0.538  -2.222  0.00  0.00    -0.053 A 
ATOM     16  C   LIG d   1       5.325  -2.473  -3.877  0.00  0.00    -0.036 A 
ATOM     17  N   LIG d   1       6.991  -0.890  -4.527  0.00  0.00    -0.249 NA
ATOM     18  C   LIG d   1       4.218  -2.752  -3.138  0.00  0.00    -0.060 A 
ATOM     19  H   LIG d   1       5.758  -3.231  -4.512  0.00  0.00     0.064 H 
ATOM     20  C   LIG d   1       3.642  -1.787  -2.312  0.00  0.00    -0.061 A 
ATOM     21  H   LIG d   1       3.778  -3.736  -3.191  0.00  0.00     0.062 H 
ATOM     22  H   LIG d   1       2.763  -2.035  -1.736  0.00  0.00     0.062 H 
ATOM     23  H   LIG d   1       3.718   0.201  -1.579  0.00  0.00     0.062 H 
ENDBRANCH   6   8
BRANCH   6  24
ATOM     24  O   LIG d   1       9.890  -0.066  -4.719  0.00  0.00    -0.385 OA
ATOM     25  H   LIG d   1       9.679  -0.610  -3.949  0.00  0.00     0.210 HD
ENDBRANCH   6  24
ENDBRANCH   3   6
ENDBRANCH   1   3
BRANCH   1  26
ATOM     26  C   LIG d   1      11.249   2.991  -4.325  0.00  0.00     0.037 C 
ATOM     27  H   LIG d   1      11.890   2.325  -3.944  0.00  0.00     0.037 H 
ATOM     28  H   LIG d   1      11.800   3.857  -4.690  0.00  0.00     0.037 H 
BRANCH  26  29
ATOM     29  C   LIG d   1      10.266   3.433  -3.238  0.00  0.00     0.104 C 
ATOM     30  H   LIG d   1       9.272   3.053  -3.471  0.00  0.00     0.066 H 
BRANCH  29  31
ATOM     31  C   LIG d   1      10.227   4.938  -3.178  0.00  0.00     0.071 A 
ATOM     32  N   LIG d   1       9.951   5.613  -4.269  0.00  0.00    -0.249 NA
ATOM     33  C   LIG d   1       9.905   6.949  -4.266  0.00  0.00     0.071 A 
ATOM     34  C   LIG d   1      10.156   7.660  -3.067  0.00  0.00     0.000 A 
ATOM     35  C   LIG d   1       9.609   7.667  -5.438  0.00  0.00    -0.036 A 
ATOM     36  C   LIG d   1      10.452   6.940  -1.895  0.00  0.00    -0.051 A 
ATOM     37  C   LIG d   1      10.105   9.064  -3.069  0.00  0.00    -0.053 A 
ATOM     38  C   LIG d   1      10.478   5.576  -1.966  0.00  0.00    -0.037 A 
ATOM     39  H   LIG d   1      10.647   7.451  -0.963  0.00  0.00     0.062 H 
ATOM     40  H   LIG d   1      10.697   4.993  -1.084  0.00  0.00     0.064 H 
ATOM     41  C   LIG d   1       9.815   9.725  -4.223  0.00  0.00    -0.061 A 
ATOM     42  H   LIG d   1      10.295   9.616  -2.161  0.00  0.00     0.062 H 
ATOM     43  C   LIG d   1       9.568   9.027  -5.404  0.00  0.00    -0.060 A 
ATOM     44  H   LIG d   1       9.776  10.804  -4.225  0.00  0.00     0.062 H 
ATOM     45  H   LIG d   1       9.339   9.573  -6.307  0.00  0.00     0.062 H 
ATOM     46  H   LIG d   1       9.415   7.141  -6.361  0.00  0.00     0.064 H 
ENDBRANCH  29  31
BRANCH  29  47
ATOM     47  O   LIG d   1      10.690   2.917  -1.974  0.00  0.00    -0.385 OA
ATOM     48  H   LIG d   1      10.544   3.522  -1.234  0.00  0.00     0.210 HD
ENDBRANCH  29  47
ENDBRANCH  26  29
ENDBRANCH   1  26
TORSDOF 8
ENDMDL
