MODEL 1
REMARK VINA RESULT:      -6.8      0.000      0.000
REMARK  11 active torsions:
REMARK  status: ('A' for Active; 'I' for Inactive)
REMARK    1  A    between atoms: C_1  and  C_2 
REMARK    2  A    between atoms: C_6  and  O_28 
REMARK    3  A    between atoms: C_12  and  C_13 
REMARK    4  A    between atoms: C_13  and  C_14 
REMARK       I    between atoms: C_14  and  N_16 
REMARK    5  A    between atoms: N_16  and  C_17 
REMARK    6  A    between atoms: C_17  and  C_18 
REMARK    7  A    between atoms: C_22  and  C_26 
REMARK    8  A    between atoms: O_28  and  C_29 
REMARK    9  A    between atoms: C_29  and  C_30 
REMARK   10  A    between atoms: C_31  and  C_32 
REMARK   11  A    between atoms: C_31  and  C_33 
ROOT
ATOM      1  C   LIG d   1       4.949  -3.762  -8.916  0.00  0.00    -0.029 A 
ATOM      2  C   LIG d   1       5.037  -3.456  -7.486  0.00  0.00     0.022 A 
ATOM      3  C   LIG d   1       5.765  -2.352  -7.029  0.00  0.00    -0.029 A 
ATOM      4  C   LIG d   1       5.831  -2.091  -5.690  0.00  0.00     0.083 A 
ATOM      5  C   LIG d   1       5.178  -2.917  -4.777  0.00  0.00     0.143 A 
ATOM      6  C   LIG d   1       4.453  -4.014  -5.212  0.00  0.00     0.025 A 
ATOM      7  C   LIG d   1       4.375  -4.294  -6.569  0.00  0.00     0.143 A 
ATOM      8  O   LIG d   1       3.673  -5.357  -7.014  0.00  0.00    -0.422 OA
ATOM      9  C   LIG d   1       3.585  -5.640  -8.324  0.00  0.00     0.341 A 
ATOM     10  O   LIG d   1       2.935  -6.607  -8.680  0.00  0.00    -0.245 OA
ATOM     11  C   LIG d   1       4.227  -4.847  -9.297  0.00  0.00     0.049 A 
ATOM     12 CL   LIG d   1       6.734  -0.721  -5.123  0.00  0.00    -0.080 Cl
ATOM     13  H   LIG d   1       6.273  -1.710  -7.732  0.00  0.00     0.064 H 
ATOM     14  H   LIG d   1       3.949  -4.648  -4.498  0.00  0.00     0.069 H 
ENDROOT
BRANCH  11  15
ATOM     15  C   LIG d   1       4.108  -5.201 -10.757  0.00  0.00     0.056 C 
ATOM     16  H   LIG d   1       3.616  -6.169 -10.857  0.00  0.00     0.041 H 
ATOM     17  H   LIG d   1       5.101  -5.251 -11.202  0.00  0.00     0.041 H 
BRANCH  15  18
ATOM     18  C   LIG d   1       3.293  -4.149 -11.465  0.00  0.00     0.218 C 
ATOM     19  O   LIG d   1       3.541  -3.865 -12.618  0.00  0.00    -0.276 OA
ATOM     20  N   LIG d   1       2.291  -3.523 -10.818  0.00  0.00    -0.315 N 
ATOM     21  H   LIG d   1       2.093  -3.750  -9.896  0.00  0.00     0.149 HD
BRANCH  20  22
ATOM     22  C   LIG d   1       1.499  -2.501 -11.507  0.00  0.00     0.014 C 
ATOM     23  H   LIG d   1       0.439  -2.685 -11.333  0.00  0.00     0.046 H 
ATOM     24  H   LIG d   1       1.704  -2.543 -12.577  0.00  0.00     0.046 H 
BRANCH  22  25
ATOM     25  C   LIG d   1       1.872  -1.119 -10.970  0.00  0.00    -0.025 C 
ATOM     26  H   LIG d   1       1.062  -0.419 -11.171  0.00  0.00     0.032 H 
ATOM     27  C   LIG d   1       3.150  -0.632 -11.659  0.00  0.00    -0.048 C 
ATOM     28  C   LIG d   1       3.523   0.752 -11.122  0.00  0.00    -0.045 C 
ATOM     29  H   LIG d   1       3.961  -1.331 -11.456  0.00  0.00     0.027 H 
ATOM     30  H   LIG d   1       2.981  -0.571 -12.733  0.00  0.00     0.027 H 
ATOM     31  C   LIG d   1       3.759   0.666  -9.612  0.00  0.00    -0.001 C 
ATOM     32  H   LIG d   1       2.712   1.450 -11.323  0.00  0.00     0.027 H 
ATOM     33  H   LIG d   1       4.432   1.099 -11.612  0.00  0.00     0.027 H 
ATOM     34  C   LIG d   1       2.483   0.179  -8.924  0.00  0.00    -0.045 C 
ATOM     35  H   LIG d   1       4.570  -0.033  -9.410  0.00  0.00     0.036 H 
ATOM     36  C   LIG d   1       2.109  -1.204  -9.460  0.00  0.00    -0.048 C 
ATOM     37  H   LIG d   1       2.651   0.118  -7.848  0.00  0.00     0.027 H 
ATOM     38  H   LIG d   1       1.671   0.879  -9.125  0.00  0.00     0.027 H 
ATOM     39  H   LIG d   1       2.921  -1.903  -9.258  0.00  0.00     0.027 H 
ATOM     40  H   LIG d   1       1.200  -1.551  -8.969  0.00  0.00     0.027 H 
BRANCH  31  41
ATOM     41  C   LIG d   1       4.128   2.028  -9.083  0.00  0.00     0.045 C 
ATOM     42  O   LIG d   1       5.183   2.531  -9.392  0.00  0.00    -0.549 OA
ATOM     43  O   LIG d   1       3.285   2.682  -8.269  0.00  0.00    -0.549 OA
ENDBRANCH  31  41
ENDBRANCH  22  25
ENDBRANCH  20  22
ENDBRANCH  15  18
ENDBRANCH  11  15
BRANCH   1  44
ATOM     44  C   LIG d   1       5.640  -2.895  -9.936  0.00  0.00    -0.038 C 
ATOM     45  H   LIG d   1       5.193  -1.900  -9.930  0.00  0.00     0.028 H 
ATOM     46  H   LIG d   1       6.699  -2.819  -9.692  0.00  0.00     0.028 H 
ATOM     47  H   LIG d   1       5.526  -3.338 -10.926  0.00  0.00     0.028 H 
ENDBRANCH   1  44
BRANCH   5  48
ATOM     48  O   LIG d   1       5.252  -2.643  -3.448  0.00  0.00    -0.486 OA
BRANCH  48  49
ATOM     49  C   LIG d   1       4.027  -2.339  -2.780  0.00  0.00     0.108 C 
ATOM     50  H   LIG d   1       3.205  -2.363  -3.497  0.00  0.00     0.074 H 
ATOM     51  H   LIG d   1       3.846  -3.076  -1.997  0.00  0.00     0.074 H 
BRANCH  49  52
ATOM     52  C   LIG d   1       4.117  -0.966  -2.165  0.00  0.00    -0.048 C 
ATOM     53  C   LIG d   1       3.542   0.054  -2.753  0.00  0.00    -0.076 C 
ATOM     54  H   LIG d   1       4.655  -0.823  -1.240  0.00  0.00     0.060 H 
BRANCH  53  55
ATOM     55  C   LIG d   1       2.690  -0.163  -3.977  0.00  0.00    -0.044 C 
ATOM     56  H   LIG d   1       1.655   0.093  -3.748  0.00  0.00     0.027 H 
ATOM     57  H   LIG d   1       3.050   0.470  -4.787  0.00  0.00     0.027 H 
ATOM     58  H   LIG d   1       2.747  -1.209  -4.279  0.00  0.00     0.027 H 
ENDBRANCH  53  55
BRANCH  53  59
ATOM     59  C   LIG d   1       3.735   1.445  -2.207  0.00  0.00    -0.044 C 
ATOM     60  H   LIG d   1       4.743   1.541  -1.803  0.00  0.00     0.027 H 
ATOM     61  H   LIG d   1       3.592   2.172  -3.006  0.00  0.00     0.027 H 
ATOM     62  H   LIG d   1       3.008   1.628  -1.415  0.00  0.00     0.027 H 
ENDBRANCH  53  59
ENDBRANCH  49  52
ENDBRANCH  48  49
ENDBRANCH   5  48
TORSDOF 11
ENDMDL
MODEL 2
REMARK VINA RESULT:      -6.3      5.920      9.501
REMARK  11 active torsions:
REMARK  status: ('A' for Active; 'I' for Inactive)
REMARK    1  A    between atoms: C_1  and  C_2 
REMARK    2  A    between atoms: C_6  and  O_28 
REMARK    3  A    between atoms: C_12  and  C_13 
REMARK    4  A    between atoms: C_13  and  C_14 
REMARK       I    between atoms: C_14  and  N_16 
REMARK    5  A    between atoms: N_16  and  C_17 
REMARK    6  A    between atoms: C_17  and  C_18 
REMARK    7  A    between atoms: C_22  and  C_26 
REMARK    8  A    between atoms: O_28  and  C_29 
REMARK    9  A    between atoms: C_29  and  C_30 
REMARK   10  A    between atoms: C_31  and  C_32 
REMARK   11  A    between atoms: C_31  and  C_33 
ROOT
ATOM      1  C   LIG d   1       5.544  -5.810  -6.014  0.00  0.00    -0.029 A 
ATOM      2  C   LIG d   1       5.899  -4.438  -5.650  0.00  0.00     0.022 A 
ATOM      3  C   LIG d   1       5.045  -3.369  -5.945  0.00  0.00    -0.029 A 
ATOM      4  C   LIG d   1       5.402  -2.099  -5.595  0.00  0.00     0.083 A 
ATOM      5  C   LIG d   1       6.612  -1.859  -4.945  0.00  0.00     0.143 A 
ATOM      6  C   LIG d   1       7.470  -2.905  -4.646  0.00  0.00     0.025 A 
ATOM      7  C   LIG d   1       7.123  -4.202  -4.994  0.00  0.00     0.143 A 
ATOM      8  O   LIG d   1       7.943  -5.235  -4.711  0.00  0.00    -0.422 OA
ATOM      9  C   LIG d   1       7.620  -6.497  -5.038  0.00  0.00     0.341 A 
ATOM     10  O   LIG d   1       8.390  -7.399  -4.757  0.00  0.00    -0.245 OA
ATOM     11  C   LIG d   1       6.414  -6.804  -5.700  0.00  0.00     0.049 A 
ATOM     12 CL   LIG d   1       4.342  -0.773  -5.961  0.00  0.00    -0.080 Cl
ATOM     13  H   LIG d   1       4.107  -3.549  -6.448  0.00  0.00     0.064 H 
ATOM     14  H   LIG d   1       8.405  -2.711  -4.142  0.00  0.00     0.069 H 
ENDROOT
BRANCH  11  15
ATOM     15  C   LIG d   1       6.091  -8.233  -6.055  0.00  0.00     0.056 C 
ATOM     16  H   LIG d   1       7.013  -8.769  -6.279  0.00  0.00     0.041 H 
ATOM     17  H   LIG d   1       5.438  -8.253  -6.927  0.00  0.00     0.041 H 
BRANCH  15  18
ATOM     18  C   LIG d   1       5.396  -8.895  -4.893  0.00  0.00     0.218 C 
ATOM     19  O   LIG d   1       4.186  -8.858  -4.809  0.00  0.00    -0.276 OA
ATOM     20  N   LIG d   1       6.117  -9.527  -3.947  0.00  0.00    -0.315 N 
ATOM     21  H   LIG d   1       7.085  -9.557  -4.014  0.00  0.00     0.149 HD
BRANCH  20  22
ATOM     22  C   LIG d   1       5.442 -10.171  -2.818  0.00  0.00     0.014 C 
ATOM     23  H   LIG d   1       5.039 -11.133  -3.135  0.00  0.00     0.046 H 
ATOM     24  H   LIG d   1       4.627  -9.534  -2.470  0.00  0.00     0.046 H 
BRANCH  22  25
ATOM     25  C   LIG d   1       6.441 -10.386  -1.680  0.00  0.00    -0.025 C 
ATOM     26  H   LIG d   1       5.991 -10.078  -0.737  0.00  0.00     0.032 H 
ATOM     27  C   LIG d   1       7.698  -9.553  -1.942  0.00  0.00    -0.048 C 
ATOM     28  C   LIG d   1       8.698  -9.768  -0.803  0.00  0.00    -0.045 C 
ATOM     29  H   LIG d   1       8.149  -9.861  -2.884  0.00  0.00     0.027 H 
ATOM     30  H   LIG d   1       7.430  -8.498  -1.995  0.00  0.00     0.027 H 
ATOM     31  C   LIG d   1       9.075 -11.249  -0.729  0.00  0.00    -0.001 C 
ATOM     32  H   LIG d   1       8.247  -9.460   0.139  0.00  0.00     0.027 H 
ATOM     33  H   LIG d   1       9.593  -9.175  -0.989  0.00  0.00     0.027 H 
ATOM     34  C   LIG d   1       7.818 -12.082  -0.468  0.00  0.00    -0.045 C 
ATOM     35  H   LIG d   1       9.526 -11.558  -1.672  0.00  0.00     0.036 H 
ATOM     36  C   LIG d   1       6.818 -11.867  -1.605  0.00  0.00    -0.048 C 
ATOM     37  H   LIG d   1       8.087 -13.138  -0.415  0.00  0.00     0.027 H 
ATOM     38  H   LIG d   1       7.367 -11.774   0.476  0.00  0.00     0.027 H 
ATOM     39  H   LIG d   1       7.270 -12.176  -2.549  0.00  0.00     0.027 H 
ATOM     40  H   LIG d   1       5.923 -12.461  -1.420  0.00  0.00     0.027 H 
BRANCH  31  41
ATOM     41  C   LIG d   1      10.060 -11.461   0.391  0.00  0.00     0.045 C 
ATOM     42  O   LIG d   1      10.732 -10.537   0.788  0.00  0.00    -0.549 OA
ATOM     43  O   LIG d   1      10.193 -12.675   0.948  0.00  0.00    -0.549 OA
ENDBRANCH  31  41
ENDBRANCH  22  25
ENDBRANCH  20  22
ENDBRANCH  15  18
ENDBRANCH  11  15
BRANCH   1  44
ATOM     44  C   LIG d   1       4.245  -6.113  -6.716  0.00  0.00    -0.038 C 
ATOM     45  H   LIG d   1       4.323  -7.072  -7.227  0.00  0.00     0.028 H 
ATOM     46  H   LIG d   1       3.437  -6.154  -5.985  0.00  0.00     0.028 H 
ATOM     47  H   LIG d   1       4.035  -5.329  -7.445  0.00  0.00     0.028 H 
ENDBRANCH   1  44
BRANCH   5  48
ATOM     48  O   LIG d   1       6.953  -0.590  -4.603  0.00  0.00    -0.486 OA
BRANCH  48  49
ATOM     49  C   LIG d   1       6.892  -0.254  -3.215  0.00  0.00     0.108 C 
ATOM     50  H   LIG d   1       6.685  -1.153  -2.632  0.00  0.00     0.074 H 
ATOM     51  H   LIG d   1       7.845   0.170  -2.901  0.00  0.00     0.074 H 
BRANCH  49  52
ATOM     52  C   LIG d   1       5.794   0.753  -2.990  0.00  0.00    -0.048 C 
ATOM     53  C   LIG d   1       4.659   0.378  -2.455  0.00  0.00    -0.076 C 
ATOM     54  H   LIG d   1       5.944   1.786  -3.269  0.00  0.00     0.060 H 
BRANCH  53  55
ATOM     55  C   LIG d   1       4.493  -1.034  -1.953  0.00  0.00    -0.044 C 
ATOM     56  H   LIG d   1       3.587  -1.100  -1.351  0.00  0.00     0.027 H 
ATOM     57  H   LIG d   1       4.416  -1.714  -2.801  0.00  0.00     0.027 H 
ATOM     58  H   LIG d   1       5.355  -1.307  -1.344  0.00  0.00     0.027 H 
ENDBRANCH  53  55
BRANCH  53  59
ATOM     59  C   LIG d   1       3.519   1.356  -2.343  0.00  0.00    -0.044 C 
ATOM     60  H   LIG d   1       3.588   1.887  -1.393  0.00  0.00     0.027 H 
ATOM     61  H   LIG d   1       3.570   2.071  -3.164  0.00  0.00     0.027 H 
ATOM     62  H   LIG d   1       2.572   0.817  -2.390  0.00  0.00     0.027 H 
ENDBRANCH  53  59
ENDBRANCH  49  52
ENDBRANCH  48  49
ENDBRANCH   5  48
TORSDOF 11
ENDMDL
MODEL 3
REMARK VINA RESULT:      -6.3      9.066     12.507
REMARK  11 active torsions:
REMARK  status: ('A' for Active; 'I' for Inactive)
REMARK    1  A    between atoms: C_1  and  C_2 
REMARK    2  A    between atoms: C_6  and  O_28 
REMARK    3  A    between atoms: C_12  and  C_13 
REMARK    4  A    between atoms: C_13  and  C_14 
REMARK       I    between atoms: C_14  and  N_16 
REMARK    5  A    between atoms: N_16  and  C_17 
REMARK    6  A    between atoms: C_17  and  C_18 
REMARK    7  A    between atoms: C_22  and  C_26 
REMARK    8  A    between atoms: O_28  and  C_29 
REMARK    9  A    between atoms: C_29  and  C_30 
REMARK   10  A    between atoms: C_31  and  C_32 
REMARK   11  A    between atoms: C_31  and  C_33 
ROOT
ATOM      1  C   LIG d   1      10.118   4.542  -5.189  0.00  0.00    -0.029 A 
ATOM      2  C   LIG d   1       9.314   3.323  -5.085  0.00  0.00     0.022 A 
ATOM      3  C   LIG d   1       8.807   2.694  -6.228  0.00  0.00    -0.029 A 
ATOM      4  C   LIG d   1       8.059   1.558  -6.102  0.00  0.00     0.083 A 
ATOM      5  C   LIG d   1       7.798   1.021  -4.842  0.00  0.00     0.143 A 
ATOM      6  C   LIG d   1       8.292   1.631  -3.700  0.00  0.00     0.025 A 
ATOM      7  C   LIG d   1       9.053   2.785  -3.810  0.00  0.00     0.143 A 
ATOM      8  O   LIG d   1       9.545   3.394  -2.710  0.00  0.00    -0.422 OA
ATOM      9  C   LIG d   1      10.287   4.510  -2.800  0.00  0.00     0.341 A 
ATOM     10  O   LIG d   1      10.714   5.021  -1.780  0.00  0.00    -0.245 OA
ATOM     11  C   LIG d   1      10.582   5.105  -4.043  0.00  0.00     0.049 A 
ATOM     12 CL   LIG d   1       7.430   0.778  -7.519  0.00  0.00    -0.080 Cl
ATOM     13  H   LIG d   1       9.006   3.106  -7.205  0.00  0.00     0.064 H 
ATOM     14  H   LIG d   1       8.085   1.208  -2.728  0.00  0.00     0.069 H 
ENDROOT
BRANCH  11  15
ATOM     15  C   LIG d   1      11.414   6.360  -4.101  0.00  0.00     0.056 C 
ATOM     16  H   LIG d   1      11.732   6.538  -5.128  0.00  0.00     0.041 H 
ATOM     17  H   LIG d   1      12.290   6.245  -3.463  0.00  0.00     0.041 H 
BRANCH  15  18
ATOM     18  C   LIG d   1      10.594   7.530  -3.620  0.00  0.00     0.218 C 
ATOM     19  O   LIG d   1       9.864   8.116  -4.391  0.00  0.00    -0.276 OA
ATOM     20  N   LIG d   1      10.672   7.925  -2.335  0.00  0.00    -0.315 N 
ATOM     21  H   LIG d   1      11.255   7.456  -1.718  0.00  0.00     0.149 HD
BRANCH  20  22
ATOM     22  C   LIG d   1       9.875   9.062  -1.867  0.00  0.00     0.014 C 
ATOM     23  H   LIG d   1       8.814   8.828  -1.968  0.00  0.00     0.046 H 
ATOM     24  H   LIG d   1      10.110   9.942  -2.468  0.00  0.00     0.046 H 
BRANCH  22  25
ATOM     25  C   LIG d   1      10.199   9.344  -0.400  0.00  0.00    -0.025 C 
ATOM     26  H   LIG d   1       9.275   9.377   0.177  0.00  0.00     0.032 H 
ATOM     27  C   LIG d   1      10.920  10.690  -0.287  0.00  0.00    -0.048 C 
ATOM     28  C   LIG d   1      11.244  10.972   1.182  0.00  0.00    -0.045 C 
ATOM     29  H   LIG d   1      11.844  10.656  -0.863  0.00  0.00     0.027 H 
ATOM     30  H   LIG d   1      10.278  11.479  -0.676  0.00  0.00     0.027 H 
ATOM     31  C   LIG d   1      12.146   9.863   1.727  0.00  0.00    -0.001 C 
ATOM     32  H   LIG d   1      10.320  11.005   1.758  0.00  0.00     0.027 H 
ATOM     33  H   LIG d   1      11.758  11.930   1.263  0.00  0.00     0.027 H 
ATOM     34  C   LIG d   1      11.426   8.518   1.614  0.00  0.00    -0.045 C 
ATOM     35  H   LIG d   1      13.071   9.829   1.152  0.00  0.00     0.036 H 
ATOM     36  C   LIG d   1      11.101   8.235   0.147  0.00  0.00    -0.048 C 
ATOM     37  H   LIG d   1      12.068   7.728   2.003  0.00  0.00     0.027 H 
ATOM     38  H   LIG d   1      10.501   8.551   2.191  0.00  0.00     0.027 H 
ATOM     39  H   LIG d   1      12.026   8.202  -0.430  0.00  0.00     0.027 H 
ATOM     40  H   LIG d   1      10.588   7.277   0.066  0.00  0.00     0.027 H 
BRANCH  31  41
ATOM     41  C   LIG d   1      12.466  10.142   3.173  0.00  0.00     0.045 C 
ATOM     42  O   LIG d   1      12.506  11.282   3.574  0.00  0.00    -0.549 OA
ATOM     43  O   LIG d   1      12.708   9.125   4.016  0.00  0.00    -0.549 OA
ENDBRANCH  31  41
ENDBRANCH  22  25
ENDBRANCH  20  22
ENDBRANCH  15  18
ENDBRANCH  11  15
BRANCH   1  44
ATOM     44  C   LIG d   1      10.424   5.154  -6.531  0.00  0.00    -0.038 C 
ATOM     45  H   LIG d   1      11.426   4.861  -6.844  0.00  0.00     0.028 H 
ATOM     46  H   LIG d   1       9.697   4.806  -7.264  0.00  0.00     0.028 H 
ATOM     47  H   LIG d   1      10.370   6.241  -6.456  0.00  0.00     0.028 H 
ENDBRANCH   1  44
BRANCH   5  48
ATOM     48  O   LIG d   1       7.053  -0.109  -4.733  0.00  0.00    -0.486 OA
BRANCH  48  49
ATOM     49  C   LIG d   1       7.040  -0.757  -3.459  0.00  0.00     0.108 C 
ATOM     50  H   LIG d   1       7.920  -1.394  -3.366  0.00  0.00     0.074 H 
ATOM     51  H   LIG d   1       7.050  -0.006  -2.669  0.00  0.00     0.074 H 
BRANCH  49  52
ATOM     52  C   LIG d   1       5.796  -1.599  -3.336  0.00  0.00    -0.048 C 
ATOM     53  C   LIG d   1       4.791  -1.181  -2.608  0.00  0.00    -0.076 C 
ATOM     54  H   LIG d   1       5.734  -2.547  -3.850  0.00  0.00     0.060 H 
BRANCH  53  55
ATOM     55  C   LIG d   1       4.827   0.194  -1.991  0.00  0.00    -0.044 C 
ATOM     56  H   LIG d   1       5.370   0.872  -2.649  0.00  0.00     0.027 H 
ATOM     57  H   LIG d   1       3.809   0.557  -1.855  0.00  0.00     0.027 H 
ATOM     58  H   LIG d   1       5.329   0.145  -1.024  0.00  0.00     0.027 H 
ENDBRANCH  53  55
BRANCH  53  59
ATOM     59  C   LIG d   1       3.599  -2.076  -2.385  0.00  0.00    -0.044 C 
ATOM     60  H   LIG d   1       3.940  -3.072  -2.103  0.00  0.00     0.027 H 
ATOM     61  H   LIG d   1       2.980  -1.664  -1.588  0.00  0.00     0.027 H 
ATOM     62  H   LIG d   1       3.015  -2.137  -3.303  0.00  0.00     0.027 H 
ENDBRANCH  53  59
ENDBRANCH  49  52
ENDBRANCH  48  49
ENDBRANCH   5  48
TORSDOF 11
ENDMDL
MODEL 4
REMARK VINA RESULT:      -6.2      5.306      9.094
REMARK  11 active torsions:
REMARK  status: ('A' for Active; 'I' for Inactive)
REMARK    1  A    between atoms: C_1  and  C_2 
REMARK    2  A    between atoms: C_6  and  O_28 
REMARK    3  A    between atoms: C_12  and  C_13 
REMARK    4  A    between atoms: C_13  and  C_14 
REMARK       I    between atoms: C_14  and  N_16 
REMARK    5  A    between atoms: N_16  and  C_17 
REMARK    6  A    between atoms: C_17  and  C_18 
REMARK    7  A    between atoms: C_22  and  C_26 
REMARK    8  A    between atoms: O_28  and  C_29 
REMARK    9  A    between atoms: C_29  and  C_30 
REMARK   10  A    between atoms: C_31  and  C_32 
REMARK   11  A    between atoms: C_31  and  C_33 
ROOT
ATOM      1  C   LIG d   1       8.357  -5.690  -5.009  0.00  0.00    -0.029 A 
ATOM      2  C   LIG d   1       7.432  -4.566  -5.167  0.00  0.00     0.022 A 
ATOM      3  C   LIG d   1       6.373  -4.627  -6.079  0.00  0.00    -0.029 A 
ATOM      4  C   LIG d   1       5.525  -3.564  -6.207  0.00  0.00     0.083 A 
ATOM      5  C   LIG d   1       5.710  -2.417  -5.434  0.00  0.00     0.143 A 
ATOM      6  C   LIG d   1       6.754  -2.340  -4.527  0.00  0.00     0.025 A 
ATOM      7  C   LIG d   1       7.624  -3.411  -4.385  0.00  0.00     0.143 A 
ATOM      8  O   LIG d   1       8.647  -3.357  -3.506  0.00  0.00    -0.422 OA
ATOM      9  C   LIG d   1       9.495  -4.387  -3.353  0.00  0.00     0.341 A 
ATOM     10  O   LIG d   1      10.400  -4.294  -2.543  0.00  0.00    -0.245 OA
ATOM     11  C   LIG d   1       9.366  -5.570  -4.108  0.00  0.00     0.049 A 
ATOM     12 CL   LIG d   1       4.211  -3.639  -7.338  0.00  0.00    -0.080 Cl
ATOM     13  H   LIG d   1       6.226  -5.511  -6.680  0.00  0.00     0.064 H 
ATOM     14  H   LIG d   1       6.890  -1.449  -3.932  0.00  0.00     0.069 H 
ENDROOT
BRANCH  11  15
ATOM     15  C   LIG d   1      10.342  -6.701  -3.911  0.00  0.00     0.056 C 
ATOM     16  H   LIG d   1      11.292  -6.303  -3.553  0.00  0.00     0.041 H 
ATOM     17  H   LIG d   1      10.498  -7.217  -4.858  0.00  0.00     0.041 H 
BRANCH  15  18
ATOM     18  C   LIG d   1       9.791  -7.670  -2.897  0.00  0.00     0.218 C 
ATOM     19  O   LIG d   1       9.415  -7.268  -1.815  0.00  0.00    -0.276 OA
ATOM     20  N   LIG d   1       9.716  -8.983  -3.189  0.00  0.00    -0.315 N 
ATOM     21  H   LIG d   1      10.017  -9.305  -4.054  0.00  0.00     0.149 HD
BRANCH  20  22
ATOM     22  C   LIG d   1       9.181  -9.925  -2.204  0.00  0.00     0.014 C 
ATOM     23  H   LIG d   1       9.094  -9.430  -1.236  0.00  0.00     0.046 H 
ATOM     24  H   LIG d   1       9.854 -10.779  -2.114  0.00  0.00     0.046 H 
BRANCH  22  25
ATOM     25  C   LIG d   1       7.802 -10.408  -2.655  0.00  0.00    -0.025 C 
ATOM     26  H   LIG d   1       7.819 -11.490  -2.785  0.00  0.00     0.032 H 
ATOM     27  C   LIG d   1       7.438  -9.740  -3.984  0.00  0.00    -0.048 C 
ATOM     28  C   LIG d   1       6.058 -10.224  -4.436  0.00  0.00    -0.045 C 
ATOM     29  H   LIG d   1       7.419  -8.659  -3.853  0.00  0.00     0.027 H 
ATOM     30  H   LIG d   1       8.179 -10.003  -4.737  0.00  0.00     0.027 H 
ATOM     31  C   LIG d   1       5.016  -9.854  -3.377  0.00  0.00    -0.001 C 
ATOM     32  H   LIG d   1       6.076 -11.305  -4.565  0.00  0.00     0.027 H 
ATOM     33  H   LIG d   1       5.798  -9.748  -5.381  0.00  0.00     0.027 H 
ATOM     34  C   LIG d   1       5.381 -10.521  -2.049  0.00  0.00    -0.045 C 
ATOM     35  H   LIG d   1       4.997  -8.773  -3.247  0.00  0.00     0.036 H 
ATOM     36  C   LIG d   1       6.760 -10.039  -1.597  0.00  0.00    -0.048 C 
ATOM     37  H   LIG d   1       4.638 -10.258  -1.295  0.00  0.00     0.027 H 
ATOM     38  H   LIG d   1       5.399 -11.604  -2.179  0.00  0.00     0.027 H 
ATOM     39  H   LIG d   1       6.741  -8.956  -1.467  0.00  0.00     0.027 H 
ATOM     40  H   LIG d   1       7.019 -10.514  -0.651  0.00  0.00     0.027 H 
BRANCH  31  41
ATOM     41  C   LIG d   1       3.657 -10.329  -3.823  0.00  0.00     0.045 C 
ATOM     42  O   LIG d   1       2.666  -9.957  -3.239  0.00  0.00    -0.549 OA
ATOM     43  O   LIG d   1       3.547 -11.166  -4.866  0.00  0.00    -0.549 OA
ENDBRANCH  31  41
ENDBRANCH  22  25
ENDBRANCH  20  22
ENDBRANCH  15  18
ENDBRANCH  11  15
BRANCH   1  44
ATOM     44  C   LIG d   1       8.193  -6.947  -5.824  0.00  0.00    -0.038 C 
ATOM     45  H   LIG d   1       8.267  -6.705  -6.885  0.00  0.00     0.028 H 
ATOM     46  H   LIG d   1       8.975  -7.658  -5.558  0.00  0.00     0.028 H 
ATOM     47  H   LIG d   1       7.217  -7.388  -5.619  0.00  0.00     0.028 H 
ENDBRANCH   1  44
BRANCH   5  48
ATOM     48  O   LIG d   1       4.859  -1.368  -5.572  0.00  0.00    -0.486 OA
BRANCH  48  49
ATOM     49  C   LIG d   1       3.837  -1.228  -4.583  0.00  0.00     0.108 C 
ATOM     50  H   LIG d   1       2.869  -1.119  -5.073  0.00  0.00     0.074 H 
ATOM     51  H   LIG d   1       3.823  -2.113  -3.946  0.00  0.00     0.074 H 
BRANCH  49  52
ATOM     52  C   LIG d   1       4.114  -0.008  -3.743  0.00  0.00    -0.048 C 
ATOM     53  C   LIG d   1       4.311  -0.130  -2.454  0.00  0.00    -0.076 C 
ATOM     54  H   LIG d   1       4.151   0.968  -4.204  0.00  0.00     0.060 H 
BRANCH  53  55
ATOM     55  C   LIG d   1       4.381  -1.500  -1.829  0.00  0.00    -0.044 C 
ATOM     56  H   LIG d   1       3.451  -2.035  -2.022  0.00  0.00     0.027 H 
ATOM     57  H   LIG d   1       5.214  -2.054  -2.259  0.00  0.00     0.027 H 
ATOM     58  H   LIG d   1       4.526  -1.401  -0.752  0.00  0.00     0.027 H 
ENDBRANCH  53  55
BRANCH  53  59
ATOM     59  C   LIG d   1       4.466   1.098  -1.595  0.00  0.00    -0.044 C 
ATOM     60  H   LIG d   1       5.310   0.964  -0.919  0.00  0.00     0.027 H 
ATOM     61  H   LIG d   1       4.642   1.966  -2.230  0.00  0.00     0.027 H 
ATOM     62  H   LIG d   1       3.555   1.252  -1.015  0.00  0.00     0.027 H 
ENDBRANCH  53  59
ENDBRANCH  49  52
ENDBRANCH  48  49
ENDBRANCH   5  48
TORSDOF 11
ENDMDL
MODEL 5
REMARK VINA RESULT:      -6.1      3.491      5.776
REMARK  11 active torsions:
REMARK  status: ('A' for Active; 'I' for Inactive)
REMARK    1  A    between atoms: C_1  and  C_2 
REMARK    2  A    between atoms: C_6  and  O_28 
REMARK    3  A    between atoms: C_12  and  C_13 
REMARK    4  A    between atoms: C_13  and  C_14 
REMARK       I    between atoms: C_14  and  N_16 
REMARK    5  A    between atoms: N_16  and  C_17 
REMARK    6  A    between atoms: C_17  and  C_18 
REMARK    7  A    between atoms: C_22  and  C_26 
REMARK    8  A    between atoms: O_28  and  C_29 
REMARK    9  A    between atoms: C_29  and  C_30 
REMARK   10  A    between atoms: C_31  and  C_32 
REMARK   11  A    between atoms: C_31  and  C_33 
ROOT
ATOM      1  C   LIG d   1       4.562  -2.863  -8.316  0.00  0.00    -0.029 A 
ATOM      2  C   LIG d   1       4.876  -2.627  -6.906  0.00  0.00     0.022 A 
ATOM      3  C   LIG d   1       5.494  -1.441  -6.494  0.00  0.00    -0.029 A 
ATOM      4  C   LIG d   1       5.776  -1.246  -5.172  0.00  0.00     0.083 A 
ATOM      5  C   LIG d   1       5.453  -2.222  -4.230  0.00  0.00     0.143 A 
ATOM      6  C   LIG d   1       4.840  -3.402  -4.621  0.00  0.00     0.025 A 
ATOM      7  C   LIG d   1       4.547  -3.616  -5.960  0.00  0.00     0.143 A 
ATOM      8  O   LIG d   1       3.950  -4.758  -6.361  0.00  0.00    -0.422 OA
ATOM      9  C   LIG d   1       3.655  -4.978  -7.652  0.00  0.00     0.341 A 
ATOM     10  O   LIG d   1       3.111  -6.022  -7.967  0.00  0.00    -0.245 OA
ATOM     11  C   LIG d   1       3.961  -4.034  -8.653  0.00  0.00     0.049 A 
ATOM     12 CL   LIG d   1       6.543   0.225  -4.661  0.00  0.00    -0.080 Cl
ATOM     13  H   LIG d   1       5.747  -0.682  -7.219  0.00  0.00     0.064 H 
ATOM     14  H   LIG d   1       4.592  -4.153  -3.885  0.00  0.00     0.069 H 
ENDROOT
BRANCH  11  15
ATOM     15  C   LIG d   1       3.619  -4.321 -10.092  0.00  0.00     0.056 C 
ATOM     16  H   LIG d   1       3.758  -5.384 -10.294  0.00  0.00     0.041 H 
ATOM     17  H   LIG d   1       4.270  -3.740 -10.745  0.00  0.00     0.041 H 
BRANCH  15  18
ATOM     18  C   LIG d   1       2.183  -3.946 -10.353  0.00  0.00     0.218 C 
ATOM     19  O   LIG d   1       1.910  -2.834 -10.754  0.00  0.00    -0.276 OA
ATOM     20  N   LIG d   1       1.201  -4.843 -10.140  0.00  0.00    -0.315 N 
ATOM     21  H   LIG d   1       1.419  -5.733  -9.819  0.00  0.00     0.149 HD
BRANCH  20  22
ATOM     22  C   LIG d   1      -0.194  -4.478 -10.393  0.00  0.00     0.014 C 
ATOM     23  H   LIG d   1      -0.243  -3.790 -11.237  0.00  0.00     0.046 H 
ATOM     24  H   LIG d   1      -0.610  -3.996  -9.508  0.00  0.00     0.046 H 
BRANCH  22  25
ATOM     25  C   LIG d   1      -1.001  -5.737 -10.714  0.00  0.00    -0.025 C 
ATOM     26  H   LIG d   1      -1.140  -5.815 -11.792  0.00  0.00     0.032 H 
ATOM     27  C   LIG d   1      -2.368  -5.655 -10.029  0.00  0.00    -0.048 C 
ATOM     28  C   LIG d   1      -3.175  -6.914 -10.350  0.00  0.00    -0.045 C 
ATOM     29  H   LIG d   1      -2.229  -5.578  -8.951  0.00  0.00     0.027 H 
ATOM     30  H   LIG d   1      -2.903  -4.778 -10.390  0.00  0.00     0.027 H 
ATOM     31  C   LIG d   1      -2.423  -8.146  -9.842  0.00  0.00    -0.001 C 
ATOM     32  H   LIG d   1      -3.314  -6.992 -11.428  0.00  0.00     0.027 H 
ATOM     33  H   LIG d   1      -4.148  -6.856  -9.862  0.00  0.00     0.027 H 
ATOM     34  C   LIG d   1      -1.058  -8.228 -10.527  0.00  0.00    -0.045 C 
ATOM     35  H   LIG d   1      -2.284  -8.069  -8.764  0.00  0.00     0.036 H 
ATOM     36  C   LIG d   1      -0.250  -6.969 -10.206  0.00  0.00    -0.048 C 
ATOM     37  H   LIG d   1      -0.521  -9.106 -10.166  0.00  0.00     0.027 H 
ATOM     38  H   LIG d   1      -1.196  -8.306 -11.606  0.00  0.00     0.027 H 
ATOM     39  H   LIG d   1      -0.111  -6.892  -9.127  0.00  0.00     0.027 H 
ATOM     40  H   LIG d   1       0.723  -7.028 -10.694  0.00  0.00     0.027 H 
BRANCH  31  41
ATOM     41  C   LIG d   1      -3.219  -9.386 -10.158  0.00  0.00     0.045 C 
ATOM     42  O   LIG d   1      -2.844 -10.463  -9.756  0.00  0.00    -0.549 OA
ATOM     43  O   LIG d   1      -4.343  -9.295 -10.886  0.00  0.00    -0.549 OA
ENDBRANCH  31  41
ENDBRANCH  22  25
ENDBRANCH  20  22
ENDBRANCH  15  18
ENDBRANCH  11  15
BRANCH   1  44
ATOM     44  C   LIG d   1       4.895  -1.834  -9.366  0.00  0.00    -0.038 C 
ATOM     45  H   LIG d   1       4.121  -1.836 -10.134  0.00  0.00     0.028 H 
ATOM     46  H   LIG d   1       4.948  -0.848  -8.905  0.00  0.00     0.028 H 
ATOM     47  H   LIG d   1       5.857  -2.075  -9.819  0.00  0.00     0.028 H 
ENDBRANCH   1  44
BRANCH   5  48
ATOM     48  O   LIG d   1       5.739  -2.014  -2.919  0.00  0.00    -0.486 OA
BRANCH  48  49
ATOM     49  C   LIG d   1       4.636  -1.758  -2.048  0.00  0.00     0.108 C 
ATOM     50  H   LIG d   1       3.735  -2.216  -2.457  0.00  0.00     0.074 H 
ATOM     51  H   LIG d   1       4.844  -2.180  -1.064  0.00  0.00     0.074 H 
BRANCH  49  52
ATOM     52  C   LIG d   1       4.429  -0.270  -1.923  0.00  0.00    -0.048 C 
ATOM     53  C   LIG d   1       3.473   0.318  -2.598  0.00  0.00    -0.076 C 
ATOM     54  H   LIG d   1       5.070   0.311  -1.277  0.00  0.00     0.060 H 
BRANCH  53  55
ATOM     55  C   LIG d   1       2.502  -0.507  -3.404  0.00  0.00    -0.044 C 
ATOM     56  H   LIG d   1       2.370  -1.479  -2.929  0.00  0.00     0.027 H 
ATOM     57  H   LIG d   1       1.543   0.006  -3.452  0.00  0.00     0.027 H 
ATOM     58  H   LIG d   1       2.893  -0.645  -4.412  0.00  0.00     0.027 H 
ENDBRANCH  53  55
BRANCH  53  59
ATOM     59  C   LIG d   1       3.343   1.818  -2.569  0.00  0.00    -0.044 C 
ATOM     60  H   LIG d   1       3.533   2.218  -3.565  0.00  0.00     0.027 H 
ATOM     61  H   LIG d   1       2.336   2.090  -2.254  0.00  0.00     0.027 H 
ATOM     62  H   LIG d   1       4.067   2.232  -1.867  0.00  0.00     0.027 H 
ENDBRANCH  53  59
ENDBRANCH  49  52
ENDBRANCH  48  49
ENDBRANCH   5  48
TORSDOF 11
ENDMDL
MODEL 6
REMARK VINA RESULT:      -6.1      3.709      6.576
REMARK  11 active torsions:
REMARK  status: ('A' for Active; 'I' for Inactive)
REMARK    1  A    between atoms: C_1  and  C_2 
REMARK    2  A    between atoms: C_6  and  O_28 
REMARK    3  A    between atoms: C_12  and  C_13 
REMARK    4  A    between atoms: C_13  and  C_14 
REMARK       I    between atoms: C_14  and  N_16 
REMARK    5  A    between atoms: N_16  and  C_17 
REMARK    6  A    between atoms: C_17  and  C_18 
REMARK    7  A    between atoms: C_22  and  C_26 
REMARK    8  A    between atoms: O_28  and  C_29 
REMARK    9  A    between atoms: C_29  and  C_30 
REMARK   10  A    between atoms: C_31  and  C_32 
REMARK   11  A    between atoms: C_31  and  C_33 
ROOT
ATOM      1  C   LIG d   1       5.312  -1.601  -3.529  0.00  0.00    -0.029 A 
ATOM      2  C   LIG d   1       6.481  -2.276  -4.097  0.00  0.00     0.022 A 
ATOM      3  C   LIG d   1       6.435  -3.633  -4.435  0.00  0.00    -0.029 A 
ATOM      4  C   LIG d   1       7.540  -4.238  -4.962  0.00  0.00     0.083 A 
ATOM      5  C   LIG d   1       8.713  -3.513  -5.165  0.00  0.00     0.143 A 
ATOM      6  C   LIG d   1       8.776  -2.168  -4.836  0.00  0.00     0.025 A 
ATOM      7  C   LIG d   1       7.662  -1.538  -4.299  0.00  0.00     0.143 A 
ATOM      8  O   LIG d   1       7.701  -0.229  -3.972  0.00  0.00    -0.422 OA
ATOM      9  C   LIG d   1       6.631   0.397  -3.456  0.00  0.00     0.341 A 
ATOM     10  O   LIG d   1       6.712   1.581  -3.181  0.00  0.00    -0.245 OA
ATOM     11  C   LIG d   1       5.418  -0.283  -3.221  0.00  0.00     0.049 A 
ATOM     12 CL   LIG d   1       7.484  -5.922  -5.382  0.00  0.00    -0.080 Cl
ATOM     13  H   LIG d   1       5.530  -4.200  -4.279  0.00  0.00     0.064 H 
ATOM     14  H   LIG d   1       9.688  -1.613  -4.996  0.00  0.00     0.069 H 
ENDROOT
BRANCH  11  15
ATOM     15  C   LIG d   1       4.242   0.454  -2.635  0.00  0.00     0.056 C 
ATOM     16  H   LIG d   1       4.592   1.151  -1.873  0.00  0.00     0.041 H 
ATOM     17  H   LIG d   1       3.553  -0.260  -2.185  0.00  0.00     0.041 H 
BRANCH  15  18
ATOM     18  C   LIG d   1       3.533   1.217  -3.724  0.00  0.00     0.218 C 
ATOM     19  O   LIG d   1       3.261   2.389  -3.565  0.00  0.00    -0.276 OA
ATOM     20  N   LIG d   1       3.199   0.600  -4.874  0.00  0.00    -0.315 N 
ATOM     21  H   LIG d   1       3.416  -0.338  -5.001  0.00  0.00     0.149 HD
BRANCH  20  22
ATOM     22  C   LIG d   1       2.510   1.341  -5.932  0.00  0.00     0.014 C 
ATOM     23  H   LIG d   1       2.628   2.412  -5.762  0.00  0.00     0.046 H 
ATOM     24  H   LIG d   1       1.449   1.087  -5.922  0.00  0.00     0.046 H 
BRANCH  22  25
ATOM     25  C   LIG d   1       3.110   0.971  -7.289  0.00  0.00    -0.025 C 
ATOM     26  H   LIG d   1       4.195   0.918  -7.205  0.00  0.00     0.032 H 
ATOM     27  C   LIG d   1       2.731   2.036  -8.322  0.00  0.00    -0.048 C 
ATOM     28  C   LIG d   1       3.331   1.665  -9.680  0.00  0.00    -0.045 C 
ATOM     29  H   LIG d   1       1.645   2.088  -8.407  0.00  0.00     0.027 H 
ATOM     30  H   LIG d   1       3.118   3.003  -8.005  0.00  0.00     0.027 H 
ATOM     31  C   LIG d   1       2.787   0.307 -10.125  0.00  0.00    -0.001 C 
ATOM     32  H   LIG d   1       4.416   1.612  -9.595  0.00  0.00     0.027 H 
ATOM     33  H   LIG d   1       3.061   2.423 -10.415  0.00  0.00     0.027 H 
ATOM     34  C   LIG d   1       3.166  -0.757  -9.093  0.00  0.00    -0.045 C 
ATOM     35  H   LIG d   1       1.701   0.359 -10.210  0.00  0.00     0.036 H 
ATOM     36  C   LIG d   1       2.566  -0.388  -7.735  0.00  0.00    -0.048 C 
ATOM     37  H   LIG d   1       2.778  -1.726  -9.410  0.00  0.00     0.027 H 
ATOM     38  H   LIG d   1       4.252  -0.811  -9.008  0.00  0.00     0.027 H 
ATOM     39  H   LIG d   1       1.480  -0.335  -7.820  0.00  0.00     0.027 H 
ATOM     40  H   LIG d   1       2.836  -1.146  -7.000  0.00  0.00     0.027 H 
BRANCH  31  41
ATOM     41  C   LIG d   1       3.377  -0.058 -11.462  0.00  0.00     0.045 C 
ATOM     42  O   LIG d   1       4.458   0.378 -11.784  0.00  0.00    -0.549 OA
ATOM     43  O   LIG d   1       2.703  -0.864 -12.297  0.00  0.00    -0.549 OA
ENDBRANCH  31  41
ENDBRANCH  22  25
ENDBRANCH  20  22
ENDBRANCH  15  18
ENDBRANCH  11  15
BRANCH   1  44
ATOM     44  C   LIG d   1       4.025  -2.349  -3.294  0.00  0.00    -0.038 C 
ATOM     45  H   LIG d   1       3.811  -2.983  -4.155  0.00  0.00     0.028 H 
ATOM     46  H   LIG d   1       4.121  -2.968  -2.402  0.00  0.00     0.028 H 
ATOM     47  H   LIG d   1       3.211  -1.637  -3.155  0.00  0.00     0.028 H 
ENDBRANCH   1  44
BRANCH   5  48
ATOM     48  O   LIG d   1       9.804  -4.128  -5.691  0.00  0.00    -0.486 OA
BRANCH  48  49
ATOM     49  C   LIG d   1      10.922  -4.320  -4.822  0.00  0.00     0.108 C 
ATOM     50  H   LIG d   1      11.846  -4.260  -5.399  0.00  0.00     0.074 H 
ATOM     51  H   LIG d   1      10.923  -3.547  -4.054  0.00  0.00     0.074 H 
BRANCH  49  52
ATOM     52  C   LIG d   1      10.825  -5.675  -4.170  0.00  0.00    -0.048 C 
ATOM     53  C   LIG d   1      10.434  -5.778  -2.925  0.00  0.00    -0.076 C 
ATOM     54  H   LIG d   1      11.077  -6.563  -4.732  0.00  0.00     0.060 H 
BRANCH  53  55
ATOM     55  C   LIG d   1       9.965  -4.555  -2.179  0.00  0.00    -0.044 C 
ATOM     56  H   LIG d   1       9.796  -3.742  -2.885  0.00  0.00     0.027 H 
ATOM     57  H   LIG d   1       9.036  -4.782  -1.657  0.00  0.00     0.027 H 
ATOM     58  H   LIG d   1      10.725  -4.256  -1.456  0.00  0.00     0.027 H 
ENDBRANCH  53  55
BRANCH  53  59
ATOM     59  C   LIG d   1      10.455  -7.118  -2.236  0.00  0.00    -0.044 C 
ATOM     60  H   LIG d   1      10.752  -7.888  -2.948  0.00  0.00     0.027 H 
ATOM     61  H   LIG d   1      11.166  -7.091  -1.410  0.00  0.00     0.027 H 
ATOM     62  H   LIG d   1       9.460  -7.343  -1.851  0.00  0.00     0.027 H 
ENDBRANCH  53  59
ENDBRANCH  49  52
ENDBRANCH  48  49
ENDBRANCH   5  48
TORSDOF 11
ENDMDL
MODEL 7
REMARK VINA RESULT:      -6.1      2.874      6.280
REMARK  11 active torsions:
REMARK  status: ('A' for Active; 'I' for Inactive)
REMARK    1  A    between atoms: C_1  and  C_2 
REMARK    2  A    between atoms: C_6  and  O_28 
REMARK    3  A    between atoms: C_12  and  C_13 
REMARK    4  A    between atoms: C_13  and  C_14 
REMARK       I    between atoms: C_14  and  N_16 
REMARK    5  A    between atoms: N_16  and  C_17 
REMARK    6  A    between atoms: C_17  and  C_18 
REMARK    7  A    between atoms: C_22  and  C_26 
REMARK    8  A    between atoms: O_28  and  C_29 
REMARK    9  A    between atoms: C_29  and  C_30 
REMARK   10  A    between atoms: C_31  and  C_32 
REMARK   11  A    between atoms: C_31  and  C_33 
ROOT
ATOM      1  C   LIG d   1       6.422  -4.580  -7.845  0.00  0.00    -0.029 A 
ATOM      2  C   LIG d   1       5.428  -3.843  -8.626  0.00  0.00     0.022 A 
ATOM      3  C   LIG d   1       5.786  -3.177  -9.803  0.00  0.00    -0.029 A 
ATOM      4  C   LIG d   1       4.838  -2.496 -10.513  0.00  0.00     0.083 A 
ATOM      5  C   LIG d   1       3.515  -2.461 -10.071  0.00  0.00     0.143 A 
ATOM      6  C   LIG d   1       3.144  -3.115  -8.908  0.00  0.00     0.025 A 
ATOM      7  C   LIG d   1       4.095  -3.811  -8.175  0.00  0.00     0.143 A 
ATOM      8  O   LIG d   1       3.753  -4.456  -7.040  0.00  0.00    -0.422 OA
ATOM      9  C   LIG d   1       4.660  -5.138  -6.321  0.00  0.00     0.341 A 
ATOM     10  O   LIG d   1       4.305  -5.710  -5.306  0.00  0.00    -0.245 OA
ATOM     11  C   LIG d   1       6.013  -5.207  -6.711  0.00  0.00     0.049 A 
ATOM     12 CL   LIG d   1       5.281  -1.669 -11.973  0.00  0.00    -0.080 Cl
ATOM     13  H   LIG d   1       6.808  -3.200 -10.149  0.00  0.00     0.064 H 
ATOM     14  H   LIG d   1       2.118  -3.084  -8.573  0.00  0.00     0.069 H 
ENDROOT
BRANCH  11  15
ATOM     15  C   LIG d   1       7.001  -5.978  -5.875  0.00  0.00     0.056 C 
ATOM     16  H   LIG d   1       7.760  -6.419  -6.522  0.00  0.00     0.041 H 
ATOM     17  H   LIG d   1       6.482  -6.768  -5.333  0.00  0.00     0.041 H 
BRANCH  15  18
ATOM     18  C   LIG d   1       7.662  -5.047  -4.891  0.00  0.00     0.218 C 
ATOM     19  O   LIG d   1       8.598  -5.435  -4.223  0.00  0.00    -0.276 OA
ATOM     20  N   LIG d   1       7.214  -3.784  -4.751  0.00  0.00    -0.315 N 
ATOM     21  H   LIG d   1       6.466  -3.474  -5.285  0.00  0.00     0.149 HD
BRANCH  20  22
ATOM     22  C   LIG d   1       7.856  -2.879  -3.795  0.00  0.00     0.014 C 
ATOM     23  H   LIG d   1       8.668  -2.345  -4.289  0.00  0.00     0.046 H 
ATOM     24  H   LIG d   1       8.257  -3.457  -2.961  0.00  0.00     0.046 H 
BRANCH  22  25
ATOM     25  C   LIG d   1       6.828  -1.876  -3.272  0.00  0.00    -0.025 C 
ATOM     26  H   LIG d   1       6.854  -1.862  -2.183  0.00  0.00     0.032 H 
ATOM     27  C   LIG d   1       5.430  -2.285  -3.743  0.00  0.00    -0.048 C 
ATOM     28  C   LIG d   1       4.402  -1.280  -3.220  0.00  0.00    -0.045 C 
ATOM     29  H   LIG d   1       5.404  -2.298  -4.833  0.00  0.00     0.027 H 
ATOM     30  H   LIG d   1       5.196  -3.278  -3.362  0.00  0.00     0.027 H 
ATOM     31  C   LIG d   1       4.732   0.114  -3.756  0.00  0.00    -0.001 C 
ATOM     32  H   LIG d   1       4.428  -1.267  -2.131  0.00  0.00     0.027 H 
ATOM     33  H   LIG d   1       3.406  -1.571  -3.556  0.00  0.00     0.027 H 
ATOM     34  C   LIG d   1       6.129   0.523  -3.285  0.00  0.00    -0.045 C 
ATOM     35  H   LIG d   1       4.706   0.102  -4.845  0.00  0.00     0.036 H 
ATOM     36  C   LIG d   1       7.158  -0.480  -3.807  0.00  0.00    -0.048 C 
ATOM     37  H   LIG d   1       6.365   1.517  -3.666  0.00  0.00     0.027 H 
ATOM     38  H   LIG d   1       6.156   0.537  -2.195  0.00  0.00     0.027 H 
ATOM     39  H   LIG d   1       7.131  -0.494  -4.898  0.00  0.00     0.027 H 
ATOM     40  H   LIG d   1       8.153  -0.189  -3.472  0.00  0.00     0.027 H 
BRANCH  31  41
ATOM     41  C   LIG d   1       3.718   1.103  -3.241  0.00  0.00     0.045 C 
ATOM     42  O   LIG d   1       3.064   1.758  -4.019  0.00  0.00    -0.549 OA
ATOM     43  O   LIG d   1       3.543   1.259  -1.920  0.00  0.00    -0.549 OA
ENDBRANCH  31  41
ENDBRANCH  22  25
ENDBRANCH  20  22
ENDBRANCH  15  18
ENDBRANCH  11  15
BRANCH   1  44
ATOM     44  C   LIG d   1       7.862  -4.643  -8.287  0.00  0.00    -0.038 C 
ATOM     45  H   LIG d   1       8.273  -3.634  -8.330  0.00  0.00     0.028 H 
ATOM     46  H   LIG d   1       8.435  -5.240  -7.577  0.00  0.00     0.028 H 
ATOM     47  H   LIG d   1       7.919  -5.101  -9.275  0.00  0.00     0.028 H 
ENDBRANCH   1  44
BRANCH   5  48
ATOM     48  O   LIG d   1       2.584  -1.781 -10.788  0.00  0.00    -0.486 OA
BRANCH  48  49
ATOM     49  C   LIG d   1       1.870  -0.747 -10.107  0.00  0.00     0.108 C 
ATOM     50  H   LIG d   1       0.907  -0.588 -10.594  0.00  0.00     0.074 H 
ATOM     51  H   LIG d   1       1.707  -1.040  -9.069  0.00  0.00     0.074 H 
BRANCH  49  52
ATOM     52  C   LIG d   1       2.671   0.529 -10.149  0.00  0.00    -0.048 C 
ATOM     53  C   LIG d   1       3.061   1.096  -9.035  0.00  0.00    -0.076 C 
ATOM     54  H   LIG d   1       2.923   0.976 -11.100  0.00  0.00     0.060 H 
BRANCH  53  55
ATOM     55  C   LIG d   1       2.816   0.411  -7.715  0.00  0.00    -0.044 C 
ATOM     56  H   LIG d   1       2.084   0.980  -7.141  0.00  0.00     0.027 H 
ATOM     57  H   LIG d   1       2.435  -0.594  -7.892  0.00  0.00     0.027 H 
ATOM     58  H   LIG d   1       3.750   0.354  -7.156  0.00  0.00     0.027 H 
ENDBRANCH  53  55
BRANCH  53  59
ATOM     59  C   LIG d   1       3.754   2.433  -9.072  0.00  0.00    -0.044 C 
ATOM     60  H   LIG d   1       3.229   3.096  -9.760  0.00  0.00     0.027 H 
ATOM     61  H   LIG d   1       3.753   2.871  -8.074  0.00  0.00     0.027 H 
ATOM     62  H   LIG d   1       4.782   2.300  -9.409  0.00  0.00     0.027 H 
ENDBRANCH  53  59
ENDBRANCH  49  52
ENDBRANCH  48  49
ENDBRANCH   5  48
TORSDOF 11
ENDMDL
MODEL 8
REMARK VINA RESULT:      -6.0      3.752      5.561
REMARK  11 active torsions:
REMARK  status: ('A' for Active; 'I' for Inactive)
REMARK    1  A    between atoms: C_1  and  C_2 
REMARK    2  A    between atoms: C_6  and  O_28 
REMARK    3  A    between atoms: C_12  and  C_13 
REMARK    4  A    between atoms: C_13  and  C_14 
REMARK       I    between atoms: C_14  and  N_16 
REMARK    5  A    between atoms: N_16  and  C_17 
REMARK    6  A    between atoms: C_17  and  C_18 
REMARK    7  A    between atoms: C_22  and  C_26 
REMARK    8  A    between atoms: O_28  and  C_29 
REMARK    9  A    between atoms: C_29  and  C_30 
REMARK   10  A    between atoms: C_31  and  C_32 
REMARK   11  A    between atoms: C_31  and  C_33 
ROOT
ATOM      1  C   LIG d   1       3.757  -2.695 -10.005  0.00  0.00    -0.029 A 
ATOM      2  C   LIG d   1       3.687  -1.794  -8.852  0.00  0.00     0.022 A 
ATOM      3  C   LIG d   1       4.701  -1.779  -7.887  0.00  0.00    -0.029 A 
ATOM      4  C   LIG d   1       4.610  -0.930  -6.821  0.00  0.00     0.083 A 
ATOM      5  C   LIG d   1       3.514  -0.078  -6.689  0.00  0.00     0.143 A 
ATOM      6  C   LIG d   1       2.503  -0.080  -7.636  0.00  0.00     0.025 A 
ATOM      7  C   LIG d   1       2.579  -0.936  -8.724  0.00  0.00     0.143 A 
ATOM      8  O   LIG d   1       1.604  -0.953  -9.658  0.00  0.00    -0.422 OA
ATOM      9  C   LIG d   1       1.665  -1.773 -10.720  0.00  0.00     0.341 A 
ATOM     10  O   LIG d   1       0.765  -1.750 -11.540  0.00  0.00    -0.245 OA
ATOM     11  C   LIG d   1       2.743  -2.662 -10.907  0.00  0.00     0.049 A 
ATOM     12 CL   LIG d   1       5.866  -0.911  -5.624  0.00  0.00    -0.080 Cl
ATOM     13  H   LIG d   1       5.551  -2.437  -7.984  0.00  0.00     0.064 H 
ATOM     14  H   LIG d   1       1.657   0.584  -7.527  0.00  0.00     0.069 H 
ENDROOT
BRANCH  11  15
ATOM     15  C   LIG d   1       2.772  -3.570 -12.109  0.00  0.00     0.056 C 
ATOM     16  H   LIG d   1       3.806  -3.765 -12.393  0.00  0.00     0.041 H 
ATOM     17  H   LIG d   1       2.252  -3.093 -12.939  0.00  0.00     0.041 H 
BRANCH  15  18
ATOM     18  C   LIG d   1       2.090  -4.872 -11.773  0.00  0.00     0.218 C 
ATOM     19  O   LIG d   1       2.445  -5.899 -12.313  0.00  0.00    -0.276 OA
ATOM     20  N   LIG d   1       1.088  -4.896 -10.874  0.00  0.00    -0.315 N 
ATOM     21  H   LIG d   1       0.804  -4.074 -10.442  0.00  0.00     0.149 HD
BRANCH  20  22
ATOM     22  C   LIG d   1       0.425  -6.160 -10.547  0.00  0.00     0.014 C 
ATOM     23  H   LIG d   1       0.643  -6.428  -9.513  0.00  0.00     0.046 H 
ATOM     24  H   LIG d   1       0.793  -6.945 -11.210  0.00  0.00     0.046 H 
BRANCH  22  25
ATOM     25  C   LIG d   1      -1.086  -6.008 -10.728  0.00  0.00    -0.025 C 
ATOM     26  H   LIG d   1      -1.463  -6.825 -11.342  0.00  0.00     0.032 H 
ATOM     27  C   LIG d   1      -1.384  -4.673 -11.416  0.00  0.00    -0.048 C 
ATOM     28  C   LIG d   1      -2.896  -4.520 -11.597  0.00  0.00    -0.045 C 
ATOM     29  H   LIG d   1      -1.008  -3.855 -10.802  0.00  0.00     0.027 H 
ATOM     30  H   LIG d   1      -0.897  -4.650 -12.390  0.00  0.00     0.027 H 
ATOM     31  C   LIG d   1      -3.579  -4.552 -10.229  0.00  0.00    -0.001 C 
ATOM     32  H   LIG d   1      -3.273  -5.337 -12.211  0.00  0.00     0.027 H 
ATOM     33  H   LIG d   1      -3.109  -3.570 -12.087  0.00  0.00     0.027 H 
ATOM     34  C   LIG d   1      -3.281  -5.886  -9.541  0.00  0.00    -0.045 C 
ATOM     35  H   LIG d   1      -3.203  -3.735  -9.614  0.00  0.00     0.036 H 
ATOM     36  C   LIG d   1      -1.770  -6.040  -9.360  0.00  0.00    -0.048 C 
ATOM     37  H   LIG d   1      -3.768  -5.909  -8.566  0.00  0.00     0.027 H 
ATOM     38  H   LIG d   1      -3.658  -6.704 -10.155  0.00  0.00     0.027 H 
ATOM     39  H   LIG d   1      -1.392  -5.221  -8.746  0.00  0.00     0.027 H 
ATOM     40  H   LIG d   1      -1.557  -6.990  -8.869  0.00  0.00     0.027 H 
BRANCH  31  41
ATOM     41  C   LIG d   1      -5.068  -4.401 -10.407  0.00  0.00     0.045 C 
ATOM     42  O   LIG d   1      -5.672  -5.167 -11.121  0.00  0.00    -0.549 OA
ATOM     43  O   LIG d   1      -5.723  -3.415  -9.774  0.00  0.00    -0.549 OA
ENDBRANCH  31  41
ENDBRANCH  22  25
ENDBRANCH  20  22
ENDBRANCH  15  18
ENDBRANCH  11  15
BRANCH   1  44
ATOM     44  C   LIG d   1       4.924  -3.631 -10.185  0.00  0.00    -0.038 C 
ATOM     45  H   LIG d   1       5.539  -3.290 -11.018  0.00  0.00     0.028 H 
ATOM     46  H   LIG d   1       5.523  -3.646  -9.274  0.00  0.00     0.028 H 
ATOM     47  H   LIG d   1       4.555  -4.636 -10.393  0.00  0.00     0.028 H 
ENDBRANCH   1  44
BRANCH   5  48
ATOM     48  O   LIG d   1       3.438   0.762  -5.625  0.00  0.00    -0.486 OA
BRANCH  48  49
ATOM     49  C   LIG d   1       2.454   0.464  -4.632  0.00  0.00     0.108 C 
ATOM     50  H   LIG d   1       2.249   1.358  -4.043  0.00  0.00     0.074 H 
ATOM     51  H   LIG d   1       1.537   0.131  -5.118  0.00  0.00     0.074 H 
BRANCH  49  52
ATOM     52  C   LIG d   1       2.968  -0.627  -3.727  0.00  0.00    -0.048 C 
ATOM     53  C   LIG d   1       3.659  -0.320  -2.658  0.00  0.00    -0.076 C 
ATOM     54  H   LIG d   1       2.765  -1.662  -3.961  0.00  0.00     0.060 H 
BRANCH  53  55
ATOM     55  C   LIG d   1       3.838   1.124  -2.264  0.00  0.00    -0.044 C 
ATOM     56  H   LIG d   1       4.224   1.177  -1.247  0.00  0.00     0.027 H 
ATOM     57  H   LIG d   1       4.542   1.601  -2.945  0.00  0.00     0.027 H 
ATOM     58  H   LIG d   1       2.877   1.636  -2.316  0.00  0.00     0.027 H 
ENDBRANCH  53  55
BRANCH  53  59
ATOM     59  C   LIG d   1       4.276  -1.411  -1.821  0.00  0.00    -0.044 C 
ATOM     60  H   LIG d   1       5.177  -1.779  -2.312  0.00  0.00     0.027 H 
ATOM     61  H   LIG d   1       4.532  -1.014  -0.839  0.00  0.00     0.027 H 
ATOM     62  H   LIG d   1       3.564  -2.228  -1.707  0.00  0.00     0.027 H 
ENDBRANCH  53  59
ENDBRANCH  49  52
ENDBRANCH  48  49
ENDBRANCH   5  48
TORSDOF 11
ENDMDL
MODEL 9
REMARK VINA RESULT:      -5.9      3.623      6.301
REMARK  11 active torsions:
REMARK  status: ('A' for Active; 'I' for Inactive)
REMARK    1  A    between atoms: C_1  and  C_2 
REMARK    2  A    between atoms: C_6  and  O_28 
REMARK    3  A    between atoms: C_12  and  C_13 
REMARK    4  A    between atoms: C_13  and  C_14 
REMARK       I    between atoms: C_14  and  N_16 
REMARK    5  A    between atoms: N_16  and  C_17 
REMARK    6  A    between atoms: C_17  and  C_18 
REMARK    7  A    between atoms: C_22  and  C_26 
REMARK    8  A    between atoms: O_28  and  C_29 
REMARK    9  A    between atoms: C_29  and  C_30 
REMARK   10  A    between atoms: C_31  and  C_32 
REMARK   11  A    between atoms: C_31  and  C_33 
ROOT
ATOM      1  C   LIG d   1       6.284  -0.633  -3.579  0.00  0.00    -0.029 A 
ATOM      2  C   LIG d   1       6.953  -1.790  -4.177  0.00  0.00     0.022 A 
ATOM      3  C   LIG d   1       8.272  -1.703  -4.634  0.00  0.00    -0.029 A 
ATOM      4  C   LIG d   1       8.871  -2.798  -5.188  0.00  0.00     0.083 A 
ATOM      5  C   LIG d   1       8.177  -4.002  -5.301  0.00  0.00     0.143 A 
ATOM      6  C   LIG d   1       6.870  -4.105  -4.852  0.00  0.00     0.025 A 
ATOM      7  C   LIG d   1       6.246  -3.003  -4.287  0.00  0.00     0.143 A 
ATOM      8  O   LIG d   1       4.974  -3.082  -3.844  0.00  0.00    -0.422 OA
ATOM      9  C   LIG d   1       4.357  -2.025  -3.290  0.00  0.00     0.341 A 
ATOM     10  O   LIG d   1       3.210  -2.146  -2.899  0.00  0.00    -0.245 OA
ATOM     11  C   LIG d   1       5.003  -0.780  -3.153  0.00  0.00     0.049 A 
ATOM     12 CL   LIG d   1      10.508  -2.691  -5.757  0.00  0.00    -0.080 Cl
ATOM     13  H   LIG d   1       8.814  -0.774  -4.551  0.00  0.00     0.064 H 
ATOM     14  H   LIG d   1       6.339  -5.041  -4.942  0.00  0.00     0.069 H 
ENDROOT
BRANCH  11  15
ATOM     15  C   LIG d   1       4.274   0.384  -2.532  0.00  0.00     0.056 C 
ATOM     16  H   LIG d   1       4.990   1.033  -2.028  0.00  0.00     0.041 H 
ATOM     17  H   LIG d   1       3.548   0.014  -1.808  0.00  0.00     0.041 H 
BRANCH  15  18
ATOM     18  C   LIG d   1       3.560   1.162  -3.606  0.00  0.00     0.218 C 
ATOM     19  O   LIG d   1       3.281   2.329  -3.425  0.00  0.00    -0.276 OA
ATOM     20  N   LIG d   1       3.231   0.564  -4.767  0.00  0.00    -0.315 N 
ATOM     21  H   LIG d   1       3.454  -0.369  -4.912  0.00  0.00     0.149 HD
BRANCH  20  22
ATOM     22  C   LIG d   1       2.537   1.321  -5.812  0.00  0.00     0.014 C 
ATOM     23  H   LIG d   1       2.663   2.389  -5.632  0.00  0.00     0.046 H 
ATOM     24  H   LIG d   1       1.475   1.074  -5.795  0.00  0.00     0.046 H 
BRANCH  22  25
ATOM     25  C   LIG d   1       3.122   0.961  -7.178  0.00  0.00    -0.025 C 
ATOM     26  H   LIG d   1       4.209   0.915  -7.108  0.00  0.00     0.032 H 
ATOM     27  C   LIG d   1       2.721   2.027  -8.201  0.00  0.00    -0.048 C 
ATOM     28  C   LIG d   1       3.307   1.667  -9.568  0.00  0.00    -0.045 C 
ATOM     29  H   LIG d   1       1.635   2.072  -8.272  0.00  0.00     0.027 H 
ATOM     30  H   LIG d   1       3.106   2.996  -7.885  0.00  0.00     0.027 H 
ATOM     31  C   LIG d   1       2.767   0.306 -10.012  0.00  0.00    -0.001 C 
ATOM     32  H   LIG d   1       4.393   1.621  -9.498  0.00  0.00     0.027 H 
ATOM     33  H   LIG d   1       3.021   2.425 -10.297  0.00  0.00     0.027 H 
ATOM     34  C   LIG d   1       3.167  -0.760  -8.989  0.00  0.00    -0.045 C 
ATOM     35  H   LIG d   1       1.680   0.350 -10.082  0.00  0.00     0.036 H 
ATOM     36  C   LIG d   1       2.582  -0.400  -7.622  0.00  0.00    -0.048 C 
ATOM     37  H   LIG d   1       2.782  -1.730  -9.305  0.00  0.00     0.027 H 
ATOM     38  H   LIG d   1       4.254  -0.805  -8.918  0.00  0.00     0.027 H 
ATOM     39  H   LIG d   1       1.495  -0.354  -7.693  0.00  0.00     0.027 H 
ATOM     40  H   LIG d   1       2.867  -1.159  -6.894  0.00  0.00     0.027 H 
BRANCH  31  41
ATOM     41  C   LIG d   1       3.342  -0.049 -11.358  0.00  0.00     0.045 C 
ATOM     42  O   LIG d   1       2.700  -0.718 -12.133  0.00  0.00    -0.549 OA
ATOM     43  O   LIG d   1       4.569   0.378 -11.698  0.00  0.00    -0.549 OA
ENDBRANCH  31  41
ENDBRANCH  22  25
ENDBRANCH  20  22
ENDBRANCH  15  18
ENDBRANCH  11  15
BRANCH   1  44
ATOM     44  C   LIG d   1       6.999   0.687  -3.439  0.00  0.00    -0.038 C 
ATOM     45  H   LIG d   1       8.047   0.508  -3.196  0.00  0.00     0.028 H 
ATOM     46  H   LIG d   1       6.932   1.238  -4.377  0.00  0.00     0.028 H 
ATOM     47  H   LIG d   1       6.536   1.269  -2.642  0.00  0.00     0.028 H 
ENDBRANCH   1  44
BRANCH   5  48
ATOM     48  O   LIG d   1       8.786  -5.083  -5.853  0.00  0.00    -0.486 OA
BRANCH  48  49
ATOM     49  C   LIG d   1       9.142  -6.148  -4.970  0.00  0.00     0.108 C 
ATOM     50  H   LIG d   1       8.620  -6.023  -4.020  0.00  0.00     0.074 H 
ATOM     51  H   LIG d   1       8.859  -7.101  -5.417  0.00  0.00     0.074 H 
BRANCH  49  52
ATOM     52  C   LIG d   1      10.630  -6.127  -4.731  0.00  0.00    -0.048 C 
ATOM     53  C   LIG d   1      11.109  -5.622  -3.622  0.00  0.00    -0.076 C 
ATOM     54  H   LIG d   1      11.301  -6.530  -5.475  0.00  0.00     0.060 H 
BRANCH  53  55
ATOM     55  C   LIG d   1      10.170  -5.172  -2.531  0.00  0.00    -0.044 C 
ATOM     56  H   LIG d   1       9.884  -6.030  -1.922  0.00  0.00     0.027 H 
ATOM     57  H   LIG d   1      10.668  -4.433  -1.906  0.00  0.00     0.027 H 
ATOM     58  H   LIG d   1       9.279  -4.731  -2.978  0.00  0.00     0.027 H 
ENDBRANCH  53  55
BRANCH  53  59
ATOM     59  C   LIG d   1      12.598  -5.489  -3.435  0.00  0.00    -0.044 C 
ATOM     60  H   LIG d   1      13.105  -5.746  -4.365  0.00  0.00     0.027 H 
ATOM     61  H   LIG d   1      12.839  -4.462  -3.160  0.00  0.00     0.027 H 
ATOM     62  H   LIG d   1      12.927  -6.163  -2.644  0.00  0.00     0.027 H 
ENDBRANCH  53  59
ENDBRANCH  49  52
ENDBRANCH  48  49
ENDBRANCH   5  48
TORSDOF 11
ENDMDL
