MODEL 1
REMARK VINA RESULT:      -5.6      0.000      0.000
REMARK  2 active torsions:
REMARK  status: ('A' for Active; 'I' for Inactive)
REMARK    1  A    between atoms: C_4  and  C_7 
REMARK    2  A    between atoms: C_12  and  N_27 
ROOT
ATOM      1  C   LIG d   1       5.085  -2.373  -3.781  0.00  0.00     0.027 C 
ATOM      2  H   LIG d   1       4.627  -3.179  -3.208  0.00  0.00     0.040 H 
ATOM      3  C   LIG d   1       6.617  -2.401  -3.599  0.00  0.00    -0.041 C 
ATOM      4  C   LIG d   1       7.130  -3.199  -4.823  0.00  0.00    -0.047 C 
ATOM      5  C   LIG d   1       6.196  -2.720  -5.961  0.00  0.00    -0.009 C 
ATOM      6  C   LIG d   1       4.817  -2.576  -5.283  0.00  0.00    -0.017 C 
ATOM      7  H   LIG d   1       4.290  -1.713  -5.688  0.00  0.00     0.086 H 
ATOM      8  H   LIG d   1       7.020  -1.389  -3.607  0.00  0.00     0.027 H 
ATOM      9  H   LIG d   1       6.882  -2.910  -2.672  0.00  0.00     0.027 H 
ATOM     10  H   LIG d   1       7.021  -4.271  -4.658  0.00  0.00     0.027 H 
ATOM     11  H   LIG d   1       8.168  -2.948  -5.044  0.00  0.00     0.027 H 
ATOM     12  H   LIG d   1       6.153  -3.462  -6.757  0.00  0.00     0.032 H 
ATOM     13  H   LIG d   1       6.531  -1.759  -6.350  0.00  0.00     0.032 H 
ENDROOT
BRANCH   1  14
ATOM     14  C   LIG d   1       4.535  -1.044  -3.333  0.00  0.00    -0.039 A 
ATOM     15  C   LIG d   1       4.946  -0.494  -2.135  0.00  0.00    -0.058 A 
ATOM     16  C   LIG d   1       4.441   0.726  -1.724  0.00  0.00    -0.061 A 
ATOM     17  H   LIG d   1       5.662  -1.016  -1.517  0.00  0.00     0.062 H 
ATOM     18  C   LIG d   1       3.524   1.396  -2.513  0.00  0.00    -0.062 A 
ATOM     19  H   LIG d   1       4.762   1.156  -0.787  0.00  0.00     0.062 H 
ATOM     20  C   LIG d   1       3.113   0.845  -3.713  0.00  0.00    -0.061 A 
ATOM     21  H   LIG d   1       3.129   2.348  -2.193  0.00  0.00     0.062 H 
ATOM     22  C   LIG d   1       3.622  -0.373  -4.125  0.00  0.00    -0.058 A 
ATOM     23  H   LIG d   1       2.398   1.368  -4.330  0.00  0.00     0.062 H 
ATOM     24  H   LIG d   1       3.303  -0.801  -5.065  0.00  0.00     0.062 H 
ENDBRANCH   1  14
BRANCH   6  25
ATOM     25  N   LIG d   1       4.003  -3.789  -5.479  0.00  0.00     0.221 N 
ATOM     26  H   LIG d   1       4.225  -4.477  -4.761  0.00  0.00     0.200 HD
ATOM     27  H   LIG d   1       3.012  -3.556  -5.432  0.00  0.00     0.200 HD
ATOM     28  H   LIG d   1       4.210  -4.188  -6.401  0.00  0.00     0.200 HD
ENDBRANCH   6  25
TORSDOF 2
ENDMDL
MODEL 2
REMARK VINA RESULT:      -5.4      2.040      4.691
REMARK  2 active torsions:
REMARK  status: ('A' for Active; 'I' for Inactive)
REMARK    1  A    between atoms: C_4  and  C_7 
REMARK    2  A    between atoms: C_12  and  N_27 
ROOT
ATOM      1  C   LIG d   1       4.989  -1.159  -2.918  0.00  0.00     0.027 C 
ATOM      2  H   LIG d   1       5.453  -0.801  -1.999  0.00  0.00     0.040 H 
ATOM      3  C   LIG d   1       3.624  -1.805  -2.604  0.00  0.00    -0.041 C 
ATOM      4  C   LIG d   1       2.601  -0.669  -2.849  0.00  0.00    -0.047 C 
ATOM      5  C   LIG d   1       3.183   0.055  -4.088  0.00  0.00    -0.009 C 
ATOM      6  C   LIG d   1       4.709   0.025  -3.862  0.00  0.00    -0.017 C 
ATOM      7  H   LIG d   1       5.224  -0.123  -4.811  0.00  0.00     0.086 H 
ATOM      8  H   LIG d   1       3.435  -2.641  -3.277  0.00  0.00     0.027 H 
ATOM      9  H   LIG d   1       3.588  -2.135  -1.566  0.00  0.00     0.027 H 
ATOM     10  H   LIG d   1       2.558   0.003  -1.993  0.00  0.00     0.027 H 
ATOM     11  H   LIG d   1       1.613  -1.076  -3.069  0.00  0.00     0.027 H 
ATOM     12  H   LIG d   1       2.825   1.083  -4.132  0.00  0.00     0.032 H 
ATOM     13  H   LIG d   1       2.922  -0.481  -5.001  0.00  0.00     0.032 H 
ENDROOT
BRANCH   1  14
ATOM     14  C   LIG d   1       5.892  -2.157  -3.597  0.00  0.00    -0.039 A 
ATOM     15  C   LIG d   1       5.358  -3.098  -4.456  0.00  0.00    -0.058 A 
ATOM     16  C   LIG d   1       6.186  -4.014  -5.079  0.00  0.00    -0.061 A 
ATOM     17  H   LIG d   1       4.295  -3.119  -4.642  0.00  0.00     0.062 H 
ATOM     18  C   LIG d   1       7.548  -3.988  -4.841  0.00  0.00    -0.062 A 
ATOM     19  H   LIG d   1       5.769  -4.749  -5.750  0.00  0.00     0.062 H 
ATOM     20  C   LIG d   1       8.081  -3.046  -3.982  0.00  0.00    -0.061 A 
ATOM     21  H   LIG d   1       8.194  -4.703  -5.327  0.00  0.00     0.062 H 
ATOM     22  C   LIG d   1       7.254  -2.127  -3.363  0.00  0.00    -0.058 A 
ATOM     23  H   LIG d   1       9.145  -3.024  -3.797  0.00  0.00     0.062 H 
ATOM     24  H   LIG d   1       7.671  -1.389  -2.694  0.00  0.00     0.062 H 
ENDBRANCH   1  14
BRANCH   6  25
ATOM     25  N   LIG d   1       5.175   1.276  -3.237  0.00  0.00     0.221 N 
ATOM     26  H   LIG d   1       4.379   1.814  -2.899  0.00  0.00     0.200 HD
ATOM     27  H   LIG d   1       5.798   1.066  -2.458  0.00  0.00     0.200 HD
ATOM     28  H   LIG d   1       5.684   1.831  -3.933  0.00  0.00     0.200 HD
ENDBRANCH   6  25
TORSDOF 2
ENDMDL
MODEL 3
REMARK VINA RESULT:      -5.2      2.918      3.336
REMARK  2 active torsions:
REMARK  status: ('A' for Active; 'I' for Inactive)
REMARK    1  A    between atoms: C_4  and  C_7 
REMARK    2  A    between atoms: C_12  and  N_27 
ROOT
ATOM      1  C   LIG d   1       7.329   0.308  -3.523  0.00  0.00     0.027 C 
ATOM      2  H   LIG d   1       8.018  -0.001  -2.736  0.00  0.00     0.040 H 
ATOM      3  C   LIG d   1       7.572   1.788  -3.885  0.00  0.00    -0.041 C 
ATOM      4  C   LIG d   1       8.518   1.730  -5.109  0.00  0.00    -0.047 C 
ATOM      5  C   LIG d   1       7.984   0.508  -5.897  0.00  0.00    -0.009 C 
ATOM      6  C   LIG d   1       7.592  -0.506  -4.803  0.00  0.00    -0.017 C 
ATOM      7  H   LIG d   1       6.689  -1.043  -5.096  0.00  0.00     0.086 H 
ATOM      8  H   LIG d   1       6.633   2.274  -4.151  0.00  0.00     0.027 H 
ATOM      9  H   LIG d   1       8.050   2.310  -3.056  0.00  0.00     0.027 H 
ATOM     10  H   LIG d   1       9.549   1.566  -4.793  0.00  0.00     0.027 H 
ATOM     11  H   LIG d   1       8.439   2.639  -5.706  0.00  0.00     0.027 H 
ATOM     12  H   LIG d   1       8.764   0.096  -6.536  0.00  0.00     0.032 H 
ATOM     13  H   LIG d   1       7.112   0.787  -6.488  0.00  0.00     0.032 H 
ENDROOT
BRANCH   1  14
ATOM     14  C   LIG d   1       5.906   0.112  -3.069  0.00  0.00    -0.039 A 
ATOM     15  C   LIG d   1       5.122   1.207  -2.759  0.00  0.00    -0.058 A 
ATOM     16  C   LIG d   1       3.816   1.028  -2.343  0.00  0.00    -0.061 A 
ATOM     17  H   LIG d   1       5.529   2.204  -2.842  0.00  0.00     0.062 H 
ATOM     18  C   LIG d   1       3.294  -0.249  -2.237  0.00  0.00    -0.062 A 
ATOM     19  H   LIG d   1       3.204   1.883  -2.101  0.00  0.00     0.062 H 
ATOM     20  C   LIG d   1       4.078  -1.344  -2.548  0.00  0.00    -0.061 A 
ATOM     21  H   LIG d   1       2.274  -0.389  -1.912  0.00  0.00     0.062 H 
ATOM     22  C   LIG d   1       5.383  -1.163  -2.968  0.00  0.00    -0.058 A 
ATOM     23  H   LIG d   1       3.670  -2.341  -2.466  0.00  0.00     0.062 H 
ATOM     24  H   LIG d   1       5.994  -2.020  -3.214  0.00  0.00     0.062 H 
ENDBRANCH   1  14
BRANCH   6  25
ATOM     25  N   LIG d   1       8.681  -1.469  -4.560  0.00  0.00     0.221 N 
ATOM     26  H   LIG d   1       8.795  -2.078  -5.369  0.00  0.00     0.200 HD
ATOM     27  H   LIG d   1       9.553  -0.973  -4.383  0.00  0.00     0.200 HD
ATOM     28  H   LIG d   1       8.449  -2.041  -3.740  0.00  0.00     0.200 HD
ENDBRANCH   6  25
TORSDOF 2
ENDMDL
MODEL 4
REMARK VINA RESULT:      -5.1      2.841      4.590
REMARK  2 active torsions:
REMARK  status: ('A' for Active; 'I' for Inactive)
REMARK    1  A    between atoms: C_4  and  C_7 
REMARK    2  A    between atoms: C_12  and  N_27 
ROOT
ATOM      1  C   LIG d   1       4.291  -0.574  -4.694  0.00  0.00     0.027 C 
ATOM      2  H   LIG d   1       5.260  -0.080  -4.629  0.00  0.00     0.040 H 
ATOM      3  C   LIG d   1       4.359  -1.960  -4.019  0.00  0.00    -0.041 C 
ATOM      4  C   LIG d   1       3.834  -1.711  -2.584  0.00  0.00    -0.047 C 
ATOM      5  C   LIG d   1       2.696  -0.684  -2.809  0.00  0.00    -0.009 C 
ATOM      6  C   LIG d   1       3.233   0.238  -3.924  0.00  0.00    -0.017 C 
ATOM      7  H   LIG d   1       2.423   0.526  -4.594  0.00  0.00     0.086 H 
ATOM      8  H   LIG d   1       3.718  -2.670  -4.542  0.00  0.00     0.027 H 
ATOM      9  H   LIG d   1       5.387  -2.322  -3.993  0.00  0.00     0.027 H 
ATOM     10  H   LIG d   1       4.617  -1.288  -1.954  0.00  0.00     0.027 H 
ATOM     11  H   LIG d   1       3.443  -2.631  -2.147  0.00  0.00     0.027 H 
ATOM     12  H   LIG d   1       2.511  -0.114  -1.900  0.00  0.00     0.032 H 
ATOM     13  H   LIG d   1       1.787  -1.189  -3.137  0.00  0.00     0.032 H 
ENDROOT
BRANCH   1  14
ATOM     14  C   LIG d   1       3.880  -0.719  -6.136  0.00  0.00    -0.039 A 
ATOM     15  C   LIG d   1       4.413  -1.735  -6.907  0.00  0.00    -0.058 A 
ATOM     16  C   LIG d   1       4.036  -1.869  -8.231  0.00  0.00    -0.061 A 
ATOM     17  H   LIG d   1       5.123  -2.425  -6.477  0.00  0.00     0.062 H 
ATOM     18  C   LIG d   1       3.127  -0.986  -8.783  0.00  0.00    -0.062 A 
ATOM     19  H   LIG d   1       4.452  -2.662  -8.833  0.00  0.00     0.062 H 
ATOM     20  C   LIG d   1       2.594   0.030  -8.011  0.00  0.00    -0.061 A 
ATOM     21  H   LIG d   1       2.833  -1.089  -9.817  0.00  0.00     0.062 H 
ATOM     22  C   LIG d   1       2.968   0.160  -6.687  0.00  0.00    -0.058 A 
ATOM     23  H   LIG d   1       1.883   0.719  -8.442  0.00  0.00     0.062 H 
ATOM     24  H   LIG d   1       2.548   0.952  -6.082  0.00  0.00     0.062 H 
ENDBRANCH   1  14
BRANCH   6  25
ATOM     25  N   LIG d   1       3.857   1.446  -3.355  0.00  0.00     0.221 N 
ATOM     26  H   LIG d   1       4.522   1.186  -2.629  0.00  0.00     0.200 HD
ATOM     27  H   LIG d   1       4.339   1.967  -4.086  0.00  0.00     0.200 HD
ATOM     28  H   LIG d   1       3.128   2.040  -2.945  0.00  0.00     0.200 HD
ENDBRANCH   6  25
TORSDOF 2
ENDMDL
MODEL 5
REMARK VINA RESULT:      -5.0      1.507      4.322
REMARK  2 active torsions:
REMARK  status: ('A' for Active; 'I' for Inactive)
REMARK    1  A    between atoms: C_4  and  C_7 
REMARK    2  A    between atoms: C_12  and  N_27 
ROOT
ATOM      1  C   LIG d   1       4.985  -0.319  -4.065  0.00  0.00     0.027 C 
ATOM      2  H   LIG d   1       5.169   0.375  -4.886  0.00  0.00     0.040 H 
ATOM      3  C   LIG d   1       5.282   0.368  -2.716  0.00  0.00    -0.041 C 
ATOM      4  C   LIG d   1       3.900   0.876  -2.237  0.00  0.00    -0.047 C 
ATOM      5  C   LIG d   1       2.946  -0.263  -2.672  0.00  0.00    -0.009 C 
ATOM      6  C   LIG d   1       3.499  -0.720  -4.037  0.00  0.00    -0.017 C 
ATOM      7  H   LIG d   1       3.403  -1.801  -4.138  0.00  0.00     0.086 H 
ATOM      8  H   LIG d   1       5.692  -0.350  -2.006  0.00  0.00     0.027 H 
ATOM      9  H   LIG d   1       5.969   1.202  -2.855  0.00  0.00     0.027 H 
ATOM     10  H   LIG d   1       3.638   1.811  -2.734  0.00  0.00     0.027 H 
ATOM     11  H   LIG d   1       3.885   1.000  -1.153  0.00  0.00     0.027 H 
ATOM     12  H   LIG d   1       1.929   0.111  -2.779  0.00  0.00     0.032 H 
ATOM     13  H   LIG d   1       2.979  -1.083  -1.954  0.00  0.00     0.032 H 
ENDROOT
BRANCH   1  14
ATOM     14  C   LIG d   1       5.848  -1.544  -4.224  0.00  0.00    -0.039 A 
ATOM     15  C   LIG d   1       7.089  -1.598  -3.619  0.00  0.00    -0.058 A 
ATOM     16  C   LIG d   1       7.881  -2.722  -3.764  0.00  0.00    -0.061 A 
ATOM     17  H   LIG d   1       7.442  -0.763  -3.032  0.00  0.00     0.062 H 
ATOM     18  C   LIG d   1       7.430  -3.793  -4.515  0.00  0.00    -0.062 A 
ATOM     19  H   LIG d   1       8.850  -2.765  -3.291  0.00  0.00     0.062 H 
ATOM     20  C   LIG d   1       6.188  -3.738  -5.119  0.00  0.00    -0.061 A 
ATOM     21  H   LIG d   1       8.048  -4.670  -4.629  0.00  0.00     0.062 H 
ATOM     22  C   LIG d   1       5.395  -2.616  -4.970  0.00  0.00    -0.058 A 
ATOM     23  H   LIG d   1       5.836  -4.574  -5.705  0.00  0.00     0.062 H 
ATOM     24  H   LIG d   1       4.423  -2.575  -5.440  0.00  0.00     0.062 H 
ENDBRANCH   1  14
BRANCH   6  25
ATOM     25  N   LIG d   1       2.788  -0.056  -5.145  0.00  0.00     0.221 N 
ATOM     26  H   LIG d   1       3.447   0.472  -5.714  0.00  0.00     0.200 HD
ATOM     27  H   LIG d   1       2.319  -0.750  -5.725  0.00  0.00     0.200 HD
ATOM     28  H   LIG d   1       2.088   0.587  -4.758  0.00  0.00     0.200 HD
ENDBRANCH   6  25
TORSDOF 2
ENDMDL
MODEL 6
REMARK VINA RESULT:      -5.0      2.326      4.294
REMARK  2 active torsions:
REMARK  status: ('A' for Active; 'I' for Inactive)
REMARK    1  A    between atoms: C_4  and  C_7 
REMARK    2  A    between atoms: C_12  and  N_27 
ROOT
ATOM      1  C   LIG d   1       4.542  -0.686  -3.764  0.00  0.00     0.027 C 
ATOM      2  H   LIG d   1       4.704  -1.717  -3.450  0.00  0.00     0.040 H 
ATOM      3  C   LIG d   1       3.511  -0.008  -2.838  0.00  0.00    -0.041 C 
ATOM      4  C   LIG d   1       4.374   0.733  -1.787  0.00  0.00    -0.047 C 
ATOM      5  C   LIG d   1       5.564   1.255  -2.628  0.00  0.00    -0.009 C 
ATOM      6  C   LIG d   1       5.848   0.117  -3.631  0.00  0.00    -0.017 C 
ATOM      7  H   LIG d   1       6.132   0.532  -4.598  0.00  0.00     0.086 H 
ATOM      8  H   LIG d   1       2.902   0.701  -3.400  0.00  0.00     0.027 H 
ATOM      9  H   LIG d   1       2.880  -0.755  -2.357  0.00  0.00     0.027 H 
ATOM     10  H   LIG d   1       4.718   0.045  -1.015  0.00  0.00     0.027 H 
ATOM     11  H   LIG d   1       3.821   1.563  -1.344  0.00  0.00     0.027 H 
ATOM     12  H   LIG d   1       6.433   1.429  -1.994  0.00  0.00     0.032 H 
ATOM     13  H   LIG d   1       5.287   2.167  -3.157  0.00  0.00     0.032 H 
ENDROOT
BRANCH   1  14
ATOM     14  C   LIG d   1       4.058  -0.652  -5.191  0.00  0.00    -0.039 A 
ATOM     15  C   LIG d   1       3.071   0.239  -5.565  0.00  0.00    -0.058 A 
ATOM     16  C   LIG d   1       2.627   0.272  -6.874  0.00  0.00    -0.061 A 
ATOM     17  H   LIG d   1       2.645   0.912  -4.835  0.00  0.00     0.062 H 
ATOM     18  C   LIG d   1       3.172  -0.589  -7.809  0.00  0.00    -0.062 A 
ATOM     19  H   LIG d   1       1.856   0.968  -7.166  0.00  0.00     0.062 H 
ATOM     20  C   LIG d   1       4.160  -1.481  -7.435  0.00  0.00    -0.061 A 
ATOM     21  H   LIG d   1       2.825  -0.565  -8.831  0.00  0.00     0.062 H 
ATOM     22  C   LIG d   1       4.606  -1.509  -6.127  0.00  0.00    -0.058 A 
ATOM     23  H   LIG d   1       4.586  -2.153  -8.165  0.00  0.00     0.062 H 
ATOM     24  H   LIG d   1       5.381  -2.203  -5.835  0.00  0.00     0.062 H 
ENDBRANCH   1  14
BRANCH   6  25
ATOM     25  N   LIG d   1       6.921  -0.765  -3.138  0.00  0.00     0.221 N 
ATOM     26  H   LIG d   1       7.339  -0.370  -2.297  0.00  0.00     0.200 HD
ATOM     27  H   LIG d   1       6.546  -1.689  -2.928  0.00  0.00     0.200 HD
ATOM     28  H   LIG d   1       7.643  -0.853  -3.861  0.00  0.00     0.200 HD
ENDBRANCH   6  25
TORSDOF 2
ENDMDL
MODEL 7
REMARK VINA RESULT:      -4.9      1.817      2.213
REMARK  2 active torsions:
REMARK  status: ('A' for Active; 'I' for Inactive)
REMARK    1  A    between atoms: C_4  and  C_7 
REMARK    2  A    between atoms: C_12  and  N_27 
ROOT
ATOM      1  C   LIG d   1       6.605  -2.085  -4.346  0.00  0.00     0.027 C 
ATOM      2  H   LIG d   1       5.915  -2.848  -4.707  0.00  0.00     0.040 H 
ATOM      3  C   LIG d   1       7.766  -2.747  -3.575  0.00  0.00    -0.041 C 
ATOM      4  C   LIG d   1       8.893  -2.884  -4.627  0.00  0.00    -0.047 C 
ATOM      5  C   LIG d   1       8.759  -1.576  -5.445  0.00  0.00    -0.009 C 
ATOM      6  C   LIG d   1       7.237  -1.341  -5.537  0.00  0.00    -0.017 C 
ATOM      7  H   LIG d   1       7.018  -0.275  -5.469  0.00  0.00     0.086 H 
ATOM      8  H   LIG d   1       8.088  -2.109  -2.751  0.00  0.00     0.027 H 
ATOM      9  H   LIG d   1       7.468  -3.727  -3.203  0.00  0.00     0.027 H 
ATOM     10  H   LIG d   1       8.726  -3.755  -5.261  0.00  0.00     0.027 H 
ATOM     11  H   LIG d   1       9.870  -2.940  -4.146  0.00  0.00     0.027 H 
ATOM     12  H   LIG d   1       9.185  -1.702  -6.440  0.00  0.00     0.032 H 
ATOM     13  H   LIG d   1       9.241  -0.749  -4.924  0.00  0.00     0.032 H 
ENDROOT
BRANCH   1  14
ATOM     14  C   LIG d   1       5.878  -1.112  -3.455  0.00  0.00    -0.039 A 
ATOM     15  C   LIG d   1       6.162   0.238  -3.531  0.00  0.00    -0.058 A 
ATOM     16  C   LIG d   1       5.495   1.132  -2.714  0.00  0.00    -0.061 A 
ATOM     17  H   LIG d   1       6.904   0.597  -4.228  0.00  0.00     0.062 H 
ATOM     18  C   LIG d   1       4.544   0.674  -1.820  0.00  0.00    -0.062 A 
ATOM     19  H   LIG d   1       5.716   2.187  -2.772  0.00  0.00     0.062 H 
ATOM     20  C   LIG d   1       4.261  -0.676  -1.745  0.00  0.00    -0.061 A 
ATOM     21  H   LIG d   1       4.024   1.371  -1.181  0.00  0.00     0.062 H 
ATOM     22  C   LIG d   1       4.925  -1.569  -2.566  0.00  0.00    -0.058 A 
ATOM     23  H   LIG d   1       3.518  -1.035  -1.048  0.00  0.00     0.062 H 
ATOM     24  H   LIG d   1       4.700  -2.625  -2.509  0.00  0.00     0.062 H 
ENDBRANCH   1  14
BRANCH   6  25
ATOM     25  N   LIG d   1       6.694  -1.877  -6.798  0.00  0.00     0.221 N 
ATOM     26  H   LIG d   1       6.486  -2.868  -6.693  0.00  0.00     0.200 HD
ATOM     27  H   LIG d   1       5.844  -1.377  -7.053  0.00  0.00     0.200 HD
ATOM     28  H   LIG d   1       7.390  -1.757  -7.542  0.00  0.00     0.200 HD
ENDBRANCH   6  25
TORSDOF 2
ENDMDL
MODEL 8
REMARK VINA RESULT:      -4.9      2.391      3.636
REMARK  2 active torsions:
REMARK  status: ('A' for Active; 'I' for Inactive)
REMARK    1  A    between atoms: C_4  and  C_7 
REMARK    2  A    between atoms: C_12  and  N_27 
ROOT
ATOM      1  C   LIG d   1       4.573  -0.902  -4.442  0.00  0.00     0.027 C 
ATOM      2  H   LIG d   1       4.215  -1.235  -5.416  0.00  0.00     0.040 H 
ATOM      3  C   LIG d   1       3.498  -0.039  -3.750  0.00  0.00    -0.041 C 
ATOM      4  C   LIG d   1       2.746  -1.034  -2.831  0.00  0.00    -0.047 C 
ATOM      5  C   LIG d   1       3.884  -1.946  -2.312  0.00  0.00    -0.009 C 
ATOM      6  C   LIG d   1       4.819  -2.115  -3.527  0.00  0.00    -0.017 C 
ATOM      7  H   LIG d   1       5.859  -2.132  -3.200  0.00  0.00     0.086 H 
ATOM      8  H   LIG d   1       3.963   0.749  -3.159  0.00  0.00     0.027 H 
ATOM      9  H   LIG d   1       2.818   0.388  -4.488  0.00  0.00     0.027 H 
ATOM     10  H   LIG d   1       2.017  -1.610  -3.401  0.00  0.00     0.027 H 
ATOM     11  H   LIG d   1       2.262  -0.511  -2.005  0.00  0.00     0.027 H 
ATOM     12  H   LIG d   1       3.487  -2.912  -2.000  0.00  0.00     0.032 H 
ATOM     13  H   LIG d   1       4.412  -1.466  -1.488  0.00  0.00     0.032 H 
ENDROOT
BRANCH   1  14
ATOM     14  C   LIG d   1       5.846  -0.111  -4.604  0.00  0.00    -0.039 A 
ATOM     15  C   LIG d   1       6.312   0.670  -3.563  0.00  0.00    -0.058 A 
ATOM     16  C   LIG d   1       7.479   1.395  -3.711  0.00  0.00    -0.061 A 
ATOM     17  H   LIG d   1       5.764   0.714  -2.634  0.00  0.00     0.062 H 
ATOM     18  C   LIG d   1       8.181   1.339  -4.901  0.00  0.00    -0.062 A 
ATOM     19  H   LIG d   1       7.843   2.005  -2.899  0.00  0.00     0.062 H 
ATOM     20  C   LIG d   1       7.716   0.557  -5.942  0.00  0.00    -0.061 A 
ATOM     21  H   LIG d   1       9.093   1.905  -5.018  0.00  0.00     0.062 H 
ATOM     22  C   LIG d   1       6.550  -0.171  -5.792  0.00  0.00    -0.058 A 
ATOM     23  H   LIG d   1       8.264   0.512  -6.871  0.00  0.00     0.062 H 
ATOM     24  H   LIG d   1       6.188  -0.786  -6.604  0.00  0.00     0.062 H 
ENDBRANCH   1  14
BRANCH   6  25
ATOM     25  N   LIG d   1       4.513  -3.356  -4.261  0.00  0.00     0.221 N 
ATOM     26  H   LIG d   1       5.283  -4.016  -4.164  0.00  0.00     0.200 HD
ATOM     27  H   LIG d   1       3.658  -3.775  -3.898  0.00  0.00     0.200 HD
ATOM     28  H   LIG d   1       4.383  -3.136  -5.255  0.00  0.00     0.200 HD
ENDBRANCH   6  25
TORSDOF 2
ENDMDL
MODEL 9
REMARK VINA RESULT:      -4.8      3.625      5.136
REMARK  2 active torsions:
REMARK  status: ('A' for Active; 'I' for Inactive)
REMARK    1  A    between atoms: C_4  and  C_7 
REMARK    2  A    between atoms: C_12  and  N_27 
ROOT
ATOM      1  C   LIG d   1       3.154  -0.298  -6.417  0.00  0.00     0.027 C 
ATOM      2  H   LIG d   1       2.483  -1.064  -6.805  0.00  0.00     0.040 H 
ATOM      3  C   LIG d   1       2.428   0.550  -5.352  0.00  0.00    -0.041 C 
ATOM      4  C   LIG d   1       2.833  -0.102  -4.007  0.00  0.00    -0.047 C 
ATOM      5  C   LIG d   1       4.314  -0.485  -4.243  0.00  0.00    -0.009 C 
ATOM      6  C   LIG d   1       4.354  -0.956  -5.712  0.00  0.00    -0.017 C 
ATOM      7  H   LIG d   1       5.284  -0.638  -6.182  0.00  0.00     0.086 H 
ATOM      8  H   LIG d   1       2.768   1.585  -5.391  0.00  0.00     0.027 H 
ATOM      9  H   LIG d   1       1.349   0.498  -5.492  0.00  0.00     0.027 H 
ATOM     10  H   LIG d   1       2.230  -0.990  -3.811  0.00  0.00     0.027 H 
ATOM     11  H   LIG d   1       2.744   0.611  -3.186  0.00  0.00     0.027 H 
ATOM     12  H   LIG d   1       4.611  -1.293  -3.576  0.00  0.00     0.032 H 
ATOM     13  H   LIG d   1       4.959   0.383  -4.105  0.00  0.00     0.032 H 
ENDROOT
BRANCH   1  14
ATOM     14  C   LIG d   1       3.635   0.584  -7.540  0.00  0.00    -0.039 A 
ATOM     15  C   LIG d   1       2.803   1.556  -8.061  0.00  0.00    -0.058 A 
ATOM     16  C   LIG d   1       3.245   2.365  -9.091  0.00  0.00    -0.061 A 
ATOM     17  H   LIG d   1       1.808   1.685  -7.663  0.00  0.00     0.062 H 
ATOM     18  C   LIG d   1       4.519   2.200  -9.602  0.00  0.00    -0.062 A 
ATOM     19  H   LIG d   1       2.595   3.125  -9.498  0.00  0.00     0.062 H 
ATOM     20  C   LIG d   1       5.352   1.228  -9.080  0.00  0.00    -0.061 A 
ATOM     21  H   LIG d   1       4.864   2.831 -10.407  0.00  0.00     0.062 H 
ATOM     22  C   LIG d   1       4.911   0.422  -8.047  0.00  0.00    -0.058 A 
ATOM     23  H   LIG d   1       6.348   1.099  -9.478  0.00  0.00     0.062 H 
ATOM     24  H   LIG d   1       5.563  -0.336  -7.637  0.00  0.00     0.062 H 
ENDBRANCH   1  14
BRANCH   6  25
ATOM     25  N   LIG d   1       4.233  -2.422  -5.800  0.00  0.00     0.221 N 
ATOM     26  H   LIG d   1       3.808  -2.788  -4.949  0.00  0.00     0.200 HD
ATOM     27  H   LIG d   1       3.660  -2.679  -6.602  0.00  0.00     0.200 HD
ATOM     28  H   LIG d   1       5.167  -2.831  -5.910  0.00  0.00     0.200 HD
ENDBRANCH   6  25
TORSDOF 2
ENDMDL
MODEL 10
REMARK VINA RESULT:      -4.7      1.342      1.997
REMARK  2 active torsions:
REMARK  status: ('A' for Active; 'I' for Inactive)
REMARK    1  A    between atoms: C_4  and  C_7 
REMARK    2  A    between atoms: C_12  and  N_27 
ROOT
ATOM      1  C   LIG d   1       4.778  -2.066  -5.099  0.00  0.00     0.027 C 
ATOM      2  H   LIG d   1       4.015  -2.089  -5.877  0.00  0.00     0.040 H 
ATOM      3  C   LIG d   1       4.917  -3.460  -4.453  0.00  0.00    -0.041 C 
ATOM      4  C   LIG d   1       6.096  -4.116  -5.213  0.00  0.00    -0.047 C 
ATOM      5  C   LIG d   1       7.070  -2.931  -5.422  0.00  0.00    -0.009 C 
ATOM      6  C   LIG d   1       6.148  -1.729  -5.715  0.00  0.00    -0.017 C 
ATOM      7  H   LIG d   1       6.552  -0.827  -5.257  0.00  0.00     0.086 H 
ATOM      8  H   LIG d   1       5.151  -3.367  -3.392  0.00  0.00     0.027 H 
ATOM      9  H   LIG d   1       4.003  -4.038  -4.592  0.00  0.00     0.027 H 
ATOM     10  H   LIG d   1       5.763  -4.516  -6.171  0.00  0.00     0.027 H 
ATOM     11  H   LIG d   1       6.561  -4.897  -4.610  0.00  0.00     0.027 H 
ATOM     12  H   LIG d   1       7.728  -3.122  -6.268  0.00  0.00     0.032 H 
ATOM     13  H   LIG d   1       7.652  -2.752  -4.517  0.00  0.00     0.032 H 
ENDROOT
BRANCH   1  14
ATOM     14  C   LIG d   1       4.417  -1.043  -4.053  0.00  0.00    -0.039 A 
ATOM     15  C   LIG d   1       3.656   0.057  -4.396  0.00  0.00    -0.058 A 
ATOM     16  C   LIG d   1       3.325   0.996  -3.436  0.00  0.00    -0.061 A 
ATOM     17  H   LIG d   1       3.320   0.186  -5.414  0.00  0.00     0.062 H 
ATOM     18  C   LIG d   1       3.756   0.833  -2.132  0.00  0.00    -0.062 A 
ATOM     19  H   LIG d   1       2.730   1.856  -3.704  0.00  0.00     0.062 H 
ATOM     20  C   LIG d   1       4.517  -0.269  -1.789  0.00  0.00    -0.061 A 
ATOM     21  H   LIG d   1       3.498   1.565  -1.383  0.00  0.00     0.062 H 
ATOM     22  C   LIG d   1       4.844  -1.209  -2.749  0.00  0.00    -0.058 A 
ATOM     23  H   LIG d   1       4.853  -0.398  -0.771  0.00  0.00     0.062 H 
ATOM     24  H   LIG d   1       5.436  -2.073  -2.479  0.00  0.00     0.062 H 
ENDBRANCH   1  14
BRANCH   6  25
ATOM     25  N   LIG d   1       5.998  -1.521  -7.167  0.00  0.00     0.221 N 
ATOM     26  H   LIG d   1       5.987  -0.524  -7.376  0.00  0.00     0.200 HD
ATOM     27  H   LIG d   1       6.769  -1.964  -7.665  0.00  0.00     0.200 HD
ATOM     28  H   LIG d   1       5.114  -1.939  -7.477  0.00  0.00     0.200 HD
ENDBRANCH   6  25
TORSDOF 2
ENDMDL
