MODEL 1
REMARK VINA RESULT:      -7.5      0.000      0.000
REMARK  6 active torsions:
REMARK  status: ('A' for Active; 'I' for Inactive)
REMARK    1  A    between atoms: C_1  and  C_2 
REMARK    2  A    between atoms: C_2  and  C_4 
REMARK    3  A    between atoms: C_2  and  N_10 
REMARK    4  A    between atoms: C_11  and  C_13 
REMARK    5  A    between atoms: C_13  and  C_14 
REMARK    6  A    between atoms: C_13  and  C_18 
ROOT
ATOM      1  C   LIG d   1       4.718  -0.926  -7.081  0.00  0.00     0.072 C 
ATOM      2  H   LIG d   1       5.801  -1.006  -6.986  0.00  0.00     0.059 H 
ENDROOT
BRANCH   1   3
ATOM      3  C   LIG d   1       4.182  -2.136  -7.849  0.00  0.00    -0.039 C 
ATOM      4  H   LIG d   1       3.984  -1.851  -8.883  0.00  0.00     0.025 H 
ATOM      5  H   LIG d   1       4.921  -2.936  -7.828  0.00  0.00     0.025 H 
ATOM      6  H   LIG d   1       3.258  -2.480  -7.384  0.00  0.00     0.025 H 
ENDBRANCH   1   3
BRANCH   1   7
ATOM      7  C   LIG d   1       4.373   0.337  -7.828  0.00  0.00    -0.024 A 
ATOM      8  C   LIG d   1       5.355   1.023  -8.517  0.00  0.00    -0.057 A 
ATOM      9  C   LIG d   1       5.037   2.179  -9.205  0.00  0.00    -0.061 A 
ATOM     10  H   LIG d   1       6.371   0.655  -8.519  0.00  0.00     0.062 H 
ATOM     11  C   LIG d   1       3.739   2.653  -9.198  0.00  0.00    -0.062 A 
ATOM     12  H   LIG d   1       5.805   2.713  -9.746  0.00  0.00     0.062 H 
ATOM     13  C   LIG d   1       2.757   1.969  -8.506  0.00  0.00    -0.061 A 
ATOM     14  H   LIG d   1       3.491   3.557  -9.735  0.00  0.00     0.062 H 
ATOM     15  C   LIG d   1       3.074   0.811  -7.820  0.00  0.00    -0.057 A 
ATOM     16  H   LIG d   1       1.743   2.339  -8.501  0.00  0.00     0.062 H 
ATOM     17  H   LIG d   1       2.307   0.276  -7.279  0.00  0.00     0.062 H 
ENDBRANCH   1   7
BRANCH   1  18
ATOM     18  N   LIG d   1       4.112  -0.886  -5.748  0.00  0.00    -0.294 NA
ATOM     19  C   LIG d   1       4.762  -0.375  -4.758  0.00  0.00    -0.002 C 
ATOM     20  O   LIG d   1       6.002   0.123  -4.950  0.00  0.00    -0.862 OA
BRANCH  19  21
ATOM     21  C   LIG d   1       4.138  -0.334  -3.387  0.00  0.00     0.261 C 
ATOM     22 CL   LIG d   1       2.346  -0.459  -3.539  0.00  0.00    -0.094 Cl
BRANCH  21  23
ATOM     23  C   LIG d   1       4.663  -1.503  -2.553  0.00  0.00     0.421 C 
ATOM     24  F   LIG d   1       6.014  -1.717  -2.845  0.00  0.00    -0.168 F 
ATOM     25  F   LIG d   1       4.522  -1.206  -1.193  0.00  0.00    -0.168 F 
ATOM     26  F   LIG d   1       3.933  -2.657  -2.856  0.00  0.00    -0.168 F 
ENDBRANCH  21  23
BRANCH  21  27
ATOM     27  C   LIG d   1       4.501   0.986  -2.701  0.00  0.00     0.421 C 
ATOM     28  F   LIG d   1       4.120   2.055  -3.518  0.00  0.00    -0.168 F 
ATOM     29  F   LIG d   1       3.831   1.073  -1.475  0.00  0.00    -0.168 F 
ATOM     30  F   LIG d   1       5.882   1.034  -2.482  0.00  0.00    -0.168 F 
ENDBRANCH  21  27
ENDBRANCH  19  21
ENDBRANCH   1  18
TORSDOF 6
ENDMDL
MODEL 2
REMARK VINA RESULT:      -7.4      1.219      2.282
REMARK  6 active torsions:
REMARK  status: ('A' for Active; 'I' for Inactive)
REMARK    1  A    between atoms: C_1  and  C_2 
REMARK    2  A    between atoms: C_2  and  C_4 
REMARK    3  A    between atoms: C_2  and  N_10 
REMARK    4  A    between atoms: C_11  and  C_13 
REMARK    5  A    between atoms: C_13  and  C_14 
REMARK    6  A    between atoms: C_13  and  C_18 
ROOT
ATOM      1  C   LIG d   1       4.697  -0.979  -7.180  0.00  0.00     0.072 C 
ATOM      2  H   LIG d   1       5.772  -1.154  -7.228  0.00  0.00     0.059 H 
ENDROOT
BRANCH   1   3
ATOM      3  C   LIG d   1       3.961  -2.143  -7.847  0.00  0.00    -0.039 C 
ATOM      4  H   LIG d   1       2.908  -2.114  -7.567  0.00  0.00     0.025 H 
ATOM      5  H   LIG d   1       4.052  -2.058  -8.930  0.00  0.00     0.025 H 
ATOM      6  H   LIG d   1       4.398  -3.086  -7.518  0.00  0.00     0.025 H 
ENDBRANCH   1   3
BRANCH   1   7
ATOM      7  C   LIG d   1       4.365   0.303  -7.899  0.00  0.00    -0.024 A 
ATOM      8  C   LIG d   1       5.348   0.978  -8.598  0.00  0.00    -0.057 A 
ATOM      9  C   LIG d   1       5.042   2.152  -9.260  0.00  0.00    -0.061 A 
ATOM     10  H   LIG d   1       6.354   0.587  -8.629  0.00  0.00     0.062 H 
ATOM     11  C   LIG d   1       3.755   2.655  -9.216  0.00  0.00    -0.062 A 
ATOM     12  H   LIG d   1       5.809   2.677  -9.810  0.00  0.00     0.062 H 
ATOM     13  C   LIG d   1       2.773   1.982  -8.513  0.00  0.00    -0.061 A 
ATOM     14  H   LIG d   1       3.516   3.574  -9.732  0.00  0.00     0.062 H 
ATOM     15  C   LIG d   1       3.078   0.807  -7.853  0.00  0.00    -0.057 A 
ATOM     16  H   LIG d   1       1.768   2.376  -8.479  0.00  0.00     0.062 H 
ATOM     17  H   LIG d   1       2.311   0.281  -7.304  0.00  0.00     0.062 H 
ENDBRANCH   1   7
BRANCH   1  18
ATOM     18  N   LIG d   1       4.281  -0.877  -5.780  0.00  0.00    -0.294 NA
ATOM     19  C   LIG d   1       5.060  -0.321  -4.913  0.00  0.00    -0.002 C 
ATOM     20  O   LIG d   1       6.258   0.164  -5.298  0.00  0.00    -0.862 OA
BRANCH  19  21
ATOM     21  C   LIG d   1       4.630  -0.216  -3.473  0.00  0.00     0.261 C 
ATOM     22 CL   LIG d   1       5.628   1.033  -2.638  0.00  0.00    -0.094 Cl
BRANCH  21  23
ATOM     23  C   LIG d   1       3.155   0.182  -3.408  0.00  0.00     0.421 C 
ATOM     24  F   LIG d   1       2.358  -0.966  -3.467  0.00  0.00    -0.168 F 
ATOM     25  F   LIG d   1       2.907   0.861  -2.210  0.00  0.00    -0.168 F 
ATOM     26  F   LIG d   1       2.850   1.017  -4.488  0.00  0.00    -0.168 F 
ENDBRANCH  21  23
BRANCH  21  27
ATOM     27  C   LIG d   1       4.824  -1.568  -2.782  0.00  0.00     0.421 C 
ATOM     28  F   LIG d   1       4.381  -1.482  -1.458  0.00  0.00    -0.168 F 
ATOM     29  F   LIG d   1       4.088  -2.547  -3.458  0.00  0.00    -0.168 F 
ATOM     30  F   LIG d   1       6.181  -1.910  -2.799  0.00  0.00    -0.168 F 
ENDBRANCH  21  27
ENDBRANCH  19  21
ENDBRANCH   1  18
TORSDOF 6
ENDMDL
MODEL 3
REMARK VINA RESULT:      -7.0      1.885      3.527
REMARK  6 active torsions:
REMARK  status: ('A' for Active; 'I' for Inactive)
REMARK    1  A    between atoms: C_1  and  C_2 
REMARK    2  A    between atoms: C_2  and  C_4 
REMARK    3  A    between atoms: C_2  and  N_10 
REMARK    4  A    between atoms: C_11  and  C_13 
REMARK    5  A    between atoms: C_13  and  C_14 
REMARK    6  A    between atoms: C_13  and  C_18 
ROOT
ATOM      1  C   LIG d   1       2.746   0.491  -7.344  0.00  0.00     0.072 C 
ATOM      2  H   LIG d   1       1.742   0.654  -6.951  0.00  0.00     0.059 H 
ENDROOT
BRANCH   1   3
ATOM      3  C   LIG d   1       3.186   1.719  -8.144  0.00  0.00    -0.039 C 
ATOM      4  H   LIG d   1       3.614   2.459  -7.466  0.00  0.00     0.025 H 
ATOM      5  H   LIG d   1       3.933   1.425  -8.880  0.00  0.00     0.025 H 
ATOM      6  H   LIG d   1       2.323   2.150  -8.652  0.00  0.00     0.025 H 
ENDBRANCH   1   3
BRANCH   1   7
ATOM      7  C   LIG d   1       2.742  -0.719  -8.243  0.00  0.00    -0.024 A 
ATOM      8  C   LIG d   1       3.645  -1.743  -8.027  0.00  0.00    -0.057 A 
ATOM      9  C   LIG d   1       3.638  -2.853  -8.850  0.00  0.00    -0.061 A 
ATOM     10  H   LIG d   1       4.354  -1.675  -7.215  0.00  0.00     0.062 H 
ATOM     11  C   LIG d   1       2.735  -2.937  -9.892  0.00  0.00    -0.062 A 
ATOM     12  H   LIG d   1       4.342  -3.656  -8.679  0.00  0.00     0.062 H 
ATOM     13  C   LIG d   1       1.835  -1.910 -10.111  0.00  0.00    -0.061 A 
ATOM     14  H   LIG d   1       2.731  -3.804 -10.536  0.00  0.00     0.062 H 
ATOM     15  C   LIG d   1       1.839  -0.801  -9.287  0.00  0.00    -0.057 A 
ATOM     16  H   LIG d   1       1.129  -1.976 -10.925  0.00  0.00     0.062 H 
ATOM     17  H   LIG d   1       1.135   0.001  -9.457  0.00  0.00     0.062 H 
ENDBRANCH   1   7
BRANCH   1  18
ATOM     18  N   LIG d   1       3.676   0.273  -6.234  0.00  0.00    -0.294 NA
ATOM     19  C   LIG d   1       3.230   0.178  -5.027  0.00  0.00    -0.002 C 
ATOM     20  O   LIG d   1       1.906   0.281  -4.787  0.00  0.00    -0.862 OA
BRANCH  19  21
ATOM     21  C   LIG d   1       4.187  -0.048  -3.885  0.00  0.00     0.261 C 
ATOM     22 CL   LIG d   1       5.880  -0.023  -4.506  0.00  0.00    -0.094 Cl
BRANCH  21  23
ATOM     23  C   LIG d   1       4.009   1.059  -2.844  0.00  0.00     0.421 C 
ATOM     24  F   LIG d   1       2.979   0.710  -1.963  0.00  0.00    -0.168 F 
ATOM     25  F   LIG d   1       5.200   1.220  -2.128  0.00  0.00    -0.168 F 
ATOM     26  F   LIG d   1       3.686   2.257  -3.488  0.00  0.00    -0.168 F 
ENDBRANCH  21  23
BRANCH  21  27
ATOM     27  C   LIG d   1       3.901  -1.406  -3.240  0.00  0.00     0.421 C 
ATOM     28  F   LIG d   1       4.798  -1.620  -2.188  0.00  0.00    -0.168 F 
ATOM     29  F   LIG d   1       2.592  -1.422  -2.747  0.00  0.00    -0.168 F 
ATOM     30  F   LIG d   1       4.052  -2.417  -4.195  0.00  0.00    -0.168 F 
ENDBRANCH  21  27
ENDBRANCH  19  21
ENDBRANCH   1  18
TORSDOF 6
ENDMDL
MODEL 4
REMARK VINA RESULT:      -6.7      2.984      3.949
REMARK  6 active torsions:
REMARK  status: ('A' for Active; 'I' for Inactive)
REMARK    1  A    between atoms: C_1  and  C_2 
REMARK    2  A    between atoms: C_2  and  C_4 
REMARK    3  A    between atoms: C_2  and  N_10 
REMARK    4  A    between atoms: C_11  and  C_13 
REMARK    5  A    between atoms: C_13  and  C_14 
REMARK    6  A    between atoms: C_13  and  C_18 
ROOT
ATOM      1  C   LIG d   1       7.550   0.095  -5.310  0.00  0.00     0.072 C 
ATOM      2  H   LIG d   1       8.036  -0.691  -4.732  0.00  0.00     0.059 H 
ENDROOT
BRANCH   1   3
ATOM      3  C   LIG d   1       7.585  -0.270  -6.796  0.00  0.00    -0.039 C 
ATOM      4  H   LIG d   1       7.467   0.634  -7.394  0.00  0.00     0.025 H 
ATOM      5  H   LIG d   1       8.538  -0.741  -7.033  0.00  0.00     0.025 H 
ATOM      6  H   LIG d   1       6.772  -0.960  -7.019  0.00  0.00     0.025 H 
ENDBRANCH   1   3
BRANCH   1   7
ATOM      7  C   LIG d   1       8.277   1.398  -5.096  0.00  0.00    -0.024 A 
ATOM      8  C   LIG d   1       8.533   1.843  -3.813  0.00  0.00    -0.057 A 
ATOM      9  C   LIG d   1       9.203   3.036  -3.617  0.00  0.00    -0.061 A 
ATOM     10  H   LIG d   1       8.212   1.258  -2.963  0.00  0.00     0.062 H 
ATOM     11  C   LIG d   1       9.611   3.787  -4.703  0.00  0.00    -0.062 A 
ATOM     12  H   LIG d   1       9.407   3.382  -2.613  0.00  0.00     0.062 H 
ATOM     13  C   LIG d   1       9.350   3.344  -5.987  0.00  0.00    -0.061 A 
ATOM     14  H   LIG d   1      10.133   4.720  -4.550  0.00  0.00     0.062 H 
ATOM     15  C   LIG d   1       8.683   2.149  -6.183  0.00  0.00    -0.057 A 
ATOM     16  H   LIG d   1       9.669   3.931  -6.835  0.00  0.00     0.062 H 
ATOM     17  H   LIG d   1       8.480   1.802  -7.186  0.00  0.00     0.062 H 
ENDBRANCH   1   7
BRANCH   1  18
ATOM     18  N   LIG d   1       6.159   0.234  -4.874  0.00  0.00    -0.294 NA
ATOM     19  C   LIG d   1       5.763  -0.339  -3.787  0.00  0.00    -0.002 C 
ATOM     20  O   LIG d   1       6.630  -1.066  -3.054  0.00  0.00    -0.862 OA
BRANCH  19  21
ATOM     21  C   LIG d   1       4.331  -0.195  -3.339  0.00  0.00     0.261 C 
ATOM     22 CL   LIG d   1       3.286   0.154  -4.766  0.00  0.00    -0.094 Cl
BRANCH  21  23
ATOM     23  C   LIG d   1       3.872  -1.494  -2.675  0.00  0.00     0.421 C 
ATOM     24  F   LIG d   1       4.505  -1.635  -1.435  0.00  0.00    -0.168 F 
ATOM     25  F   LIG d   1       2.486  -1.458  -2.489  0.00  0.00    -0.168 F 
ATOM     26  F   LIG d   1       4.204  -2.578  -3.494  0.00  0.00    -0.168 F 
ENDBRANCH  21  23
BRANCH  21  27
ATOM     27  C   LIG d   1       4.225   0.956  -2.335  0.00  0.00     0.421 C 
ATOM     28  F   LIG d   1       4.781   0.560  -1.113  0.00  0.00    -0.168 F 
ATOM     29  F   LIG d   1       4.918   2.068  -2.824  0.00  0.00    -0.168 F 
ATOM     30  F   LIG d   1       2.879   1.290  -2.149  0.00  0.00    -0.168 F 
ENDBRANCH  21  27
ENDBRANCH  19  21
ENDBRANCH   1  18
TORSDOF 6
ENDMDL
MODEL 5
REMARK VINA RESULT:      -6.7      3.113      4.289
REMARK  6 active torsions:
REMARK  status: ('A' for Active; 'I' for Inactive)
REMARK    1  A    between atoms: C_1  and  C_2 
REMARK    2  A    between atoms: C_2  and  C_4 
REMARK    3  A    between atoms: C_2  and  N_10 
REMARK    4  A    between atoms: C_11  and  C_13 
REMARK    5  A    between atoms: C_13  and  C_14 
REMARK    6  A    between atoms: C_13  and  C_18 
ROOT
ATOM      1  C   LIG d   1       7.286   0.325  -5.334  0.00  0.00     0.072 C 
ATOM      2  H   LIG d   1       7.810  -0.561  -4.974  0.00  0.00     0.059 H 
ENDROOT
BRANCH   1   3
ATOM      3  C   LIG d   1       7.021   0.187  -6.835  0.00  0.00    -0.039 C 
ATOM      4  H   LIG d   1       6.610  -0.801  -7.041  0.00  0.00     0.025 H 
ATOM      5  H   LIG d   1       6.310   0.950  -7.150  0.00  0.00     0.025 H 
ATOM      6  H   LIG d   1       7.956   0.313  -7.381  0.00  0.00     0.025 H 
ENDBRANCH   1   3
BRANCH   1   7
ATOM      7  C   LIG d   1       8.134   1.545  -5.083  0.00  0.00    -0.024 A 
ATOM      8  C   LIG d   1       8.402   1.946  -3.788  0.00  0.00    -0.057 A 
ATOM      9  C   LIG d   1       9.183   3.064  -3.559  0.00  0.00    -0.061 A 
ATOM     10  H   LIG d   1       8.004   1.385  -2.955  0.00  0.00     0.062 H 
ATOM     11  C   LIG d   1       9.688   3.784  -4.624  0.00  0.00    -0.062 A 
ATOM     12  H   LIG d   1       9.396   3.374  -2.546  0.00  0.00     0.062 H 
ATOM     13  C   LIG d   1       9.416   3.386  -5.920  0.00  0.00    -0.061 A 
ATOM     14  H   LIG d   1      10.297   4.659  -4.445  0.00  0.00     0.062 H 
ATOM     15  C   LIG d   1       8.638   2.267  -6.149  0.00  0.00    -0.057 A 
ATOM     16  H   LIG d   1       9.811   3.949  -6.752  0.00  0.00     0.062 H 
ATOM     17  H   LIG d   1       8.425   1.955  -7.161  0.00  0.00     0.062 H 
ENDBRANCH   1   7
BRANCH   1  18
ATOM     18  N   LIG d   1       6.012   0.460  -4.624  0.00  0.00    -0.294 NA
ATOM     19  C   LIG d   1       5.678  -0.406  -3.727  0.00  0.00    -0.002 C 
ATOM     20  O   LIG d   1       6.501  -1.436  -3.444  0.00  0.00    -0.862 OA
BRANCH  19  21
ATOM     21  C   LIG d   1       4.367  -0.266  -2.996  0.00  0.00     0.261 C 
ATOM     22 CL   LIG d   1       4.147  -1.666  -1.881  0.00  0.00    -0.094 Cl
BRANCH  21  23
ATOM     23  C   LIG d   1       4.369   1.034  -2.189  0.00  0.00     0.421 C 
ATOM     24  F   LIG d   1       5.138   1.995  -2.854  0.00  0.00    -0.168 F 
ATOM     25  F   LIG d   1       3.057   1.500  -2.053  0.00  0.00    -0.168 F 
ATOM     26  F   LIG d   1       4.914   0.795  -0.924  0.00  0.00    -0.168 F 
ENDBRANCH  21  23
BRANCH  21  27
ATOM     27  C   LIG d   1       3.219  -0.235  -4.009  0.00  0.00     0.421 C 
ATOM     28  F   LIG d   1       3.562  -1.009  -5.124  0.00  0.00    -0.168 F 
ATOM     29  F   LIG d   1       2.062  -0.755  -3.419  0.00  0.00    -0.168 F 
ATOM     30  F   LIG d   1       2.986   1.084  -4.411  0.00  0.00    -0.168 F 
ENDBRANCH  21  27
ENDBRANCH  19  21
ENDBRANCH   1  18
TORSDOF 6
ENDMDL
MODEL 6
REMARK VINA RESULT:      -6.5      1.885      3.137
REMARK  6 active torsions:
REMARK  status: ('A' for Active; 'I' for Inactive)
REMARK    1  A    between atoms: C_1  and  C_2 
REMARK    2  A    between atoms: C_2  and  C_4 
REMARK    3  A    between atoms: C_2  and  N_10 
REMARK    4  A    between atoms: C_11  and  C_13 
REMARK    5  A    between atoms: C_13  and  C_14 
REMARK    6  A    between atoms: C_13  and  C_18 
ROOT
ATOM      1  C   LIG d   1       3.978  -0.060  -7.353  0.00  0.00     0.072 C 
ATOM      2  H   LIG d   1       3.397   0.767  -6.944  0.00  0.00     0.059 H 
ENDROOT
BRANCH   1   3
ATOM      3  C   LIG d   1       5.238   0.486  -8.028  0.00  0.00    -0.039 C 
ATOM      4  H   LIG d   1       6.065   0.475  -7.318  0.00  0.00     0.025 H 
ATOM      5  H   LIG d   1       5.488  -0.136  -8.888  0.00  0.00     0.025 H 
ATOM      6  H   LIG d   1       5.058   1.509  -8.359  0.00  0.00     0.025 H 
ENDBRANCH   1   3
BRANCH   1   7
ATOM      7  C   LIG d   1       3.147  -0.805  -8.366  0.00  0.00    -0.024 A 
ATOM      8  C   LIG d   1       3.395  -2.142  -8.614  0.00  0.00    -0.057 A 
ATOM      9  C   LIG d   1       2.630  -2.825  -9.541  0.00  0.00    -0.061 A 
ATOM     10  H   LIG d   1       4.185  -2.653  -8.083  0.00  0.00     0.062 H 
ATOM     11  C   LIG d   1       1.623  -2.170 -10.224  0.00  0.00    -0.062 A 
ATOM     12  H   LIG d   1       2.821  -3.871  -9.731  0.00  0.00     0.062 H 
ATOM     13  C   LIG d   1       1.378  -0.832  -9.979  0.00  0.00    -0.061 A 
ATOM     14  H   LIG d   1       1.026  -2.704 -10.949  0.00  0.00     0.062 H 
ATOM     15  C   LIG d   1       2.141  -0.148  -9.050  0.00  0.00    -0.057 A 
ATOM     16  H   LIG d   1       0.591  -0.321 -10.513  0.00  0.00     0.062 H 
ATOM     17  H   LIG d   1       1.950   0.897  -8.858  0.00  0.00     0.062 H 
ENDBRANCH   1   7
BRANCH   1  18
ATOM     18  N   LIG d   1       4.361  -0.969  -6.270  0.00  0.00    -0.294 NA
ATOM     19  C   LIG d   1       4.271  -0.585  -5.042  0.00  0.00    -0.002 C 
ATOM     20  O   LIG d   1       3.827   0.656  -4.754  0.00  0.00    -0.862 OA
BRANCH  19  21
ATOM     21  C   LIG d   1       4.664  -1.521  -3.928  0.00  0.00     0.261 C 
ATOM     22 CL   LIG d   1       4.737  -3.209  -4.559  0.00  0.00    -0.094 Cl
BRANCH  21  23
ATOM     23  C   LIG d   1       6.037  -1.120  -3.385  0.00  0.00     0.421 C 
ATOM     24  F   LIG d   1       6.429  -2.025  -2.393  0.00  0.00    -0.168 F 
ATOM     25  F   LIG d   1       6.972  -1.136  -4.425  0.00  0.00    -0.168 F 
ATOM     26  F   LIG d   1       5.965   0.166  -2.841  0.00  0.00    -0.168 F 
ENDBRANCH  21  23
BRANCH  21  27
ATOM     27  C   LIG d   1       3.628  -1.441  -2.805  0.00  0.00     0.421 C 
ATOM     28  F   LIG d   1       3.593  -2.658  -2.116  0.00  0.00    -0.168 F 
ATOM     29  F   LIG d   1       3.977  -0.414  -1.921  0.00  0.00    -0.168 F 
ATOM     30  F   LIG d   1       2.367  -1.178  -3.351  0.00  0.00    -0.168 F 
ENDBRANCH  21  27
ENDBRANCH  19  21
ENDBRANCH   1  18
TORSDOF 6
ENDMDL
MODEL 7
REMARK VINA RESULT:      -6.4      4.115      6.104
REMARK  6 active torsions:
REMARK  status: ('A' for Active; 'I' for Inactive)
REMARK    1  A    between atoms: C_1  and  C_2 
REMARK    2  A    between atoms: C_2  and  C_4 
REMARK    3  A    between atoms: C_2  and  N_10 
REMARK    4  A    between atoms: C_11  and  C_13 
REMARK    5  A    between atoms: C_13  and  C_14 
REMARK    6  A    between atoms: C_13  and  C_18 
ROOT
ATOM      1  C   LIG d   1       5.313  -0.902  -5.767  0.00  0.00     0.072 C 
ATOM      2  H   LIG d   1       4.660  -1.747  -5.988  0.00  0.00     0.059 H 
ENDROOT
BRANCH   1   3
ATOM      3  C   LIG d   1       6.748  -1.400  -5.584  0.00  0.00    -0.039 C 
ATOM      4  H   LIG d   1       7.444  -0.644  -5.947  0.00  0.00     0.025 H 
ATOM      5  H   LIG d   1       6.935  -1.590  -4.528  0.00  0.00     0.025 H 
ATOM      6  H   LIG d   1       6.887  -2.322  -6.150  0.00  0.00     0.025 H 
ENDBRANCH   1   3
BRANCH   1   7
ATOM      7  C   LIG d   1       4.850  -0.228  -4.501  0.00  0.00    -0.024 A 
ATOM      8  C   LIG d   1       5.765   0.402  -3.680  0.00  0.00    -0.057 A 
ATOM      9  C   LIG d   1       5.339   1.024  -2.521  0.00  0.00    -0.061 A 
ATOM     10  H   LIG d   1       6.813   0.410  -3.944  0.00  0.00     0.062 H 
ATOM     11  C   LIG d   1       4.000   1.010  -2.181  0.00  0.00    -0.062 A 
ATOM     12  H   LIG d   1       6.055   1.520  -1.881  0.00  0.00     0.062 H 
ATOM     13  C   LIG d   1       3.085   0.375  -3.000  0.00  0.00    -0.061 A 
ATOM     14  H   LIG d   1       3.668   1.494  -1.274  0.00  0.00     0.062 H 
ATOM     15  C   LIG d   1       3.510  -0.244  -4.161  0.00  0.00    -0.057 A 
ATOM     16  H   LIG d   1       2.039   0.365  -2.734  0.00  0.00     0.062 H 
ATOM     17  H   LIG d   1       2.796  -0.739  -4.802  0.00  0.00     0.062 H 
ENDBRANCH   1   7
BRANCH   1  18
ATOM     18  N   LIG d   1       5.266   0.054  -6.876  0.00  0.00    -0.294 NA
ATOM     19  C   LIG d   1       4.382  -0.080  -7.807  0.00  0.00    -0.002 C 
ATOM     20  O   LIG d   1       3.502  -1.101  -7.759  0.00  0.00    -0.862 OA
BRANCH  19  21
ATOM     21  C   LIG d   1       4.334   0.904  -8.947  0.00  0.00     0.261 C 
ATOM     22 CL   LIG d   1       5.744   2.023  -8.836  0.00  0.00    -0.094 Cl
BRANCH  21  23
ATOM     23  C   LIG d   1       4.386   0.148 -10.276  0.00  0.00     0.421 C 
ATOM     24  F   LIG d   1       3.308  -0.741 -10.350  0.00  0.00    -0.168 F 
ATOM     25  F   LIG d   1       4.311   1.060 -11.334  0.00  0.00    -0.168 F 
ATOM     26  F   LIG d   1       5.585  -0.566 -10.359  0.00  0.00    -0.168 F 
ENDBRANCH  21  23
BRANCH  21  27
ATOM     27  C   LIG d   1       3.035   1.711  -8.870  0.00  0.00     0.421 C 
ATOM     28  F   LIG d   1       1.982   0.947  -9.384  0.00  0.00    -0.168 F 
ATOM     29  F   LIG d   1       2.768   2.038  -7.536  0.00  0.00    -0.168 F 
ATOM     30  F   LIG d   1       3.170   2.885  -9.619  0.00  0.00    -0.168 F 
ENDBRANCH  21  27
ENDBRANCH  19  21
ENDBRANCH   1  18
TORSDOF 6
ENDMDL
MODEL 8
REMARK VINA RESULT:      -6.3      4.010      6.413
REMARK  6 active torsions:
REMARK  status: ('A' for Active; 'I' for Inactive)
REMARK    1  A    between atoms: C_1  and  C_2 
REMARK    2  A    between atoms: C_2  and  C_4 
REMARK    3  A    between atoms: C_2  and  N_10 
REMARK    4  A    between atoms: C_11  and  C_13 
REMARK    5  A    between atoms: C_13  and  C_14 
REMARK    6  A    between atoms: C_13  and  C_18 
ROOT
ATOM      1  C   LIG d   1       5.882  -0.476  -5.775  0.00  0.00     0.072 C 
ATOM      2  H   LIG d   1       6.100  -1.437  -6.242  0.00  0.00     0.059 H 
ENDROOT
BRANCH   1   3
ATOM      3  C   LIG d   1       7.175   0.333  -5.646  0.00  0.00    -0.039 C 
ATOM      4  H   LIG d   1       7.077   1.044  -4.825  0.00  0.00     0.025 H 
ATOM      5  H   LIG d   1       8.007  -0.341  -5.446  0.00  0.00     0.025 H 
ATOM      6  H   LIG d   1       7.359   0.873  -6.574  0.00  0.00     0.025 H 
ENDBRANCH   1   3
BRANCH   1   7
ATOM      7  C   LIG d   1       5.293  -0.705  -4.407  0.00  0.00    -0.024 A 
ATOM      8  C   LIG d   1       5.364   0.288  -3.449  0.00  0.00    -0.057 A 
ATOM      9  C   LIG d   1       4.820   0.079  -2.196  0.00  0.00    -0.061 A 
ATOM     10  H   LIG d   1       5.842   1.229  -3.681  0.00  0.00     0.062 H 
ATOM     11  C   LIG d   1       4.213  -1.127  -1.898  0.00  0.00    -0.062 A 
ATOM     12  H   LIG d   1       4.871   0.858  -1.449  0.00  0.00     0.062 H 
ATOM     13  C   LIG d   1       4.147  -2.122  -2.855  0.00  0.00    -0.061 A 
ATOM     14  H   LIG d   1       3.789  -1.290  -0.918  0.00  0.00     0.062 H 
ATOM     15  C   LIG d   1       4.688  -1.912  -4.110  0.00  0.00    -0.057 A 
ATOM     16  H   LIG d   1       3.672  -3.064  -2.622  0.00  0.00     0.062 H 
ATOM     17  H   LIG d   1       4.636  -2.690  -4.857  0.00  0.00     0.062 H 
ENDBRANCH   1   7
BRANCH   1  18
ATOM     18  N   LIG d   1       4.925   0.263  -6.602  0.00  0.00    -0.294 NA
ATOM     19  C   LIG d   1       4.780  -0.040  -7.849  0.00  0.00    -0.002 C 
ATOM     20  O   LIG d   1       5.512  -1.035  -8.390  0.00  0.00    -0.862 OA
BRANCH  19  21
ATOM     21  C   LIG d   1       3.795   0.720  -8.699  0.00  0.00     0.261 C 
ATOM     22 CL   LIG d   1       2.792   1.789  -7.647  0.00  0.00    -0.094 Cl
BRANCH  21  23
ATOM     23  C   LIG d   1       4.553   1.573  -9.718  0.00  0.00     0.421 C 
ATOM     24  F   LIG d   1       3.646   2.132 -10.625  0.00  0.00    -0.168 F 
ATOM     25  F   LIG d   1       5.237   2.596  -9.053  0.00  0.00    -0.168 F 
ATOM     26  F   LIG d   1       5.468   0.772 -10.408  0.00  0.00    -0.168 F 
ENDBRANCH  21  23
BRANCH  21  27
ATOM     27  C   LIG d   1       2.887  -0.268  -9.434  0.00  0.00     0.421 C 
ATOM     28  F   LIG d   1       2.626  -1.366  -8.606  0.00  0.00    -0.168 F 
ATOM     29  F   LIG d   1       1.684   0.362  -9.767  0.00  0.00    -0.168 F 
ATOM     30  F   LIG d   1       3.523  -0.705 -10.602  0.00  0.00    -0.168 F 
ENDBRANCH  21  27
ENDBRANCH  19  21
ENDBRANCH   1  18
TORSDOF 6
ENDMDL
MODEL 9
REMARK VINA RESULT:      -6.2      2.039      3.360
REMARK  6 active torsions:
REMARK  status: ('A' for Active; 'I' for Inactive)
REMARK    1  A    between atoms: C_1  and  C_2 
REMARK    2  A    between atoms: C_2  and  C_4 
REMARK    3  A    between atoms: C_2  and  N_10 
REMARK    4  A    between atoms: C_11  and  C_13 
REMARK    5  A    between atoms: C_13  and  C_14 
REMARK    6  A    between atoms: C_13  and  C_18 
ROOT
ATOM      1  C   LIG d   1       5.530  -0.129  -7.021  0.00  0.00     0.072 C 
ATOM      2  H   LIG d   1       5.720  -1.197  -7.120  0.00  0.00     0.059 H 
ENDROOT
BRANCH   1   3
ATOM      3  C   LIG d   1       4.291   0.247  -7.838  0.00  0.00    -0.039 C 
ATOM      4  H   LIG d   1       3.439   0.369  -7.169  0.00  0.00     0.025 H 
ATOM      5  H   LIG d   1       4.475   1.181  -8.368  0.00  0.00     0.025 H 
ATOM      6  H   LIG d   1       4.078  -0.544  -8.557  0.00  0.00     0.025 H 
ENDBRANCH   1   3
BRANCH   1   7
ATOM      7  C   LIG d   1       6.720   0.643  -7.530  0.00  0.00    -0.024 A 
ATOM      8  C   LIG d   1       6.815   0.962  -8.871  0.00  0.00    -0.057 A 
ATOM      9  C   LIG d   1       7.905   1.673  -9.336  0.00  0.00    -0.061 A 
ATOM     10  H   LIG d   1       6.035   0.659  -9.555  0.00  0.00     0.062 H 
ATOM     11  C   LIG d   1       8.904   2.057  -8.462  0.00  0.00    -0.062 A 
ATOM     12  H   LIG d   1       7.976   1.927 -10.384  0.00  0.00     0.062 H 
ATOM     13  C   LIG d   1       8.812   1.733  -7.122  0.00  0.00    -0.061 A 
ATOM     14  H   LIG d   1       9.757   2.611  -8.827  0.00  0.00     0.062 H 
ATOM     15  C   LIG d   1       7.720   1.025  -6.655  0.00  0.00    -0.057 A 
ATOM     16  H   LIG d   1       9.593   2.033  -6.439  0.00  0.00     0.062 H 
ATOM     17  H   LIG d   1       7.648   0.772  -5.608  0.00  0.00     0.062 H 
ENDBRANCH   1   7
BRANCH   1  18
ATOM     18  N   LIG d   1       5.302   0.198  -5.611  0.00  0.00    -0.294 NA
ATOM     19  C   LIG d   1       4.749  -0.667  -4.829  0.00  0.00    -0.002 C 
ATOM     20  O   LIG d   1       4.380  -1.872  -5.310  0.00  0.00    -0.862 OA
BRANCH  19  21
ATOM     21  C   LIG d   1       4.515  -0.331  -3.379  0.00  0.00     0.261 C 
ATOM     22 CL   LIG d   1       5.614   1.012  -2.888  0.00  0.00    -0.094 Cl
BRANCH  21  23
ATOM     23  C   LIG d   1       3.061   0.103  -3.184  0.00  0.00     0.421 C 
ATOM     24  F   LIG d   1       2.577   0.663  -4.372  0.00  0.00    -0.168 F 
ATOM     25  F   LIG d   1       2.285  -1.010  -2.844  0.00  0.00    -0.168 F 
ATOM     26  F   LIG d   1       2.991   1.052  -2.159  0.00  0.00    -0.168 F 
ENDBRANCH  21  23
BRANCH  21  27
ATOM     27  C   LIG d   1       4.800  -1.563  -2.517  0.00  0.00     0.421 C 
ATOM     28  F   LIG d   1       3.957  -2.610  -2.909  0.00  0.00    -0.168 F 
ATOM     29  F   LIG d   1       6.134  -1.951  -2.684  0.00  0.00    -0.168 F 
ATOM     30  F   LIG d   1       4.568  -1.256  -1.172  0.00  0.00    -0.168 F 
ENDBRANCH  21  27
ENDBRANCH  19  21
ENDBRANCH   1  18
TORSDOF 6
ENDMDL
MODEL 10
REMARK VINA RESULT:      -6.2      2.322      3.149
REMARK  6 active torsions:
REMARK  status: ('A' for Active; 'I' for Inactive)
REMARK    1  A    between atoms: C_1  and  C_2 
REMARK    2  A    between atoms: C_2  and  C_4 
REMARK    3  A    between atoms: C_2  and  N_10 
REMARK    4  A    between atoms: C_11  and  C_13 
REMARK    5  A    between atoms: C_13  and  C_14 
REMARK    6  A    between atoms: C_13  and  C_18 
ROOT
ATOM      1  C   LIG d   1       7.688   0.984  -5.019  0.00  0.00     0.072 C 
ATOM      2  H   LIG d   1       7.691   1.870  -4.384  0.00  0.00     0.059 H 
ENDROOT
BRANCH   1   3
ATOM      3  C   LIG d   1       8.888   0.102  -4.669  0.00  0.00    -0.039 C 
ATOM      4  H   LIG d   1       9.805   0.585  -5.006  0.00  0.00     0.025 H 
ATOM      5  H   LIG d   1       8.929  -0.044  -3.589  0.00  0.00     0.025 H 
ATOM      6  H   LIG d   1       8.784  -0.864  -5.163  0.00  0.00     0.025 H 
ENDBRANCH   1   3
BRANCH   1   7
ATOM      7  C   LIG d   1       7.776   1.401  -6.464  0.00  0.00    -0.024 A 
ATOM      8  C   LIG d   1       8.726   2.324  -6.861  0.00  0.00    -0.057 A 
ATOM      9  C   LIG d   1       8.808   2.703  -8.187  0.00  0.00    -0.061 A 
ATOM     10  H   LIG d   1       9.404   2.747  -6.134  0.00  0.00     0.062 H 
ATOM     11  C   LIG d   1       7.937   2.166  -9.116  0.00  0.00    -0.062 A 
ATOM     12  H   LIG d   1       9.554   3.421  -8.498  0.00  0.00     0.062 H 
ATOM     13  C   LIG d   1       6.984   1.247  -8.718  0.00  0.00    -0.061 A 
ATOM     14  H   LIG d   1       8.001   2.464 -10.152  0.00  0.00     0.062 H 
ATOM     15  C   LIG d   1       6.903   0.865  -7.392  0.00  0.00    -0.057 A 
ATOM     16  H   LIG d   1       6.304   0.827  -9.444  0.00  0.00     0.062 H 
ATOM     17  H   LIG d   1       6.159   0.146  -7.082  0.00  0.00     0.062 H 
ENDBRANCH   1   7
BRANCH   1  18
ATOM     18  N   LIG d   1       6.450   0.232  -4.802  0.00  0.00    -0.294 NA
ATOM     19  C   LIG d   1       5.778   0.396  -3.712  0.00  0.00    -0.002 C 
ATOM     20  O   LIG d   1       6.217   1.259  -2.772  0.00  0.00    -0.862 OA
BRANCH  19  21
ATOM     21  C   LIG d   1       4.504  -0.377  -3.489  0.00  0.00     0.261 C 
ATOM     22 CL   LIG d   1       3.920  -1.040  -5.061  0.00  0.00    -0.094 Cl
BRANCH  21  23
ATOM     23  C   LIG d   1       4.769  -1.528  -2.517  0.00  0.00     0.421 C 
ATOM     24  F   LIG d   1       4.548  -1.092  -1.206  0.00  0.00    -0.168 F 
ATOM     25  F   LIG d   1       3.906  -2.590  -2.806  0.00  0.00    -0.168 F 
ATOM     26  F   LIG d   1       6.094  -1.954  -2.649  0.00  0.00    -0.168 F 
ENDBRANCH  21  23
BRANCH  21  27
ATOM     27  C   LIG d   1       3.439   0.553  -2.901  0.00  0.00     0.421 C 
ATOM     28  F   LIG d   1       2.275  -0.179  -2.640  0.00  0.00    -0.168 F 
ATOM     29  F   LIG d   1       3.915   1.114  -1.711  0.00  0.00    -0.168 F 
ATOM     30  F   LIG d   1       3.153   1.572  -3.816  0.00  0.00    -0.168 F 
ENDBRANCH  21  27
ENDBRANCH  19  21
ENDBRANCH   1  18
TORSDOF 6
ENDMDL
